MODEL 1
REMARK VINA RESULT:    -6.645      0.000      0.000
REMARK INTER + INTRA:          -8.252
REMARK INTER:                  -8.005
REMARK INTRA:                  -0.247
REMARK UNBOUND:                -0.247
REMARK SMILES O=c1c(O)c(-c2ccc(O)c(O)c2)oc2cc(O)cc(O)c12
REMARK SMILES IDX 5 1 3 2 2 3 1 4 22 5 20 6 19 7 17 8 16 9 15 10 14 11 6 12
REMARK SMILES IDX 7 13 8 14 9 15 13 16 11 17 10 18 12 20 4 22 21 24 18 26
REMARK H PARENT 10 19 12 21 4 23 21 25 18 27
REMARK Flexibility Score: inf
ROOT
ATOM      1  C   UNL     1      48.435  25.300  11.418  1.00  0.00     0.180 A 
ATOM      2  C   UNL     1      48.745  25.392  12.786  1.00  0.00     0.208 A 
ATOM      3  C   UNL     1      47.997  26.261  13.597  1.00  0.00     0.238 A 
ATOM      4  O   UNL     1      48.244  26.297  14.830  1.00  0.00    -0.285 OA
ATOM      5  C   UNL     1      46.959  27.037  13.028  1.00  0.00     0.111 A 
ATOM      6  C   UNL     1      46.165  27.979  13.748  1.00  0.00     0.134 A 
ATOM      7  C   UNL     1      45.080  28.595  13.112  1.00  0.00     0.093 A 
ATOM      8  C   UNL     1      44.802  28.354  11.765  1.00  0.00     0.123 A 
ATOM      9  C   UNL     1      45.609  27.481  11.038  1.00  0.00     0.094 A 
ATOM     10  C   UNL     1      46.676  26.823  11.654  1.00  0.00     0.146 A 
ATOM     11  O   UNL     1      47.414  25.992  10.927  1.00  0.00    -0.452 OA
ENDROOT
BRANCH   1  12
ATOM     12  C   UNL     1      49.194  24.426  10.495  1.00  0.00     0.025 A 
ATOM     13  C   UNL     1      49.043  23.028  10.520  1.00  0.00     0.016 A 
ATOM     14  C   UNL     1      49.789  22.222   9.656  1.00  0.00     0.051 A 
ATOM     15  C   UNL     1      50.705  22.797   8.765  1.00  0.00     0.157 A 
ATOM     16  C   UNL     1      50.130  24.996   9.615  1.00  0.00     0.062 A 
ATOM     17  C   UNL     1      50.878  24.192   8.749  1.00  0.00     0.158 A 
BRANCH  15  18
ATOM     18  O   UNL     1      51.446  21.990   7.903  1.00  0.00    -0.504 OA
ATOM     19  H   UNL     1      51.128  21.064   7.638  1.00  0.00     0.293 HD
ENDBRANCH  15  18
BRANCH  17  20
ATOM     20  O   UNL     1      51.786  24.794   7.880  1.00  0.00    -0.504 OA
ATOM     21  H   UNL     1      52.577  25.331   8.216  1.00  0.00     0.293 HD
ENDBRANCH  17  20
ENDBRANCH   1  12
BRANCH   2  22
ATOM     22  O   UNL     1      49.760  24.599  13.331  1.00  0.00    -0.502 OA
ATOM     23  H   UNL     1      49.776  23.593  13.230  1.00  0.00     0.293 HD
ENDBRANCH   2  22
BRANCH   6  24
ATOM     24  O   UNL     1      46.413  28.362  15.070  1.00  0.00    -0.507 OA
ATOM     25  H   UNL     1      45.699  28.585  15.746  1.00  0.00     0.293 HD
ENDBRANCH   6  24
BRANCH   8  26
ATOM     26  O   UNL     1      43.731  28.984  11.136  1.00  0.00    -0.508 OA
ATOM     27  H   UNL     1      43.040  29.507  11.662  1.00  0.00     0.293 HD
ENDBRANCH   8  26
TORSDOF 6
ENDMDL
MODEL 2
REMARK VINA RESULT:    -6.197      1.568      6.810
REMARK INTER + INTRA:          -7.713
REMARK INTER:                  -7.614
REMARK INTRA:                  -0.098
REMARK UNBOUND:                -0.247
REMARK SMILES O=c1c(O)c(-c2ccc(O)c(O)c2)oc2cc(O)cc(O)c12
REMARK SMILES IDX 5 1 3 2 2 3 1 4 22 5 20 6 19 7 17 8 16 9 15 10 14 11 6 12
REMARK SMILES IDX 7 13 8 14 9 15 13 16 11 17 10 18 12 20 4 22 21 24 18 26
REMARK H PARENT 10 19 12 21 4 23 21 25 18 27
REMARK Flexibility Score: inf
ROOT
ATOM      1  C   UNL     1      47.409  25.343  11.811  1.00  0.00     0.180 A 
ATOM      2  C   UNL     1      47.258  24.113  12.474  1.00  0.00     0.208 A 
ATOM      3  C   UNL     1      48.015  23.011  12.044  1.00  0.00     0.238 A 
ATOM      4  O   UNL     1      47.916  21.927  12.677  1.00  0.00    -0.285 OA
ATOM      5  C   UNL     1      48.900  23.147  10.948  1.00  0.00     0.111 A 
ATOM      6  C   UNL     1      49.685  22.087  10.404  1.00  0.00     0.134 A 
ATOM      7  C   UNL     1      50.623  22.367   9.403  1.00  0.00     0.093 A 
ATOM      8  C   UNL     1      50.759  23.656   8.882  1.00  0.00     0.123 A 
ATOM      9  C   UNL     1      49.955  24.685   9.366  1.00  0.00     0.094 A 
ATOM     10  C   UNL     1      49.035  24.445  10.389  1.00  0.00     0.146 A 
ATOM     11  O   UNL     1      48.295  25.457  10.829  1.00  0.00    -0.452 OA
ENDROOT
BRANCH   1  12
ATOM     12  C   UNL     1      46.629  26.543  12.189  1.00  0.00     0.025 A 
ATOM     13  C   UNL     1      46.701  27.085  13.485  1.00  0.00     0.016 A 
ATOM     14  C   UNL     1      45.936  28.203  13.826  1.00  0.00     0.051 A 
ATOM     15  C   UNL     1      45.079  28.789  12.885  1.00  0.00     0.157 A 
ATOM     16  C   UNL     1      45.752  27.121  11.256  1.00  0.00     0.062 A 
ATOM     17  C   UNL     1      44.985  28.241  11.594  1.00  0.00     0.158 A 
BRANCH  15  18
ATOM     18  O   UNL     1      44.319  29.906  13.229  1.00  0.00    -0.504 OA
ATOM     19  H   UNL     1      44.588  30.516  13.992  1.00  0.00     0.293 HD
ENDBRANCH  15  18
BRANCH  17  20
ATOM     20  O   UNL     1      44.136  28.795  10.637  1.00  0.00    -0.504 OA
ATOM     21  H   UNL     1      44.478  29.405   9.904  1.00  0.00     0.293 HD
ENDBRANCH  17  20
ENDBRANCH   1  12
BRANCH   2  22
ATOM     22  O   UNL     1      46.394  24.005  13.568  1.00  0.00    -0.502 OA
ATOM     23  H   UNL     1      46.612  23.439  14.378  1.00  0.00     0.293 HD
ENDBRANCH   2  22
BRANCH   6  24
ATOM     24  O   UNL     1      49.563  20.748  10.788  1.00  0.00    -0.507 OA
ATOM     25  H   UNL     1      50.241  20.245  11.339  1.00  0.00     0.293 HD
ENDBRANCH   6  24
BRANCH   8  26
ATOM     26  O   UNL     1      51.684  23.923   7.875  1.00  0.00    -0.508 OA
ATOM     27  H   UNL     1      51.798  23.302   7.082  1.00  0.00     0.293 HD
ENDBRANCH   8  26
TORSDOF 6
ENDMDL
MODEL 3
REMARK VINA RESULT:    -5.656      6.367      8.309
REMARK INTER + INTRA:          -7.061
REMARK INTER:                  -6.750
REMARK INTRA:                  -0.310
REMARK UNBOUND:                -0.247
REMARK SMILES O=c1c(O)c(-c2ccc(O)c(O)c2)oc2cc(O)cc(O)c12
REMARK SMILES IDX 5 1 3 2 2 3 1 4 22 5 20 6 19 7 17 8 16 9 15 10 14 11 6 12
REMARK SMILES IDX 7 13 8 14 9 15 13 16 11 17 10 18 12 20 4 22 21 24 18 26
REMARK H PARENT 10 19 12 21 4 23 21 25 18 27
REMARK Flexibility Score: inf
ROOT
ATOM      1  C   UNL     1      46.170  23.050  17.104  1.00  0.00     0.180 A 
ATOM      2  C   UNL     1      47.012  21.934  17.263  1.00  0.00     0.208 A 
ATOM      3  C   UNL     1      46.948  21.198  18.457  1.00  0.00     0.238 A 
ATOM      4  O   UNL     1      47.664  20.170  18.571  1.00  0.00    -0.285 OA
ATOM      5  C   UNL     1      46.056  21.594  19.482  1.00  0.00     0.111 A 
ATOM      6  C   UNL     1      45.939  20.946  20.748  1.00  0.00     0.134 A 
ATOM      7  C   UNL     1      44.931  21.344  21.636  1.00  0.00     0.093 A 
ATOM      8  C   UNL     1      44.081  22.409  21.331  1.00  0.00     0.123 A 
ATOM      9  C   UNL     1      44.228  23.087  20.123  1.00  0.00     0.094 A 
ATOM     10  C   UNL     1      45.199  22.691  19.201  1.00  0.00     0.146 A 
ATOM     11  O   UNL     1      45.299  23.357  18.057  1.00  0.00    -0.452 OA
ENDROOT
BRANCH   1  12
ATOM     12  C   UNL     1      46.198  23.889  15.885  1.00  0.00     0.025 A 
ATOM     13  C   UNL     1      45.301  23.669  14.824  1.00  0.00     0.016 A 
ATOM     14  C   UNL     1      45.362  24.459  13.673  1.00  0.00     0.051 A 
ATOM     15  C   UNL     1      46.325  25.470  13.558  1.00  0.00     0.157 A 
ATOM     16  C   UNL     1      47.175  24.890  15.755  1.00  0.00     0.062 A 
ATOM     17  C   UNL     1      47.239  25.683  14.605  1.00  0.00     0.158 A 
BRANCH  15  18
ATOM     18  O   UNL     1      46.382  26.258  12.409  1.00  0.00    -0.504 OA
ATOM     19  H   UNL     1      46.516  25.848  11.491  1.00  0.00     0.293 HD
ENDBRANCH  15  18
BRANCH  17  20
ATOM     20  O   UNL     1      48.214  26.675  14.519  1.00  0.00    -0.504 OA
ATOM     21  H   UNL     1      48.038  27.629  14.813  1.00  0.00     0.293 HD
ENDBRANCH  17  20
ENDBRANCH   1  12
BRANCH   2  22
ATOM     22  O   UNL     1      47.869  21.548  16.228  1.00  0.00    -0.502 OA
ATOM     23  H   UNL     1      47.538  21.077  15.396  1.00  0.00     0.293 HD
ENDBRANCH   2  22
BRANCH   6  24
ATOM     24  O   UNL     1      46.795  19.933  21.190  1.00  0.00    -0.507 OA
ATOM     25  H   UNL     1      46.801  18.990  20.833  1.00  0.00     0.293 HD
ENDBRANCH   6  24
BRANCH   8  26
ATOM     26  O   UNL     1      43.092  22.809  22.227  1.00  0.00    -0.508 OA
ATOM     27  H   UNL     1      43.169  23.674  22.750  1.00  0.00     0.293 HD
ENDBRANCH   8  26
TORSDOF 6
ENDMDL
MODEL 4
REMARK VINA RESULT:    -5.640      3.318      6.677
REMARK INTER + INTRA:          -7.042
REMARK INTER:                  -6.767
REMARK INTRA:                  -0.275
REMARK UNBOUND:                -0.247
REMARK SMILES O=c1c(O)c(-c2ccc(O)c(O)c2)oc2cc(O)cc(O)c12
REMARK SMILES IDX 5 1 3 2 2 3 1 4 22 5 20 6 19 7 17 8 16 9 15 10 14 11 6 12
REMARK SMILES IDX 7 13 8 14 9 15 13 16 11 17 10 18 12 20 4 22 21 24 18 26
REMARK H PARENT 10 19 12 21 4 23 21 25 18 27
REMARK Flexibility Score: inf
ROOT
ATOM      1  C   UNL     1      47.008  24.791  13.892  1.00  0.00     0.180 A 
ATOM      2  C   UNL     1      47.398  26.139  13.986  1.00  0.00     0.208 A 
ATOM      3  C   UNL     1      48.217  26.682  12.984  1.00  0.00     0.238 A 
ATOM      4  O   UNL     1      48.517  27.903  13.045  1.00  0.00    -0.285 OA
ATOM      5  C   UNL     1      48.649  25.869  11.909  1.00  0.00     0.111 A 
ATOM      6  C   UNL     1      49.514  26.305  10.860  1.00  0.00     0.134 A 
ATOM      7  C   UNL     1      49.770  25.453   9.779  1.00  0.00     0.093 A 
ATOM      8  C   UNL     1      49.248  24.159   9.741  1.00  0.00     0.123 A 
ATOM      9  C   UNL     1      48.452  23.704  10.790  1.00  0.00     0.094 A 
ATOM     10  C   UNL     1      48.147  24.542  11.865  1.00  0.00     0.146 A 
ATOM     11  O   UNL     1      47.376  24.073  12.838  1.00  0.00    -0.452 OA
ENDROOT
BRANCH   1  12
ATOM     12  C   UNL     1      46.167  24.140  14.922  1.00  0.00     0.025 A 
ATOM     13  C   UNL     1      44.791  23.932  14.719  1.00  0.00     0.016 A 
ATOM     14  C   UNL     1      44.013  23.337  15.715  1.00  0.00     0.051 A 
ATOM     15  C   UNL     1      44.592  22.955  16.933  1.00  0.00     0.157 A 
ATOM     16  C   UNL     1      46.738  23.775  16.153  1.00  0.00     0.062 A 
ATOM     17  C   UNL     1      45.962  23.180  17.153  1.00  0.00     0.158 A 
BRANCH  15  18
ATOM     18  O   UNL     1      43.812  22.361  17.924  1.00  0.00    -0.504 OA
ATOM     19  H   UNL     1      43.979  22.539  18.908  1.00  0.00     0.293 HD
ENDBRANCH  15  18
BRANCH  17  20
ATOM     20  O   UNL     1      46.567  22.819  18.355  1.00  0.00    -0.504 OA
ATOM     21  H   UNL     1      46.235  23.162  19.249  1.00  0.00     0.293 HD
ENDBRANCH  17  20
ENDBRANCH   1  12
BRANCH   2  22
ATOM     22  O   UNL     1      46.941  26.930  15.045  1.00  0.00    -0.502 OA
ATOM     23  H   UNL     1      47.090  26.678  16.014  1.00  0.00     0.293 HD
ENDBRANCH   2  22
BRANCH   6  24
ATOM     24  O   UNL     1      50.162  27.544  10.846  1.00  0.00    -0.507 OA
ATOM     25  H   UNL     1      51.151  27.673  10.698  1.00  0.00     0.293 HD
ENDBRANCH   6  24
BRANCH   8  26
ATOM     26  O   UNL     1      49.522  23.312   8.669  1.00  0.00    -0.508 OA
ATOM     27  H   UNL     1      50.434  22.886   8.550  1.00  0.00     0.293 HD
ENDBRANCH   8  26
TORSDOF 6
ENDMDL
MODEL 5
REMARK VINA RESULT:    -5.632      4.008      7.161
REMARK INTER + INTRA:          -7.032
REMARK INTER:                  -6.838
REMARK INTRA:                  -0.193
REMARK UNBOUND:                -0.247
REMARK SMILES O=c1c(O)c(-c2ccc(O)c(O)c2)oc2cc(O)cc(O)c12
REMARK SMILES IDX 5 1 3 2 2 3 1 4 22 5 20 6 19 7 17 8 16 9 15 10 14 11 6 12
REMARK SMILES IDX 7 13 8 14 9 15 13 16 11 17 10 18 12 20 4 22 21 24 18 26
REMARK H PARENT 10 19 12 21 4 23 21 25 18 27
REMARK Flexibility Score: inf
ROOT
ATOM      1  C   UNL     1      46.516  23.999  14.496  1.00  0.00     0.180 A 
ATOM      2  C   UNL     1      46.389  23.288  13.289  1.00  0.00     0.208 A 
ATOM      3  C   UNL     1      47.087  23.739  12.157  1.00  0.00     0.238 A 
ATOM      4  O   UNL     1      47.012  23.067  11.095  1.00  0.00    -0.285 OA
ATOM      5  C   UNL     1      47.892  24.900  12.241  1.00  0.00     0.111 A 
ATOM      6  C   UNL     1      48.611  25.468  11.146  1.00  0.00     0.134 A 
ATOM      7  C   UNL     1      49.478  26.544  11.375  1.00  0.00     0.093 A 
ATOM      8  C   UNL     1      49.602  27.113  12.644  1.00  0.00     0.123 A 
ATOM      9  C   UNL     1      48.858  26.603  13.706  1.00  0.00     0.094 A 
ATOM     10  C   UNL     1      48.012  25.508  13.518  1.00  0.00     0.146 A 
ATOM     11  O   UNL     1      47.330  25.046  14.559  1.00  0.00    -0.452 OA
ENDROOT
BRANCH   1  12
ATOM     12  C   UNL     1      45.793  23.601  15.724  1.00  0.00     0.025 A 
ATOM     13  C   UNL     1      44.389  23.642  15.792  1.00  0.00     0.016 A 
ATOM     14  C   UNL     1      43.728  23.285  16.971  1.00  0.00     0.051 A 
ATOM     15  C   UNL     1      44.459  22.895  18.101  1.00  0.00     0.157 A 
ATOM     16  C   UNL     1      46.521  23.230  16.867  1.00  0.00     0.062 A 
ATOM     17  C   UNL     1      45.863  22.872  18.048  1.00  0.00     0.158 A 
BRANCH  15  18
ATOM     18  O   UNL     1      43.796  22.538  19.275  1.00  0.00    -0.504 OA
ATOM     19  H   UNL     1      42.847  22.182  19.261  1.00  0.00     0.293 HD
ENDBRANCH  15  18
BRANCH  17  20
ATOM     20  O   UNL     1      46.619  22.496  19.157  1.00  0.00    -0.504 OA
ATOM     21  H   UNL     1      47.087  21.599  19.210  1.00  0.00     0.293 HD
ENDBRANCH  17  20
ENDBRANCH   1  12
BRANCH   2  22
ATOM     22  O   UNL     1      45.607  22.131  13.234  1.00  0.00    -0.502 OA
ATOM     23  H   UNL     1      44.597  22.161  13.174  1.00  0.00     0.293 HD
ENDBRANCH   2  22
BRANCH   6  24
ATOM     24  O   UNL     1      48.489  25.035   9.823  1.00  0.00    -0.507 OA
ATOM     25  H   UNL     1      49.255  24.715   9.251  1.00  0.00     0.293 HD
ENDBRANCH   6  24
BRANCH   8  26
ATOM     26  O   UNL     1      50.455  28.193  12.859  1.00  0.00    -0.508 OA
ATOM     27  H   UNL     1      50.546  28.623  13.773  1.00  0.00     0.293 HD
ENDBRANCH   8  26
TORSDOF 6
ENDMDL
MODEL 6
REMARK VINA RESULT:    -5.619      6.726      9.238
REMARK INTER + INTRA:          -7.016
REMARK INTER:                  -6.794
REMARK INTRA:                  -0.222
REMARK UNBOUND:                -0.247
REMARK SMILES O=c1c(O)c(-c2ccc(O)c(O)c2)oc2cc(O)cc(O)c12
REMARK SMILES IDX 5 1 3 2 2 3 1 4 22 5 20 6 19 7 17 8 16 9 15 10 14 11 6 12
REMARK SMILES IDX 7 13 8 14 9 15 13 16 11 17 10 18 12 20 4 22 21 24 18 26
REMARK H PARENT 10 19 12 21 4 23 21 25 18 27
REMARK Flexibility Score: inf
ROOT
ATOM      1  C   UNL     1      44.663  22.886  17.630  1.00  0.00     0.180 A 
ATOM      2  C   UNL     1      45.903  23.088  16.999  1.00  0.00     0.208 A 
ATOM      3  C   UNL     1      45.927  23.596  15.690  1.00  0.00     0.238 A 
ATOM      4  O   UNL     1      47.041  23.825  15.151  1.00  0.00    -0.285 OA
ATOM      5  C   UNL     1      44.711  23.882  15.023  1.00  0.00     0.111 A 
ATOM      6  C   UNL     1      44.617  24.361  13.682  1.00  0.00     0.134 A 
ATOM      7  C   UNL     1      43.368  24.733  13.170  1.00  0.00     0.093 A 
ATOM      8  C   UNL     1      42.203  24.581  13.926  1.00  0.00     0.123 A 
ATOM      9  C   UNL     1      42.279  24.058  15.215  1.00  0.00     0.094 A 
ATOM     10  C   UNL     1      43.515  23.711  15.768  1.00  0.00     0.146 A 
ATOM     11  O   UNL     1      43.544  23.226  17.003  1.00  0.00    -0.452 OA
ENDROOT
BRANCH   1  12
ATOM     12  C   UNL     1      44.557  22.331  18.998  1.00  0.00     0.025 A 
ATOM     13  C   UNL     1      44.910  20.999  19.278  1.00  0.00     0.016 A 
ATOM     14  C   UNL     1      44.777  20.490  20.572  1.00  0.00     0.051 A 
ATOM     15  C   UNL     1      44.279  21.298  21.603  1.00  0.00     0.157 A 
ATOM     16  C   UNL     1      44.037  23.130  20.031  1.00  0.00     0.062 A 
ATOM     17  C   UNL     1      43.904  22.624  21.328  1.00  0.00     0.158 A 
BRANCH  15  18
ATOM     18  O   UNL     1      44.151  20.787  22.894  1.00  0.00    -0.504 OA
ATOM     19  H   UNL     1      44.722  20.015  23.218  1.00  0.00     0.293 HD
ENDBRANCH  15  18
BRANCH  17  20
ATOM     20  O   UNL     1      43.398  23.451  22.330  1.00  0.00    -0.504 OA
ATOM     21  H   UNL     1      42.591  24.045  22.180  1.00  0.00     0.293 HD
ENDBRANCH  17  20
ENDBRANCH   1  12
BRANCH   2  22
ATOM     22  O   UNL     1      47.093  22.819  17.684  1.00  0.00    -0.502 OA
ATOM     23  H   UNL     1      47.594  21.946  17.579  1.00  0.00     0.293 HD
ENDBRANCH   2  22
BRANCH   6  24
ATOM     24  O   UNL     1      45.705  24.464  12.811  1.00  0.00    -0.507 OA
ATOM     25  H   UNL     1      46.009  23.735  12.184  1.00  0.00     0.293 HD
ENDBRANCH   6  24
BRANCH   8  26
ATOM     26  O   UNL     1      40.963  24.939  13.402  1.00  0.00    -0.508 OA
ATOM     27  H   UNL     1      40.113  24.459  13.677  1.00  0.00     0.293 HD
ENDBRANCH   8  26
TORSDOF 6
ENDMDL
MODEL 7
REMARK VINA RESULT:    -5.616      2.778      3.523
REMARK INTER + INTRA:          -7.013
REMARK INTER:                  -6.683
REMARK INTRA:                  -0.329
REMARK UNBOUND:                -0.247
REMARK SMILES O=c1c(O)c(-c2ccc(O)c(O)c2)oc2cc(O)cc(O)c12
REMARK SMILES IDX 5 1 3 2 2 3 1 4 22 5 20 6 19 7 17 8 16 9 15 10 14 11 6 12
REMARK SMILES IDX 7 13 8 14 9 15 13 16 11 17 10 18 12 20 4 22 21 24 18 26
REMARK H PARENT 10 19 12 21 4 23 21 25 18 27
REMARK Flexibility Score: inf
ROOT
ATOM      1  C   UNL     1      48.172  24.613  12.378  1.00  0.00     0.180 A 
ATOM      2  C   UNL     1      48.230  25.950  11.944  1.00  0.00     0.208 A 
ATOM      3  C   UNL     1      47.066  26.734  11.996  1.00  0.00     0.238 A 
ATOM      4  O   UNL     1      47.138  27.944  11.658  1.00  0.00    -0.285 OA
ATOM      5  C   UNL     1      45.856  26.168  12.466  1.00  0.00     0.111 A 
ATOM      6  C   UNL     1      44.608  26.859  12.522  1.00  0.00     0.134 A 
ATOM      7  C   UNL     1      43.506  26.242  13.127  1.00  0.00     0.093 A 
ATOM      8  C   UNL     1      43.588  24.936  13.616  1.00  0.00     0.123 A 
ATOM      9  C   UNL     1      44.786  24.233  13.510  1.00  0.00     0.094 A 
ATOM     10  C   UNL     1      45.914  24.834  12.946  1.00  0.00     0.146 A 
ATOM     11  O   UNL     1      47.039  24.132  12.874  1.00  0.00    -0.452 OA
ENDROOT
BRANCH   1  12
ATOM     12  C   UNL     1      49.350  23.718  12.330  1.00  0.00     0.025 A 
ATOM     13  C   UNL     1      49.683  23.007  11.164  1.00  0.00     0.016 A 
ATOM     14  C   UNL     1      50.785  22.149  11.150  1.00  0.00     0.051 A 
ATOM     15  C   UNL     1      51.563  21.978  12.303  1.00  0.00     0.157 A 
ATOM     16  C   UNL     1      50.121  23.526  13.490  1.00  0.00     0.062 A 
ATOM     17  C   UNL     1      51.225  22.668  13.480  1.00  0.00     0.158 A 
BRANCH  15  18
ATOM     18  O   UNL     1      52.664  21.122  12.285  1.00  0.00    -0.504 OA
ATOM     19  H   UNL     1      53.576  21.437  11.974  1.00  0.00     0.293 HD
ENDBRANCH  15  18
BRANCH  17  20
ATOM     20  O   UNL     1      51.974  22.514  14.645  1.00  0.00    -0.504 OA
ATOM     21  H   UNL     1      52.299  21.607  14.960  1.00  0.00     0.293 HD
ENDBRANCH  17  20
ENDBRANCH   1  12
BRANCH   2  22
ATOM     22  O   UNL     1      49.441  26.494  11.505  1.00  0.00    -0.502 OA
ATOM     23  H   UNL     1      49.489  27.361  10.985  1.00  0.00     0.293 HD
ENDBRANCH   2  22
BRANCH   6  24
ATOM     24  O   UNL     1      44.393  28.130  11.981  1.00  0.00    -0.507 OA
ATOM     25  H   UNL     1      43.602  28.718  12.193  1.00  0.00     0.293 HD
ENDBRANCH   6  24
BRANCH   8  26
ATOM     26  O   UNL     1      42.482  24.324  14.200  1.00  0.00    -0.508 OA
ATOM     27  H   UNL     1      41.986  24.753  14.974  1.00  0.00     0.293 HD
ENDBRANCH   8  26
TORSDOF 6
ENDMDL
MODEL 8
REMARK VINA RESULT:    -5.538      3.331      6.780
REMARK INTER + INTRA:          -6.919
REMARK INTER:                  -6.622
REMARK INTRA:                  -0.297
REMARK UNBOUND:                -0.247
REMARK SMILES O=c1c(O)c(-c2ccc(O)c(O)c2)oc2cc(O)cc(O)c12
REMARK SMILES IDX 5 1 3 2 2 3 1 4 22 5 20 6 19 7 17 8 16 9 15 10 14 11 6 12
REMARK SMILES IDX 7 13 8 14 9 15 13 16 11 17 10 18 12 20 4 22 21 24 18 26
REMARK H PARENT 10 19 12 21 4 23 21 25 18 27
REMARK Flexibility Score: inf
ROOT
ATOM      1  C   UNL     1      45.854  25.310  12.828  1.00  0.00     0.180 A 
ATOM      2  C   UNL     1      46.460  26.551  13.093  1.00  0.00     0.208 A 
ATOM      3  C   UNL     1      47.621  26.907  12.388  1.00  0.00     0.238 A 
ATOM      4  O   UNL     1      48.127  28.041  12.591  1.00  0.00    -0.285 OA
ATOM      5  C   UNL     1      48.172  26.013  11.439  1.00  0.00     0.111 A 
ATOM      6  C   UNL     1      49.367  26.253  10.698  1.00  0.00     0.134 A 
ATOM      7  C   UNL     1      49.746  25.356   9.691  1.00  0.00     0.093 A 
ATOM      8  C   UNL     1      49.011  24.195   9.445  1.00  0.00     0.123 A 
ATOM      9  C   UNL     1      47.875  23.922  10.204  1.00  0.00     0.094 A 
ATOM     10  C   UNL     1      47.450  24.815  11.191  1.00  0.00     0.146 A 
ATOM     11  O   UNL     1      46.357  24.522  11.885  1.00  0.00    -0.452 OA
ENDROOT
BRANCH   1  12
ATOM     12  C   UNL     1      44.644  24.855  13.547  1.00  0.00     0.025 A 
ATOM     13  C   UNL     1      44.724  23.929  14.603  1.00  0.00     0.016 A 
ATOM     14  C   UNL     1      43.565  23.496  15.251  1.00  0.00     0.051 A 
ATOM     15  C   UNL     1      42.309  23.968  14.847  1.00  0.00     0.157 A 
ATOM     16  C   UNL     1      43.380  25.308  13.132  1.00  0.00     0.062 A 
ATOM     17  C   UNL     1      42.218  24.876  13.779  1.00  0.00     0.158 A 
BRANCH  15  18
ATOM     18  O   UNL     1      41.154  23.534  15.497  1.00  0.00    -0.504 OA
ATOM     19  H   UNL     1      40.946  23.812  16.450  1.00  0.00     0.293 HD
ENDBRANCH  15  18
BRANCH  17  20
ATOM     20  O   UNL     1      40.983  25.359  13.347  1.00  0.00    -0.504 OA
ATOM     21  H   UNL     1      40.649  26.282  13.599  1.00  0.00     0.293 HD
ENDBRANCH  17  20
ENDBRANCH   1  12
BRANCH   2  22
ATOM     22  O   UNL     1      45.887  27.429  14.019  1.00  0.00    -0.502 OA
ATOM     23  H   UNL     1      45.603  27.132  14.944  1.00  0.00     0.293 HD
ENDBRANCH   2  22
BRANCH   6  24
ATOM     24  O   UNL     1      50.224  27.334  10.927  1.00  0.00    -0.507 OA
ATOM     25  H   UNL     1      50.884  27.391  11.687  1.00  0.00     0.293 HD
ENDBRANCH   6  24
BRANCH   8  26
ATOM     26  O   UNL     1      49.404  23.301   8.453  1.00  0.00    -0.508 OA
ATOM     27  H   UNL     1      49.514  22.311   8.644  1.00  0.00     0.293 HD
ENDBRANCH   8  26
TORSDOF 6
ENDMDL
MODEL 9
REMARK VINA RESULT:    -5.515      4.323      7.061
REMARK INTER + INTRA:          -6.891
REMARK INTER:                  -6.669
REMARK INTRA:                  -0.222
REMARK UNBOUND:                -0.247
REMARK SMILES O=c1c(O)c(-c2ccc(O)c(O)c2)oc2cc(O)cc(O)c12
REMARK SMILES IDX 5 1 3 2 2 3 1 4 22 5 20 6 19 7 17 8 16 9 15 10 14 11 6 12
REMARK SMILES IDX 7 13 8 14 9 15 13 16 11 17 10 18 12 20 4 22 21 24 18 26
REMARK H PARENT 10 19 12 21 4 23 21 25 18 27
REMARK Flexibility Score: inf
ROOT
ATOM      1  C   UNL     1      46.525  24.099  15.310  1.00  0.00     0.180 A 
ATOM      2  C   UNL     1      45.455  24.124  14.399  1.00  0.00     0.208 A 
ATOM      3  C   UNL     1      45.512  25.004  13.306  1.00  0.00     0.238 A 
ATOM      4  O   UNL     1      44.576  24.983  12.464  1.00  0.00    -0.285 OA
ATOM      5  C   UNL     1      46.629  25.858  13.146  1.00  0.00     0.111 A 
ATOM      6  C   UNL     1      46.772  26.817  12.098  1.00  0.00     0.134 A 
ATOM      7  C   UNL     1      47.978  27.516  11.964  1.00  0.00     0.093 A 
ATOM      8  C   UNL     1      49.020  27.339  12.877  1.00  0.00     0.123 A 
ATOM      9  C   UNL     1      48.866  26.449  13.937  1.00  0.00     0.094 A 
ATOM     10  C   UNL     1      47.689  25.710  14.078  1.00  0.00     0.146 A 
ATOM     11  O   UNL     1      47.588  24.865  15.097  1.00  0.00    -0.452 OA
ENDROOT
BRANCH   1  12
ATOM     12  C   UNL     1      46.526  23.218  16.499  1.00  0.00     0.025 A 
ATOM     13  C   UNL     1      47.357  22.085  16.571  1.00  0.00     0.016 A 
ATOM     14  C   UNL     1      47.323  21.254  17.693  1.00  0.00     0.051 A 
ATOM     15  C   UNL     1      46.451  21.533  18.754  1.00  0.00     0.157 A 
ATOM     16  C   UNL     1      45.638  23.480  17.556  1.00  0.00     0.062 A 
ATOM     17  C   UNL     1      45.601  22.650  18.682  1.00  0.00     0.158 A 
BRANCH  15  18
ATOM     18  O   UNL     1      46.421  20.702  19.874  1.00  0.00    -0.504 OA
ATOM     19  H   UNL     1      46.970  20.907  20.701  1.00  0.00     0.293 HD
ENDBRANCH  15  18
BRANCH  17  20
ATOM     20  O   UNL     1      44.717  22.950  19.716  1.00  0.00    -0.504 OA
ATOM     21  H   UNL     1      43.715  22.839  19.617  1.00  0.00     0.293 HD
ENDBRANCH  17  20
ENDBRANCH   1  12
BRANCH   2  22
ATOM     22  O   UNL     1      44.370  23.257  14.564  1.00  0.00    -0.502 OA
ATOM     23  H   UNL     1      43.807  23.246  15.404  1.00  0.00     0.293 HD
ENDBRANCH   2  22
BRANCH   6  24
ATOM     24  O   UNL     1      45.761  27.137  11.189  1.00  0.00    -0.507 OA
ATOM     25  H   UNL     1      45.201  27.975  11.225  1.00  0.00     0.293 HD
ENDBRANCH   6  24
BRANCH   8  26
ATOM     26  O   UNL     1      50.210  28.051  12.745  1.00  0.00    -0.508 OA
ATOM     27  H   UNL     1      50.889  28.093  13.497  1.00  0.00     0.293 HD
ENDBRANCH   8  26
TORSDOF 6
ENDMDL
