MODEL 1
REMARK VINA RESULT:    -4.079      0.000      0.000
REMARK INTER + INTRA:          -7.760
REMARK INTER:                  -7.418
REMARK INTRA:                  -0.343
REMARK UNBOUND:                -0.343
REMARK SMILES CCCCCCCCCCCCCCCC(=O)[O-]
REMARK SMILES IDX 9 1 10 2 11 3 12 4 13 5 14 6 15 7 16 8 17 9 18 10 8 11 7 12
REMARK SMILES IDX 6 13 5 14 4 15 3 16 2 17 1 18
REMARK H PARENT
REMARK Flexibility Score: inf
ROOT
ATOM      1  C   UNL     1       0.796  16.034  21.918  1.00  0.00     0.000 C 
ENDROOT
BRANCH   1   2
ATOM      2  C   UNL     1      -0.512  16.453  22.607  1.00  0.00     0.000 C 
BRANCH   2   3
ATOM      3  C   UNL     1      -1.537  16.952  21.580  1.00  0.00     0.000 C 
BRANCH   3   4
ATOM      4  C   UNL     1      -2.767  16.032  21.539  1.00  0.00     0.000 C 
BRANCH   4   5
ATOM      5  C   UNL     1      -4.011  16.674  22.175  1.00  0.00     0.000 C 
BRANCH   5   6
ATOM      6  C   UNL     1      -5.141  15.659  22.417  1.00  0.00     0.006 C 
BRANCH   6   7
ATOM      7  C   UNL     1      -5.831  15.238  21.112  1.00  0.00     0.053 C 
BRANCH   7   8
ATOM      8  C   UNL     1      -7.288  15.584  21.115  1.00  0.00     0.041 C 
ATOM      9  O   UNL     1      -8.125  14.798  21.632  1.00  0.00    -0.550 OA
ATOM     10  O   UNL     1      -7.720  16.788  20.574  1.00  0.00    -0.550 OA
ENDBRANCH   7   8
ENDBRANCH   6   7
ENDBRANCH   5   6
ENDBRANCH   4   5
ENDBRANCH   3   4
ENDBRANCH   2   3
ENDBRANCH   1   2
BRANCH   1  11
ATOM     11  C   UNL     1       2.015  16.130  22.849  1.00  0.00     0.000 C 
BRANCH  11  12
ATOM     12  C   UNL     1       3.343  16.203  22.077  1.00  0.00    -0.000 C 
BRANCH  12  13
ATOM     13  C   UNL     1       4.384  15.198  22.596  1.00  0.00    -0.000 C 
BRANCH  13  14
ATOM     14  C   UNL     1       5.750  15.844  22.872  1.00  0.00    -0.000 C 
BRANCH  14  15
ATOM     15  C   UNL     1       6.535  16.046  21.569  1.00  0.00    -0.000 C 
BRANCH  15  16
ATOM     16  C   UNL     1       8.006  16.381  21.859  1.00  0.00    -0.000 C 
BRANCH  16  17
ATOM     17  C   UNL     1       8.557  17.473  20.931  1.00  0.00    -0.003 C 
ATOM     18  C   UNL     1       9.952  17.147  20.396  1.00  0.00     0.004 C 
ENDBRANCH  16  17
ENDBRANCH  15  16
ENDBRANCH  14  15
ENDBRANCH  13  14
ENDBRANCH  12  13
ENDBRANCH  11  12
ENDBRANCH   1  11
TORSDOF 14
ENDMDL
MODEL 2
REMARK VINA RESULT:    -3.980      5.716     11.854
REMARK INTER + INTRA:          -7.580
REMARK INTER:                  -7.196
REMARK INTRA:                  -0.385
REMARK UNBOUND:                -0.343
REMARK SMILES CCCCCCCCCCCCCCCC(=O)[O-]
REMARK SMILES IDX 9 1 10 2 11 3 12 4 13 5 14 6 15 7 16 8 17 9 18 10 8 11 7 12
REMARK SMILES IDX 6 13 5 14 4 15 3 16 2 17 1 18
REMARK H PARENT
REMARK Flexibility Score: inf
ROOT
ATOM      1  C   UNL     1       0.329  15.978  21.969  1.00  0.00     0.000 C 
ENDROOT
BRANCH   1   2
ATOM      2  C   UNL     1       1.585  16.023  22.853  1.00  0.00     0.000 C 
BRANCH   2   3
ATOM      3  C   UNL     1       2.813  16.453  22.039  1.00  0.00     0.000 C 
BRANCH   3   4
ATOM      4  C   UNL     1       4.040  15.605  22.406  1.00  0.00     0.000 C 
BRANCH   4   5
ATOM      5  C   UNL     1       5.326  16.092  21.719  1.00  0.00     0.000 C 
BRANCH   5   6
ATOM      6  C   UNL     1       6.597  15.511  22.362  1.00  0.00     0.006 C 
BRANCH   6   7
ATOM      7  C   UNL     1       7.684  16.575  22.564  1.00  0.00     0.053 C 
BRANCH   7   8
ATOM      8  C   UNL     1       8.709  16.539  21.472  1.00  0.00     0.041 C 
ATOM      9  O   UNL     1       8.839  17.519  20.693  1.00  0.00    -0.550 OA
ATOM     10  O   UNL     1       9.541  15.435  21.334  1.00  0.00    -0.550 OA
ENDBRANCH   7   8
ENDBRANCH   6   7
ENDBRANCH   5   6
ENDBRANCH   4   5
ENDBRANCH   3   4
ENDBRANCH   2   3
ENDBRANCH   1   2
BRANCH   1  11
ATOM     11  C   UNL     1      -0.875  16.685  22.612  1.00  0.00     0.000 C 
BRANCH  11  12
ATOM     12  C   UNL     1      -2.202  16.344  21.912  1.00  0.00    -0.000 C 
BRANCH  12  13
ATOM     13  C   UNL     1      -3.404  16.394  22.870  1.00  0.00    -0.000 C 
BRANCH  13  14
ATOM     14  C   UNL     1      -4.742  16.570  22.137  1.00  0.00    -0.000 C 
BRANCH  14  15
ATOM     15  C   UNL     1      -5.310  15.215  21.695  1.00  0.00    -0.000 C 
BRANCH  15  16
ATOM     16  C   UNL     1      -6.613  15.397  20.902  1.00  0.00    -0.000 C 
BRANCH  16  17
ATOM     17  C   UNL     1      -7.825  14.765  21.604  1.00  0.00    -0.003 C 
ATOM     18  C   UNL     1      -8.477  15.704  22.619  1.00  0.00     0.004 C 
ENDBRANCH  16  17
ENDBRANCH  15  16
ENDBRANCH  14  15
ENDBRANCH  13  14
ENDBRANCH  12  13
ENDBRANCH  11  12
ENDBRANCH   1  11
TORSDOF 14
ENDMDL
MODEL 3
REMARK VINA RESULT:    -3.961      5.353     11.203
REMARK INTER + INTRA:          -7.545
REMARK INTER:                  -6.886
REMARK INTRA:                  -0.659
REMARK UNBOUND:                -0.343
REMARK SMILES CCCCCCCCCCCCCCCC(=O)[O-]
REMARK SMILES IDX 9 1 10 2 11 3 12 4 13 5 14 6 15 7 16 8 17 9 18 10 8 11 7 12
REMARK SMILES IDX 6 13 5 14 4 15 3 16 2 17 1 18
REMARK H PARENT
REMARK Flexibility Score: inf
ROOT
ATOM      1  C   UNL     1      -0.881  15.998  21.725  1.00  0.00     0.000 C 
ENDROOT
BRANCH   1   2
ATOM      2  C   UNL     1       0.645  16.151  21.644  1.00  0.00     0.000 C 
BRANCH   2   3
ATOM      3  C   UNL     1       1.286  16.004  23.030  1.00  0.00     0.000 C 
BRANCH   3   4
ATOM      4  C   UNL     1       2.819  16.033  22.933  1.00  0.00     0.000 C 
BRANCH   4   5
ATOM      5  C   UNL     1       3.322  16.818  21.711  1.00  0.00     0.000 C 
BRANCH   5   6
ATOM      6  C   UNL     1       4.777  16.474  21.346  1.00  0.00     0.006 C 
BRANCH   6   7
ATOM      7  C   UNL     1       5.377  15.422  22.288  1.00  0.00     0.053 C 
BRANCH   7   8
ATOM      8  C   UNL     1       6.873  15.394  22.211  1.00  0.00     0.041 C 
ATOM      9  O   UNL     1       7.462  14.407  21.696  1.00  0.00    -0.550 OA
ATOM     10  O   UNL     1       7.616  16.469  22.680  1.00  0.00    -0.550 OA
ENDBRANCH   7   8
ENDBRANCH   6   7
ENDBRANCH   5   6
ENDBRANCH   4   5
ENDBRANCH   3   4
ENDBRANCH   2   3
ENDBRANCH   1   2
BRANCH   1  11
ATOM     11  C   UNL     1      -1.625  17.323  21.492  1.00  0.00     0.000 C 
BRANCH  11  12
ATOM     12  C   UNL     1      -3.066  17.293  22.028  1.00  0.00    -0.000 C 
BRANCH  12  13
ATOM     13  C   UNL     1      -3.606  15.863  22.191  1.00  0.00    -0.000 C 
BRANCH  13  14
ATOM     14  C   UNL     1      -5.114  15.825  22.483  1.00  0.00    -0.000 C 
BRANCH  14  15
ATOM     15  C   UNL     1      -5.900  15.351  21.255  1.00  0.00    -0.000 C 
BRANCH  15  16
ATOM     16  C   UNL     1      -7.283  14.818  21.659  1.00  0.00    -0.000 C 
BRANCH  16  17
ATOM     17  C   UNL     1      -8.402  15.847  21.435  1.00  0.00    -0.003 C 
ATOM     18  C   UNL     1      -7.959  17.021  20.561  1.00  0.00     0.004 C 
ENDBRANCH  16  17
ENDBRANCH  15  16
ENDBRANCH  14  15
ENDBRANCH  13  14
ENDBRANCH  12  13
ENDBRANCH  11  12
ENDBRANCH   1  11
TORSDOF 14
ENDMDL
MODEL 4
REMARK VINA RESULT:    -3.907      4.866     11.243
REMARK INTER + INTRA:          -7.447
REMARK INTER:                  -6.636
REMARK INTRA:                  -0.810
REMARK UNBOUND:                -0.343
REMARK SMILES CCCCCCCCCCCCCCCC(=O)[O-]
REMARK SMILES IDX 9 1 10 2 11 3 12 4 13 5 14 6 15 7 16 8 17 9 18 10 8 11 7 12
REMARK SMILES IDX 6 13 5 14 4 15 3 16 2 17 1 18
REMARK H PARENT
REMARK Flexibility Score: inf
ROOT
ATOM      1  C   UNL     1      -3.866  17.050  22.576  1.00  0.00     0.000 C 
ENDROOT
BRANCH   1   2
ATOM      2  C   UNL     1      -2.694  16.268  21.963  1.00  0.00     0.000 C 
BRANCH   2   3
ATOM      3  C   UNL     1      -1.350  16.833  22.438  1.00  0.00     0.000 C 
BRANCH   3   4
ATOM      4  C   UNL     1      -0.177  16.100  21.769  1.00  0.00     0.000 C 
BRANCH   4   5
ATOM      5  C   UNL     1       0.991  15.843  22.734  1.00  0.00     0.000 C 
BRANCH   5   6
ATOM      6  C   UNL     1       2.349  16.262  22.143  1.00  0.00     0.006 C 
BRANCH   6   7
ATOM      7  C   UNL     1       3.523  15.858  23.046  1.00  0.00     0.053 C 
BRANCH   7   8
ATOM      8  C   UNL     1       4.752  15.541  22.252  1.00  0.00     0.041 C 
ATOM      9  O   UNL     1       5.237  16.397  21.466  1.00  0.00    -0.550 OA
ATOM     10  O   UNL     1       5.381  14.311  22.401  1.00  0.00    -0.550 OA
ENDBRANCH   7   8
ENDBRANCH   6   7
ENDBRANCH   5   6
ENDBRANCH   4   5
ENDBRANCH   3   4
ENDBRANCH   2   3
ENDBRANCH   1   2
BRANCH   1  11
ATOM     11  C   UNL     1      -5.168  16.235  22.616  1.00  0.00     0.000 C 
BRANCH  11  12
ATOM     12  C   UNL     1      -5.336  15.329  21.384  1.00  0.00    -0.000 C 
BRANCH  12  13
ATOM     13  C   UNL     1      -6.792  14.885  21.171  1.00  0.00    -0.000 C 
BRANCH  13  14
ATOM     14  C   UNL     1      -7.746  15.443  22.238  1.00  0.00    -0.000 C 
BRANCH  14  15
ATOM     15  C   UNL     1      -8.779  16.389  21.612  1.00  0.00    -0.000 C 
BRANCH  15  16
ATOM     16  C   UNL     1      -8.170  17.166  20.435  1.00  0.00    -0.000 C 
BRANCH  16  17
ATOM     17  C   UNL     1      -8.386  18.682  20.554  1.00  0.00    -0.003 C 
ATOM     18  C   UNL     1      -8.055  19.220  21.946  1.00  0.00     0.004 C 
ENDBRANCH  16  17
ENDBRANCH  15  16
ENDBRANCH  14  15
ENDBRANCH  13  14
ENDBRANCH  12  13
ENDBRANCH  11  12
ENDBRANCH   1  11
TORSDOF 14
ENDMDL
MODEL 5
REMARK VINA RESULT:    -3.876      6.034     11.666
REMARK INTER + INTRA:          -7.391
REMARK INTER:                  -6.937
REMARK INTRA:                  -0.454
REMARK UNBOUND:                -0.343
REMARK SMILES CCCCCCCCCCCCCCCC(=O)[O-]
REMARK SMILES IDX 9 1 10 2 11 3 12 4 13 5 14 6 15 7 16 8 17 9 18 10 8 11 7 12
REMARK SMILES IDX 6 13 5 14 4 15 3 16 2 17 1 18
REMARK H PARENT
REMARK Flexibility Score: inf
ROOT
ATOM      1  C   UNL     1       2.866  16.006  22.011  1.00  0.00     0.000 C 
ENDROOT
BRANCH   1   2
ATOM      2  C   UNL     1       3.991  15.622  22.984  1.00  0.00     0.000 C 
BRANCH   2   3
ATOM      3  C   UNL     1       4.730  14.368  22.500  1.00  0.00     0.000 C 
BRANCH   3   4
ATOM      4  C   UNL     1       6.193  14.689  22.159  1.00  0.00     0.000 C 
BRANCH   4   5
ATOM      5  C   UNL     1       6.421  16.180  21.863  1.00  0.00     0.000 C 
BRANCH   5   6
ATOM      6  C   UNL     1       7.901  16.584  21.965  1.00  0.00     0.006 C 
BRANCH   6   7
ATOM      7  C   UNL     1       8.825  15.584  21.257  1.00  0.00     0.053 C 
BRANCH   7   8
ATOM      8  C   UNL     1       9.795  16.271  20.345  1.00  0.00     0.041 C 
ATOM      9  O   UNL     1      10.649  15.600  19.708  1.00  0.00    -0.550 OA
ATOM     10  O   UNL     1       9.738  17.648  20.176  1.00  0.00    -0.550 OA
ENDBRANCH   7   8
ENDBRANCH   6   7
ENDBRANCH   5   6
ENDBRANCH   4   5
ENDBRANCH   3   4
ENDBRANCH   2   3
ENDBRANCH   1   2
BRANCH   1  11
ATOM     11  C   UNL     1       1.479  16.002  22.674  1.00  0.00     0.000 C 
BRANCH  11  12
ATOM     12  C   UNL     1       0.334  15.966  21.648  1.00  0.00    -0.000 C 
BRANCH  12  13
ATOM     13  C   UNL     1      -0.904  16.748  22.117  1.00  0.00    -0.000 C 
BRANCH  13  14
ATOM     14  C   UNL     1      -2.223  16.061  21.733  1.00  0.00    -0.000 C 
BRANCH  14  15
ATOM     15  C   UNL     1      -3.301  16.310  22.795  1.00  0.00    -0.000 C 
BRANCH  15  16
ATOM     16  C   UNL     1      -4.670  16.557  22.143  1.00  0.00    -0.000 C 
BRANCH  16  17
ATOM     17  C   UNL     1      -5.558  15.304  22.140  1.00  0.00    -0.003 C 
ATOM     18  C   UNL     1      -6.511  15.257  20.945  1.00  0.00     0.004 C 
ENDBRANCH  16  17
ENDBRANCH  15  16
ENDBRANCH  14  15
ENDBRANCH  13  14
ENDBRANCH  12  13
ENDBRANCH  11  12
ENDBRANCH   1  11
TORSDOF 14
ENDMDL
MODEL 6
REMARK VINA RESULT:    -3.816      4.873      8.423
REMARK INTER + INTRA:          -7.281
REMARK INTER:                  -6.301
REMARK INTRA:                  -0.981
REMARK UNBOUND:                -0.343
REMARK SMILES CCCCCCCCCCCCCCCC(=O)[O-]
REMARK SMILES IDX 9 1 10 2 11 3 12 4 13 5 14 6 15 7 16 8 17 9 18 10 8 11 7 12
REMARK SMILES IDX 6 13 5 14 4 15 3 16 2 17 1 18
REMARK H PARENT
REMARK Flexibility Score: inf
ROOT
ATOM      1  C   UNL     1      -8.564  15.285  22.065  1.00  0.00     0.000 C 
ENDROOT
BRANCH   1   2
ATOM      2  C   UNL     1      -8.201  16.565  22.834  1.00  0.00     0.000 C 
BRANCH   2   3
ATOM      3  C   UNL     1      -9.033  17.756  22.342  1.00  0.00     0.000 C 
BRANCH   3   4
ATOM      4  C   UNL     1      -8.201  18.669  21.430  1.00  0.00     0.000 C 
BRANCH   4   5
ATOM      5  C   UNL     1      -8.749  20.105  21.367  1.00  0.00     0.000 C 
BRANCH   5   6
ATOM      6  C   UNL     1      -8.643  20.837  22.716  1.00  0.00     0.006 C 
BRANCH   6   7
ATOM      7  C   UNL     1      -7.228  21.370  22.977  1.00  0.00     0.053 C 
BRANCH   7   8
ATOM      8  C   UNL     1      -7.070  22.783  22.508  1.00  0.00     0.041 C 
ATOM      9  O   UNL     1      -5.936  23.216  22.173  1.00  0.00    -0.550 OA
ATOM     10  O   UNL     1      -8.178  23.615  22.412  1.00  0.00    -0.550 OA
ENDBRANCH   7   8
ENDBRANCH   6   7
ENDBRANCH   5   6
ENDBRANCH   4   5
ENDBRANCH   3   4
ENDBRANCH   2   3
ENDBRANCH   1   2
BRANCH   1  11
ATOM     11  C   UNL     1      -7.331  14.555  21.511  1.00  0.00     0.000 C 
BRANCH  11  12
ATOM     12  C   UNL     1      -6.268  15.523  20.964  1.00  0.00    -0.000 C 
BRANCH  12  13
ATOM     13  C   UNL     1      -4.886  15.305  21.601  1.00  0.00    -0.000 C 
BRANCH  13  14
ATOM     14  C   UNL     1      -4.238  16.613  22.079  1.00  0.00    -0.000 C 
BRANCH  14  15
ATOM     15  C   UNL     1      -2.809  16.367  22.581  1.00  0.00    -0.000 C 
BRANCH  15  16
ATOM     16  C   UNL     1      -1.778  16.695  21.491  1.00  0.00    -0.000 C 
BRANCH  16  17
ATOM     17  C   UNL     1      -0.742  15.577  21.301  1.00  0.00    -0.003 C 
ATOM     18  C   UNL     1       0.634  15.945  21.856  1.00  0.00     0.004 C 
ENDBRANCH  16  17
ENDBRANCH  15  16
ENDBRANCH  14  15
ENDBRANCH  13  14
ENDBRANCH  12  13
ENDBRANCH  11  12
ENDBRANCH   1  11
TORSDOF 14
ENDMDL
MODEL 7
REMARK VINA RESULT:    -3.726      1.257      2.135
REMARK INTER + INTRA:          -7.119
REMARK INTER:                  -6.555
REMARK INTRA:                  -0.564
REMARK UNBOUND:                -0.343
REMARK SMILES CCCCCCCCCCCCCCCC(=O)[O-]
REMARK SMILES IDX 9 1 10 2 11 3 12 4 13 5 14 6 15 7 16 8 17 9 18 10 8 11 7 12
REMARK SMILES IDX 6 13 5 14 4 15 3 16 2 17 1 18
REMARK H PARENT
REMARK Flexibility Score: inf
ROOT
ATOM      1  C   UNL     1       2.945  16.089  23.088  1.00  0.00     0.000 C 
ENDROOT
BRANCH   1   2
ATOM      2  C   UNL     1       1.876  16.141  21.986  1.00  0.00     0.000 C 
BRANCH   2   3
ATOM      3  C   UNL     1       0.468  16.208  22.590  1.00  0.00     0.000 C 
BRANCH   3   4
ATOM      4  C   UNL     1      -0.591  15.766  21.569  1.00  0.00     0.000 C 
BRANCH   4   5
ATOM      5  C   UNL     1      -1.841  16.661  21.583  1.00  0.00     0.000 C 
BRANCH   5   6
ATOM      6  C   UNL     1      -3.147  15.851  21.672  1.00  0.00     0.006 C 
BRANCH   6   7
ATOM      7  C   UNL     1      -4.343  16.723  22.077  1.00  0.00     0.053 C 
BRANCH   7   8
ATOM      8  C   UNL     1      -5.648  16.058  21.767  1.00  0.00     0.041 C 
ATOM      9  O   UNL     1      -5.710  14.805  21.657  1.00  0.00    -0.550 OA
ATOM     10  O   UNL     1      -6.803  16.817  21.628  1.00  0.00    -0.550 OA
ENDBRANCH   7   8
ENDBRANCH   6   7
ENDBRANCH   5   6
ENDBRANCH   4   5
ENDBRANCH   3   4
ENDBRANCH   2   3
ENDBRANCH   1   2
BRANCH   1  11
ATOM     11  C   UNL     1       4.153  15.221  22.702  1.00  0.00     0.000 C 
BRANCH  11  12
ATOM     12  C   UNL     1       5.199  15.995  21.882  1.00  0.00    -0.000 C 
BRANCH  12  13
ATOM     13  C   UNL     1       6.640  15.679  22.312  1.00  0.00    -0.000 C 
BRANCH  13  14
ATOM     14  C   UNL     1       7.043  14.225  22.020  1.00  0.00    -0.000 C 
BRANCH  14  15
ATOM     15  C   UNL     1       8.362  14.168  21.239  1.00  0.00    -0.000 C 
BRANCH  15  16
ATOM     16  C   UNL     1       9.268  15.354  21.600  1.00  0.00    -0.000 C 
BRANCH  16  17
ATOM     17  C   UNL     1       9.852  16.051  20.362  1.00  0.00    -0.003 C 
ATOM     18  C   UNL     1       9.564  17.552  20.336  1.00  0.00     0.004 C 
ENDBRANCH  16  17
ENDBRANCH  15  16
ENDBRANCH  14  15
ENDBRANCH  13  14
ENDBRANCH  12  13
ENDBRANCH  11  12
ENDBRANCH   1  11
TORSDOF 14
ENDMDL
MODEL 8
REMARK VINA RESULT:    -3.656      1.084      1.925
REMARK INTER + INTRA:          -6.990
REMARK INTER:                  -6.524
REMARK INTRA:                  -0.466
REMARK UNBOUND:                -0.343
REMARK SMILES CCCCCCCCCCCCCCCC(=O)[O-]
REMARK SMILES IDX 9 1 10 2 11 3 12 4 13 5 14 6 15 7 16 8 17 9 18 10 8 11 7 12
REMARK SMILES IDX 6 13 5 14 4 15 3 16 2 17 1 18
REMARK H PARENT
REMARK Flexibility Score: inf
ROOT
ATOM      1  C   UNL     1      -1.245  16.285  21.862  1.00  0.00     0.000 C 
ENDROOT
BRANCH   1   2
ATOM      2  C   UNL     1      -2.045  17.588  22.016  1.00  0.00     0.000 C 
BRANCH   2   3
ATOM      3  C   UNL     1      -3.497  17.296  22.414  1.00  0.00     0.000 C 
BRANCH   3   4
ATOM      4  C   UNL     1      -4.011  16.022  21.727  1.00  0.00     0.000 C 
BRANCH   4   5
ATOM      5  C   UNL     1      -5.303  15.483  22.363  1.00  0.00     0.000 C 
BRANCH   5   6
ATOM      6  C   UNL     1      -6.254  14.856  21.329  1.00  0.00     0.006 C 
BRANCH   6   7
ATOM      7  C   UNL     1      -7.729  15.102  21.674  1.00  0.00     0.053 C 
BRANCH   7   8
ATOM      8  C   UNL     1      -8.146  16.507  21.366  1.00  0.00     0.041 C 
ATOM      9  O   UNL     1      -7.981  16.978  20.210  1.00  0.00    -0.550 OA
ATOM     10  O   UNL     1      -8.745  17.287  22.347  1.00  0.00    -0.550 OA
ENDBRANCH   7   8
ENDBRANCH   6   7
ENDBRANCH   5   6
ENDBRANCH   4   5
ENDBRANCH   3   4
ENDBRANCH   2   3
ENDBRANCH   1   2
BRANCH   1  11
ATOM     11  C   UNL     1       0.020  16.258  22.736  1.00  0.00     0.000 C 
BRANCH  11  12
ATOM     12  C   UNL     1       1.296  15.993  21.918  1.00  0.00    -0.000 C 
BRANCH  12  13
ATOM     13  C   UNL     1       2.576  16.352  22.690  1.00  0.00    -0.000 C 
BRANCH  13  14
ATOM     14  C   UNL     1       3.784  15.502  22.267  1.00  0.00    -0.000 C 
BRANCH  14  15
ATOM     15  C   UNL     1       4.866  16.372  21.615  1.00  0.00    -0.000 C 
BRANCH  15  16
ATOM     16  C   UNL     1       6.269  15.923  22.052  1.00  0.00    -0.000 C 
BRANCH  16  17
ATOM     17  C   UNL     1       7.382  16.792  21.446  1.00  0.00    -0.003 C 
ATOM     18  C   UNL     1       8.762  16.140  21.547  1.00  0.00     0.004 C 
ENDBRANCH  16  17
ENDBRANCH  15  16
ENDBRANCH  14  15
ENDBRANCH  13  14
ENDBRANCH  12  13
ENDBRANCH  11  12
ENDBRANCH   1  11
TORSDOF 14
ENDMDL
MODEL 9
REMARK VINA RESULT:    -3.633      2.602      5.171
REMARK INTER + INTRA:          -6.949
REMARK INTER:                  -5.922
REMARK INTRA:                  -1.027
REMARK UNBOUND:                -0.343
REMARK SMILES CCCCCCCCCCCCCCCC(=O)[O-]
REMARK SMILES IDX 9 1 10 2 11 3 12 4 13 5 14 6 15 7 16 8 17 9 18 10 8 11 7 12
REMARK SMILES IDX 6 13 5 14 4 15 3 16 2 17 1 18
REMARK H PARENT
REMARK Flexibility Score: inf
ROOT
ATOM      1  C   UNL     1       6.385  14.947  21.661  1.00  0.00     0.000 C 
ENDROOT
BRANCH   1   2
ATOM      2  C   UNL     1       5.482  15.624  22.704  1.00  0.00     0.000 C 
BRANCH   2   3
ATOM      3  C   UNL     1       4.315  16.354  22.027  1.00  0.00     0.000 C 
BRANCH   3   4
ATOM      4  C   UNL     1       2.972  15.932  22.641  1.00  0.00     0.000 C 
BRANCH   4   5
ATOM      5  C   UNL     1       1.802  16.054  21.652  1.00  0.00     0.000 C 
BRANCH   5   6
ATOM      6  C   UNL     1       0.440  16.165  22.358  1.00  0.00     0.006 C 
BRANCH   6   7
ATOM      7  C   UNL     1      -0.696  15.552  21.528  1.00  0.00     0.053 C 
BRANCH   7   8
ATOM      8  C   UNL     1      -1.949  16.368  21.609  1.00  0.00     0.041 C 
ATOM      9  O   UNL     1      -3.075  15.806  21.566  1.00  0.00    -0.550 OA
ATOM     10  O   UNL     1      -1.875  17.747  21.762  1.00  0.00    -0.550 OA
ENDBRANCH   7   8
ENDBRANCH   6   7
ENDBRANCH   5   6
ENDBRANCH   4   5
ENDBRANCH   3   4
ENDBRANCH   2   3
ENDBRANCH   1   2
BRANCH   1  11
ATOM     11  C   UNL     1       7.107  13.708  22.216  1.00  0.00     0.000 C 
BRANCH  11  12
ATOM     12  C   UNL     1       8.520  14.029  22.731  1.00  0.00    -0.000 C 
BRANCH  12  13
ATOM     13  C   UNL     1       9.619  13.335  21.910  1.00  0.00    -0.000 C 
BRANCH  13  14
ATOM     14  C   UNL     1       9.572  13.704  20.420  1.00  0.00    -0.000 C 
BRANCH  14  15
ATOM     15  C   UNL     1      10.835  14.469  20.003  1.00  0.00    -0.000 C 
BRANCH  15  16
ATOM     16  C   UNL     1      10.798  15.914  20.521  1.00  0.00    -0.000 C 
BRANCH  16  17
ATOM     17  C   UNL     1       9.615  16.715  19.956  1.00  0.00    -0.003 C 
ATOM     18  C   UNL     1       8.784  17.391  21.047  1.00  0.00     0.004 C 
ENDBRANCH  16  17
ENDBRANCH  15  16
ENDBRANCH  14  15
ENDBRANCH  13  14
ENDBRANCH  12  13
ENDBRANCH  11  12
ENDBRANCH   1  11
TORSDOF 14
ENDMDL
