MODEL 1
REMARK VINA RESULT:     2.328      0.000      0.000
REMARK INTER + INTRA:           7.224
REMARK INTER:                   6.138
REMARK INTRA:                   1.086
REMARK UNBOUND:                 1.086
REMARK SMILES CCCCCCCCCCCCCCCCCCCCCCCCCCCCCC(=O)[O-]
REMARK SMILES IDX 16 1 17 2 18 3 19 4 20 5 21 6 22 7 23 8 24 9 25 10 26 11
REMARK SMILES IDX 27 12 28 13 29 14 30 15 31 16 32 17 15 18 14 19 13 20 12 21
REMARK SMILES IDX 11 22 10 23 9 24 8 25 7 26 6 27 5 28 4 29 3 30 2 31 1 32
REMARK H PARENT
REMARK Flexibility Score: inf
ROOT
ATOM      1  C   UNL     1      -5.569  36.963  24.767  1.00  0.00     0.000 C 
ENDROOT
BRANCH   1   2
ATOM      2  C   UNL     1      -4.916  37.733  25.928  1.00  0.00     0.000 C 
BRANCH   2   3
ATOM      3  C   UNL     1      -4.693  39.218  25.597  1.00  0.00     0.000 C 
BRANCH   3   4
ATOM      4  C   UNL     1      -5.566  39.701  24.430  1.00  0.00     0.000 C 
BRANCH   4   5
ATOM      5  C   UNL     1      -5.023  41.008  23.839  1.00  0.00     0.000 C 
BRANCH   5   6
ATOM      6  C   UNL     1      -5.760  41.372  22.545  1.00  0.00     0.000 C 
BRANCH   6   7
ATOM      7  C   UNL     1      -6.125  40.114  21.744  1.00  0.00     0.000 C 
BRANCH   7   8
ATOM      8  C   UNL     1      -5.940  40.308  20.230  1.00  0.00     0.000 C 
BRANCH   8   9
ATOM      9  C   UNL     1      -5.324  39.072  19.549  1.00  0.00     0.000 C 
BRANCH   9  10
ATOM     10  C   UNL     1      -4.689  38.100  20.556  1.00  0.00     0.000 C 
BRANCH  10  11
ATOM     11  C   UNL     1      -3.174  38.306  20.698  1.00  0.00     0.000 C 
BRANCH  11  12
ATOM     12  C   UNL     1      -2.475  36.997  21.099  1.00  0.00     0.000 C 
BRANCH  12  13
ATOM     13  C   UNL     1      -1.286  36.651  20.185  1.00  0.00     0.006 C 
BRANCH  13  14
ATOM     14  C   UNL     1      -0.282  37.798  19.989  1.00  0.00     0.053 C 
BRANCH  14  15
ATOM     15  C   UNL     1      -0.581  38.601  18.762  1.00  0.00     0.041 C 
ATOM     16  O   UNL     1       0.358  39.051  18.054  1.00  0.00    -0.550 OA
ATOM     17  O   UNL     1      -1.897  38.884  18.419  1.00  0.00    -0.550 OA
ENDBRANCH  14  15
ENDBRANCH  13  14
ENDBRANCH  12  13
ENDBRANCH  11  12
ENDBRANCH  10  11
ENDBRANCH   9  10
ENDBRANCH   8   9
ENDBRANCH   7   8
ENDBRANCH   6   7
ENDBRANCH   5   6
ENDBRANCH   4   5
ENDBRANCH   3   4
ENDBRANCH   2   3
ENDBRANCH   1   2
BRANCH   1  18
ATOM     18  C   UNL     1      -5.564  35.443  24.991  1.00  0.00     0.000 C 
BRANCH  18  19
ATOM     19  C   UNL     1      -6.124  34.666  23.786  1.00  0.00     0.000 C 
BRANCH  19  20
ATOM     20  C   UNL     1      -5.940  35.417  22.456  1.00  0.00     0.000 C 
BRANCH  20  21
ATOM     21  C   UNL     1      -4.643  35.086  21.691  1.00  0.00     0.000 C 
BRANCH  21  22
ATOM     22  C   UNL     1      -4.596  35.581  20.232  1.00  0.00     0.000 C 
BRANCH  22  23
ATOM     23  C   UNL     1      -5.769  35.111  19.352  1.00  0.00     0.000 C 
BRANCH  23  24
ATOM     24  C   UNL     1      -5.439  35.152  17.853  1.00  0.00    -0.000 C 
BRANCH  24  25
ATOM     25  C   UNL     1      -3.936  35.364  17.626  1.00  0.00    -0.000 C 
BRANCH  25  26
ATOM     26  C   UNL     1      -3.637  36.375  16.505  1.00  0.00    -0.000 C 
BRANCH  26  27
ATOM     27  C   UNL     1      -2.130  36.589  16.250  1.00  0.00    -0.000 C 
BRANCH  27  28
ATOM     28  C   UNL     1      -1.781  36.559  14.752  1.00  0.00    -0.000 C 
BRANCH  28  29
ATOM     29  C   UNL     1      -2.893  37.183  13.881  1.00  0.00    -0.000 C 
BRANCH  29  30
ATOM     30  C   UNL     1      -3.294  38.602  14.316  1.00  0.00    -0.000 C 
BRANCH  30  31
ATOM     31  C   UNL     1      -4.724  38.971  13.900  1.00  0.00    -0.003 C 
ATOM     32  C   UNL     1      -5.072  40.396  14.325  1.00  0.00     0.004 C 
ENDBRANCH  30  31
ENDBRANCH  29  30
ENDBRANCH  28  29
ENDBRANCH  27  28
ENDBRANCH  26  27
ENDBRANCH  25  26
ENDBRANCH  24  25
ENDBRANCH  23  24
ENDBRANCH  22  23
ENDBRANCH  21  22
ENDBRANCH  20  21
ENDBRANCH  19  20
ENDBRANCH  18  19
ENDBRANCH   1  18
TORSDOF 28
ENDMDL
MODEL 2
REMARK VINA RESULT:     3.419      1.214      5.945
REMARK INTER + INTRA:          10.103
REMARK INTER:                   7.577
REMARK INTRA:                   2.526
REMARK UNBOUND:                 1.086
REMARK SMILES CCCCCCCCCCCCCCCCCCCCCCCCCCCCCC(=O)[O-]
REMARK SMILES IDX 16 1 17 2 18 3 19 4 20 5 21 6 22 7 23 8 24 9 25 10 26 11
REMARK SMILES IDX 27 12 28 13 29 14 30 15 31 16 32 17 15 18 14 19 13 20 12 21
REMARK SMILES IDX 11 22 10 23 9 24 8 25 7 26 6 27 5 28 4 29 3 30 2 31 1 32
REMARK H PARENT
REMARK Flexibility Score: inf
ROOT
ATOM      1  C   UNL     1      -5.752  35.775  24.652  1.00  0.00     0.000 C 
ENDROOT
BRANCH   1   2
ATOM      2  C   UNL     1      -6.118  36.382  23.286  1.00  0.00     0.000 C 
BRANCH   2   3
ATOM      3  C   UNL     1      -6.111  35.336  22.157  1.00  0.00     0.000 C 
BRANCH   3   4
ATOM      4  C   UNL     1      -5.992  35.972  20.764  1.00  0.00     0.000 C 
BRANCH   4   5
ATOM      5  C   UNL     1      -5.856  34.897  19.678  1.00  0.00     0.000 C 
BRANCH   5   6
ATOM      6  C   UNL     1      -5.571  35.532  18.313  1.00  0.00     0.000 C 
BRANCH   6   7
ATOM      7  C   UNL     1      -4.270  34.983  17.708  1.00  0.00     0.000 C 
BRANCH   7   8
ATOM      8  C   UNL     1      -3.503  36.043  16.903  1.00  0.00     0.000 C 
BRANCH   8   9
ATOM      9  C   UNL     1      -3.380  35.677  15.413  1.00  0.00     0.000 C 
BRANCH   9  10
ATOM     10  C   UNL     1      -2.319  36.517  14.684  1.00  0.00     0.000 C 
BRANCH  10  11
ATOM     11  C   UNL     1      -2.484  38.023  14.941  1.00  0.00     0.000 C 
BRANCH  11  12
ATOM     12  C   UNL     1      -3.397  38.278  16.150  1.00  0.00     0.000 C 
BRANCH  12  13
ATOM     13  C   UNL     1      -2.613  38.455  17.463  1.00  0.00     0.006 C 
BRANCH  13  14
ATOM     14  C   UNL     1      -1.156  37.971  17.401  1.00  0.00     0.053 C 
BRANCH  14  15
ATOM     15  C   UNL     1      -0.360  38.438  18.579  1.00  0.00     0.041 C 
ATOM     16  O   UNL     1      -0.613  39.549  19.117  1.00  0.00    -0.550 OA
ATOM     17  O   UNL     1       0.686  37.663  19.065  1.00  0.00    -0.550 OA
ENDBRANCH  14  15
ENDBRANCH  13  14
ENDBRANCH  12  13
ENDBRANCH  11  12
ENDBRANCH  10  11
ENDBRANCH   9  10
ENDBRANCH   8   9
ENDBRANCH   7   8
ENDBRANCH   6   7
ENDBRANCH   5   6
ENDBRANCH   4   5
ENDBRANCH   3   4
ENDBRANCH   2   3
ENDBRANCH   1   2
BRANCH   1  18
ATOM     18  C   UNL     1      -4.873  36.711  25.496  1.00  0.00     0.000 C 
BRANCH  18  19
ATOM     19  C   UNL     1      -5.533  38.081  25.739  1.00  0.00     0.000 C 
BRANCH  19  20
ATOM     20  C   UNL     1      -4.612  39.258  25.371  1.00  0.00     0.000 C 
BRANCH  20  21
ATOM     21  C   UNL     1      -5.152  40.189  24.267  1.00  0.00     0.000 C 
BRANCH  21  22
ATOM     22  C   UNL     1      -5.393  41.649  24.699  1.00  0.00     0.000 C 
BRANCH  22  23
ATOM     23  C   UNL     1      -6.125  42.519  23.660  1.00  0.00     0.000 C 
BRANCH  23  24
ATOM     24  C   UNL     1      -5.751  42.158  22.216  1.00  0.00    -0.000 C 
BRANCH  24  25
ATOM     25  C   UNL     1      -5.720  40.637  22.019  1.00  0.00    -0.000 C 
BRANCH  25  26
ATOM     26  C   UNL     1      -6.058  40.212  20.579  1.00  0.00    -0.000 C 
BRANCH  26  27
ATOM     27  C   UNL     1      -5.373  38.899  20.143  1.00  0.00    -0.000 C 
BRANCH  27  28
ATOM     28  C   UNL     1      -4.030  38.676  20.861  1.00  0.00    -0.000 C 
BRANCH  28  29
ATOM     29  C   UNL     1      -3.580  37.200  20.812  1.00  0.00    -0.000 C 
BRANCH  29  30
ATOM     30  C   UNL     1      -2.070  37.008  21.027  1.00  0.00    -0.000 C 
BRANCH  30  31
ATOM     31  C   UNL     1      -1.721  35.636  21.617  1.00  0.00    -0.003 C 
ATOM     32  C   UNL     1      -2.920  34.693  21.567  1.00  0.00     0.004 C 
ENDBRANCH  30  31
ENDBRANCH  29  30
ENDBRANCH  28  29
ENDBRANCH  27  28
ENDBRANCH  26  27
ENDBRANCH  25  26
ENDBRANCH  24  25
ENDBRANCH  23  24
ENDBRANCH  22  23
ENDBRANCH  21  22
ENDBRANCH  20  21
ENDBRANCH  19  20
ENDBRANCH  18  19
ENDBRANCH   1  18
TORSDOF 28
ENDMDL
MODEL 3
REMARK VINA RESULT:     3.683      2.391      7.961
REMARK INTER + INTRA:          10.798
REMARK INTER:                  10.285
REMARK INTRA:                   0.513
REMARK UNBOUND:                 1.086
REMARK SMILES CCCCCCCCCCCCCCCCCCCCCCCCCCCCCC(=O)[O-]
REMARK SMILES IDX 16 1 17 2 18 3 19 4 20 5 21 6 22 7 23 8 24 9 25 10 26 11
REMARK SMILES IDX 27 12 28 13 29 14 30 15 31 16 32 17 15 18 14 19 13 20 12 21
REMARK SMILES IDX 11 22 10 23 9 24 8 25 7 26 6 27 5 28 4 29 3 30 2 31 1 32
REMARK H PARENT
REMARK Flexibility Score: inf
ROOT
ATOM      1  C   UNL     1      -5.769  37.359  22.494  1.00  0.00     0.000 C 
ENDROOT
BRANCH   1   2
ATOM      2  C   UNL     1      -5.259  36.410  23.593  1.00  0.00     0.000 C 
BRANCH   2   3
ATOM      3  C   UNL     1      -4.991  34.990  23.066  1.00  0.00     0.000 C 
BRANCH   3   4
ATOM      4  C   UNL     1      -4.856  34.943  21.537  1.00  0.00     0.000 C 
BRANCH   4   5
ATOM      5  C   UNL     1      -6.125  35.469  20.854  1.00  0.00     0.000 C 
BRANCH   5   6
ATOM      6  C   UNL     1      -5.936  35.551  19.336  1.00  0.00     0.000 C 
BRANCH   6   7
ATOM      7  C   UNL     1      -4.446  35.554  18.962  1.00  0.00     0.000 C 
BRANCH   7   8
ATOM      8  C   UNL     1      -3.810  36.947  19.090  1.00  0.00     0.000 C 
BRANCH   8   9
ATOM      9  C   UNL     1      -2.645  36.973  20.095  1.00  0.00     0.000 C 
BRANCH   9  10
ATOM     10  C   UNL     1      -1.308  37.353  19.438  1.00  0.00     0.000 C 
BRANCH  10  11
ATOM     11  C   UNL     1      -1.440  38.549  18.485  1.00  0.00     0.000 C 
BRANCH  11  12
ATOM     12  C   UNL     1      -0.882  38.210  17.095  1.00  0.00     0.000 C 
BRANCH  12  13
ATOM     13  C   UNL     1      -1.209  36.771  16.655  1.00  0.00     0.006 C 
BRANCH  13  14
ATOM     14  C   UNL     1      -2.613  36.596  16.055  1.00  0.00     0.053 C 
BRANCH  14  15
ATOM     15  C   UNL     1      -2.658  36.988  14.611  1.00  0.00     0.041 C 
ATOM     16  O   UNL     1      -1.618  36.927  13.904  1.00  0.00    -0.550 OA
ATOM     17  O   UNL     1      -3.842  37.454  14.053  1.00  0.00    -0.550 OA
ENDBRANCH  14  15
ENDBRANCH  13  14
ENDBRANCH  12  13
ENDBRANCH  11  12
ENDBRANCH  10  11
ENDBRANCH   9  10
ENDBRANCH   8   9
ENDBRANCH   7   8
ENDBRANCH   6   7
ENDBRANCH   5   6
ENDBRANCH   4   5
ENDBRANCH   3   4
ENDBRANCH   2   3
ENDBRANCH   1   2
BRANCH   1  18
ATOM     18  C   UNL     1      -4.756  38.464  22.152  1.00  0.00     0.000 C 
BRANCH  18  19
ATOM     19  C   UNL     1      -5.062  39.151  20.810  1.00  0.00     0.000 C 
BRANCH  19  20
ATOM     20  C   UNL     1      -5.083  40.686  20.918  1.00  0.00     0.000 C 
BRANCH  20  21
ATOM     21  C   UNL     1      -6.125  41.258  21.900  1.00  0.00     0.000 C 
BRANCH  21  22
ATOM     22  C   UNL     1      -5.550  42.140  23.026  1.00  0.00     0.000 C 
BRANCH  22  23
ATOM     23  C   UNL     1      -5.572  41.498  24.426  1.00  0.00     0.000 C 
BRANCH  23  24
ATOM     24  C   UNL     1      -4.927  40.105  24.450  1.00  0.00    -0.000 C 
BRANCH  24  25
ATOM     25  C   UNL     1      -4.990  39.494  25.856  1.00  0.00    -0.000 C 
BRANCH  25  26
ATOM     26  C   UNL     1      -5.061  37.957  25.838  1.00  0.00    -0.000 C 
BRANCH  26  27
ATOM     27  C   UNL     1      -3.835  37.273  26.480  1.00  0.00    -0.000 C 
BRANCH  27  28
ATOM     28  C   UNL     1      -2.699  38.268  26.774  1.00  0.00    -0.000 C 
BRANCH  28  29
ATOM     29  C   UNL     1      -1.773  37.780  27.909  1.00  0.00    -0.000 C 
BRANCH  29  30
ATOM     30  C   UNL     1      -1.422  36.285  27.818  1.00  0.00    -0.000 C 
BRANCH  30  31
ATOM     31  C   UNL     1      -1.987  35.468  28.987  1.00  0.00    -0.003 C 
ATOM     32  C   UNL     1      -0.883  34.693  29.703  1.00  0.00     0.004 C 
ENDBRANCH  30  31
ENDBRANCH  29  30
ENDBRANCH  28  29
ENDBRANCH  27  28
ENDBRANCH  26  27
ENDBRANCH  25  26
ENDBRANCH  24  25
ENDBRANCH  23  24
ENDBRANCH  22  23
ENDBRANCH  21  22
ENDBRANCH  20  21
ENDBRANCH  19  20
ENDBRANCH  18  19
ENDBRANCH   1  18
TORSDOF 28
ENDMDL
MODEL 4
REMARK VINA RESULT:     4.231      2.128      7.930
REMARK INTER + INTRA:          12.242
REMARK INTER:                  12.803
REMARK INTRA:                  -0.561
REMARK UNBOUND:                 1.086
REMARK SMILES CCCCCCCCCCCCCCCCCCCCCCCCCCCCCC(=O)[O-]
REMARK SMILES IDX 16 1 17 2 18 3 19 4 20 5 21 6 22 7 23 8 24 9 25 10 26 11
REMARK SMILES IDX 27 12 28 13 29 14 30 15 31 16 32 17 15 18 14 19 13 20 12 21
REMARK SMILES IDX 11 22 10 23 9 24 8 25 7 26 6 27 5 28 4 29 3 30 2 31 1 32
REMARK H PARENT
REMARK Flexibility Score: inf
ROOT
ATOM      1  C   UNL     1      -5.923  36.320  22.398  1.00  0.00     0.000 C 
ENDROOT
BRANCH   1   2
ATOM      2  C   UNL     1      -4.792  35.488  23.029  1.00  0.00     0.000 C 
BRANCH   2   3
ATOM      3  C   UNL     1      -3.786  34.976  21.985  1.00  0.00     0.000 C 
BRANCH   3   4
ATOM      4  C   UNL     1      -4.092  35.486  20.569  1.00  0.00     0.000 C 
BRANCH   4   5
ATOM      5  C   UNL     1      -5.022  34.520  19.824  1.00  0.00     0.000 C 
BRANCH   5   6
ATOM      6  C   UNL     1      -5.292  35.011  18.398  1.00  0.00     0.000 C 
BRANCH   6   7
ATOM      7  C   UNL     1      -4.201  35.987  17.932  1.00  0.00     0.000 C 
BRANCH   7   8
ATOM      8  C   UNL     1      -3.382  35.436  16.755  1.00  0.00     0.000 C 
BRANCH   8   9
ATOM      9  C   UNL     1      -3.430  36.355  15.521  1.00  0.00     0.000 C 
BRANCH   9  10
ATOM     10  C   UNL     1      -2.031  36.780  15.048  1.00  0.00     0.000 C 
BRANCH  10  11
ATOM     11  C   UNL     1      -1.309  37.670  16.070  1.00  0.00     0.000 C 
BRANCH  11  12
ATOM     12  C   UNL     1      -2.313  38.518  16.867  1.00  0.00     0.000 C 
BRANCH  12  13
ATOM     13  C   UNL     1      -1.887  38.728  18.331  1.00  0.00     0.006 C 
BRANCH  13  14
ATOM     14  C   UNL     1      -0.739  37.818  18.794  1.00  0.00     0.053 C 
BRANCH  14  15
ATOM     15  C   UNL     1      -0.772  37.581  20.272  1.00  0.00     0.041 C 
ATOM     16  O   UNL     1       0.291  37.625  20.946  1.00  0.00    -0.550 OA
ATOM     17  O   UNL     1      -1.973  37.278  20.902  1.00  0.00    -0.550 OA
ENDBRANCH  14  15
ENDBRANCH  13  14
ENDBRANCH  12  13
ENDBRANCH  11  12
ENDBRANCH  10  11
ENDBRANCH   9  10
ENDBRANCH   8   9
ENDBRANCH   7   8
ENDBRANCH   6   7
ENDBRANCH   5   6
ENDBRANCH   4   5
ENDBRANCH   3   4
ENDBRANCH   2   3
ENDBRANCH   1   2
BRANCH   1  18
ATOM     18  C   UNL     1      -5.483  37.754  22.064  1.00  0.00     0.000 C 
BRANCH  18  19
ATOM     19  C   UNL     1      -5.673  38.098  20.576  1.00  0.00     0.000 C 
BRANCH  19  20
ATOM     20  C   UNL     1      -5.477  39.596  20.281  1.00  0.00     0.000 C 
BRANCH  20  21
ATOM     21  C   UNL     1      -6.125  40.553  21.302  1.00  0.00     0.000 C 
BRANCH  21  22
ATOM     22  C   UNL     1      -5.142  41.254  22.260  1.00  0.00     0.000 C 
BRANCH  22  23
ATOM     23  C   UNL     1      -5.577  41.266  23.738  1.00  0.00     0.000 C 
BRANCH  23  24
ATOM     24  C   UNL     1      -4.927  40.142  24.557  1.00  0.00    -0.000 C 
BRANCH  24  25
ATOM     25  C   UNL     1      -5.849  38.918  24.639  1.00  0.00    -0.000 C 
BRANCH  25  26
ATOM     26  C   UNL     1      -5.308  37.823  25.576  1.00  0.00    -0.000 C 
BRANCH  26  27
ATOM     27  C   UNL     1      -4.079  38.265  26.399  1.00  0.00    -0.000 C 
BRANCH  27  28
ATOM     28  C   UNL     1      -3.075  37.118  26.609  1.00  0.00    -0.000 C 
BRANCH  28  29
ATOM     29  C   UNL     1      -2.018  37.456  27.683  1.00  0.00    -0.000 C 
BRANCH  29  30
ATOM     30  C   UNL     1      -1.185  36.244  28.131  1.00  0.00    -0.000 C 
BRANCH  30  31
ATOM     31  C   UNL     1      -2.030  35.154  28.803  1.00  0.00    -0.003 C 
ATOM     32  C   UNL     1      -1.234  34.426  29.883  1.00  0.00     0.004 C 
ENDBRANCH  30  31
ENDBRANCH  29  30
ENDBRANCH  28  29
ENDBRANCH  27  28
ENDBRANCH  26  27
ENDBRANCH  25  26
ENDBRANCH  24  25
ENDBRANCH  23  24
ENDBRANCH  22  23
ENDBRANCH  21  22
ENDBRANCH  20  21
ENDBRANCH  19  20
ENDBRANCH  18  19
ENDBRANCH   1  18
TORSDOF 28
ENDMDL
MODEL 5
REMARK VINA RESULT:     4.273      1.801      7.871
REMARK INTER + INTRA:          12.353
REMARK INTER:                  12.334
REMARK INTRA:                   0.019
REMARK UNBOUND:                 1.086
REMARK SMILES CCCCCCCCCCCCCCCCCCCCCCCCCCCCCC(=O)[O-]
REMARK SMILES IDX 16 1 17 2 18 3 19 4 20 5 21 6 22 7 23 8 24 9 25 10 26 11
REMARK SMILES IDX 27 12 28 13 29 14 30 15 31 16 32 17 15 18 14 19 13 20 12 21
REMARK SMILES IDX 11 22 10 23 9 24 8 25 7 26 6 27 5 28 4 29 3 30 2 31 1 32
REMARK H PARENT
REMARK Flexibility Score: inf
ROOT
ATOM      1  C   UNL     1      -0.901  38.039  19.800  1.00  0.00     0.000 C 
ENDROOT
BRANCH   1   2
ATOM      2  C   UNL     1       0.040  38.206  18.593  1.00  0.00     0.000 C 
BRANCH   2   3
ATOM      3  C   UNL     1      -0.650  37.871  17.260  1.00  0.00     0.000 C 
BRANCH   3   4
ATOM      4  C   UNL     1      -0.383  36.429  16.803  1.00  0.00     0.000 C 
BRANCH   4   5
ATOM      5  C   UNL     1      -1.344  36.020  15.680  1.00  0.00     0.000 C 
BRANCH   5   6
ATOM      6  C   UNL     1      -1.926  37.253  14.980  1.00  0.00     0.000 C 
BRANCH   6   7
ATOM      7  C   UNL     1      -2.979  37.943  15.859  1.00  0.00     0.000 C 
BRANCH   7   8
ATOM      8  C   UNL     1      -4.088  36.981  16.312  1.00  0.00     0.000 C 
BRANCH   8   9
ATOM      9  C   UNL     1      -3.838  36.415  17.721  1.00  0.00     0.000 C 
BRANCH   9  10
ATOM     10  C   UNL     1      -4.365  34.979  17.882  1.00  0.00     0.000 C 
BRANCH  10  11
ATOM     11  C   UNL     1      -5.724  34.928  18.594  1.00  0.00     0.000 C 
BRANCH  11  12
ATOM     12  C   UNL     1      -5.655  35.622  19.963  1.00  0.00     0.000 C 
BRANCH  12  13
ATOM     13  C   UNL     1      -4.682  34.931  20.935  1.00  0.00     0.006 C 
BRANCH  13  14
ATOM     14  C   UNL     1      -3.586  35.850  21.496  1.00  0.00     0.053 C 
BRANCH  14  15
ATOM     15  C   UNL     1      -2.322  35.103  21.786  1.00  0.00     0.041 C 
ATOM     16  O   UNL     1      -2.312  33.844  21.775  1.00  0.00    -0.550 OA
ATOM     17  O   UNL     1      -1.160  35.797  22.104  1.00  0.00    -0.550 OA
ENDBRANCH  14  15
ENDBRANCH  13  14
ENDBRANCH  12  13
ENDBRANCH  11  12
ENDBRANCH  10  11
ENDBRANCH   9  10
ENDBRANCH   8   9
ENDBRANCH   7   8
ENDBRANCH   6   7
ENDBRANCH   5   6
ENDBRANCH   4   5
ENDBRANCH   3   4
ENDBRANCH   2   3
ENDBRANCH   1   2
BRANCH   1  18
ATOM     18  C   UNL     1      -2.257  38.730  19.591  1.00  0.00     0.000 C 
BRANCH  18  19
ATOM     19  C   UNL     1      -3.320  38.264  20.601  1.00  0.00     0.000 C 
BRANCH  19  20
ATOM     20  C   UNL     1      -4.662  38.998  20.436  1.00  0.00     0.000 C 
BRANCH  20  21
ATOM     21  C   UNL     1      -5.057  39.910  21.615  1.00  0.00     0.000 C 
BRANCH  21  22
ATOM     22  C   UNL     1      -6.113  40.985  21.287  1.00  0.00     0.000 C 
BRANCH  22  23
ATOM     23  C   UNL     1      -5.869  42.355  21.947  1.00  0.00     0.000 C 
BRANCH  23  24
ATOM     24  C   UNL     1      -4.826  42.294  23.072  1.00  0.00    -0.000 C 
BRANCH  24  25
ATOM     25  C   UNL     1      -5.493  42.027  24.428  1.00  0.00    -0.000 C 
BRANCH  25  26
ATOM     26  C   UNL     1      -6.084  40.610  24.535  1.00  0.00    -0.000 C 
BRANCH  26  27
ATOM     27  C   UNL     1      -5.052  39.488  24.290  1.00  0.00    -0.000 C 
BRANCH  27  28
ATOM     28  C   UNL     1      -4.545  38.864  25.602  1.00  0.00    -0.000 C 
BRANCH  28  29
ATOM     29  C   UNL     1      -4.622  37.322  25.584  1.00  0.00    -0.000 C 
BRANCH  29  30
ATOM     30  C   UNL     1      -6.034  36.778  25.313  1.00  0.00    -0.000 C 
BRANCH  30  31
ATOM     31  C   UNL     1      -6.124  35.975  24.008  1.00  0.00    -0.003 C 
ATOM     32  C   UNL     1      -5.819  34.499  24.247  1.00  0.00     0.004 C 
ENDBRANCH  30  31
ENDBRANCH  29  30
ENDBRANCH  28  29
ENDBRANCH  27  28
ENDBRANCH  26  27
ENDBRANCH  25  26
ENDBRANCH  24  25
ENDBRANCH  23  24
ENDBRANCH  22  23
ENDBRANCH  21  22
ENDBRANCH  20  21
ENDBRANCH  19  20
ENDBRANCH  18  19
ENDBRANCH   1  18
TORSDOF 28
ENDMDL
MODEL 6
REMARK VINA RESULT:     4.292      3.500      5.568
REMARK INTER + INTRA:          12.405
REMARK INTER:                  10.747
REMARK INTRA:                   1.658
REMARK UNBOUND:                 1.086
REMARK SMILES CCCCCCCCCCCCCCCCCCCCCCCCCCCCCC(=O)[O-]
REMARK SMILES IDX 16 1 17 2 18 3 19 4 20 5 21 6 22 7 23 8 24 9 25 10 26 11
REMARK SMILES IDX 27 12 28 13 29 14 30 15 31 16 32 17 15 18 14 19 13 20 12 21
REMARK SMILES IDX 11 22 10 23 9 24 8 25 7 26 6 27 5 28 4 29 3 30 2 31 1 32
REMARK H PARENT
REMARK Flexibility Score: inf
ROOT
ATOM      1  C   UNL     1      -5.012  38.502  20.602  1.00  0.00     0.000 C 
ENDROOT
BRANCH   1   2
ATOM      2  C   UNL     1      -5.615  39.916  20.535  1.00  0.00     0.000 C 
BRANCH   2   3
ATOM      3  C   UNL     1      -5.974  40.469  21.924  1.00  0.00     0.000 C 
BRANCH   3   4
ATOM      4  C   UNL     1      -5.870  42.000  21.995  1.00  0.00     0.000 C 
BRANCH   4   5
ATOM      5  C   UNL     1      -6.117  42.504  23.423  1.00  0.00     0.000 C 
BRANCH   5   6
ATOM      6  C   UNL     1      -5.730  41.439  24.455  1.00  0.00     0.000 C 
BRANCH   6   7
ATOM      7  C   UNL     1      -4.995  40.266  23.790  1.00  0.00     0.000 C 
BRANCH   7   8
ATOM      8  C   UNL     1      -5.619  38.906  24.141  1.00  0.00     0.000 C 
BRANCH   8   9
ATOM      9  C   UNL     1      -4.592  37.919  24.725  1.00  0.00     0.000 C 
BRANCH   9  10
ATOM     10  C   UNL     1      -4.839  37.624  26.214  1.00  0.00     0.000 C 
BRANCH  10  11
ATOM     11  C   UNL     1      -3.740  38.200  27.118  1.00  0.00     0.000 C 
BRANCH  11  12
ATOM     12  C   UNL     1      -2.350  37.729  26.662  1.00  0.00     0.000 C 
BRANCH  12  13
ATOM     13  C   UNL     1      -1.573  36.999  27.773  1.00  0.00     0.006 C 
BRANCH  13  14
ATOM     14  C   UNL     1      -2.345  35.849  28.436  1.00  0.00     0.053 C 
BRANCH  14  15
ATOM     15  C   UNL     1      -1.454  34.981  29.269  1.00  0.00     0.041 C 
ATOM     16  O   UNL     1      -1.930  34.316  30.226  1.00  0.00    -0.550 OA
ATOM     17  O   UNL     1      -0.090  34.933  29.010  1.00  0.00    -0.550 OA
ENDBRANCH  14  15
ENDBRANCH  13  14
ENDBRANCH  12  13
ENDBRANCH  11  12
ENDBRANCH  10  11
ENDBRANCH   9  10
ENDBRANCH   8   9
ENDBRANCH   7   8
ENDBRANCH   6   7
ENDBRANCH   5   6
ENDBRANCH   4   5
ENDBRANCH   3   4
ENDBRANCH   2   3
ENDBRANCH   1   2
BRANCH   1  18
ATOM     18  C   UNL     1      -5.635  37.545  19.573  1.00  0.00     0.000 C 
BRANCH  18  19
ATOM     19  C   UNL     1      -5.966  36.167  20.172  1.00  0.00     0.000 C 
BRANCH  19  20
ATOM     20  C   UNL     1      -5.313  35.943  21.547  1.00  0.00     0.000 C 
BRANCH  20  21
ATOM     21  C   UNL     1      -4.110  34.977  21.550  1.00  0.00     0.000 C 
BRANCH  21  22
ATOM     22  C   UNL     1      -2.803  35.560  22.121  1.00  0.00     0.000 C 
BRANCH  22  23
ATOM     23  C   UNL     1      -1.814  36.088  21.065  1.00  0.00     0.000 C 
BRANCH  23  24
ATOM     24  C   UNL     1      -2.405  37.218  20.211  1.00  0.00    -0.000 C 
BRANCH  24  25
ATOM     25  C   UNL     1      -1.372  38.327  19.973  1.00  0.00    -0.000 C 
BRANCH  25  26
ATOM     26  C   UNL     1      -0.452  38.041  18.773  1.00  0.00    -0.000 C 
BRANCH  26  27
ATOM     27  C   UNL     1      -1.175  38.101  17.410  1.00  0.00    -0.000 C 
BRANCH  27  28
ATOM     28  C   UNL     1      -2.697  37.927  17.549  1.00  0.00    -0.000 C 
BRANCH  28  29
ATOM     29  C   UNL     1      -3.221  36.706  16.762  1.00  0.00    -0.000 C 
BRANCH  29  30
ATOM     30  C   UNL     1      -2.468  36.453  15.445  1.00  0.00    -0.000 C 
BRANCH  30  31
ATOM     31  C   UNL     1      -3.177  37.058  14.227  1.00  0.00    -0.003 C 
ATOM     32  C   UNL     1      -3.687  38.465  14.529  1.00  0.00     0.004 C 
ENDBRANCH  30  31
ENDBRANCH  29  30
ENDBRANCH  28  29
ENDBRANCH  27  28
ENDBRANCH  26  27
ENDBRANCH  25  26
ENDBRANCH  24  25
ENDBRANCH  23  24
ENDBRANCH  22  23
ENDBRANCH  21  22
ENDBRANCH  20  21
ENDBRANCH  19  20
ENDBRANCH  18  19
ENDBRANCH   1  18
TORSDOF 28
ENDMDL
MODEL 7
REMARK VINA RESULT:     4.763      3.637      5.422
REMARK INTER + INTRA:          13.646
REMARK INTER:                  11.889
REMARK INTRA:                   1.757
REMARK UNBOUND:                 1.086
REMARK SMILES CCCCCCCCCCCCCCCCCCCCCCCCCCCCCC(=O)[O-]
REMARK SMILES IDX 16 1 17 2 18 3 19 4 20 5 21 6 22 7 23 8 24 9 25 10 26 11
REMARK SMILES IDX 27 12 28 13 29 14 30 15 31 16 32 17 15 18 14 19 13 20 12 21
REMARK SMILES IDX 11 22 10 23 9 24 8 25 7 26 6 27 5 28 4 29 3 30 2 31 1 32
REMARK H PARENT
REMARK Flexibility Score: inf
ROOT
ATOM      1  C   UNL     1      -4.795  37.264  22.623  1.00  0.00     0.000 C 
ENDROOT
BRANCH   1   2
ATOM      2  C   UNL     1      -5.305  38.252  21.559  1.00  0.00     0.000 C 
BRANCH   2   3
ATOM      3  C   UNL     1      -6.063  39.440  22.174  1.00  0.00     0.000 C 
BRANCH   3   4
ATOM      4  C   UNL     1      -5.663  40.785  21.549  1.00  0.00     0.000 C 
BRANCH   4   5
ATOM      5  C   UNL     1      -6.107  41.958  22.432  1.00  0.00     0.000 C 
BRANCH   5   6
ATOM      6  C   UNL     1      -5.895  41.637  23.916  1.00  0.00     0.000 C 
BRANCH   6   7
ATOM      7  C   UNL     1      -4.924  40.461  24.095  1.00  0.00     0.000 C 
BRANCH   7   8
ATOM      8  C   UNL     1      -4.952  39.887  25.520  1.00  0.00     0.000 C 
BRANCH   8   9
ATOM      9  C   UNL     1      -5.159  38.361  25.537  1.00  0.00     0.000 C 
BRANCH   9  10
ATOM     10  C   UNL     1      -3.889  37.600  25.949  1.00  0.00     0.000 C 
BRANCH  10  11
ATOM     11  C   UNL     1      -3.173  38.252  27.142  1.00  0.00     0.000 C 
BRANCH  11  12
ATOM     12  C   UNL     1      -1.696  37.833  27.192  1.00  0.00     0.000 C 
BRANCH  12  13
ATOM     13  C   UNL     1      -1.508  36.340  27.519  1.00  0.00     0.006 C 
BRANCH  13  14
ATOM     14  C   UNL     1      -2.074  35.915  28.883  1.00  0.00     0.053 C 
BRANCH  14  15
ATOM     15  C   UNL     1      -1.298  34.785  29.484  1.00  0.00     0.041 C 
ATOM     16  O   UNL     1      -1.840  34.019  30.324  1.00  0.00    -0.550 OA
ATOM     17  O   UNL     1       0.036  34.597  29.142  1.00  0.00    -0.550 OA
ENDBRANCH  14  15
ENDBRANCH  13  14
ENDBRANCH  12  13
ENDBRANCH  11  12
ENDBRANCH  10  11
ENDBRANCH   9  10
ENDBRANCH   8   9
ENDBRANCH   7   8
ENDBRANCH   6   7
ENDBRANCH   5   6
ENDBRANCH   4   5
ENDBRANCH   3   4
ENDBRANCH   2   3
ENDBRANCH   1   2
BRANCH   1  18
ATOM     18  C   UNL     1      -5.769  36.100  22.861  1.00  0.00     0.000 C 
BRANCH  18  19
ATOM     19  C   UNL     1      -5.049  34.749  23.016  1.00  0.00     0.000 C 
BRANCH  19  20
ATOM     20  C   UNL     1      -3.603  34.781  22.489  1.00  0.00     0.000 C 
BRANCH  20  21
ATOM     21  C   UNL     1      -3.449  35.262  21.032  1.00  0.00     0.000 C 
BRANCH  21  22
ATOM     22  C   UNL     1      -4.319  34.518  20.000  1.00  0.00     0.000 C 
BRANCH  22  23
ATOM     23  C   UNL     1      -5.595  35.266  19.570  1.00  0.00     0.000 C 
BRANCH  23  24
ATOM     24  C   UNL     1      -5.470  35.898  18.177  1.00  0.00    -0.000 C 
BRANCH  24  25
ATOM     25  C   UNL     1      -4.027  36.339  17.899  1.00  0.00    -0.000 C 
BRANCH  25  26
ATOM     26  C   UNL     1      -3.716  37.747  18.438  1.00  0.00    -0.000 C 
BRANCH  26  27
ATOM     27  C   UNL     1      -2.491  37.795  19.375  1.00  0.00    -0.000 C 
BRANCH  27  28
ATOM     28  C   UNL     1      -1.349  38.650  18.799  1.00  0.00    -0.000 C 
BRANCH  28  29
ATOM     29  C   UNL     1      -0.752  38.038  17.513  1.00  0.00    -0.000 C 
BRANCH  29  30
ATOM     30  C   UNL     1      -1.640  36.957  16.875  1.00  0.00    -0.000 C 
BRANCH  30  31
ATOM     31  C   UNL     1      -1.627  37.003  15.341  1.00  0.00    -0.003 C 
ATOM     32  C   UNL     1      -3.042  37.115  14.780  1.00  0.00     0.004 C 
ENDBRANCH  30  31
ENDBRANCH  29  30
ENDBRANCH  28  29
ENDBRANCH  27  28
ENDBRANCH  26  27
ENDBRANCH  25  26
ENDBRANCH  24  25
ENDBRANCH  23  24
ENDBRANCH  22  23
ENDBRANCH  21  22
ENDBRANCH  20  21
ENDBRANCH  19  20
ENDBRANCH  18  19
ENDBRANCH   1  18
TORSDOF 28
ENDMDL
MODEL 8
REMARK VINA RESULT:     4.953      1.836      6.064
REMARK INTER + INTRA:          14.148
REMARK INTER:                  14.375
REMARK INTRA:                  -0.227
REMARK UNBOUND:                 1.086
REMARK SMILES CCCCCCCCCCCCCCCCCCCCCCCCCCCCCC(=O)[O-]
REMARK SMILES IDX 16 1 17 2 18 3 19 4 20 5 21 6 22 7 23 8 24 9 25 10 26 11
REMARK SMILES IDX 27 12 28 13 29 14 30 15 31 16 32 17 15 18 14 19 13 20 12 21
REMARK SMILES IDX 11 22 10 23 9 24 8 25 7 26 6 27 5 28 4 29 3 30 2 31 1 32
REMARK H PARENT
REMARK Flexibility Score: inf
ROOT
ATOM      1  C   UNL     1      -5.930  35.405  24.231  1.00  0.00     0.000 C 
ENDROOT
BRANCH   1   2
ATOM      2  C   UNL     1      -6.110  36.179  22.913  1.00  0.00     0.000 C 
BRANCH   2   3
ATOM      3  C   UNL     1      -6.109  35.255  21.684  1.00  0.00     0.000 C 
BRANCH   3   4
ATOM      4  C   UNL     1      -6.031  36.031  20.361  1.00  0.00     0.000 C 
BRANCH   4   5
ATOM      5  C   UNL     1      -5.896  35.076  19.168  1.00  0.00     0.000 C 
BRANCH   5   6
ATOM      6  C   UNL     1      -5.350  35.809  17.939  1.00  0.00     0.000 C 
BRANCH   6   7
ATOM      7  C   UNL     1      -4.138  35.073  17.348  1.00  0.00     0.000 C 
BRANCH   7   8
ATOM      8  C   UNL     1      -2.944  36.008  17.103  1.00  0.00     0.000 C 
BRANCH   8   9
ATOM      9  C   UNL     1      -1.950  35.438  16.076  1.00  0.00     0.000 C 
BRANCH   9  10
ATOM     10  C   UNL     1      -1.335  36.528  15.183  1.00  0.00     0.000 C 
BRANCH  10  11
ATOM     11  C   UNL     1      -2.391  37.482  14.608  1.00  0.00     0.000 C 
BRANCH  11  12
ATOM     12  C   UNL     1      -3.504  37.754  15.633  1.00  0.00     0.000 C 
BRANCH  12  13
ATOM     13  C   UNL     1      -3.991  39.214  15.612  1.00  0.00     0.006 C 
BRANCH  13  14
ATOM     14  C   UNL     1      -3.946  39.878  14.227  1.00  0.00     0.053 C 
BRANCH  14  15
ATOM     15  C   UNL     1      -4.779  41.120  14.174  1.00  0.00     0.041 C 
ATOM     16  O   UNL     1      -6.020  41.044  13.975  1.00  0.00    -0.550 OA
ATOM     17  O   UNL     1      -4.180  42.367  14.309  1.00  0.00    -0.550 OA
ENDBRANCH  14  15
ENDBRANCH  13  14
ENDBRANCH  12  13
ENDBRANCH  11  12
ENDBRANCH  10  11
ENDBRANCH   9  10
ENDBRANCH   8   9
ENDBRANCH   7   8
ENDBRANCH   6   7
ENDBRANCH   5   6
ENDBRANCH   4   5
ENDBRANCH   3   4
ENDBRANCH   2   3
ENDBRANCH   1   2
BRANCH   1  18
ATOM     18  C   UNL     1      -5.175  36.219  25.294  1.00  0.00     0.000 C 
BRANCH  18  19
ATOM     19  C   UNL     1      -5.823  37.590  25.559  1.00  0.00     0.000 C 
BRANCH  19  20
ATOM     20  C   UNL     1      -4.791  38.725  25.675  1.00  0.00     0.000 C 
BRANCH  20  21
ATOM     21  C   UNL     1      -4.607  39.574  24.401  1.00  0.00     0.000 C 
BRANCH  21  22
ATOM     22  C   UNL     1      -5.400  40.896  24.374  1.00  0.00     0.000 C 
BRANCH  22  23
ATOM     23  C   UNL     1      -5.725  41.427  22.965  1.00  0.00     0.000 C 
BRANCH  23  24
ATOM     24  C   UNL     1      -4.759  40.900  21.895  1.00  0.00    -0.000 C 
BRANCH  24  25
ATOM     25  C   UNL     1      -5.171  39.499  21.424  1.00  0.00    -0.000 C 
BRANCH  25  26
ATOM     26  C   UNL     1      -5.178  39.361  19.891  1.00  0.00    -0.000 C 
BRANCH  26  27
ATOM     27  C   UNL     1      -4.189  38.302  19.360  1.00  0.00    -0.000 C 
BRANCH  27  28
ATOM     28  C   UNL     1      -2.796  38.431  20.002  1.00  0.00    -0.000 C 
BRANCH  28  29
ATOM     29  C   UNL     1      -2.055  37.078  20.066  1.00  0.00    -0.000 C 
BRANCH  29  30
ATOM     30  C   UNL     1      -0.735  37.134  20.852  1.00  0.00    -0.000 C 
BRANCH  30  31
ATOM     31  C   UNL     1       0.238  38.188  20.308  1.00  0.00    -0.003 C 
ATOM     32  C   UNL     1       0.271  38.174  18.782  1.00  0.00     0.004 C 
ENDBRANCH  30  31
ENDBRANCH  29  30
ENDBRANCH  28  29
ENDBRANCH  27  28
ENDBRANCH  26  27
ENDBRANCH  25  26
ENDBRANCH  24  25
ENDBRANCH  23  24
ENDBRANCH  22  23
ENDBRANCH  21  22
ENDBRANCH  20  21
ENDBRANCH  19  20
ENDBRANCH  18  19
ENDBRANCH   1  18
TORSDOF 28
ENDMDL
