MODEL 1
REMARK VINA RESULT:    18.325      0.000      0.000
REMARK INTER + INTRA:          47.136
REMARK INTER:                  48.321
REMARK INTRA:                  -1.185
REMARK UNBOUND:                -1.185
REMARK SMILES CCCCCCCCCCCCCCCCCCCCCCCCCCCCCC(=O)[O-]
REMARK SMILES IDX 16 1 17 2 18 3 19 4 20 5 21 6 22 7 23 8 24 9 25 10 26 11
REMARK SMILES IDX 27 12 28 13 29 14 30 15 31 16 32 17 15 18 14 19 13 20 12 21
REMARK SMILES IDX 11 22 10 23 9 24 8 25 7 26 6 27 5 28 4 29 3 30 2 31 1 32
REMARK H PARENT
REMARK Flexibility Score: inf
ROOT
ATOM      1  C   UNL     1     -31.792  12.757  18.303  1.00  0.00     0.000 C 
ENDROOT
BRANCH   1   2
ATOM      2  C   UNL     1     -32.982  12.764  19.277  1.00  0.00     0.000 C 
BRANCH   2   3
ATOM      3  C   UNL     1     -33.440  11.345  19.655  1.00  0.00     0.000 C 
BRANCH   3   4
ATOM      4  C   UNL     1     -34.116  11.279  21.038  1.00  0.00     0.000 C 
BRANCH   4   5
ATOM      5  C   UNL     1     -33.996  12.558  21.889  1.00  0.00     0.000 C 
BRANCH   5   6
ATOM      6  C   UNL     1     -34.487  12.366  23.334  1.00  0.00     0.000 C 
BRANCH   6   7
ATOM      7  C   UNL     1     -33.416  11.736  24.239  1.00  0.00     0.000 C 
BRANCH   7   8
ATOM      8  C   UNL     1     -34.013  10.992  25.443  1.00  0.00     0.000 C 
BRANCH   8   9
ATOM      9  C   UNL     1     -33.090  11.107  26.666  1.00  0.00     0.000 C 
BRANCH   9  10
ATOM     10  C   UNL     1     -32.887   9.762  27.381  1.00  0.00     0.000 C 
BRANCH  10  11
ATOM     11  C   UNL     1     -33.878   8.687  26.906  1.00  0.00     0.000 C 
BRANCH  11  12
ATOM     12  C   UNL     1     -33.220   7.696  25.931  1.00  0.00     0.000 C 
BRANCH  12  13
ATOM     13  C   UNL     1     -34.258   6.907  25.113  1.00  0.00     0.006 C 
BRANCH  13  14
ATOM     14  C   UNL     1     -34.863   7.752  23.983  1.00  0.00     0.053 C 
BRANCH  14  15
ATOM     15  C   UNL     1     -34.272   7.389  22.654  1.00  0.00     0.041 C 
ATOM     16  O   UNL     1     -34.527   6.277  22.121  1.00  0.00    -0.550 OA
ATOM     17  O   UNL     1     -33.392   8.263  22.029  1.00  0.00    -0.550 OA
ENDBRANCH  14  15
ENDBRANCH  13  14
ENDBRANCH  12  13
ENDBRANCH  11  12
ENDBRANCH  10  11
ENDBRANCH   9  10
ENDBRANCH   8   9
ENDBRANCH   7   8
ENDBRANCH   6   7
ENDBRANCH   5   6
ENDBRANCH   4   5
ENDBRANCH   3   4
ENDBRANCH   2   3
ENDBRANCH   1   2
BRANCH   1  18
ATOM     18  C   UNL     1     -32.208  13.125  16.868  1.00  0.00     0.000 C 
BRANCH  18  19
ATOM     19  C   UNL     1     -33.712  13.424  16.746  1.00  0.00     0.000 C 
BRANCH  19  20
ATOM     20  C   UNL     1     -34.027  14.448  15.642  1.00  0.00     0.000 C 
BRANCH  20  21
ATOM     21  C   UNL     1     -34.549  15.786  16.201  1.00  0.00     0.000 C 
BRANCH  21  22
ATOM     22  C   UNL     1     -34.835  15.797  17.716  1.00  0.00     0.000 C 
BRANCH  22  23
ATOM     23  C   UNL     1     -34.619  17.153  18.413  1.00  0.00     0.000 C 
BRANCH  23  24
ATOM     24  C   UNL     1     -35.162  18.338  17.599  1.00  0.00    -0.000 C 
BRANCH  24  25
ATOM     25  C   UNL     1     -36.698  18.335  17.585  1.00  0.00    -0.000 C 
BRANCH  25  26
ATOM     26  C   UNL     1     -37.292  17.002  18.065  1.00  0.00    -0.000 C 
BRANCH  26  27
ATOM     27  C   UNL     1     -38.390  16.474  17.125  1.00  0.00    -0.000 C 
BRANCH  27  28
ATOM     28  C   UNL     1     -39.738  17.180  17.336  1.00  0.00    -0.000 C 
BRANCH  28  29
ATOM     29  C   UNL     1     -40.475  16.686  18.590  1.00  0.00    -0.000 C 
BRANCH  29  30
ATOM     30  C   UNL     1     -40.798  15.192  18.482  1.00  0.00    -0.000 C 
BRANCH  30  31
ATOM     31  C   UNL     1     -39.692  14.341  19.120  1.00  0.00    -0.003 C 
ATOM     32  C   UNL     1     -40.053  12.857  19.099  1.00  0.00     0.004 C 
ENDBRANCH  30  31
ENDBRANCH  29  30
ENDBRANCH  28  29
ENDBRANCH  27  28
ENDBRANCH  26  27
ENDBRANCH  25  26
ENDBRANCH  24  25
ENDBRANCH  23  24
ENDBRANCH  22  23
ENDBRANCH  21  22
ENDBRANCH  20  21
ENDBRANCH  19  20
ENDBRANCH  18  19
ENDBRANCH   1  18
TORSDOF 28
ENDMDL
MODEL 2
REMARK VINA RESULT:    18.629      1.790      3.080
REMARK INTER + INTRA:          47.937
REMARK INTER:                  48.786
REMARK INTRA:                  -0.850
REMARK UNBOUND:                -1.185
REMARK SMILES CCCCCCCCCCCCCCCCCCCCCCCCCCCCCC(=O)[O-]
REMARK SMILES IDX 16 1 17 2 18 3 19 4 20 5 21 6 22 7 23 8 24 9 25 10 26 11
REMARK SMILES IDX 27 12 28 13 29 14 30 15 31 16 32 17 15 18 14 19 13 20 12 21
REMARK SMILES IDX 11 22 10 23 9 24 8 25 7 26 6 27 5 28 4 29 3 30 2 31 1 32
REMARK H PARENT
REMARK Flexibility Score: inf
ROOT
ATOM      1  C   UNL     1     -31.947  12.875  18.636  1.00  0.00     0.000 C 
ENDROOT
BRANCH   1   2
ATOM      2  C   UNL     1     -33.211  12.209  19.204  1.00  0.00     0.000 C 
BRANCH   2   3
ATOM      3  C   UNL     1     -33.684  12.868  20.512  1.00  0.00     0.000 C 
BRANCH   3   4
ATOM      4  C   UNL     1     -34.006  11.845  21.619  1.00  0.00     0.000 C 
BRANCH   4   5
ATOM      5  C   UNL     1     -34.127  10.383  21.146  1.00  0.00     0.000 C 
BRANCH   5   6
ATOM      6  C   UNL     1     -33.484   9.383  22.123  1.00  0.00     0.000 C 
BRANCH   6   7
ATOM      7  C   UNL     1     -33.376   7.969  21.528  1.00  0.00     0.000 C 
BRANCH   7   8
ATOM      8  C   UNL     1     -34.023   6.896  22.417  1.00  0.00     0.000 C 
BRANCH   8   9
ATOM      9  C   UNL     1     -35.503   7.221  22.671  1.00  0.00     0.000 C 
BRANCH   9  10
ATOM     10  C   UNL     1     -35.880   7.130  24.158  1.00  0.00     0.000 C 
BRANCH  10  11
ATOM     11  C   UNL     1     -34.656   6.928  25.065  1.00  0.00     0.000 C 
BRANCH  11  12
ATOM     12  C   UNL     1     -33.949   8.259  25.375  1.00  0.00     0.000 C 
BRANCH  12  13
ATOM     13  C   UNL     1     -34.944   9.377  25.731  1.00  0.00     0.006 C 
BRANCH  13  14
ATOM     14  C   UNL     1     -34.231  10.681  26.118  1.00  0.00     0.053 C 
BRANCH  14  15
ATOM     15  C   UNL     1     -32.997  10.409  26.924  1.00  0.00     0.041 C 
ATOM     16  O   UNL     1     -32.068  11.257  26.981  1.00  0.00    -0.550 OA
ATOM     17  O   UNL     1     -32.851   9.188  27.571  1.00  0.00    -0.550 OA
ENDBRANCH  14  15
ENDBRANCH  13  14
ENDBRANCH  12  13
ENDBRANCH  11  12
ENDBRANCH  10  11
ENDBRANCH   9  10
ENDBRANCH   8   9
ENDBRANCH   7   8
ENDBRANCH   6   7
ENDBRANCH   5   6
ENDBRANCH   4   5
ENDBRANCH   3   4
ENDBRANCH   2   3
ENDBRANCH   1   2
BRANCH   1  18
ATOM     18  C   UNL     1     -32.013  13.049  17.109  1.00  0.00     0.000 C 
BRANCH  18  19
ATOM     19  C   UNL     1     -33.439  12.880  16.555  1.00  0.00     0.000 C 
BRANCH  19  20
ATOM     20  C   UNL     1     -34.000  14.179  15.950  1.00  0.00     0.000 C 
BRANCH  20  21
ATOM     21  C   UNL     1     -34.599  15.121  17.010  1.00  0.00     0.000 C 
BRANCH  21  22
ATOM     22  C   UNL     1     -34.950  16.537  16.507  1.00  0.00     0.000 C 
BRANCH  22  23
ATOM     23  C   UNL     1     -34.414  17.691  17.374  1.00  0.00     0.000 C 
BRANCH  23  24
ATOM     24  C   UNL     1     -35.516  18.401  18.174  1.00  0.00    -0.000 C 
BRANCH  24  25
ATOM     25  C   UNL     1     -36.896  18.149  17.549  1.00  0.00    -0.000 C 
BRANCH  25  26
ATOM     26  C   UNL     1     -37.494  16.795  17.959  1.00  0.00    -0.000 C 
BRANCH  26  27
ATOM     27  C   UNL     1     -39.029  16.769  17.845  1.00  0.00    -0.000 C 
BRANCH  27  28
ATOM     28  C   UNL     1     -39.699  16.076  19.042  1.00  0.00    -0.000 C 
BRANCH  28  29
ATOM     29  C   UNL     1     -39.219  14.630  19.233  1.00  0.00    -0.000 C 
BRANCH  29  30
ATOM     30  C   UNL     1     -40.135  13.648  18.494  1.00  0.00    -0.000 C 
BRANCH  30  31
ATOM     31  C   UNL     1     -40.282  12.336  19.278  1.00  0.00    -0.003 C 
ATOM     32  C   UNL     1     -39.847  11.137  18.436  1.00  0.00     0.004 C 
ENDBRANCH  30  31
ENDBRANCH  29  30
ENDBRANCH  28  29
ENDBRANCH  27  28
ENDBRANCH  26  27
ENDBRANCH  25  26
ENDBRANCH  24  25
ENDBRANCH  23  24
ENDBRANCH  22  23
ENDBRANCH  21  22
ENDBRANCH  20  21
ENDBRANCH  19  20
ENDBRANCH  18  19
ENDBRANCH   1  18
TORSDOF 28
ENDMDL
MODEL 3
REMARK VINA RESULT:    18.663      1.069      2.312
REMARK INTER + INTRA:          48.028
REMARK INTER:                  49.624
REMARK INTRA:                  -1.596
REMARK UNBOUND:                -1.185
REMARK SMILES CCCCCCCCCCCCCCCCCCCCCCCCCCCCCC(=O)[O-]
REMARK SMILES IDX 16 1 17 2 18 3 19 4 20 5 21 6 22 7 23 8 24 9 25 10 26 11
REMARK SMILES IDX 27 12 28 13 29 14 30 15 31 16 32 17 15 18 14 19 13 20 12 21
REMARK SMILES IDX 11 22 10 23 9 24 8 25 7 26 6 27 5 28 4 29 3 30 2 31 1 32
REMARK H PARENT
REMARK Flexibility Score: inf
ROOT
ATOM      1  C   UNL     1     -33.232  11.315  19.639  1.00  0.00     0.000 C 
ENDROOT
BRANCH   1   2
ATOM      2  C   UNL     1     -33.958  11.358  20.993  1.00  0.00     0.000 C 
BRANCH   2   3
ATOM      3  C   UNL     1     -33.851  12.734  21.674  1.00  0.00     0.000 C 
BRANCH   3   4
ATOM      4  C   UNL     1     -34.588  12.795  23.026  1.00  0.00     0.000 C 
BRANCH   4   5
ATOM      5  C   UNL     1     -33.955  11.960  24.156  1.00  0.00     0.000 C 
BRANCH   5   6
ATOM      6  C   UNL     1     -34.981  11.494  25.204  1.00  0.00     0.000 C 
BRANCH   6   7
ATOM      7  C   UNL     1     -34.383  10.493  26.206  1.00  0.00     0.000 C 
BRANCH   7   8
ATOM      8  C   UNL     1     -32.932  10.826  26.589  1.00  0.00     0.000 C 
BRANCH   8   9
ATOM      9  C   UNL     1     -32.279   9.644  27.321  1.00  0.00     0.000 C 
BRANCH   9  10
ATOM     10  C   UNL     1     -33.213   8.429  27.433  1.00  0.00     0.000 C 
BRANCH  10  11
ATOM     11  C   UNL     1     -32.666   7.195  26.698  1.00  0.00     0.000 C 
BRANCH  11  12
ATOM     12  C   UNL     1     -33.100   7.172  25.223  1.00  0.00     0.000 C 
BRANCH  12  13
ATOM     13  C   UNL     1     -34.574   6.762  25.055  1.00  0.00     0.006 C 
BRANCH  13  14
ATOM     14  C   UNL     1     -35.246   7.493  23.884  1.00  0.00     0.053 C 
BRANCH  14  15
ATOM     15  C   UNL     1     -34.462   7.331  22.618  1.00  0.00     0.041 C 
ATOM     16  O   UNL     1     -34.501   6.249  21.974  1.00  0.00    -0.550 OA
ATOM     17  O   UNL     1     -33.642   8.362  22.177  1.00  0.00    -0.550 OA
ENDBRANCH  14  15
ENDBRANCH  13  14
ENDBRANCH  12  13
ENDBRANCH  11  12
ENDBRANCH  10  11
ENDBRANCH   9  10
ENDBRANCH   8   9
ENDBRANCH   7   8
ENDBRANCH   6   7
ENDBRANCH   5   6
ENDBRANCH   4   5
ENDBRANCH   3   4
ENDBRANCH   2   3
ENDBRANCH   1   2
BRANCH   1  18
ATOM     18  C   UNL     1     -32.832  12.717  19.144  1.00  0.00     0.000 C 
BRANCH  18  19
ATOM     19  C   UNL     1     -31.685  12.678  18.120  1.00  0.00     0.000 C 
BRANCH  19  20
ATOM     20  C   UNL     1     -32.147  13.029  16.695  1.00  0.00     0.000 C 
BRANCH  20  21
ATOM     21  C   UNL     1     -33.676  12.943  16.526  1.00  0.00     0.000 C 
BRANCH  21  22
ATOM     22  C   UNL     1     -34.440  14.257  16.791  1.00  0.00     0.000 C 
BRANCH  22  23
ATOM     23  C   UNL     1     -34.353  15.303  15.664  1.00  0.00     0.000 C 
BRANCH  23  24
ATOM     24  C   UNL     1     -35.096  16.606  15.998  1.00  0.00    -0.000 C 
BRANCH  24  25
ATOM     25  C   UNL     1     -34.675  17.139  17.375  1.00  0.00    -0.000 C 
BRANCH  25  26
ATOM     26  C   UNL     1     -35.585  18.273  17.874  1.00  0.00    -0.000 C 
BRANCH  26  27
ATOM     27  C   UNL     1     -37.075  17.892  17.833  1.00  0.00    -0.000 C 
BRANCH  27  28
ATOM     28  C   UNL     1     -37.299  16.373  17.884  1.00  0.00    -0.000 C 
BRANCH  28  29
ATOM     29  C   UNL     1     -38.782  15.989  17.766  1.00  0.00    -0.000 C 
BRANCH  29  30
ATOM     30  C   UNL     1     -39.684  17.154  18.189  1.00  0.00    -0.000 C 
BRANCH  30  31
ATOM     31  C   UNL     1     -40.523  17.659  17.008  1.00  0.00    -0.003 C 
ATOM     32  C   UNL     1     -40.992  16.502  16.127  1.00  0.00     0.004 C 
ENDBRANCH  30  31
ENDBRANCH  29  30
ENDBRANCH  28  29
ENDBRANCH  27  28
ENDBRANCH  26  27
ENDBRANCH  25  26
ENDBRANCH  24  25
ENDBRANCH  23  24
ENDBRANCH  22  23
ENDBRANCH  21  22
ENDBRANCH  20  21
ENDBRANCH  19  20
ENDBRANCH  18  19
ENDBRANCH   1  18
TORSDOF 28
ENDMDL
MODEL 4
REMARK VINA RESULT:    18.671      0.990      1.672
REMARK INTER + INTRA:          48.048
REMARK INTER:                  47.228
REMARK INTRA:                   0.820
REMARK UNBOUND:                -1.185
REMARK SMILES CCCCCCCCCCCCCCCCCCCCCCCCCCCCCC(=O)[O-]
REMARK SMILES IDX 16 1 17 2 18 3 19 4 20 5 21 6 22 7 23 8 24 9 25 10 26 11
REMARK SMILES IDX 27 12 28 13 29 14 30 15 31 16 32 17 15 18 14 19 13 20 12 21
REMARK SMILES IDX 11 22 10 23 9 24 8 25 7 26 6 27 5 28 4 29 3 30 2 31 1 32
REMARK H PARENT
REMARK Flexibility Score: inf
ROOT
ATOM      1  C   UNL     1     -31.796  12.761  18.129  1.00  0.00     0.000 C 
ENDROOT
BRANCH   1   2
ATOM      2  C   UNL     1     -32.749  12.769  19.336  1.00  0.00     0.000 C 
BRANCH   2   3
ATOM      3  C   UNL     1     -33.157  11.351  19.771  1.00  0.00     0.000 C 
BRANCH   3   4
ATOM      4  C   UNL     1     -33.962  11.333  21.085  1.00  0.00     0.000 C 
BRANCH   4   5
ATOM      5  C   UNL     1     -34.128  12.703  21.772  1.00  0.00     0.000 C 
BRANCH   5   6
ATOM      6  C   UNL     1     -34.578  12.588  23.238  1.00  0.00     0.000 C 
BRANCH   6   7
ATOM      7  C   UNL     1     -33.784  11.524  24.014  1.00  0.00     0.000 C 
BRANCH   7   8
ATOM      8  C   UNL     1     -33.794  11.760  25.532  1.00  0.00     0.000 C 
BRANCH   8   9
ATOM      9  C   UNL     1     -32.672  10.962  26.214  1.00  0.00     0.000 C 
BRANCH   9  10
ATOM     10  C   UNL     1     -33.115   9.548  26.618  1.00  0.00     0.000 C 
BRANCH  10  11
ATOM     11  C   UNL     1     -34.608   9.479  26.982  1.00  0.00     0.000 C 
BRANCH  11  12
ATOM     12  C   UNL     1     -35.413   8.687  25.938  1.00  0.00     0.000 C 
BRANCH  12  13
ATOM     13  C   UNL     1     -34.524   7.744  25.109  1.00  0.00     0.006 C 
BRANCH  13  14
ATOM     14  C   UNL     1     -35.248   7.221  23.860  1.00  0.00     0.053 C 
BRANCH  14  15
ATOM     15  C   UNL     1     -34.365   7.286  22.651  1.00  0.00     0.041 C 
ATOM     16  O   UNL     1     -33.834   8.373  22.302  1.00  0.00    -0.550 OA
ATOM     17  O   UNL     1     -34.171   6.149  21.876  1.00  0.00    -0.550 OA
ENDBRANCH  14  15
ENDBRANCH  13  14
ENDBRANCH  12  13
ENDBRANCH  11  12
ENDBRANCH  10  11
ENDBRANCH   9  10
ENDBRANCH   8   9
ENDBRANCH   7   8
ENDBRANCH   6   7
ENDBRANCH   5   6
ENDBRANCH   4   5
ENDBRANCH   3   4
ENDBRANCH   2   3
ENDBRANCH   1   2
BRANCH   1  18
ATOM     18  C   UNL     1     -32.536  12.977  16.797  1.00  0.00     0.000 C 
BRANCH  18  19
ATOM     19  C   UNL     1     -34.040  12.671  16.900  1.00  0.00     0.000 C 
BRANCH  19  20
ATOM     20  C   UNL     1     -34.909  13.705  16.163  1.00  0.00     0.000 C 
BRANCH  20  21
ATOM     21  C   UNL     1     -34.092  14.892  15.619  1.00  0.00     0.000 C 
BRANCH  21  22
ATOM     22  C   UNL     1     -34.631  16.288  15.994  1.00  0.00     0.000 C 
BRANCH  22  23
ATOM     23  C   UNL     1     -34.954  16.485  17.486  1.00  0.00     0.000 C 
BRANCH  23  24
ATOM     24  C   UNL     1     -34.708  17.923  17.967  1.00  0.00    -0.000 C 
BRANCH  24  25
ATOM     25  C   UNL     1     -35.964  18.787  17.777  1.00  0.00    -0.000 C 
BRANCH  25  26
ATOM     26  C   UNL     1     -37.258  17.960  17.786  1.00  0.00    -0.000 C 
BRANCH  26  27
ATOM     27  C   UNL     1     -36.992  16.448  17.680  1.00  0.00    -0.000 C 
BRANCH  27  28
ATOM     28  C   UNL     1     -38.258  15.607  17.907  1.00  0.00    -0.000 C 
BRANCH  28  29
ATOM     29  C   UNL     1     -39.130  16.149  19.049  1.00  0.00    -0.000 C 
BRANCH  29  30
ATOM     30  C   UNL     1     -40.497  16.604  18.525  1.00  0.00    -0.000 C 
BRANCH  30  31
ATOM     31  C   UNL     1     -40.474  16.772  16.999  1.00  0.00    -0.003 C 
ATOM     32  C   UNL     1     -40.604  18.241  16.602  1.00  0.00     0.004 C 
ENDBRANCH  30  31
ENDBRANCH  29  30
ENDBRANCH  28  29
ENDBRANCH  27  28
ENDBRANCH  26  27
ENDBRANCH  25  26
ENDBRANCH  24  25
ENDBRANCH  23  24
ENDBRANCH  22  23
ENDBRANCH  21  22
ENDBRANCH  20  21
ENDBRANCH  19  20
ENDBRANCH  18  19
ENDBRANCH   1  18
TORSDOF 28
ENDMDL
MODEL 5
REMARK VINA RESULT:    18.765      1.715      3.228
REMARK INTER + INTRA:          48.296
REMARK INTER:                  49.341
REMARK INTRA:                  -1.045
REMARK UNBOUND:                -1.185
REMARK SMILES CCCCCCCCCCCCCCCCCCCCCCCCCCCCCC(=O)[O-]
REMARK SMILES IDX 16 1 17 2 18 3 19 4 20 5 21 6 22 7 23 8 24 9 25 10 26 11
REMARK SMILES IDX 27 12 28 13 29 14 30 15 31 16 32 17 15 18 14 19 13 20 12 21
REMARK SMILES IDX 11 22 10 23 9 24 8 25 7 26 6 27 5 28 4 29 3 30 2 31 1 32
REMARK H PARENT
REMARK Flexibility Score: inf
ROOT
ATOM      1  C   UNL     1     -32.492  12.161  19.306  1.00  0.00     0.000 C 
ENDROOT
BRANCH   1   2
ATOM      2  C   UNL     1     -33.585  12.374  20.366  1.00  0.00     0.000 C 
BRANCH   2   3
ATOM      3  C   UNL     1     -34.333  11.073  20.707  1.00  0.00     0.000 C 
BRANCH   3   4
ATOM      4  C   UNL     1     -33.393   9.863  20.870  1.00  0.00     0.000 C 
BRANCH   4   5
ATOM      5  C   UNL     1     -33.603   9.037  22.153  1.00  0.00     0.000 C 
BRANCH   5   6
ATOM      6  C   UNL     1     -33.674   7.524  21.888  1.00  0.00     0.000 C 
BRANCH   6   7
ATOM      7  C   UNL     1     -34.657   6.808  22.829  1.00  0.00     0.000 C 
BRANCH   7   8
ATOM      8  C   UNL     1     -35.049   7.662  24.044  1.00  0.00     0.000 C 
BRANCH   8   9
ATOM      9  C   UNL     1     -34.715   6.930  25.354  1.00  0.00     0.000 C 
BRANCH   9  10
ATOM     10  C   UNL     1     -33.204   6.737  25.553  1.00  0.00     0.000 C 
BRANCH  10  11
ATOM     11  C   UNL     1     -32.541   7.943  26.237  1.00  0.00     0.000 C 
BRANCH  11  12
ATOM     12  C   UNL     1     -33.554   8.763  27.054  1.00  0.00     0.000 C 
BRANCH  12  13
ATOM     13  C   UNL     1     -33.109  10.226  27.235  1.00  0.00     0.006 C 
BRANCH  13  14
ATOM     14  C   UNL     1     -32.859  10.922  25.889  1.00  0.00     0.053 C 
BRANCH  14  15
ATOM     15  C   UNL     1     -34.146  11.314  25.230  1.00  0.00     0.041 C 
ATOM     16  O   UNL     1     -34.142  11.975  24.158  1.00  0.00    -0.550 OA
ATOM     17  O   UNL     1     -35.356  10.994  25.834  1.00  0.00    -0.550 OA
ENDBRANCH  14  15
ENDBRANCH  13  14
ENDBRANCH  12  13
ENDBRANCH  11  12
ENDBRANCH  10  11
ENDBRANCH   9  10
ENDBRANCH   8   9
ENDBRANCH   7   8
ENDBRANCH   6   7
ENDBRANCH   5   6
ENDBRANCH   4   5
ENDBRANCH   3   4
ENDBRANCH   2   3
ENDBRANCH   1   2
BRANCH   1  18
ATOM     18  C   UNL     1     -32.342  13.371  18.368  1.00  0.00     0.000 C 
BRANCH  18  19
ATOM     19  C   UNL     1     -32.444  12.984  16.883  1.00  0.00     0.000 C 
BRANCH  19  20
ATOM     20  C   UNL     1     -33.860  12.534  16.481  1.00  0.00     0.000 C 
BRANCH  20  21
ATOM     21  C   UNL     1     -34.897  13.668  16.579  1.00  0.00     0.000 C 
BRANCH  21  22
ATOM     22  C   UNL     1     -34.317  15.063  16.892  1.00  0.00     0.000 C 
BRANCH  22  23
ATOM     23  C   UNL     1     -34.932  16.223  16.088  1.00  0.00     0.000 C 
BRANCH  23  24
ATOM     24  C   UNL     1     -34.610  17.602  16.684  1.00  0.00    -0.000 C 
BRANCH  24  25
ATOM     25  C   UNL     1     -35.227  17.752  18.083  1.00  0.00    -0.000 C 
BRANCH  25  26
ATOM     26  C   UNL     1     -36.735  18.044  18.037  1.00  0.00    -0.000 C 
BRANCH  26  27
ATOM     27  C   UNL     1     -37.529  16.926  17.339  1.00  0.00    -0.000 C 
BRANCH  27  28
ATOM     28  C   UNL     1     -37.685  15.674  18.217  1.00  0.00    -0.000 C 
BRANCH  28  29
ATOM     29  C   UNL     1     -39.033  15.630  18.950  1.00  0.00    -0.000 C 
BRANCH  29  30
ATOM     30  C   UNL     1     -39.900  16.838  18.576  1.00  0.00    -0.000 C 
BRANCH  30  31
ATOM     31  C   UNL     1     -40.489  16.678  17.168  1.00  0.00    -0.003 C 
ATOM     32  C   UNL     1     -40.864  18.031  16.568  1.00  0.00     0.004 C 
ENDBRANCH  30  31
ENDBRANCH  29  30
ENDBRANCH  28  29
ENDBRANCH  27  28
ENDBRANCH  26  27
ENDBRANCH  25  26
ENDBRANCH  24  25
ENDBRANCH  23  24
ENDBRANCH  22  23
ENDBRANCH  21  22
ENDBRANCH  20  21
ENDBRANCH  19  20
ENDBRANCH  18  19
ENDBRANCH   1  18
TORSDOF 28
ENDMDL
MODEL 6
REMARK VINA RESULT:    18.864      1.626      3.180
REMARK INTER + INTRA:          48.557
REMARK INTER:                  49.699
REMARK INTRA:                  -1.142
REMARK UNBOUND:                -1.185
REMARK SMILES CCCCCCCCCCCCCCCCCCCCCCCCCCCCCC(=O)[O-]
REMARK SMILES IDX 16 1 17 2 18 3 19 4 20 5 21 6 22 7 23 8 24 9 25 10 26 11
REMARK SMILES IDX 27 12 28 13 29 14 30 15 31 16 32 17 15 18 14 19 13 20 12 21
REMARK SMILES IDX 11 22 10 23 9 24 8 25 7 26 6 27 5 28 4 29 3 30 2 31 1 32
REMARK H PARENT
REMARK Flexibility Score: inf
ROOT
ATOM      1  C   UNL     1     -33.581  12.676  20.075  1.00  0.00     0.000 C 
ENDROOT
BRANCH   1   2
ATOM      2  C   UNL     1     -33.995  11.681  21.171  1.00  0.00     0.000 C 
BRANCH   2   3
ATOM      3  C   UNL     1     -33.397  10.281  20.949  1.00  0.00     0.000 C 
BRANCH   3   4
ATOM      4  C   UNL     1     -33.962   9.224  21.918  1.00  0.00     0.000 C 
BRANCH   4   5
ATOM      5  C   UNL     1     -33.451   7.788  21.694  1.00  0.00     0.000 C 
BRANCH   5   6
ATOM      6  C   UNL     1     -34.252   6.737  22.481  1.00  0.00     0.000 C 
BRANCH   6   7
ATOM      7  C   UNL     1     -35.640   7.249  22.901  1.00  0.00     0.000 C 
BRANCH   7   8
ATOM      8  C   UNL     1     -35.864   7.193  24.420  1.00  0.00     0.000 C 
BRANCH   8   9
ATOM      9  C   UNL     1     -34.604   6.681  25.136  1.00  0.00     0.000 C 
BRANCH   9  10
ATOM     10  C   UNL     1     -33.604   7.805  25.448  1.00  0.00     0.000 C 
BRANCH  10  11
ATOM     11  C   UNL     1     -32.796   7.536  26.728  1.00  0.00     0.000 C 
BRANCH  11  12
ATOM     12  C   UNL     1     -32.528   8.830  27.515  1.00  0.00     0.000 C 
BRANCH  12  13
ATOM     13  C   UNL     1     -33.544   9.937  27.182  1.00  0.00     0.006 C 
BRANCH  13  14
ATOM     14  C   UNL     1     -33.106  10.775  25.972  1.00  0.00     0.053 C 
BRANCH  14  15
ATOM     15  C   UNL     1     -34.280  11.424  25.304  1.00  0.00     0.041 C 
ATOM     16  O   UNL     1     -35.451  11.209  25.715  1.00  0.00    -0.550 OA
ATOM     17  O   UNL     1     -34.082  12.227  24.188  1.00  0.00    -0.550 OA
ENDBRANCH  14  15
ENDBRANCH  13  14
ENDBRANCH  12  13
ENDBRANCH  11  12
ENDBRANCH  10  11
ENDBRANCH   9  10
ENDBRANCH   8   9
ENDBRANCH   7   8
ENDBRANCH   6   7
ENDBRANCH   5   6
ENDBRANCH   4   5
ENDBRANCH   3   4
ENDBRANCH   2   3
ENDBRANCH   1   2
BRANCH   1  18
ATOM     18  C   UNL     1     -32.863  11.989  18.901  1.00  0.00     0.000 C 
BRANCH  18  19
ATOM     19  C   UNL     1     -31.969  12.956  18.107  1.00  0.00     0.000 C 
BRANCH  19  20
ATOM     20  C   UNL     1     -32.485  13.208  16.679  1.00  0.00     0.000 C 
BRANCH  20  21
ATOM     21  C   UNL     1     -33.894  13.830  16.656  1.00  0.00     0.000 C 
BRANCH  21  22
ATOM     22  C   UNL     1     -34.145  14.843  15.520  1.00  0.00     0.000 C 
BRANCH  22  23
ATOM     23  C   UNL     1     -34.890  16.124  15.939  1.00  0.00     0.000 C 
BRANCH  23  24
ATOM     24  C   UNL     1     -34.714  16.460  17.428  1.00  0.00    -0.000 C 
BRANCH  24  25
ATOM     25  C   UNL     1     -34.992  17.947  17.691  1.00  0.00    -0.000 C 
BRANCH  25  26
ATOM     26  C   UNL     1     -36.494  18.270  17.730  1.00  0.00    -0.000 C 
BRANCH  26  27
ATOM     27  C   UNL     1     -37.369  17.005  17.743  1.00  0.00    -0.000 C 
BRANCH  27  28
ATOM     28  C   UNL     1     -38.871  17.325  17.790  1.00  0.00    -0.000 C 
BRANCH  28  29
ATOM     29  C   UNL     1     -39.740  16.066  17.922  1.00  0.00    -0.000 C 
BRANCH  29  30
ATOM     30  C   UNL     1     -39.064  15.026  18.822  1.00  0.00    -0.000 C 
BRANCH  30  31
ATOM     31  C   UNL     1     -40.080  13.998  19.337  1.00  0.00    -0.003 C 
ATOM     32  C   UNL     1     -39.869  12.635  18.682  1.00  0.00     0.004 C 
ENDBRANCH  30  31
ENDBRANCH  29  30
ENDBRANCH  28  29
ENDBRANCH  27  28
ENDBRANCH  26  27
ENDBRANCH  25  26
ENDBRANCH  24  25
ENDBRANCH  23  24
ENDBRANCH  22  23
ENDBRANCH  21  22
ENDBRANCH  20  21
ENDBRANCH  19  20
ENDBRANCH  18  19
ENDBRANCH   1  18
TORSDOF 28
ENDMDL
MODEL 7
REMARK VINA RESULT:    19.024      1.627      3.166
REMARK INTER + INTRA:          48.979
REMARK INTER:                  49.352
REMARK INTRA:                  -0.373
REMARK UNBOUND:                -1.185
REMARK SMILES CCCCCCCCCCCCCCCCCCCCCCCCCCCCCC(=O)[O-]
REMARK SMILES IDX 16 1 17 2 18 3 19 4 20 5 21 6 22 7 23 8 24 9 25 10 26 11
REMARK SMILES IDX 27 12 28 13 29 14 30 15 31 16 32 17 15 18 14 19 13 20 12 21
REMARK SMILES IDX 11 22 10 23 9 24 8 25 7 26 6 27 5 28 4 29 3 30 2 31 1 32
REMARK H PARENT
REMARK Flexibility Score: inf
ROOT
ATOM      1  C   UNL     1     -33.565  12.516  16.727  1.00  0.00     0.000 C 
ENDROOT
BRANCH   1   2
ATOM      2  C   UNL     1     -32.174  12.941  17.224  1.00  0.00     0.000 C 
BRANCH   2   3
ATOM      3  C   UNL     1     -32.027  12.801  18.749  1.00  0.00     0.000 C 
BRANCH   3   4
ATOM      4  C   UNL     1     -33.228  12.094  19.407  1.00  0.00     0.000 C 
BRANCH   4   5
ATOM      5  C   UNL     1     -32.919  10.721  20.033  1.00  0.00     0.000 C 
BRANCH   5   6
ATOM      6  C   UNL     1     -33.803  10.405  21.252  1.00  0.00     0.000 C 
BRANCH   6   7
ATOM      7  C   UNL     1     -33.477   9.038  21.875  1.00  0.00     0.000 C 
BRANCH   7   8
ATOM      8  C   UNL     1     -34.732   8.206  22.181  1.00  0.00     0.000 C 
BRANCH   8   9
ATOM      9  C   UNL     1     -34.369   6.956  22.998  1.00  0.00     0.000 C 
BRANCH   9  10
ATOM     10  C   UNL     1     -34.937   6.998  24.424  1.00  0.00     0.000 C 
BRANCH  10  11
ATOM     11  C   UNL     1     -33.925   7.541  25.446  1.00  0.00     0.000 C 
BRANCH  11  12
ATOM     12  C   UNL     1     -34.427   8.832  26.115  1.00  0.00     0.000 C 
BRANCH  12  13
ATOM     13  C   UNL     1     -33.291   9.617  26.794  1.00  0.00     0.006 C 
BRANCH  13  14
ATOM     14  C   UNL     1     -33.014  10.953  26.091  1.00  0.00     0.053 C 
BRANCH  14  15
ATOM     15  C   UNL     1     -34.212  11.427  25.327  1.00  0.00     0.041 C 
ATOM     16  O   UNL     1     -35.375  11.223  25.767  1.00  0.00    -0.550 OA
ATOM     17  O   UNL     1     -34.045  12.050  24.097  1.00  0.00    -0.550 OA
ENDBRANCH  14  15
ENDBRANCH  13  14
ENDBRANCH  12  13
ENDBRANCH  11  12
ENDBRANCH  10  11
ENDBRANCH   9  10
ENDBRANCH   8   9
ENDBRANCH   7   8
ENDBRANCH   6   7
ENDBRANCH   5   6
ENDBRANCH   4   5
ENDBRANCH   3   4
ENDBRANCH   2   3
ENDBRANCH   1   2
BRANCH   1  18
ATOM     18  C   UNL     1     -34.556  13.693  16.684  1.00  0.00     0.000 C 
BRANCH  18  19
ATOM     19  C   UNL     1     -34.057  14.854  15.807  1.00  0.00     0.000 C 
BRANCH  19  20
ATOM     20  C   UNL     1     -34.821  16.165  16.064  1.00  0.00     0.000 C 
BRANCH  20  21
ATOM     21  C   UNL     1     -34.967  16.487  17.563  1.00  0.00     0.000 C 
BRANCH  21  22
ATOM     22  C   UNL     1     -35.271  17.963  17.891  1.00  0.00     0.000 C 
BRANCH  22  23
ATOM     23  C   UNL     1     -36.754  18.363  17.794  1.00  0.00     0.000 C 
BRANCH  23  24
ATOM     24  C   UNL     1     -37.677  17.172  17.492  1.00  0.00    -0.000 C 
BRANCH  24  25
ATOM     25  C   UNL     1     -39.049  17.653  16.998  1.00  0.00    -0.000 C 
BRANCH  25  26
ATOM     26  C   UNL     1     -40.197  16.742  17.461  1.00  0.00    -0.000 C 
BRANCH  26  27
ATOM     27  C   UNL     1     -40.235  16.573  18.990  1.00  0.00    -0.000 C 
BRANCH  27  28
ATOM     28  C   UNL     1     -39.139  15.629  19.508  1.00  0.00    -0.000 C 
BRANCH  28  29
ATOM     29  C   UNL     1     -39.078  14.309  18.727  1.00  0.00    -0.000 C 
BRANCH  29  30
ATOM     30  C   UNL     1     -40.398  13.539  18.849  1.00  0.00    -0.000 C 
BRANCH  30  31
ATOM     31  C   UNL     1     -40.156  12.103  19.333  1.00  0.00    -0.003 C 
ATOM     32  C   UNL     1     -39.790  11.182  18.171  1.00  0.00     0.004 C 
ENDBRANCH  30  31
ENDBRANCH  29  30
ENDBRANCH  28  29
ENDBRANCH  27  28
ENDBRANCH  26  27
ENDBRANCH  25  26
ENDBRANCH  24  25
ENDBRANCH  23  24
ENDBRANCH  22  23
ENDBRANCH  21  22
ENDBRANCH  20  21
ENDBRANCH  19  20
ENDBRANCH  18  19
ENDBRANCH   1  18
TORSDOF 28
ENDMDL
MODEL 8
REMARK VINA RESULT:    19.560      2.464     10.221
REMARK INTER + INTRA:          50.393
REMARK INTER:                  51.692
REMARK INTRA:                  -1.300
REMARK UNBOUND:                -1.185
REMARK SMILES CCCCCCCCCCCCCCCCCCCCCCCCCCCCCC(=O)[O-]
REMARK SMILES IDX 16 1 17 2 18 3 19 4 20 5 21 6 22 7 23 8 24 9 25 10 26 11
REMARK SMILES IDX 27 12 28 13 29 14 30 15 31 16 32 17 15 18 14 19 13 20 12 21
REMARK SMILES IDX 11 22 10 23 9 24 8 25 7 26 6 27 5 28 4 29 3 30 2 31 1 32
REMARK H PARENT
REMARK Flexibility Score: inf
ROOT
ATOM      1  C   UNL     1     -32.836  12.781  19.882  1.00  0.00     0.000 C 
ENDROOT
BRANCH   1   2
ATOM      2  C   UNL     1     -32.402  11.794  18.786  1.00  0.00     0.000 C 
BRANCH   2   3
ATOM      3  C   UNL     1     -32.966  12.167  17.404  1.00  0.00     0.000 C 
BRANCH   3   4
ATOM      4  C   UNL     1     -33.279  13.669  17.267  1.00  0.00     0.000 C 
BRANCH   4   5
ATOM      5  C   UNL     1     -34.438  14.013  16.312  1.00  0.00     0.000 C 
BRANCH   5   6
ATOM      6  C   UNL     1     -34.274  15.387  15.639  1.00  0.00     0.000 C 
BRANCH   6   7
ATOM      7  C   UNL     1     -35.186  16.458  16.261  1.00  0.00     0.000 C 
BRANCH   7   8
ATOM      8  C   UNL     1     -34.893  16.700  17.750  1.00  0.00     0.000 C 
BRANCH   8   9
ATOM      9  C   UNL     1     -35.274  18.133  18.153  1.00  0.00     0.000 C 
BRANCH   9  10
ATOM     10  C   UNL     1     -36.621  18.574  17.562  1.00  0.00     0.000 C 
BRANCH  10  11
ATOM     11  C   UNL     1     -37.593  17.399  17.368  1.00  0.00     0.000 C 
BRANCH  11  12
ATOM     12  C   UNL     1     -39.054  17.873  17.294  1.00  0.00     0.000 C 
BRANCH  12  13
ATOM     13  C   UNL     1     -40.047  16.764  17.687  1.00  0.00     0.006 C 
BRANCH  13  14
ATOM     14  C   UNL     1     -39.751  16.194  19.082  1.00  0.00     0.053 C 
BRANCH  14  15
ATOM     15  C   UNL     1     -39.042  14.877  18.993  1.00  0.00     0.041 C 
ATOM     16  O   UNL     1     -37.903  14.795  18.463  1.00  0.00    -0.550 OA
ATOM     17  O   UNL     1     -39.669  13.724  19.450  1.00  0.00    -0.550 OA
ENDBRANCH  14  15
ENDBRANCH  13  14
ENDBRANCH  12  13
ENDBRANCH  11  12
ENDBRANCH  10  11
ENDBRANCH   9  10
ENDBRANCH   8   9
ENDBRANCH   7   8
ENDBRANCH   6   7
ENDBRANCH   5   6
ENDBRANCH   4   5
ENDBRANCH   3   4
ENDBRANCH   2   3
ENDBRANCH   1   2
BRANCH   1  18
ATOM     18  C   UNL     1     -34.013  12.247  20.717  1.00  0.00     0.000 C 
BRANCH  18  19
ATOM     19  C   UNL     1     -34.171  10.721  20.609  1.00  0.00     0.000 C 
BRANCH  19  20
ATOM     20  C   UNL     1     -33.630   9.978  21.843  1.00  0.00     0.000 C 
BRANCH  20  21
ATOM     21  C   UNL     1     -32.894   8.675  21.480  1.00  0.00     0.000 C 
BRANCH  21  22
ATOM     22  C   UNL     1     -33.656   7.376  21.809  1.00  0.00     0.000 C 
BRANCH  22  23
ATOM     23  C   UNL     1     -35.001   7.572  22.534  1.00  0.00     0.000 C 
BRANCH  23  24
ATOM     24  C   UNL     1     -35.132   6.708  23.797  1.00  0.00    -0.000 C 
BRANCH  24  25
ATOM     25  C   UNL     1     -34.636   7.468  25.036  1.00  0.00    -0.000 C 
BRANCH  25  26
ATOM     26  C   UNL     1     -33.336   6.883  25.608  1.00  0.00    -0.000 C 
BRANCH  26  27
ATOM     27  C   UNL     1     -32.685   7.807  26.653  1.00  0.00    -0.000 C 
BRANCH  27  28
ATOM     28  C   UNL     1     -33.490   9.094  26.888  1.00  0.00    -0.000 C 
BRANCH  28  29
ATOM     29  C   UNL     1     -32.594  10.312  27.156  1.00  0.00    -0.000 C 
BRANCH  29  30
ATOM     30  C   UNL     1     -33.052  11.521  26.334  1.00  0.00    -0.000 C 
BRANCH  30  31
ATOM     31  C   UNL     1     -34.119  11.117  25.308  1.00  0.00    -0.003 C 
ATOM     32  C   UNL     1     -34.407  12.256  24.331  1.00  0.00     0.004 C 
ENDBRANCH  30  31
ENDBRANCH  29  30
ENDBRANCH  28  29
ENDBRANCH  27  28
ENDBRANCH  26  27
ENDBRANCH  25  26
ENDBRANCH  24  25
ENDBRANCH  23  24
ENDBRANCH  22  23
ENDBRANCH  21  22
ENDBRANCH  20  21
ENDBRANCH  19  20
ENDBRANCH  18  19
ENDBRANCH   1  18
TORSDOF 28
ENDMDL
MODEL 9
REMARK VINA RESULT:    19.626      0.843      1.804
REMARK INTER + INTRA:          50.567
REMARK INTER:                  49.307
REMARK INTRA:                   1.260
REMARK UNBOUND:                -1.185
REMARK SMILES CCCCCCCCCCCCCCCCCCCCCCCCCCCCCC(=O)[O-]
REMARK SMILES IDX 16 1 17 2 18 3 19 4 20 5 21 6 22 7 23 8 24 9 25 10 26 11
REMARK SMILES IDX 27 12 28 13 29 14 30 15 31 16 32 17 15 18 14 19 13 20 12 21
REMARK SMILES IDX 11 22 10 23 9 24 8 25 7 26 6 27 5 28 4 29 3 30 2 31 1 32
REMARK H PARENT
REMARK Flexibility Score: inf
ROOT
ATOM      1  C   UNL     1     -32.786  13.141  16.606  1.00  0.00     0.000 C 
ENDROOT
BRANCH   1   2
ATOM      2  C   UNL     1     -33.362  12.066  17.542  1.00  0.00     0.000 C 
BRANCH   2   3
ATOM      3  C   UNL     1     -32.599  11.978  18.875  1.00  0.00     0.000 C 
BRANCH   3   4
ATOM      4  C   UNL     1     -33.254  12.804  19.999  1.00  0.00     0.000 C 
BRANCH   4   5
ATOM      5  C   UNL     1     -33.755  11.988  21.206  1.00  0.00     0.000 C 
BRANCH   5   6
ATOM      6  C   UNL     1     -34.288  12.870  22.347  1.00  0.00     0.000 C 
BRANCH   6   7
ATOM      7  C   UNL     1     -34.658  12.054  23.597  1.00  0.00     0.000 C 
BRANCH   7   8
ATOM      8  C   UNL     1     -33.469  11.847  24.548  1.00  0.00     0.000 C 
BRANCH   8   9
ATOM      9  C   UNL     1     -33.948  11.319  25.909  1.00  0.00     0.000 C 
BRANCH   9  10
ATOM     10  C   UNL     1     -32.884  10.470  26.621  1.00  0.00     0.000 C 
BRANCH  10  11
ATOM     11  C   UNL     1     -33.315   9.005  26.792  1.00  0.00     0.000 C 
BRANCH  11  12
ATOM     12  C   UNL     1     -34.509   8.653  25.888  1.00  0.00     0.000 C 
BRANCH  12  13
ATOM     13  C   UNL     1     -34.308   7.317  25.152  1.00  0.00     0.006 C 
BRANCH  13  14
ATOM     14  C   UNL     1     -35.215   7.197  23.919  1.00  0.00     0.053 C 
BRANCH  14  15
ATOM     15  C   UNL     1     -34.422   7.267  22.650  1.00  0.00     0.041 C 
ATOM     16  O   UNL     1     -34.260   6.241  21.937  1.00  0.00    -0.550 OA
ATOM     17  O   UNL     1     -33.815   8.461  22.281  1.00  0.00    -0.550 OA
ENDBRANCH  14  15
ENDBRANCH  13  14
ENDBRANCH  12  13
ENDBRANCH  11  12
ENDBRANCH  10  11
ENDBRANCH   9  10
ENDBRANCH   8   9
ENDBRANCH   7   8
ENDBRANCH   6   7
ENDBRANCH   5   6
ENDBRANCH   4   5
ENDBRANCH   3   4
ENDBRANCH   2   3
ENDBRANCH   1   2
BRANCH   1  18
ATOM     18  C   UNL     1     -33.615  14.437  16.622  1.00  0.00     0.000 C 
BRANCH  18  19
ATOM     19  C   UNL     1     -34.350  14.653  17.956  1.00  0.00     0.000 C 
BRANCH  19  20
ATOM     20  C   UNL     1     -35.045  16.023  18.038  1.00  0.00     0.000 C 
BRANCH  20  21
ATOM     21  C   UNL     1     -34.348  17.098  17.182  1.00  0.00     0.000 C 
BRANCH  21  22
ATOM     22  C   UNL     1     -34.929  18.520  17.314  1.00  0.00     0.000 C 
BRANCH  22  23
ATOM     23  C   UNL     1     -36.398  18.588  17.771  1.00  0.00     0.000 C 
BRANCH  23  24
ATOM     24  C   UNL     1     -36.986  17.207  18.101  1.00  0.00    -0.000 C 
BRANCH  24  25
ATOM     25  C   UNL     1     -37.996  16.771  17.030  1.00  0.00    -0.000 C 
BRANCH  25  26
ATOM     26  C   UNL     1     -39.411  17.309  17.297  1.00  0.00    -0.000 C 
BRANCH  26  27
ATOM     27  C   UNL     1     -40.149  16.510  18.385  1.00  0.00    -0.000 C 
BRANCH  27  28
ATOM     28  C   UNL     1     -39.191  15.709  19.282  1.00  0.00    -0.000 C 
BRANCH  28  29
ATOM     29  C   UNL     1     -39.066  14.241  18.851  1.00  0.00    -0.000 C 
BRANCH  29  30
ATOM     30  C   UNL     1     -40.431  13.543  18.882  1.00  0.00    -0.000 C 
BRANCH  30  31
ATOM     31  C   UNL     1     -40.277  12.044  19.171  1.00  0.00    -0.003 C 
ATOM     32  C   UNL     1     -39.521  11.338  18.046  1.00  0.00     0.004 C 
ENDBRANCH  30  31
ENDBRANCH  29  30
ENDBRANCH  28  29
ENDBRANCH  27  28
ENDBRANCH  26  27
ENDBRANCH  25  26
ENDBRANCH  24  25
ENDBRANCH  23  24
ENDBRANCH  22  23
ENDBRANCH  21  22
ENDBRANCH  20  21
ENDBRANCH  19  20
ENDBRANCH  18  19
ENDBRANCH   1  18
TORSDOF 28
ENDMDL
