MODEL 1
REMARK VINA RESULT:     2.482      0.000      0.000
REMARK INTER + INTRA:           7.370
REMARK INTER:                   5.674
REMARK INTRA:                   1.695
REMARK UNBOUND:                 1.695
REMARK SMILES CCCCCCCCCCCCCCCCCCCCCCCC(=O)[O-]
REMARK SMILES IDX 13 1 14 2 15 3 16 4 17 5 18 6 19 7 20 8 21 9 22 10 23 11
REMARK SMILES IDX 24 12 25 13 26 14 12 15 11 16 10 17 9 18 8 19 7 20 6 21 5 22
REMARK SMILES IDX 4 23 3 24 2 25 1 26
REMARK H PARENT
REMARK Flexibility Score: inf
ROOT
ATOM      1  C   UNL     1      44.603 -25.635   1.609  1.00  0.00     0.000 C 
ENDROOT
BRANCH   1   2
ATOM      2  C   UNL     1      45.705 -26.411   2.353  1.00  0.00     0.000 C 
BRANCH   2   3
ATOM      3  C   UNL     1      45.947 -27.817   1.773  1.00  0.00     0.000 C 
BRANCH   3   4
ATOM      4  C   UNL     1      45.849 -28.972   2.787  1.00  0.00     0.000 C 
BRANCH   4   5
ATOM      5  C   UNL     1      46.110 -28.523   4.235  1.00  0.00     0.000 C 
BRANCH   5   6
ATOM      6  C   UNL     1      45.151 -27.412   4.691  1.00  0.00     0.000 C 
BRANCH   6   7
ATOM      7  C   UNL     1      45.639 -26.689   5.956  1.00  0.00     0.000 C 
BRANCH   7   8
ATOM      8  C   UNL     1      46.124 -27.697   7.008  1.00  0.00     0.000 C 
BRANCH   8   9
ATOM      9  C   UNL     1      45.850 -29.155   6.604  1.00  0.00     0.000 C 
BRANCH   9  10
ATOM     10  C   UNL     1      45.303 -29.998   7.769  1.00  0.00     0.006 C 
BRANCH  10  11
ATOM     11  C   UNL     1      44.543 -29.145   8.793  1.00  0.00     0.053 C 
BRANCH  11  12
ATOM     12  C   UNL     1      44.738 -29.647  10.191  1.00  0.00     0.041 C 
ATOM     13  O   UNL     1      43.841 -29.471  11.059  1.00  0.00    -0.550 OA
ATOM     14  O   UNL     1      45.921 -30.284  10.544  1.00  0.00    -0.550 OA
ENDBRANCH  11  12
ENDBRANCH  10  11
ENDBRANCH   9  10
ENDBRANCH   8   9
ENDBRANCH   7   8
ENDBRANCH   6   7
ENDBRANCH   5   6
ENDBRANCH   4   5
ENDBRANCH   3   4
ENDBRANCH   2   3
ENDBRANCH   1   2
BRANCH   1  15
ATOM     15  C   UNL     1      45.111 -25.005   0.301  1.00  0.00     0.000 C 
BRANCH  15  16
ATOM     16  C   UNL     1      45.014 -23.470   0.311  1.00  0.00     0.000 C 
BRANCH  16  17
ATOM     17  C   UNL     1      44.785 -22.883  -1.091  1.00  0.00     0.000 C 
BRANCH  17  18
ATOM     18  C   UNL     1      46.088 -22.721  -1.888  1.00  0.00    -0.000 C 
BRANCH  18  19
ATOM     19  C   UNL     1      45.935 -23.289  -3.307  1.00  0.00    -0.000 C 
BRANCH  19  20
ATOM     20  C   UNL     1      44.543 -23.893  -3.565  1.00  0.00    -0.000 C 
BRANCH  20  21
ATOM     21  C   UNL     1      44.444 -25.420  -3.374  1.00  0.00    -0.000 C 
BRANCH  21  22
ATOM     22  C   UNL     1      45.495 -26.241  -4.142  1.00  0.00    -0.000 C 
BRANCH  22  23
ATOM     23  C   UNL     1      46.125 -25.459  -5.307  1.00  0.00    -0.000 C 
BRANCH  23  24
ATOM     24  C   UNL     1      45.116 -25.141  -6.426  1.00  0.00    -0.000 C 
BRANCH  24  25
ATOM     25  C   UNL     1      45.738 -24.561  -7.710  1.00  0.00    -0.003 C 
ATOM     26  C   UNL     1      46.061 -23.072  -7.598  1.00  0.00     0.004 C 
ENDBRANCH  24  25
ENDBRANCH  23  24
ENDBRANCH  22  23
ENDBRANCH  21  22
ENDBRANCH  20  21
ENDBRANCH  19  20
ENDBRANCH  18  19
ENDBRANCH  17  18
ENDBRANCH  16  17
ENDBRANCH  15  16
ENDBRANCH   1  15
TORSDOF 22
ENDMDL
MODEL 2
REMARK VINA RESULT:     2.625      5.130     12.165
REMARK INTER + INTRA:           7.695
REMARK INTER:                   3.264
REMARK INTRA:                   4.431
REMARK UNBOUND:                 1.695
REMARK SMILES CCCCCCCCCCCCCCCCCCCCCCCC(=O)[O-]
REMARK SMILES IDX 13 1 14 2 15 3 16 4 17 5 18 6 19 7 20 8 21 9 22 10 23 11
REMARK SMILES IDX 24 12 25 13 26 14 12 15 11 16 10 17 9 18 8 19 7 20 6 21 5 22
REMARK SMILES IDX 4 23 3 24 2 25 1 26
REMARK H PARENT
REMARK Flexibility Score: inf
ROOT
ATOM      1  C   UNL     1      44.789 -27.148   2.418  1.00  0.00     0.000 C 
ENDROOT
BRANCH   1   2
ATOM      2  C   UNL     1      45.365 -26.321   3.581  1.00  0.00     0.000 C 
BRANCH   2   3
ATOM      3  C   UNL     1      45.847 -24.925   3.145  1.00  0.00     0.000 C 
BRANCH   3   4
ATOM      4  C   UNL     1      46.034 -24.739   1.627  1.00  0.00     0.000 C 
BRANCH   4   5
ATOM      5  C   UNL     1      45.485 -25.918   0.806  1.00  0.00     0.000 C 
BRANCH   5   6
ATOM      6  C   UNL     1      44.611 -25.461  -0.372  1.00  0.00     0.000 C 
BRANCH   6   7
ATOM      7  C   UNL     1      44.865 -23.998  -0.767  1.00  0.00     0.000 C 
BRANCH   7   8
ATOM      8  C   UNL     1      46.098 -23.883  -1.676  1.00  0.00     0.000 C 
BRANCH   8   9
ATOM      9  C   UNL     1      46.125 -24.955  -2.778  1.00  0.00     0.000 C 
BRANCH   9  10
ATOM     10  C   UNL     1      44.828 -24.983  -3.605  1.00  0.00     0.006 C 
BRANCH  10  11
ATOM     11  C   UNL     1      45.103 -25.163  -5.104  1.00  0.00     0.053 C 
BRANCH  11  12
ATOM     12  C   UNL     1      45.607 -23.902  -5.735  1.00  0.00     0.041 C 
ATOM     13  O   UNL     1      45.966 -23.896  -6.943  1.00  0.00    -0.550 OA
ATOM     14  O   UNL     1      45.709 -22.739  -4.981  1.00  0.00    -0.550 OA
ENDBRANCH  11  12
ENDBRANCH  10  11
ENDBRANCH   9  10
ENDBRANCH   8   9
ENDBRANCH   7   8
ENDBRANCH   6   7
ENDBRANCH   5   6
ENDBRANCH   4   5
ENDBRANCH   3   4
ENDBRANCH   2   3
ENDBRANCH   1   2
BRANCH   1  15
ATOM     15  C   UNL     1      45.669 -28.359   2.066  1.00  0.00     0.000 C 
BRANCH  15  16
ATOM     16  C   UNL     1      45.703 -29.408   3.191  1.00  0.00     0.000 C 
BRANCH  16  17
ATOM     17  C   UNL     1      45.104 -28.884   4.506  1.00  0.00     0.000 C 
BRANCH  17  18
ATOM     18  C   UNL     1      46.125 -28.852   5.653  1.00  0.00    -0.000 C 
BRANCH  18  19
ATOM     19  C   UNL     1      45.470 -28.362   6.954  1.00  0.00    -0.000 C 
BRANCH  19  20
ATOM     20  C   UNL     1      45.385 -29.458   8.031  1.00  0.00    -0.000 C 
BRANCH  20  21
ATOM     21  C   UNL     1      45.825 -30.863   7.575  1.00  0.00    -0.000 C 
BRANCH  21  22
ATOM     22  C   UNL     1      45.962 -31.900   8.705  1.00  0.00    -0.000 C 
BRANCH  22  23
ATOM     23  C   UNL     1      45.188 -31.503   9.973  1.00  0.00    -0.000 C 
BRANCH  23  24
ATOM     24  C   UNL     1      45.953 -30.494  10.848  1.00  0.00    -0.000 C 
BRANCH  24  25
ATOM     25  C   UNL     1      45.360 -29.072  10.860  1.00  0.00    -0.003 C 
ATOM     26  C   UNL     1      43.838 -29.057  10.726  1.00  0.00     0.004 C 
ENDBRANCH  24  25
ENDBRANCH  23  24
ENDBRANCH  22  23
ENDBRANCH  21  22
ENDBRANCH  20  21
ENDBRANCH  19  20
ENDBRANCH  18  19
ENDBRANCH  17  18
ENDBRANCH  16  17
ENDBRANCH  15  16
ENDBRANCH   1  15
TORSDOF 22
ENDMDL
MODEL 3
REMARK VINA RESULT:     2.784      5.660     12.800
REMARK INTER + INTRA:           8.060
REMARK INTER:                   9.300
REMARK INTRA:                  -1.239
REMARK UNBOUND:                 1.695
REMARK SMILES CCCCCCCCCCCCCCCCCCCCCCCC(=O)[O-]
REMARK SMILES IDX 13 1 14 2 15 3 16 4 17 5 18 6 19 7 20 8 21 9 22 10 23 11
REMARK SMILES IDX 24 12 25 13 26 14 12 15 11 16 10 17 9 18 8 19 7 20 6 21 5 22
REMARK SMILES IDX 4 23 3 24 2 25 1 26
REMARK H PARENT
REMARK Flexibility Score: inf
ROOT
ATOM      1  C   UNL     1      45.245 -25.934   2.565  1.00  0.00     0.000 C 
ENDROOT
BRANCH   1   2
ATOM      2  C   UNL     1      44.801 -24.605   1.931  1.00  0.00     0.000 C 
BRANCH   2   3
ATOM      3  C   UNL     1      45.968 -23.627   1.704  1.00  0.00     0.000 C 
BRANCH   3   4
ATOM      4  C   UNL     1      46.121 -23.109   0.261  1.00  0.00     0.000 C 
BRANCH   4   5
ATOM      5  C   UNL     1      44.784 -22.684  -0.369  1.00  0.00     0.000 C 
BRANCH   5   6
ATOM      6  C   UNL     1      44.169 -23.784  -1.249  1.00  0.00     0.000 C 
BRANCH   6   7
ATOM      7  C   UNL     1      44.871 -23.917  -2.610  1.00  0.00     0.000 C 
BRANCH   7   8
ATOM      8  C   UNL     1      45.077 -25.394  -2.976  1.00  0.00     0.000 C 
BRANCH   8   9
ATOM      9  C   UNL     1      46.072 -25.585  -4.132  1.00  0.00     0.000 C 
BRANCH   9  10
ATOM     10  C   UNL     1      45.615 -24.890  -5.426  1.00  0.00     0.006 C 
BRANCH  10  11
ATOM     11  C   UNL     1      46.047 -25.661  -6.681  1.00  0.00     0.053 C 
BRANCH  11  12
ATOM     12  C   UNL     1      45.910 -24.831  -7.920  1.00  0.00     0.041 C 
ATOM     13  O   UNL     1      45.626 -25.377  -9.020  1.00  0.00    -0.550 OA
ATOM     14  O   UNL     1      46.123 -23.460  -7.867  1.00  0.00    -0.550 OA
ENDBRANCH  11  12
ENDBRANCH  10  11
ENDBRANCH   9  10
ENDBRANCH   8   9
ENDBRANCH   7   8
ENDBRANCH   6   7
ENDBRANCH   5   6
ENDBRANCH   4   5
ENDBRANCH   3   4
ENDBRANCH   2   3
ENDBRANCH   1   2
BRANCH   1  15
ATOM     15  C   UNL     1      44.445 -26.275   3.834  1.00  0.00     0.000 C 
BRANCH  15  16
ATOM     16  C   UNL     1      45.199 -25.903   5.123  1.00  0.00     0.000 C 
BRANCH  16  17
ATOM     17  C   UNL     1      45.899 -27.110   5.768  1.00  0.00     0.000 C 
BRANCH  17  18
ATOM     18  C   UNL     1      44.936 -28.274   6.049  1.00  0.00    -0.000 C 
BRANCH  18  19
ATOM     19  C   UNL     1      45.671 -29.621   5.971  1.00  0.00    -0.000 C 
BRANCH  19  20
ATOM     20  C   UNL     1      46.124 -30.138   7.348  1.00  0.00    -0.000 C 
BRANCH  20  21
ATOM     21  C   UNL     1      45.961 -31.656   7.566  1.00  0.00    -0.000 C 
BRANCH  21  22
ATOM     22  C   UNL     1      45.161 -32.050   8.821  1.00  0.00    -0.000 C 
BRANCH  22  23
ATOM     23  C   UNL     1      45.508 -31.183  10.043  1.00  0.00    -0.000 C 
BRANCH  23  24
ATOM     24  C   UNL     1      44.279 -30.472  10.639  1.00  0.00    -0.000 C 
BRANCH  24  25
ATOM     25  C   UNL     1      44.374 -28.935  10.667  1.00  0.00    -0.003 C 
ATOM     26  C   UNL     1      45.802 -28.421  10.488  1.00  0.00     0.004 C 
ENDBRANCH  24  25
ENDBRANCH  23  24
ENDBRANCH  22  23
ENDBRANCH  21  22
ENDBRANCH  20  21
ENDBRANCH  19  20
ENDBRANCH  18  19
ENDBRANCH  17  18
ENDBRANCH  16  17
ENDBRANCH  15  16
ENDBRANCH   1  15
TORSDOF 22
ENDMDL
MODEL 4
REMARK VINA RESULT:     4.684      1.340      2.203
REMARK INTER + INTRA:          12.402
REMARK INTER:                  12.990
REMARK INTRA:                  -0.588
REMARK UNBOUND:                 1.695
REMARK SMILES CCCCCCCCCCCCCCCCCCCCCCCC(=O)[O-]
REMARK SMILES IDX 13 1 14 2 15 3 16 4 17 5 18 6 19 7 20 8 21 9 22 10 23 11
REMARK SMILES IDX 24 12 25 13 26 14 12 15 11 16 10 17 9 18 8 19 7 20 6 21 5 22
REMARK SMILES IDX 4 23 3 24 2 25 1 26
REMARK H PARENT
REMARK Flexibility Score: inf
ROOT
ATOM      1  C   UNL     1      44.230 -25.843   2.047  1.00  0.00     0.000 C 
ENDROOT
BRANCH   1   2
ATOM      2  C   UNL     1      45.082 -26.647   3.046  1.00  0.00     0.000 C 
BRANCH   2   3
ATOM      3  C   UNL     1      44.241 -27.320   4.147  1.00  0.00     0.000 C 
BRANCH   3   4
ATOM      4  C   UNL     1      44.410 -28.847   4.261  1.00  0.00     0.000 C 
BRANCH   4   5
ATOM      5  C   UNL     1      45.813 -29.262   4.736  1.00  0.00     0.000 C 
BRANCH   5   6
ATOM      6  C   UNL     1      45.785 -30.496   5.651  1.00  0.00     0.000 C 
BRANCH   6   7
ATOM      7  C   UNL     1      46.119 -30.159   7.113  1.00  0.00     0.000 C 
BRANCH   7   8
ATOM      8  C   UNL     1      45.155 -29.096   7.661  1.00  0.00     0.000 C 
BRANCH   8   9
ATOM      9  C   UNL     1      45.878 -27.988   8.446  1.00  0.00     0.000 C 
BRANCH   9  10
ATOM     10  C   UNL     1      45.772 -28.178   9.969  1.00  0.00     0.006 C 
BRANCH  10  11
ATOM     11  C   UNL     1      45.956 -29.644  10.383  1.00  0.00     0.053 C 
BRANCH  11  12
ATOM     12  C   UNL     1      44.648 -30.372  10.453  1.00  0.00     0.041 C 
ATOM     13  O   UNL     1      43.624 -29.794  10.905  1.00  0.00    -0.550 OA
ATOM     14  O   UNL     1      44.567 -31.697  10.047  1.00  0.00    -0.550 OA
ENDBRANCH  11  12
ENDBRANCH  10  11
ENDBRANCH   9  10
ENDBRANCH   8   9
ENDBRANCH   7   8
ENDBRANCH   6   7
ENDBRANCH   5   6
ENDBRANCH   4   5
ENDBRANCH   3   4
ENDBRANCH   2   3
ENDBRANCH   1   2
BRANCH   1  15
ATOM     15  C   UNL     1      44.956 -25.612   0.711  1.00  0.00     0.000 C 
BRANCH  15  16
ATOM     16  C   UNL     1      44.560 -24.280   0.050  1.00  0.00     0.000 C 
BRANCH  16  17
ATOM     17  C   UNL     1      45.772 -23.378  -0.232  1.00  0.00     0.000 C 
BRANCH  17  18
ATOM     18  C   UNL     1      46.061 -23.220  -1.732  1.00  0.00    -0.000 C 
BRANCH  18  19
ATOM     19  C   UNL     1      45.375 -24.333  -2.540  1.00  0.00    -0.000 C 
BRANCH  19  20
ATOM     20  C   UNL     1      45.970 -24.504  -3.949  1.00  0.00    -0.000 C 
BRANCH  20  21
ATOM     21  C   UNL     1      45.968 -23.233  -4.822  1.00  0.00    -0.000 C 
BRANCH  21  22
ATOM     22  C   UNL     1      46.123 -23.481  -6.333  1.00  0.00    -0.000 C 
BRANCH  22  23
ATOM     23  C   UNL     1      45.170 -24.568  -6.859  1.00  0.00    -0.000 C 
BRANCH  23  24
ATOM     24  C   UNL     1      45.382 -24.876  -8.352  1.00  0.00    -0.000 C 
BRANCH  24  25
ATOM     25  C   UNL     1      46.118 -26.198  -8.639  1.00  0.00    -0.003 C 
ATOM     26  C   UNL     1      45.663 -27.344  -7.738  1.00  0.00     0.004 C 
ENDBRANCH  24  25
ENDBRANCH  23  24
ENDBRANCH  22  23
ENDBRANCH  21  22
ENDBRANCH  20  21
ENDBRANCH  19  20
ENDBRANCH  18  19
ENDBRANCH  17  18
ENDBRANCH  16  17
ENDBRANCH  15  16
ENDBRANCH   1  15
TORSDOF 22
ENDMDL
