MODEL 1
REMARK VINA RESULT:    22.223      0.000      0.000
REMARK INTER + INTRA:          26.534
REMARK INTER:                  26.770
REMARK INTRA:                  -0.236
REMARK UNBOUND:                -0.236
REMARK SMILES O=c1c(O)c(-c2ccc(O)c(O)c2)oc2cc(O)cc(O)c12
REMARK SMILES IDX 5 1 3 2 2 3 1 4 22 5 20 6 19 7 17 8 16 9 15 10 14 11 6 12
REMARK SMILES IDX 7 13 8 14 9 15 13 16 11 17 10 18 12 20 4 22 21 24 18 26
REMARK H PARENT 10 19 12 21 4 23 21 25 18 27
REMARK Flexibility Score: inf
ROOT
ATOM      1  C   UNL     1       7.262   3.302  18.591  1.00  0.00     0.180 A 
ATOM      2  C   UNL     1       8.624   3.017  18.388  1.00  0.00     0.208 A 
ATOM      3  C   UNL     1       9.515   4.079  18.165  1.00  0.00     0.238 A 
ATOM      4  O   UNL     1      10.723   3.815  17.929  1.00  0.00    -0.285 OA
ATOM      5  C   UNL     1       9.038   5.412  18.165  1.00  0.00     0.111 A 
ATOM      6  C   UNL     1       9.858   6.567  17.990  1.00  0.00     0.134 A 
ATOM      7  C   UNL     1       9.260   7.828  17.876  1.00  0.00     0.093 A 
ATOM      8  C   UNL     1       7.880   7.984  17.998  1.00  0.00     0.123 A 
ATOM      9  C   UNL     1       7.075   6.869  18.228  1.00  0.00     0.094 A 
ATOM     10  C   UNL     1       7.638   5.593  18.309  1.00  0.00     0.146 A 
ATOM     11  O   UNL     1       6.835   4.557  18.519  1.00  0.00    -0.452 OA
ENDROOT
BRANCH   1  12
ATOM     12  C   UNL     1       6.267   2.238  18.857  1.00  0.00     0.025 A 
ATOM     13  C   UNL     1       5.343   1.842  17.877  1.00  0.00     0.016 A 
ATOM     14  C   UNL     1       4.430   0.819  18.142  1.00  0.00     0.051 A 
ATOM     15  C   UNL     1       4.427   0.165  19.378  1.00  0.00     0.157 A 
ATOM     16  C   UNL     1       6.281   1.569  20.090  1.00  0.00     0.062 A 
ATOM     17  C   UNL     1       5.369   0.542  20.365  1.00  0.00     0.158 A 
BRANCH  15  18
ATOM     18  O   UNL     1       3.486  -0.845  19.581  1.00  0.00    -0.504 OA
ATOM     19  H   UNL     1       3.721  -1.798  19.819  1.00  0.00     0.293 HD
ENDBRANCH  15  18
BRANCH  17  20
ATOM     20  O   UNL     1       5.435  -0.069  21.618  1.00  0.00    -0.504 OA
ATOM     21  H   UNL     1       4.662  -0.555  22.051  1.00  0.00     0.293 HD
ENDBRANCH  17  20
ENDBRANCH   1  12
BRANCH   2  22
ATOM     22  O   UNL     1       9.071   1.693  18.371  1.00  0.00    -0.502 OA
ATOM     23  H   UNL     1       9.678   1.314  19.087  1.00  0.00     0.293 HD
ENDBRANCH   2  22
BRANCH   6  24
ATOM     24  O   UNL     1      11.255   6.532  17.948  1.00  0.00    -0.507 OA
ATOM     25  H   UNL     1      11.800   6.327  17.125  1.00  0.00     0.293 HD
ENDBRANCH   6  24
BRANCH   8  26
ATOM     26  O   UNL     1       7.321   9.257  17.895  1.00  0.00    -0.508 OA
ATOM     27  H   UNL     1       7.719  10.050  18.385  1.00  0.00     0.293 HD
ENDBRANCH   8  26
TORSDOF 6
ENDMDL
