MODEL 1
REMARK VINA RESULT:    -6.778      0.000      0.000
REMARK INTER + INTRA:          -8.490
REMARK INTER:                  -8.165
REMARK INTRA:                  -0.325
REMARK UNBOUND:                -0.325
REMARK SMILES O=c1c(O)c(-c2ccc(O)c(O)c2)oc2cc(O)cc(O)c12
REMARK SMILES IDX 5 1 3 2 2 3 1 4 22 5 20 6 19 7 17 8 16 9 15 10 14 11 6 12
REMARK SMILES IDX 7 13 8 14 9 15 13 16 11 17 10 18 12 20 4 22 21 24 18 26
REMARK H PARENT 10 19 12 21 4 23 21 25 18 27
REMARK Flexibility Score: inf
ROOT
ATOM      1  C   UNL     1      -5.188  15.409   6.944  1.00  0.00     0.180 A 
ATOM      2  C   UNL     1      -5.599  14.436   6.011  1.00  0.00     0.208 A 
ATOM      3  C   UNL     1      -6.963  14.327   5.700  1.00  0.00     0.238 A 
ATOM      4  O   UNL     1      -7.343  13.453   4.875  1.00  0.00    -0.285 OA
ATOM      5  C   UNL     1      -7.888  15.202   6.306  1.00  0.00     0.111 A 
ATOM      6  C   UNL     1      -9.278  15.161   6.044  1.00  0.00     0.134 A 
ATOM      7  C   UNL     1     -10.133  16.073   6.681  1.00  0.00     0.093 A 
ATOM      8  C   UNL     1      -9.624  17.023   7.573  1.00  0.00     0.123 A 
ATOM      9  C   UNL     1      -8.255  17.066   7.836  1.00  0.00     0.094 A 
ATOM     10  C   UNL     1      -7.386  16.166   7.212  1.00  0.00     0.146 A 
ATOM     11  O   UNL     1      -6.087  16.226   7.484  1.00  0.00    -0.452 OA
ENDROOT
BRANCH   1  12
ATOM     12  C   UNL     1      -3.771  15.572   7.338  1.00  0.00     0.025 A 
ATOM     13  C   UNL     1      -3.259  14.815   8.401  1.00  0.00     0.016 A 
ATOM     14  C   UNL     1      -1.920  14.938   8.776  1.00  0.00     0.051 A 
ATOM     15  C   UNL     1      -1.063  15.803   8.089  1.00  0.00     0.157 A 
ATOM     16  C   UNL     1      -2.907  16.426   6.631  1.00  0.00     0.062 A 
ATOM     17  C   UNL     1      -1.561  16.553   6.998  1.00  0.00     0.158 A 
BRANCH  15  18
ATOM     18  O   UNL     1       0.264  15.886   8.520  1.00  0.00    -0.504 OA
ATOM     19  H   UNL     1       0.567  16.439   9.308  1.00  0.00     0.293 HD
ENDBRANCH  15  18
BRANCH  17  20
ATOM     20  O   UNL     1      -0.762  17.422   6.252  1.00  0.00    -0.504 OA
ATOM     21  H   UNL     1       0.155  17.185   5.902  1.00  0.00     0.293 HD
ENDBRANCH  17  20
ENDBRANCH   1  12
BRANCH   2  22
ATOM     22  O   UNL     1      -4.656  13.614   5.388  1.00  0.00    -0.502 OA
ATOM     23  H   UNL     1      -3.804  13.319   5.849  1.00  0.00     0.293 HD
ENDBRANCH   2  22
BRANCH   6  24
ATOM     24  O   UNL     1      -9.816  14.226   5.158  1.00  0.00    -0.507 OA
ATOM     25  H   UNL     1      -9.489  13.268   5.131  1.00  0.00     0.293 HD
ENDBRANCH   6  24
BRANCH   8  26
ATOM     26  O   UNL     1     -10.473  17.929   8.206  1.00  0.00    -0.508 OA
ATOM     27  H   UNL     1     -11.478  17.885   8.087  1.00  0.00     0.293 HD
ENDBRANCH   8  26
TORSDOF 6
ENDMDL
MODEL 2
REMARK VINA RESULT:    -6.745      4.793      6.771
REMARK INTER + INTRA:          -8.449
REMARK INTER:                  -8.117
REMARK INTRA:                  -0.332
REMARK UNBOUND:                -0.325
REMARK SMILES O=c1c(O)c(-c2ccc(O)c(O)c2)oc2cc(O)cc(O)c12
REMARK SMILES IDX 5 1 3 2 2 3 1 4 22 5 20 6 19 7 17 8 16 9 15 10 14 11 6 12
REMARK SMILES IDX 7 13 8 14 9 15 13 16 11 17 10 18 12 20 4 22 21 24 18 26
REMARK H PARENT 10 19 12 21 4 23 21 25 18 27
REMARK Flexibility Score: inf
ROOT
ATOM      1  C   UNL     1      -6.381  14.036  10.655  1.00  0.00     0.180 A 
ATOM      2  C   UNL     1      -5.640  15.221  10.832  1.00  0.00     0.208 A 
ATOM      3  C   UNL     1      -5.230  15.941   9.699  1.00  0.00     0.238 A 
ATOM      4  O   UNL     1      -4.557  16.997   9.846  1.00  0.00    -0.285 OA
ATOM      5  C   UNL     1      -5.582  15.478   8.414  1.00  0.00     0.111 A 
ATOM      6  C   UNL     1      -5.212  16.147   7.222  1.00  0.00     0.134 A 
ATOM      7  C   UNL     1      -5.610  15.628   5.981  1.00  0.00     0.093 A 
ATOM      8  C   UNL     1      -6.370  14.455   5.910  1.00  0.00     0.123 A 
ATOM      9  C   UNL     1      -6.737  13.793   7.082  1.00  0.00     0.094 A 
ATOM     10  C   UNL     1      -6.349  14.293   8.329  1.00  0.00     0.146 A 
ATOM     11  O   UNL     1      -6.708  13.639   9.428  1.00  0.00    -0.452 OA
ENDROOT
BRANCH   1  12
ATOM     12  C   UNL     1      -6.833  13.213  11.798  1.00  0.00     0.025 A 
ATOM     13  C   UNL     1      -8.109  13.426  12.340  1.00  0.00     0.016 A 
ATOM     14  C   UNL     1      -8.563  12.647  13.406  1.00  0.00     0.051 A 
ATOM     15  C   UNL     1      -7.763  11.633  13.941  1.00  0.00     0.157 A 
ATOM     16  C   UNL     1      -6.035  12.180  12.319  1.00  0.00     0.062 A 
ATOM     17  C   UNL     1      -6.484  11.391  13.387  1.00  0.00     0.158 A 
BRANCH  15  18
ATOM     18  O   UNL     1      -8.273  10.895  15.012  1.00  0.00    -0.504 OA
ATOM     19  H   UNL     1      -9.257  10.731  15.166  1.00  0.00     0.293 HD
ENDBRANCH  15  18
BRANCH  17  20
ATOM     20  O   UNL     1      -5.637  10.385  13.854  1.00  0.00    -0.504 OA
ATOM     21  H   UNL     1      -5.910   9.418  13.952  1.00  0.00     0.293 HD
ENDBRANCH  17  20
ENDBRANCH   1  12
BRANCH   2  22
ATOM     22  O   UNL     1      -5.346  15.684  12.117  1.00  0.00    -0.502 OA
ATOM     23  H   UNL     1      -5.972  15.541  12.901  1.00  0.00     0.293 HD
ENDBRANCH   2  22
BRANCH   6  24
ATOM     24  O   UNL     1      -4.455  17.318   7.261  1.00  0.00    -0.507 OA
ATOM     25  H   UNL     1      -4.477  17.943   8.059  1.00  0.00     0.293 HD
ENDBRANCH   6  24
BRANCH   8  26
ATOM     26  O   UNL     1      -6.766  13.939   4.678  1.00  0.00    -0.508 OA
ATOM     27  H   UNL     1      -6.375  14.285   3.809  1.00  0.00     0.293 HD
ENDBRANCH   8  26
TORSDOF 6
ENDMDL
MODEL 3
REMARK VINA RESULT:    -6.443      1.532      2.355
REMARK INTER + INTRA:          -8.086
REMARK INTER:                  -7.771
REMARK INTRA:                  -0.314
REMARK UNBOUND:                -0.325
REMARK SMILES O=c1c(O)c(-c2ccc(O)c(O)c2)oc2cc(O)cc(O)c12
REMARK SMILES IDX 5 1 3 2 2 3 1 4 22 5 20 6 19 7 17 8 16 9 15 10 14 11 6 12
REMARK SMILES IDX 7 13 8 14 9 15 13 16 11 17 10 18 12 20 4 22 21 24 18 26
REMARK H PARENT 10 19 12 21 4 23 21 25 18 27
REMARK Flexibility Score: inf
ROOT
ATOM      1  C   UNL     1      -6.751  15.695   7.252  1.00  0.00     0.180 A 
ATOM      2  C   UNL     1      -7.422  15.082   6.175  1.00  0.00     0.208 A 
ATOM      3  C   UNL     1      -8.820  15.186   6.097  1.00  0.00     0.238 A 
ATOM      4  O   UNL     1      -9.430  14.632   5.143  1.00  0.00    -0.285 OA
ATOM      5  C   UNL     1      -9.519  15.915   7.081  1.00  0.00     0.111 A 
ATOM      6  C   UNL     1     -10.926  16.072   7.073  1.00  0.00     0.134 A 
ATOM      7  C   UNL     1     -11.548  16.821   8.083  1.00  0.00     0.093 A 
ATOM      8  C   UNL     1     -10.790  17.416   9.098  1.00  0.00     0.123 A 
ATOM      9  C   UNL     1      -9.404  17.264   9.110  1.00  0.00     0.094 A 
ATOM     10  C   UNL     1      -8.765  16.520   8.113  1.00  0.00     0.146 A 
ATOM     11  O   UNL     1      -7.444  16.387   8.151  1.00  0.00    -0.452 OA
ENDROOT
BRANCH   1  12
ATOM     12  C   UNL     1      -5.283  15.613   7.412  1.00  0.00     0.025 A 
ATOM     13  C   UNL     1      -4.488  16.713   7.058  1.00  0.00     0.016 A 
ATOM     14  C   UNL     1      -3.102  16.664   7.220  1.00  0.00     0.051 A 
ATOM     15  C   UNL     1      -2.485  15.528   7.753  1.00  0.00     0.157 A 
ATOM     16  C   UNL     1      -4.668  14.479   7.969  1.00  0.00     0.062 A 
ATOM     17  C   UNL     1      -3.278  14.422   8.139  1.00  0.00     0.158 A 
BRANCH  15  18
ATOM     18  O   UNL     1      -1.094  15.541   7.882  1.00  0.00    -0.504 OA
ATOM     19  H   UNL     1      -0.465  15.069   7.250  1.00  0.00     0.293 HD
ENDBRANCH  15  18
BRANCH  17  20
ATOM     20  O   UNL     1      -2.737  13.263   8.697  1.00  0.00    -0.504 OA
ATOM     21  H   UNL     1      -1.747  13.101   8.811  1.00  0.00     0.293 HD
ENDBRANCH  17  20
ENDBRANCH   1  12
BRANCH   2  22
ATOM     22  O   UNL     1      -6.700  14.407   5.187  1.00  0.00    -0.502 OA
ATOM     23  H   UNL     1      -5.751  14.661   4.940  1.00  0.00     0.293 HD
ENDBRANCH   2  22
BRANCH   6  24
ATOM     24  O   UNL     1     -11.709  15.492   6.074  1.00  0.00    -0.507 OA
ATOM     25  H   UNL     1     -11.375  15.398   5.122  1.00  0.00     0.293 HD
ENDBRANCH   6  24
BRANCH   8  26
ATOM     26  O   UNL     1     -11.407  18.161  10.101  1.00  0.00    -0.508 OA
ATOM     27  H   UNL     1     -11.395  19.174  10.091  1.00  0.00     0.293 HD
ENDBRANCH   8  26
TORSDOF 6
ENDMDL
MODEL 4
REMARK VINA RESULT:    -6.329      4.294      6.979
REMARK INTER + INTRA:          -7.949
REMARK INTER:                  -7.619
REMARK INTRA:                  -0.330
REMARK UNBOUND:                -0.325
REMARK SMILES O=c1c(O)c(-c2ccc(O)c(O)c2)oc2cc(O)cc(O)c12
REMARK SMILES IDX 5 1 3 2 2 3 1 4 22 5 20 6 19 7 17 8 16 9 15 10 14 11 6 12
REMARK SMILES IDX 7 13 8 14 9 15 13 16 11 17 10 18 12 20 4 22 21 24 18 26
REMARK H PARENT 10 19 12 21 4 23 21 25 18 27
REMARK Flexibility Score: inf
ROOT
ATOM      1  C   UNL     1      -6.449  14.680  10.442  1.00  0.00     0.180 A 
ATOM      2  C   UNL     1      -5.195  15.319  10.525  1.00  0.00     0.208 A 
ATOM      3  C   UNL     1      -4.399  15.403   9.372  1.00  0.00     0.238 A 
ATOM      4  O   UNL     1      -3.272  15.964   9.437  1.00  0.00    -0.285 OA
ATOM      5  C   UNL     1      -4.874  14.868   8.157  1.00  0.00     0.111 A 
ATOM      6  C   UNL     1      -4.136  14.916   6.950  1.00  0.00     0.134 A 
ATOM      7  C   UNL     1      -4.682  14.369   5.779  1.00  0.00     0.093 A 
ATOM      8  C   UNL     1      -5.950  13.778   5.793  1.00  0.00     0.123 A 
ATOM      9  C   UNL     1      -6.680  13.728   6.980  1.00  0.00     0.094 A 
ATOM     10  C   UNL     1      -6.154  14.266   8.158  1.00  0.00     0.146 A 
ATOM     11  O   UNL     1      -6.869  14.201   9.275  1.00  0.00    -0.452 OA
ENDROOT
BRANCH   1  12
ATOM     12  C   UNL     1      -7.336  14.535  11.618  1.00  0.00     0.025 A 
ATOM     13  C   UNL     1      -8.290  15.526  11.888  1.00  0.00     0.016 A 
ATOM     14  C   UNL     1      -9.151  15.400  12.980  1.00  0.00     0.051 A 
ATOM     15  C   UNL     1      -9.089  14.277  13.811  1.00  0.00     0.157 A 
ATOM     16  C   UNL     1      -7.286  13.395  12.438  1.00  0.00     0.062 A 
ATOM     17  C   UNL     1      -8.148  13.258  13.534  1.00  0.00     0.158 A 
BRANCH  15  18
ATOM     18  O   UNL     1      -9.973  14.216  14.891  1.00  0.00    -0.504 OA
ATOM     19  H   UNL     1     -10.628  14.947  15.126  1.00  0.00     0.293 HD
ENDBRANCH  15  18
BRANCH  17  20
ATOM     20  O   UNL     1      -8.041  12.100  14.306  1.00  0.00    -0.504 OA
ATOM     21  H   UNL     1      -8.831  11.557  14.623  1.00  0.00     0.293 HD
ENDBRANCH  17  20
ENDBRANCH   1  12
BRANCH   2  22
ATOM     22  O   UNL     1      -4.770  15.884  11.730  1.00  0.00    -0.502 OA
ATOM     23  H   UNL     1      -5.270  16.641  12.180  1.00  0.00     0.293 HD
ENDBRANCH   2  22
BRANCH   6  24
ATOM     24  O   UNL     1      -2.869  15.500   6.904  1.00  0.00    -0.507 OA
ATOM     25  H   UNL     1      -2.132  15.226   7.543  1.00  0.00     0.293 HD
ENDBRANCH   6  24
BRANCH   8  26
ATOM     26  O   UNL     1      -6.493  13.235   4.630  1.00  0.00    -0.508 OA
ATOM     27  H   UNL     1      -7.420  13.490   4.310  1.00  0.00     0.293 HD
ENDBRANCH   8  26
TORSDOF 6
ENDMDL
MODEL 5
REMARK VINA RESULT:    -6.141      3.370      9.063
REMARK INTER + INTRA:          -7.723
REMARK INTER:                  -7.400
REMARK INTRA:                  -0.323
REMARK UNBOUND:                -0.325
REMARK SMILES O=c1c(O)c(-c2ccc(O)c(O)c2)oc2cc(O)cc(O)c12
REMARK SMILES IDX 5 1 3 2 2 3 1 4 22 5 20 6 19 7 17 8 16 9 15 10 14 11 6 12
REMARK SMILES IDX 7 13 8 14 9 15 13 16 11 17 10 18 12 20 4 22 21 24 18 26
REMARK H PARENT 10 19 12 21 4 23 21 25 18 27
REMARK Flexibility Score: inf
ROOT
ATOM      1  C   UNL     1     -11.578  15.389   6.824  1.00  0.00     0.180 A 
ATOM      2  C   UNL     1     -11.038  16.440   7.591  1.00  0.00     0.208 A 
ATOM      3  C   UNL     1      -9.647  16.626   7.605  1.00  0.00     0.238 A 
ATOM      4  O   UNL     1      -9.153  17.557   8.296  1.00  0.00    -0.285 OA
ATOM      5  C   UNL     1      -8.823  15.775   6.839  1.00  0.00     0.111 A 
ATOM      6  C   UNL     1      -7.414  15.898   6.795  1.00  0.00     0.134 A 
ATOM      7  C   UNL     1      -6.664  15.018   6.000  1.00  0.00     0.093 A 
ATOM      8  C   UNL     1      -7.296  14.019   5.251  1.00  0.00     0.123 A 
ATOM      9  C   UNL     1      -8.685  13.895   5.292  1.00  0.00     0.094 A 
ATOM     10  C   UNL     1      -9.450  14.761   6.078  1.00  0.00     0.146 A 
ATOM     11  O   UNL     1     -10.771  14.617   6.102  1.00  0.00    -0.452 OA
ENDROOT
BRANCH   1  12
ATOM     12  C   UNL     1     -13.032  15.118   6.774  1.00  0.00     0.025 A 
ATOM     13  C   UNL     1     -13.616  14.303   7.753  1.00  0.00     0.016 A 
ATOM     14  C   UNL     1     -14.989  14.050   7.737  1.00  0.00     0.051 A 
ATOM     15  C   UNL     1     -15.807  14.618   6.755  1.00  0.00     0.157 A 
ATOM     16  C   UNL     1     -13.855  15.708   5.799  1.00  0.00     0.062 A 
ATOM     17  C   UNL     1     -15.234  15.464   5.776  1.00  0.00     0.158 A 
BRANCH  15  18
ATOM     18  O   UNL     1     -17.172  14.320   6.790  1.00  0.00    -0.504 OA
ATOM     19  H   UNL     1     -17.902  15.015   6.748  1.00  0.00     0.293 HD
ENDBRANCH  15  18
BRANCH  17  20
ATOM     20  O   UNL     1     -15.989  16.082   4.778  1.00  0.00    -0.504 OA
ATOM     21  H   UNL     1     -15.998  17.078   4.613  1.00  0.00     0.293 HD
ENDBRANCH  17  20
ENDBRANCH   1  12
BRANCH   2  22
ATOM     22  O   UNL     1     -11.881  17.299   8.301  1.00  0.00    -0.502 OA
ATOM     23  H   UNL     1     -12.778  17.001   8.665  1.00  0.00     0.293 HD
ENDBRANCH   2  22
BRANCH   6  24
ATOM     24  O   UNL     1      -6.754  16.883   7.530  1.00  0.00    -0.507 OA
ATOM     25  H   UNL     1      -5.763  16.827   7.731  1.00  0.00     0.293 HD
ENDBRANCH   6  24
BRANCH   8  26
ATOM     26  O   UNL     1      -6.552  13.145   4.461  1.00  0.00    -0.508 OA
ATOM     27  H   UNL     1      -5.836  12.550   4.861  1.00  0.00     0.293 HD
ENDBRANCH   8  26
TORSDOF 6
ENDMDL
MODEL 6
REMARK VINA RESULT:    -6.096      2.728      7.184
REMARK INTER + INTRA:          -7.668
REMARK INTER:                  -7.463
REMARK INTRA:                  -0.205
REMARK UNBOUND:                -0.325
REMARK SMILES O=c1c(O)c(-c2ccc(O)c(O)c2)oc2cc(O)cc(O)c12
REMARK SMILES IDX 5 1 3 2 2 3 1 4 22 5 20 6 19 7 17 8 16 9 15 10 14 11 6 12
REMARK SMILES IDX 7 13 8 14 9 15 13 16 11 17 10 18 12 20 4 22 21 24 18 26
REMARK H PARENT 10 19 12 21 4 23 21 25 18 27
REMARK Flexibility Score: inf
ROOT
ATOM      1  C   UNL     1      -9.133  16.149   8.669  1.00  0.00     0.180 A 
ATOM      2  C   UNL     1      -9.638  16.189   7.354  1.00  0.00     0.208 A 
ATOM      3  C   UNL     1      -8.840  15.705   6.305  1.00  0.00     0.238 A 
ATOM      4  O   UNL     1      -9.278  15.747   5.124  1.00  0.00    -0.285 OA
ATOM      5  C   UNL     1      -7.565  15.173   6.588  1.00  0.00     0.111 A 
ATOM      6  C   UNL     1      -6.701  14.662   5.590  1.00  0.00     0.134 A 
ATOM      7  C   UNL     1      -5.451  14.140   5.953  1.00  0.00     0.093 A 
ATOM      8  C   UNL     1      -5.049  14.120   7.294  1.00  0.00     0.123 A 
ATOM      9  C   UNL     1      -5.897  14.624   8.281  1.00  0.00     0.094 A 
ATOM     10  C   UNL     1      -7.147  15.149   7.939  1.00  0.00     0.146 A 
ATOM     11  O   UNL     1      -7.932  15.626   8.899  1.00  0.00    -0.452 OA
ENDROOT
BRANCH   1  12
ATOM     12  C   UNL     1      -9.906  16.657   9.824  1.00  0.00     0.025 A 
ATOM     13  C   UNL     1      -9.505  17.843  10.455  1.00  0.00     0.016 A 
ATOM     14  C   UNL     1     -10.231  18.351  11.534  1.00  0.00     0.051 A 
ATOM     15  C   UNL     1     -11.379  17.697  11.992  1.00  0.00     0.157 A 
ATOM     16  C   UNL     1     -11.072  16.010  10.268  1.00  0.00     0.062 A 
ATOM     17  C   UNL     1     -11.810  16.513  11.347  1.00  0.00     0.158 A 
BRANCH  15  18
ATOM     18  O   UNL     1     -12.056  18.253  13.080  1.00  0.00    -0.504 OA
ATOM     19  H   UNL     1     -11.960  19.214  13.373  1.00  0.00     0.293 HD
ENDBRANCH  15  18
BRANCH  17  20
ATOM     20  O   UNL     1     -12.956  15.817  11.735  1.00  0.00    -0.504 OA
ATOM     21  H   UNL     1     -13.154  14.864  11.468  1.00  0.00     0.293 HD
ENDBRANCH  17  20
ENDBRANCH   1  12
BRANCH   2  22
ATOM     22  O   UNL     1     -10.924  16.676   7.107  1.00  0.00    -0.502 OA
ATOM     23  H   UNL     1     -11.196  17.061   6.211  1.00  0.00     0.293 HD
ENDBRANCH   2  22
BRANCH   6  24
ATOM     24  O   UNL     1      -7.074  14.668   4.245  1.00  0.00    -0.507 OA
ATOM     25  H   UNL     1      -7.977  14.324   3.940  1.00  0.00     0.293 HD
ENDBRANCH   6  24
BRANCH   8  26
ATOM     26  O   UNL     1      -3.808  13.602   7.655  1.00  0.00    -0.508 OA
ATOM     27  H   UNL     1      -2.954  13.906   7.202  1.00  0.00     0.293 HD
ENDBRANCH   8  26
TORSDOF 6
ENDMDL
MODEL 7
REMARK VINA RESULT:    -6.032      3.350      4.238
REMARK INTER + INTRA:          -7.591
REMARK INTER:                  -7.413
REMARK INTRA:                  -0.178
REMARK UNBOUND:                -0.325
REMARK SMILES O=c1c(O)c(-c2ccc(O)c(O)c2)oc2cc(O)cc(O)c12
REMARK SMILES IDX 5 1 3 2 2 3 1 4 22 5 20 6 19 7 17 8 16 9 15 10 14 11 6 12
REMARK SMILES IDX 7 13 8 14 9 15 13 16 11 17 10 18 12 20 4 22 21 24 18 26
REMARK H PARENT 10 19 12 21 4 23 21 25 18 27
REMARK Flexibility Score: inf
ROOT
ATOM      1  C   UNL     1      -6.495  15.655   9.140  1.00  0.00     0.180 A 
ATOM      2  C   UNL     1      -5.806  14.745   8.313  1.00  0.00     0.208 A 
ATOM      3  C   UNL     1      -6.383  14.367   7.090  1.00  0.00     0.238 A 
ATOM      4  O   UNL     1      -5.780  13.545   6.349  1.00  0.00    -0.285 OA
ATOM      5  C   UNL     1      -7.622  14.918   6.705  1.00  0.00     0.111 A 
ATOM      6  C   UNL     1      -8.268  14.594   5.488  1.00  0.00     0.134 A 
ATOM      7  C   UNL     1      -9.497  15.193   5.172  1.00  0.00     0.093 A 
ATOM      8  C   UNL     1     -10.090  16.109   6.049  1.00  0.00     0.123 A 
ATOM      9  C   UNL     1      -9.457  16.430   7.250  1.00  0.00     0.094 A 
ATOM     10  C   UNL     1      -8.233  15.844   7.584  1.00  0.00     0.146 A 
ATOM     11  O   UNL     1      -7.654  16.165   8.736  1.00  0.00    -0.452 OA
ENDROOT
BRANCH   1  12
ATOM     12  C   UNL     1      -5.961  16.086  10.451  1.00  0.00     0.025 A 
ATOM     13  C   UNL     1      -4.808  16.882  10.498  1.00  0.00     0.016 A 
ATOM     14  C   UNL     1      -4.299  17.316  11.724  1.00  0.00     0.051 A 
ATOM     15  C   UNL     1      -4.938  16.980  12.922  1.00  0.00     0.157 A 
ATOM     16  C   UNL     1      -6.618  15.765  11.652  1.00  0.00     0.062 A 
ATOM     17  C   UNL     1      -6.117  16.199  12.886  1.00  0.00     0.158 A 
BRANCH  15  18
ATOM     18  O   UNL     1      -4.373  17.440  14.114  1.00  0.00    -0.504 OA
ATOM     19  H   UNL     1      -3.904  16.845  14.781  1.00  0.00     0.293 HD
ENDBRANCH  15  18
BRANCH  17  20
ATOM     20  O   UNL     1      -6.820  15.841  14.037  1.00  0.00    -0.504 OA
ATOM     21  H   UNL     1      -7.796  16.047  14.189  1.00  0.00     0.293 HD
ENDBRANCH  17  20
ENDBRANCH   1  12
BRANCH   2  22
ATOM     22  O   UNL     1      -4.556  14.251   8.696  1.00  0.00    -0.502 OA
ATOM     23  H   UNL     1      -4.408  13.280   8.940  1.00  0.00     0.293 HD
ENDBRANCH   2  22
BRANCH   6  24
ATOM     24  O   UNL     1      -7.702  13.686   4.594  1.00  0.00    -0.507 OA
ATOM     25  H   UNL     1      -8.267  13.152   3.945  1.00  0.00     0.293 HD
ENDBRANCH   6  24
BRANCH   8  26
ATOM     26  O   UNL     1     -11.310  16.704   5.735  1.00  0.00    -0.508 OA
ATOM     27  H   UNL     1     -11.738  16.585   4.824  1.00  0.00     0.293 HD
ENDBRANCH   8  26
TORSDOF 6
ENDMDL
MODEL 8
REMARK VINA RESULT:    -5.995      5.111      6.261
REMARK INTER + INTRA:          -7.546
REMARK INTER:                  -7.242
REMARK INTRA:                  -0.304
REMARK UNBOUND:                -0.325
REMARK SMILES O=c1c(O)c(-c2ccc(O)c(O)c2)oc2cc(O)cc(O)c12
REMARK SMILES IDX 5 1 3 2 2 3 1 4 22 5 20 6 19 7 17 8 16 9 15 10 14 11 6 12
REMARK SMILES IDX 7 13 8 14 9 15 13 16 11 17 10 18 12 20 4 22 21 24 18 26
REMARK H PARENT 10 19 12 21 4 23 21 25 18 27
REMARK Flexibility Score: inf
ROOT
ATOM      1  C   UNL     1      -6.350  14.196  10.569  1.00  0.00     0.180 A 
ATOM      2  C   UNL     1      -7.619  14.786  10.736  1.00  0.00     0.208 A 
ATOM      3  C   UNL     1      -8.462  14.308  11.752  1.00  0.00     0.238 A 
ATOM      4  O   UNL     1      -9.603  14.822  11.903  1.00  0.00    -0.285 OA
ATOM      5  C   UNL     1      -8.017  13.267  12.593  1.00  0.00     0.111 A 
ATOM      6  C   UNL     1      -8.803  12.732  13.642  1.00  0.00     0.134 A 
ATOM      7  C   UNL     1      -8.285  11.703  14.442  1.00  0.00     0.093 A 
ATOM      8  C   UNL     1      -6.999  11.200  14.214  1.00  0.00     0.123 A 
ATOM      9  C   UNL     1      -6.222  11.724  13.181  1.00  0.00     0.094 A 
ATOM     10  C   UNL     1      -6.720  12.749  12.371  1.00  0.00     0.146 A 
ATOM     11  O   UNL     1      -5.960  13.227  11.392  1.00  0.00    -0.452 OA
ENDROOT
BRANCH   1  12
ATOM     12  C   UNL     1      -5.413  14.632   9.509  1.00  0.00     0.025 A 
ATOM     13  C   UNL     1      -4.309  15.427   9.849  1.00  0.00     0.016 A 
ATOM     14  C   UNL     1      -3.402  15.833   8.868  1.00  0.00     0.051 A 
ATOM     15  C   UNL     1      -3.568  15.441   7.536  1.00  0.00     0.157 A 
ATOM     16  C   UNL     1      -5.571  14.218   8.176  1.00  0.00     0.062 A 
ATOM     17  C   UNL     1      -4.664  14.617   7.185  1.00  0.00     0.158 A 
BRANCH  15  18
ATOM     18  O   UNL     1      -2.630  15.887   6.603  1.00  0.00    -0.504 OA
ATOM     19  H   UNL     1      -2.843  16.524   5.849  1.00  0.00     0.293 HD
ENDBRANCH  15  18
BRANCH  17  20
ATOM     20  O   UNL     1      -4.884  14.170   5.881  1.00  0.00    -0.504 OA
ATOM     21  H   UNL     1      -5.679  14.437   5.320  1.00  0.00     0.293 HD
ENDBRANCH  17  20
ENDBRANCH   1  12
BRANCH   2  22
ATOM     22  O   UNL     1      -8.015  15.849   9.920  1.00  0.00    -0.502 OA
ATOM     23  H   UNL     1      -8.666  16.559  10.232  1.00  0.00     0.293 HD
ENDBRANCH   2  22
BRANCH   6  24
ATOM     24  O   UNL     1     -10.088  13.213  13.895  1.00  0.00    -0.507 OA
ATOM     25  H   UNL     1     -10.463  14.018  13.406  1.00  0.00     0.293 HD
ENDBRANCH   6  24
BRANCH   8  26
ATOM     26  O   UNL     1      -6.485  10.178  15.009  1.00  0.00    -0.508 OA
ATOM     27  H   UNL     1      -6.216   9.285  14.614  1.00  0.00     0.293 HD
ENDBRANCH   8  26
TORSDOF 6
ENDMDL
MODEL 9
REMARK VINA RESULT:    -5.966      5.636      7.068
REMARK INTER + INTRA:          -7.512
REMARK INTER:                  -7.201
REMARK INTRA:                  -0.310
REMARK UNBOUND:                -0.325
REMARK SMILES O=c1c(O)c(-c2ccc(O)c(O)c2)oc2cc(O)cc(O)c12
REMARK SMILES IDX 5 1 3 2 2 3 1 4 22 5 20 6 19 7 17 8 16 9 15 10 14 11 6 12
REMARK SMILES IDX 7 13 8 14 9 15 13 16 11 17 10 18 12 20 4 22 21 24 18 26
REMARK H PARENT 10 19 12 21 4 23 21 25 18 27
REMARK Flexibility Score: inf
ROOT
ATOM      1  C   UNL     1      -8.602  14.395  12.165  1.00  0.00     0.180 A 
ATOM      2  C   UNL     1      -7.922  15.323  11.351  1.00  0.00     0.208 A 
ATOM      3  C   UNL     1      -8.665  16.138  10.483  1.00  0.00     0.238 A 
ATOM      4  O   UNL     1      -8.066  16.964   9.743  1.00  0.00    -0.285 OA
ATOM      5  C   UNL     1     -10.071  16.028  10.457  1.00  0.00     0.111 A 
ATOM      6  C   UNL     1     -10.893  16.814   9.615  1.00  0.00     0.134 A 
ATOM      7  C   UNL     1     -12.286  16.652   9.654  1.00  0.00     0.093 A 
ATOM      8  C   UNL     1     -12.871  15.720  10.519  1.00  0.00     0.123 A 
ATOM      9  C   UNL     1     -12.064  14.942  11.350  1.00  0.00     0.094 A 
ATOM     10  C   UNL     1     -10.674  15.088  11.325  1.00  0.00     0.146 A 
ATOM     11  O   UNL     1      -9.930  14.331  12.124  1.00  0.00    -0.452 OA
ENDROOT
BRANCH   1  12
ATOM     12  C   UNL     1      -7.887  13.490  13.091  1.00  0.00     0.025 A 
ATOM     13  C   UNL     1      -7.878  13.773  14.464  1.00  0.00     0.016 A 
ATOM     14  C   UNL     1      -7.227  12.922  15.358  1.00  0.00     0.051 A 
ATOM     15  C   UNL     1      -6.588  11.764  14.903  1.00  0.00     0.157 A 
ATOM     16  C   UNL     1      -7.265  12.315  12.634  1.00  0.00     0.062 A 
ATOM     17  C   UNL     1      -6.612  11.452  13.523  1.00  0.00     0.158 A 
BRANCH  15  18
ATOM     18  O   UNL     1      -5.948  10.958  15.848  1.00  0.00    -0.504 OA
ATOM     19  H   UNL     1      -6.413  10.241  16.385  1.00  0.00     0.293 HD
ENDBRANCH  15  18
BRANCH  17  20
ATOM     20  O   UNL     1      -6.014  10.305  12.998  1.00  0.00    -0.504 OA
ATOM     21  H   UNL     1      -5.247   9.817  13.438  1.00  0.00     0.293 HD
ENDBRANCH  17  20
ENDBRANCH   1  12
BRANCH   2  22
ATOM     22  O   UNL     1      -6.533  15.447  11.432  1.00  0.00    -0.502 OA
ATOM     23  H   UNL     1      -6.012  16.105  10.865  1.00  0.00     0.293 HD
ENDBRANCH   2  22
BRANCH   6  24
ATOM     24  O   UNL     1     -10.340  17.752   8.743  1.00  0.00    -0.507 OA
ATOM     25  H   UNL     1      -9.775  17.475   7.948  1.00  0.00     0.293 HD
ENDBRANCH   6  24
BRANCH   8  26
ATOM     26  O   UNL     1     -14.254  15.558  10.559  1.00  0.00    -0.508 OA
ATOM     27  H   UNL     1     -14.822  16.024  11.257  1.00  0.00     0.293 HD
ENDBRANCH   8  26
TORSDOF 6
ENDMDL
