MODEL 1
REMARK VINA RESULT:    -3.515      0.000      0.000
REMARK INTER + INTRA:          -8.518
REMARK INTER:                  -6.391
REMARK INTRA:                  -2.127
REMARK UNBOUND:                -2.127
REMARK SMILES CCCCCCCCCCCCCCCC(=O)[O-]
REMARK SMILES IDX 9 1 10 2 11 3 12 4 13 5 14 6 15 7 16 8 17 9 18 10 8 11 7 12
REMARK SMILES IDX 6 13 5 14 4 15 3 16 2 17 1 18
REMARK H PARENT
REMARK Flexibility Score: inf
ROOT
ATOM      1  C   UNL     1      -4.116  92.597 -14.874  1.00  0.00     0.000 C 
ENDROOT
BRANCH   1   2
ATOM      2  C   UNL     1      -3.434  91.296 -15.341  1.00  0.00     0.000 C 
BRANCH   2   3
ATOM      3  C   UNL     1      -4.310  90.527 -16.346  1.00  0.00     0.000 C 
BRANCH   3   4
ATOM      4  C   UNL     1      -5.740  90.274 -15.836  1.00  0.00     0.000 C 
BRANCH   4   5
ATOM      5  C   UNL     1      -5.886  89.131 -14.815  1.00  0.00     0.000 C 
BRANCH   5   6
ATOM      6  C   UNL     1      -7.056  89.330 -13.839  1.00  0.00     0.006 C 
BRANCH   6   7
ATOM      7  C   UNL     1      -7.540  90.787 -13.801  1.00  0.00     0.053 C 
BRANCH   7   8
ATOM      8  C   UNL     1      -8.979  90.898 -13.410  1.00  0.00     0.041 C 
ATOM      9  O   UNL     1      -9.770  89.944 -13.635  1.00  0.00    -0.550 OA
ATOM     10  O   UNL     1      -9.450  92.050 -12.790  1.00  0.00    -0.550 OA
ENDBRANCH   7   8
ENDBRANCH   6   7
ENDBRANCH   5   6
ENDBRANCH   4   5
ENDBRANCH   3   4
ENDBRANCH   2   3
ENDBRANCH   1   2
BRANCH   1  11
ATOM     11  C   UNL     1      -4.117  92.706 -13.343  1.00  0.00     0.000 C 
BRANCH  11  12
ATOM     12  C   UNL     1      -3.932  91.345 -12.649  1.00  0.00    -0.000 C 
BRANCH  12  13
ATOM     13  C   UNL     1      -4.818  91.179 -11.401  1.00  0.00    -0.000 C 
BRANCH  13  14
ATOM     14  C   UNL     1      -5.313  92.518 -10.834  1.00  0.00    -0.000 C 
BRANCH  14  15
ATOM     15  C   UNL     1      -4.787  92.820  -9.422  1.00  0.00    -0.000 C 
BRANCH  15  16
ATOM     16  C   UNL     1      -4.325  94.282  -9.286  1.00  0.00    -0.000 C 
BRANCH  16  17
ATOM     17  C   UNL     1      -3.015  94.540 -10.048  1.00  0.00    -0.003 C 
ATOM     18  C   UNL     1      -3.207  95.525 -11.202  1.00  0.00     0.004 C 
ENDBRANCH  16  17
ENDBRANCH  15  16
ENDBRANCH  14  15
ENDBRANCH  13  14
ENDBRANCH  12  13
ENDBRANCH  11  12
ENDBRANCH   1  11
TORSDOF 14
ENDMDL
MODEL 2
REMARK VINA RESULT:    -3.410      1.482      3.203
REMARK INTER + INTRA:          -8.327
REMARK INTER:                  -6.563
REMARK INTRA:                  -1.765
REMARK UNBOUND:                -2.127
REMARK SMILES CCCCCCCCCCCCCCCC(=O)[O-]
REMARK SMILES IDX 9 1 10 2 11 3 12 4 13 5 14 6 15 7 16 8 17 9 18 10 8 11 7 12
REMARK SMILES IDX 6 13 5 14 4 15 3 16 2 17 1 18
REMARK H PARENT
REMARK Flexibility Score: inf
ROOT
ATOM      1  C   UNL     1      -5.101  93.447 -12.358  1.00  0.00     0.000 C 
ENDROOT
BRANCH   1   2
ATOM      2  C   UNL     1      -3.928  92.689 -13.012  1.00  0.00     0.000 C 
BRANCH   2   3
ATOM      3  C   UNL     1      -4.063  91.168 -12.823  1.00  0.00     0.000 C 
BRANCH   3   4
ATOM      4  C   UNL     1      -3.678  90.364 -14.077  1.00  0.00     0.000 C 
BRANCH   4   5
ATOM      5  C   UNL     1      -4.530  90.643 -15.330  1.00  0.00     0.000 C 
BRANCH   5   6
ATOM      6  C   UNL     1      -6.036  90.436 -15.103  1.00  0.00     0.006 C 
BRANCH   6   7
ATOM      7  C   UNL     1      -6.354  89.040 -14.548  1.00  0.00     0.053 C 
BRANCH   7   8
ATOM      8  C   UNL     1      -7.291  89.092 -13.383  1.00  0.00     0.041 C 
ATOM      9  O   UNL     1      -8.483  89.463 -13.547  1.00  0.00    -0.550 OA
ATOM     10  O   UNL     1      -6.854  88.725 -12.116  1.00  0.00    -0.550 OA
ENDBRANCH   7   8
ENDBRANCH   6   7
ENDBRANCH   5   6
ENDBRANCH   4   5
ENDBRANCH   3   4
ENDBRANCH   2   3
ENDBRANCH   1   2
BRANCH   1  11
ATOM     11  C   UNL     1      -4.638  94.789 -11.774  1.00  0.00     0.000 C 
BRANCH  11  12
ATOM     12  C   UNL     1      -3.203  94.735 -11.221  1.00  0.00    -0.000 C 
BRANCH  12  13
ATOM     13  C   UNL     1      -3.150  94.429  -9.713  1.00  0.00    -0.000 C 
BRANCH  13  14
ATOM     14  C   UNL     1      -4.491  94.669  -9.004  1.00  0.00    -0.000 C 
BRANCH  14  15
ATOM     15  C   UNL     1      -4.926  93.503  -8.101  1.00  0.00    -0.000 C 
BRANCH  15  16
ATOM     16  C   UNL     1      -4.227  92.188  -8.491  1.00  0.00    -0.000 C 
BRANCH  16  17
ATOM     17  C   UNL     1      -5.144  91.281  -9.329  1.00  0.00    -0.003 C 
ATOM     18  C   UNL     1      -4.905  89.799  -9.039  1.00  0.00     0.004 C 
ENDBRANCH  16  17
ENDBRANCH  15  16
ENDBRANCH  14  15
ENDBRANCH  13  14
ENDBRANCH  12  13
ENDBRANCH  11  12
ENDBRANCH   1  11
TORSDOF 14
ENDMDL
MODEL 3
REMARK VINA RESULT:    -3.369      2.473      6.006
REMARK INTER + INTRA:          -8.254
REMARK INTER:                  -6.263
REMARK INTRA:                  -1.990
REMARK UNBOUND:                -2.127
REMARK SMILES CCCCCCCCCCCCCCCC(=O)[O-]
REMARK SMILES IDX 9 1 10 2 11 3 12 4 13 5 14 6 15 7 16 8 17 9 18 10 8 11 7 12
REMARK SMILES IDX 6 13 5 14 4 15 3 16 2 17 1 18
REMARK H PARENT
REMARK Flexibility Score: inf
ROOT
ATOM      1  C   UNL     1      -5.188  93.486 -12.545  1.00  0.00     0.000 C 
ENDROOT
BRANCH   1   2
ATOM      2  C   UNL     1      -4.690  94.769 -11.850  1.00  0.00     0.000 C 
BRANCH   2   3
ATOM      3  C   UNL     1      -3.251  94.606 -11.329  1.00  0.00     0.000 C 
BRANCH   3   4
ATOM      4  C   UNL     1      -3.167  94.521  -9.795  1.00  0.00     0.000 C 
BRANCH   4   5
ATOM      5  C   UNL     1      -4.491  94.761  -9.044  1.00  0.00     0.000 C 
BRANCH   5   6
ATOM      6  C   UNL     1      -4.916  93.576  -8.163  1.00  0.00     0.006 C 
BRANCH   6   7
ATOM      7  C   UNL     1      -5.543  92.438  -8.981  1.00  0.00     0.053 C 
BRANCH   7   8
ATOM      8  C   UNL     1      -4.702  91.202  -8.973  1.00  0.00     0.041 C 
ATOM      9  O   UNL     1      -4.692  90.438  -9.975  1.00  0.00    -0.550 OA
ATOM     10  O   UNL     1      -3.922  90.893  -7.865  1.00  0.00    -0.550 OA
ENDBRANCH   7   8
ENDBRANCH   6   7
ENDBRANCH   5   6
ENDBRANCH   4   5
ENDBRANCH   3   4
ENDBRANCH   2   3
ENDBRANCH   1   2
BRANCH   1  11
ATOM     11  C   UNL     1      -4.030  92.517 -12.819  1.00  0.00     0.000 C 
BRANCH  11  12
ATOM     12  C   UNL     1      -3.838  92.228 -14.318  1.00  0.00    -0.000 C 
BRANCH  12  13
ATOM     13  C   UNL     1      -3.748  90.724 -14.636  1.00  0.00    -0.000 C 
BRANCH  13  14
ATOM     14  C   UNL     1      -4.841  90.249 -15.604  1.00  0.00    -0.000 C 
BRANCH  14  15
ATOM     15  C   UNL     1      -5.975  89.472 -14.918  1.00  0.00    -0.000 C 
BRANCH  15  16
ATOM     16  C   UNL     1      -5.595  89.053 -13.486  1.00  0.00    -0.000 C 
BRANCH  16  17
ATOM     17  C   UNL     1      -6.788  89.164 -12.523  1.00  0.00    -0.003 C 
ATOM     18  C   UNL     1      -7.416  90.558 -12.547  1.00  0.00     0.004 C 
ENDBRANCH  16  17
ENDBRANCH  15  16
ENDBRANCH  14  15
ENDBRANCH  13  14
ENDBRANCH  12  13
ENDBRANCH  11  12
ENDBRANCH   1  11
TORSDOF 14
ENDMDL
MODEL 4
REMARK VINA RESULT:    -3.343      2.539      4.064
REMARK INTER + INTRA:          -8.206
REMARK INTER:                  -6.012
REMARK INTRA:                  -2.194
REMARK UNBOUND:                -2.127
REMARK SMILES CCCCCCCCCCCCCCCC(=O)[O-]
REMARK SMILES IDX 9 1 10 2 11 3 12 4 13 5 14 6 15 7 16 8 17 9 18 10 8 11 7 12
REMARK SMILES IDX 6 13 5 14 4 15 3 16 2 17 1 18
REMARK H PARENT
REMARK Flexibility Score: inf
ROOT
ATOM      1  C   UNL     1      -5.417  93.514 -12.584  1.00  0.00     0.000 C 
ENDROOT
BRANCH   1   2
ATOM      2  C   UNL     1      -6.213  92.283 -12.109  1.00  0.00     0.000 C 
BRANCH   2   3
ATOM      3  C   UNL     1      -5.285  91.097 -11.795  1.00  0.00     0.000 C 
BRANCH   3   4
ATOM      4  C   UNL     1      -5.784  89.764 -12.380  1.00  0.00     0.000 C 
BRANCH   4   5
ATOM      5  C   UNL     1      -6.591  89.875 -13.688  1.00  0.00     0.000 C 
BRANCH   5   6
ATOM      6  C   UNL     1      -5.869  89.272 -14.903  1.00  0.00     0.006 C 
BRANCH   6   7
ATOM      7  C   UNL     1      -5.384  90.349 -15.884  1.00  0.00     0.053 C 
BRANCH   7   8
ATOM      8  C   UNL     1      -4.146  91.039 -15.404  1.00  0.00     0.041 C 
ATOM      9  O   UNL     1      -3.238  90.381 -14.831  1.00  0.00    -0.550 OA
ATOM     10  O   UNL     1      -3.989  92.407 -15.594  1.00  0.00    -0.550 OA
ENDBRANCH   7   8
ENDBRANCH   6   7
ENDBRANCH   5   6
ENDBRANCH   4   5
ENDBRANCH   3   4
ENDBRANCH   2   3
ENDBRANCH   1   2
BRANCH   1  11
ATOM     11  C   UNL     1      -3.959  93.453 -12.104  1.00  0.00     0.000 C 
BRANCH  11  12
ATOM     12  C   UNL     1      -3.518  94.734 -11.376  1.00  0.00    -0.000 C 
BRANCH  12  13
ATOM     13  C   UNL     1      -3.137  94.491  -9.905  1.00  0.00    -0.000 C 
BRANCH  13  14
ATOM     14  C   UNL     1      -4.349  94.180  -9.014  1.00  0.00    -0.000 C 
BRANCH  14  15
ATOM     15  C   UNL     1      -4.340  92.755  -8.440  1.00  0.00    -0.000 C 
BRANCH  15  16
ATOM     16  C   UNL     1      -5.767  92.203  -8.259  1.00  0.00    -0.000 C 
BRANCH  16  17
ATOM     17  C   UNL     1      -5.775  90.672  -8.129  1.00  0.00    -0.003 C 
ATOM     18  C   UNL     1      -4.386  90.070  -8.351  1.00  0.00     0.004 C 
ENDBRANCH  16  17
ENDBRANCH  15  16
ENDBRANCH  14  15
ENDBRANCH  13  14
ENDBRANCH  12  13
ENDBRANCH  11  12
ENDBRANCH   1  11
TORSDOF 14
ENDMDL
MODEL 5
REMARK VINA RESULT:    -3.336      2.762      6.190
REMARK INTER + INTRA:          -8.194
REMARK INTER:                  -6.364
REMARK INTRA:                  -1.830
REMARK UNBOUND:                -2.127
REMARK SMILES CCCCCCCCCCCCCCCC(=O)[O-]
REMARK SMILES IDX 9 1 10 2 11 3 12 4 13 5 14 6 15 7 16 8 17 9 18 10 8 11 7 12
REMARK SMILES IDX 6 13 5 14 4 15 3 16 2 17 1 18
REMARK H PARENT
REMARK Flexibility Score: inf
ROOT
ATOM      1  C   UNL     1      -5.148  93.763 -12.565  1.00  0.00     0.000 C 
ENDROOT
BRANCH   1   2
ATOM      2  C   UNL     1      -4.661  95.002 -11.789  1.00  0.00     0.000 C 
BRANCH   2   3
ATOM      3  C   UNL     1      -3.239  94.799 -11.234  1.00  0.00     0.000 C 
BRANCH   3   4
ATOM      4  C   UNL     1      -3.213  94.510  -9.722  1.00  0.00     0.000 C 
BRANCH   4   5
ATOM      5  C   UNL     1      -4.571  94.620  -9.004  1.00  0.00     0.000 C 
BRANCH   5   6
ATOM      6  C   UNL     1      -5.050  93.290  -8.400  1.00  0.00     0.006 C 
BRANCH   6   7
ATOM      7  C   UNL     1      -4.040  92.155  -8.618  1.00  0.00     0.053 C 
BRANCH   7   8
ATOM      8  C   UNL     1      -4.426  90.904  -7.893  1.00  0.00     0.041 C 
ATOM      9  O   UNL     1      -3.616  90.361  -7.096  1.00  0.00    -0.550 OA
ATOM     10  O   UNL     1      -5.681  90.340  -8.088  1.00  0.00    -0.550 OA
ENDBRANCH   7   8
ENDBRANCH   6   7
ENDBRANCH   5   6
ENDBRANCH   4   5
ENDBRANCH   3   4
ENDBRANCH   2   3
ENDBRANCH   1   2
BRANCH   1  11
ATOM     11  C   UNL     1      -3.985  92.810 -12.878  1.00  0.00     0.000 C 
BRANCH  11  12
ATOM     12  C   UNL     1      -4.320  91.341 -12.567  1.00  0.00    -0.000 C 
BRANCH  12  13
ATOM     13  C   UNL     1      -3.961  90.384 -13.718  1.00  0.00    -0.000 C 
BRANCH  13  14
ATOM     14  C   UNL     1      -5.172  90.006 -14.583  1.00  0.00    -0.000 C 
BRANCH  14  15
ATOM     15  C   UNL     1      -5.064  90.491 -16.037  1.00  0.00    -0.000 C 
BRANCH  15  16
ATOM     16  C   UNL     1      -5.689  91.886 -16.222  1.00  0.00    -0.000 C 
BRANCH  16  17
ATOM     17  C   UNL     1      -4.625  92.954 -16.521  1.00  0.00    -0.003 C 
ATOM     18  C   UNL     1      -3.233  92.344 -16.692  1.00  0.00     0.004 C 
ENDBRANCH  16  17
ENDBRANCH  15  16
ENDBRANCH  14  15
ENDBRANCH  13  14
ENDBRANCH  12  13
ENDBRANCH  11  12
ENDBRANCH   1  11
TORSDOF 14
ENDMDL
MODEL 6
REMARK VINA RESULT:    -3.329      8.646     10.373
REMARK INTER + INTRA:          -8.180
REMARK INTER:                  -5.838
REMARK INTRA:                  -2.342
REMARK UNBOUND:                -2.127
REMARK SMILES CCCCCCCCCCCCCCCC(=O)[O-]
REMARK SMILES IDX 9 1 10 2 11 3 12 4 13 5 14 6 15 7 16 8 17 9 18 10 8 11 7 12
REMARK SMILES IDX 6 13 5 14 4 15 3 16 2 17 1 18
REMARK H PARENT
REMARK Flexibility Score: inf
ROOT
ATOM      1  C   UNL     1      -4.065  83.121  -6.176  1.00  0.00     0.000 C 
ENDROOT
BRANCH   1   2
ATOM      2  C   UNL     1      -5.392  83.794  -5.773  1.00  0.00     0.000 C 
BRANCH   2   3
ATOM      3  C   UNL     1      -6.606  82.944  -6.188  1.00  0.00     0.000 C 
BRANCH   3   4
ATOM      4  C   UNL     1      -7.644  83.730  -7.009  1.00  0.00     0.000 C 
BRANCH   4   5
ATOM      5  C   UNL     1      -8.829  82.903  -7.543  1.00  0.00     0.000 C 
BRANCH   5   6
ATOM      6  C   UNL     1      -8.920  82.888  -9.077  1.00  0.00     0.006 C 
BRANCH   6   7
ATOM      7  C   UNL     1      -9.980  81.900  -9.587  1.00  0.00     0.053 C 
BRANCH   7   8
ATOM      8  C   UNL     1     -11.359  82.264  -9.137  1.00  0.00     0.041 C 
ATOM      9  O   UNL     1     -12.113  81.388  -8.638  1.00  0.00    -0.550 OA
ATOM     10  O   UNL     1     -11.814  83.572  -9.262  1.00  0.00    -0.550 OA
ENDBRANCH   7   8
ENDBRANCH   6   7
ENDBRANCH   5   6
ENDBRANCH   4   5
ENDBRANCH   3   4
ENDBRANCH   2   3
ENDBRANCH   1   2
BRANCH   1  11
ATOM     11  C   UNL     1      -4.304  81.963  -7.155  1.00  0.00     0.000 C 
BRANCH  11  12
ATOM     12  C   UNL     1      -3.201  81.847  -8.221  1.00  0.00    -0.000 C 
BRANCH  12  13
ATOM     13  C   UNL     1      -3.589  82.493  -9.563  1.00  0.00    -0.000 C 
BRANCH  13  14
ATOM     14  C   UNL     1      -5.102  82.716  -9.707  1.00  0.00    -0.000 C 
BRANCH  14  15
ATOM     15  C   UNL     1      -5.488  84.187  -9.925  1.00  0.00    -0.000 C 
BRANCH  15  16
ATOM     16  C   UNL     1      -4.420  85.146  -9.369  1.00  0.00    -0.000 C 
BRANCH  16  17
ATOM     17  C   UNL     1      -5.030  86.200  -8.432  1.00  0.00    -0.003 C 
ATOM     18  C   UNL     1      -3.980  86.833  -7.518  1.00  0.00     0.004 C 
ENDBRANCH  16  17
ENDBRANCH  15  16
ENDBRANCH  14  15
ENDBRANCH  13  14
ENDBRANCH  12  13
ENDBRANCH  11  12
ENDBRANCH   1  11
TORSDOF 14
ENDMDL
MODEL 7
REMARK VINA RESULT:    -3.328      2.063      4.587
REMARK INTER + INTRA:          -8.179
REMARK INTER:                  -6.070
REMARK INTRA:                  -2.109
REMARK UNBOUND:                -2.127
REMARK SMILES CCCCCCCCCCCCCCCC(=O)[O-]
REMARK SMILES IDX 9 1 10 2 11 3 12 4 13 5 14 6 15 7 16 8 17 9 18 10 8 11 7 12
REMARK SMILES IDX 6 13 5 14 4 15 3 16 2 17 1 18
REMARK H PARENT
REMARK Flexibility Score: inf
ROOT
ATOM      1  C   UNL     1      -3.237  94.501  -9.624  1.00  0.00     0.000 C 
ENDROOT
BRANCH   1   2
ATOM      2  C   UNL     1      -3.093  94.778 -11.134  1.00  0.00     0.000 C 
BRANCH   2   3
ATOM      3  C   UNL     1      -4.263  94.175 -11.933  1.00  0.00     0.000 C 
BRANCH   3   4
ATOM      4  C   UNL     1      -3.944  92.790 -12.523  1.00  0.00     0.000 C 
BRANCH   4   5
ATOM      5  C   UNL     1      -4.305  92.605 -14.009  1.00  0.00     0.000 C 
BRANCH   5   6
ATOM      6  C   UNL     1      -3.560  91.439 -14.677  1.00  0.00     0.006 C 
BRANCH   6   7
ATOM      7  C   UNL     1      -4.147  90.074 -14.290  1.00  0.00     0.053 C 
BRANCH   7   8
ATOM      8  C   UNL     1      -5.339  89.713 -15.118  1.00  0.00     0.041 C 
ATOM      9  O   UNL     1      -5.396  90.059 -16.328  1.00  0.00    -0.550 OA
ATOM     10  O   UNL     1      -6.386  88.989 -14.560  1.00  0.00    -0.550 OA
ENDBRANCH   7   8
ENDBRANCH   6   7
ENDBRANCH   5   6
ENDBRANCH   4   5
ENDBRANCH   3   4
ENDBRANCH   2   3
ENDBRANCH   1   2
BRANCH   1  11
ATOM     11  C   UNL     1      -4.709  94.548  -9.188  1.00  0.00     0.000 C 
BRANCH  11  12
ATOM     12  C   UNL     1      -5.111  93.344  -8.320  1.00  0.00    -0.000 C 
BRANCH  12  13
ATOM     13  C   UNL     1      -4.322  92.066  -8.659  1.00  0.00    -0.000 C 
BRANCH  13  14
ATOM     14  C   UNL     1      -4.929  90.802  -8.031  1.00  0.00    -0.000 C 
BRANCH  14  15
ATOM     15  C   UNL     1      -5.743  89.954  -9.021  1.00  0.00    -0.000 C 
BRANCH  15  16
ATOM     16  C   UNL     1      -5.399  90.294 -10.483  1.00  0.00    -0.000 C 
BRANCH  16  17
ATOM     17  C   UNL     1      -6.661  90.545 -11.323  1.00  0.00    -0.003 C 
ATOM     18  C   UNL     1      -7.264  91.925 -11.054  1.00  0.00     0.004 C 
ENDBRANCH  16  17
ENDBRANCH  15  16
ENDBRANCH  14  15
ENDBRANCH  13  14
ENDBRANCH  12  13
ENDBRANCH  11  12
ENDBRANCH   1  11
TORSDOF 14
ENDMDL
MODEL 8
REMARK VINA RESULT:    -3.272      2.956      5.349
REMARK INTER + INTRA:          -8.077
REMARK INTER:                  -5.383
REMARK INTRA:                  -2.694
REMARK UNBOUND:                -2.127
REMARK SMILES CCCCCCCCCCCCCCCC(=O)[O-]
REMARK SMILES IDX 9 1 10 2 11 3 12 4 13 5 14 6 15 7 16 8 17 9 18 10 8 11 7 12
REMARK SMILES IDX 6 13 5 14 4 15 3 16 2 17 1 18
REMARK H PARENT
REMARK Flexibility Score: inf
ROOT
ATOM      1  C   UNL     1      -7.143  89.204 -13.799  1.00  0.00     0.000 C 
ENDROOT
BRANCH   1   2
ATOM      2  C   UNL     1      -7.477  89.830 -12.430  1.00  0.00     0.000 C 
BRANCH   2   3
ATOM      3  C   UNL     1      -6.468  89.397 -11.350  1.00  0.00     0.000 C 
BRANCH   3   4
ATOM      4  C   UNL     1      -6.202  90.488 -10.297  1.00  0.00     0.000 C 
BRANCH   4   5
ATOM      5  C   UNL     1      -4.814  90.441  -9.631  1.00  0.00     0.000 C 
BRANCH   5   6
ATOM      6  C   UNL     1      -4.510  91.674  -8.766  1.00  0.00     0.006 C 
BRANCH   6   7
ATOM      7  C   UNL     1      -5.252  92.925  -9.256  1.00  0.00     0.053 C 
BRANCH   7   8
ATOM      8  C   UNL     1      -4.444  94.171  -9.076  1.00  0.00     0.041 C 
ATOM      9  O   UNL     1      -3.222  94.182  -9.382  1.00  0.00    -0.550 OA
ATOM     10  O   UNL     1      -5.038  95.325  -8.577  1.00  0.00    -0.550 OA
ENDBRANCH   7   8
ENDBRANCH   6   7
ENDBRANCH   5   6
ENDBRANCH   4   5
ENDBRANCH   3   4
ENDBRANCH   2   3
ENDBRANCH   1   2
BRANCH   1  11
ATOM     11  C   UNL     1      -5.627  89.165 -14.037  1.00  0.00     0.000 C 
BRANCH  11  12
ATOM     12  C   UNL     1      -5.192  90.018 -15.241  1.00  0.00    -0.000 C 
BRANCH  12  13
ATOM     13  C   UNL     1      -4.261  91.180 -14.852  1.00  0.00    -0.000 C 
BRANCH  13  14
ATOM     14  C   UNL     1      -3.831  91.138 -13.378  1.00  0.00    -0.000 C 
BRANCH  14  15
ATOM     15  C   UNL     1      -4.068  92.460 -12.631  1.00  0.00    -0.000 C 
BRANCH  15  16
ATOM     16  C   UNL     1      -5.026  93.388 -13.401  1.00  0.00    -0.000 C 
BRANCH  16  17
ATOM     17  C   UNL     1      -6.448  93.350 -12.818  1.00  0.00    -0.003 C 
ATOM     18  C   UNL     1      -7.508  93.166 -13.904  1.00  0.00     0.004 C 
ENDBRANCH  16  17
ENDBRANCH  15  16
ENDBRANCH  14  15
ENDBRANCH  13  14
ENDBRANCH  12  13
ENDBRANCH  11  12
ENDBRANCH   1  11
TORSDOF 14
ENDMDL
MODEL 9
REMARK VINA RESULT:    -3.219      2.768      5.861
REMARK INTER + INTRA:          -7.981
REMARK INTER:                  -5.541
REMARK INTRA:                  -2.440
REMARK UNBOUND:                -2.127
REMARK SMILES CCCCCCCCCCCCCCCC(=O)[O-]
REMARK SMILES IDX 9 1 10 2 11 3 12 4 13 5 14 6 15 7 16 8 17 9 18 10 8 11 7 12
REMARK SMILES IDX 6 13 5 14 4 15 3 16 2 17 1 18
REMARK H PARENT
REMARK Flexibility Score: inf
ROOT
ATOM      1  C   UNL     1      -6.744  93.187 -15.695  1.00  0.00     0.000 C 
ENDROOT
BRANCH   1   2
ATOM      2  C   UNL     1      -5.977  93.757 -14.486  1.00  0.00     0.000 C 
BRANCH   2   3
ATOM      3  C   UNL     1      -6.566  93.256 -13.155  1.00  0.00     0.000 C 
BRANCH   3   4
ATOM      4  C   UNL     1      -5.496  92.749 -12.171  1.00  0.00     0.000 C 
BRANCH   4   5
ATOM      5  C   UNL     1      -4.106  93.398 -12.312  1.00  0.00     0.000 C 
BRANCH   5   6
ATOM      6  C   UNL     1      -3.958  94.701 -11.511  1.00  0.00     0.006 C 
BRANCH   6   7
ATOM      7  C   UNL     1      -3.218  94.487 -10.182  1.00  0.00     0.053 C 
BRANCH   7   8
ATOM      8  C   UNL     1      -4.137  94.050  -9.085  1.00  0.00     0.041 C 
ATOM      9  O   UNL     1      -4.023  92.899  -8.587  1.00  0.00    -0.550 OA
ATOM     10  O   UNL     1      -5.115  94.913  -8.606  1.00  0.00    -0.550 OA
ENDBRANCH   7   8
ENDBRANCH   6   7
ENDBRANCH   5   6
ENDBRANCH   4   5
ENDBRANCH   3   4
ENDBRANCH   2   3
ENDBRANCH   1   2
BRANCH   1  11
ATOM     11  C   UNL     1      -5.779  92.674 -16.773  1.00  0.00     0.000 C 
BRANCH  11  12
ATOM     12  C   UNL     1      -4.363  92.416 -16.231  1.00  0.00    -0.000 C 
BRANCH  12  13
ATOM     13  C   UNL     1      -4.043  90.920 -16.066  1.00  0.00    -0.000 C 
BRANCH  13  14
ATOM     14  C   UNL     1      -3.706  90.534 -14.618  1.00  0.00    -0.000 C 
BRANCH  14  15
ATOM     15  C   UNL     1      -4.719  89.565 -13.988  1.00  0.00    -0.000 C 
BRANCH  15  16
ATOM     16  C   UNL     1      -6.016  89.479 -14.814  1.00  0.00    -0.000 C 
BRANCH  16  17
ATOM     17  C   UNL     1      -7.262  89.717 -13.947  1.00  0.00    -0.003 C 
ATOM     18  C   UNL     1      -7.094  89.155 -12.535  1.00  0.00     0.004 C 
ENDBRANCH  16  17
ENDBRANCH  15  16
ENDBRANCH  14  15
ENDBRANCH  13  14
ENDBRANCH  12  13
ENDBRANCH  11  12
ENDBRANCH   1  11
TORSDOF 14
ENDMDL
