MODEL 1
REMARK VINA RESULT:    -2.589      0.000      0.000
REMARK INTER + INTRA:          -4.724
REMARK INTER:                  -4.103
REMARK INTRA:                  -0.620
REMARK UNBOUND:                -0.620
REMARK SMILES CCCCCCCCCCCC(=O)[O-]
REMARK SMILES IDX 7 1 8 2 9 3 10 4 11 5 12 6 13 7 14 8 6 9 5 10 4 11 3 12 2 13
REMARK SMILES IDX 1 14
REMARK H PARENT
REMARK Flexibility Score: inf
ROOT
ATOM      1  C   UNL     1      -1.163 -31.330  -3.034  1.00  0.00     0.000 C 
ENDROOT
BRANCH   1   2
ATOM      2  C   UNL     1       0.277 -31.145  -3.535  1.00  0.00     0.000 C 
BRANCH   2   3
ATOM      3  C   UNL     1       0.445 -31.543  -5.010  1.00  0.00     0.000 C 
BRANCH   3   4
ATOM      4  C   UNL     1       1.849 -31.227  -5.553  1.00  0.00     0.006 C 
BRANCH   4   5
ATOM      5  C   UNL     1       2.214 -32.100  -6.760  1.00  0.00     0.053 C 
BRANCH   5   6
ATOM      6  C   UNL     1       3.261 -31.454  -7.615  1.00  0.00     0.041 C 
ATOM      7  O   UNL     1       3.056 -30.322  -8.125  1.00  0.00    -0.550 OA
ATOM      8  O   UNL     1       4.452 -32.120  -7.876  1.00  0.00    -0.550 OA
ENDBRANCH   5   6
ENDBRANCH   4   5
ENDBRANCH   3   4
ENDBRANCH   2   3
ENDBRANCH   1   2
BRANCH   1   9
ATOM      9  C   UNL     1      -2.027 -32.031  -4.090  1.00  0.00     0.000 C 
BRANCH   9  10
ATOM     10  C   UNL     1      -3.478 -31.530  -4.035  1.00  0.00    -0.000 C 
BRANCH  10  11
ATOM     11  C   UNL     1      -4.087 -31.326  -5.431  1.00  0.00    -0.000 C 
BRANCH  11  12
ATOM     12  C   UNL     1      -3.269 -32.013  -6.539  1.00  0.00    -0.000 C 
BRANCH  12  13
ATOM     13  C   UNL     1      -3.679 -31.550  -7.946  1.00  0.00    -0.003 C 
ATOM     14  C   UNL     1      -5.016 -30.809  -7.957  1.00  0.00     0.004 C 
ENDBRANCH  12  13
ENDBRANCH  11  12
ENDBRANCH  10  11
ENDBRANCH   9  10
ENDBRANCH   1   9
TORSDOF 10
ENDMDL
MODEL 2
REMARK VINA RESULT:    -2.527      3.493      6.455
REMARK INTER + INTRA:          -4.624
REMARK INTER:                  -3.972
REMARK INTRA:                  -0.653
REMARK UNBOUND:                -0.620
REMARK SMILES CCCCCCCCCCCC(=O)[O-]
REMARK SMILES IDX 7 1 8 2 9 3 10 4 11 5 12 6 13 7 14 8 6 9 5 10 4 11 3 12 2 13
REMARK SMILES IDX 1 14
REMARK H PARENT
REMARK Flexibility Score: inf
ROOT
ATOM      1  C   UNL     1       0.543 -31.129  -4.236  1.00  0.00     0.000 C 
ENDROOT
BRANCH   1   2
ATOM      2  C   UNL     1      -0.782 -31.809  -4.609  1.00  0.00     0.000 C 
BRANCH   2   3
ATOM      3  C   UNL     1      -2.008 -31.033  -4.103  1.00  0.00     0.000 C 
BRANCH   3   4
ATOM      4  C   UNL     1      -3.336 -31.708  -4.488  1.00  0.00     0.006 C 
BRANCH   4   5
ATOM      5  C   UNL     1      -3.394 -32.062  -5.980  1.00  0.00     0.053 C 
BRANCH   5   6
ATOM      6  C   UNL     1      -4.490 -31.321  -6.683  1.00  0.00     0.041 C 
ATOM      7  O   UNL     1      -4.886 -30.209  -6.248  1.00  0.00    -0.550 OA
ATOM      8  O   UNL     1      -5.098 -31.878  -7.802  1.00  0.00    -0.550 OA
ENDBRANCH   5   6
ENDBRANCH   4   5
ENDBRANCH   3   4
ENDBRANCH   2   3
ENDBRANCH   1   2
BRANCH   1   9
ATOM      9  C   UNL     1       1.686 -31.625  -5.130  1.00  0.00     0.000 C 
BRANCH   9  10
ATOM     10  C   UNL     1       1.152 -32.125  -6.481  1.00  0.00    -0.000 C 
BRANCH  10  11
ATOM     11  C   UNL     1       2.155 -31.919  -7.627  1.00  0.00    -0.000 C 
BRANCH  11  12
ATOM     12  C   UNL     1       2.793 -30.518  -7.611  1.00  0.00    -0.000 C 
BRANCH  12  13
ATOM     13  C   UNL     1       4.304 -30.557  -7.886  1.00  0.00    -0.003 C 
ATOM     14  C   UNL     1       4.825 -31.974  -8.121  1.00  0.00     0.004 C 
ENDBRANCH  12  13
ENDBRANCH  11  12
ENDBRANCH  10  11
ENDBRANCH   9  10
ENDBRANCH   1   9
TORSDOF 10
ENDMDL
MODEL 3
REMARK VINA RESULT:    -0.852      3.383      6.595
REMARK INTER + INTRA:          -1.970
REMARK INTER:                  -1.466
REMARK INTRA:                  -0.504
REMARK UNBOUND:                -0.620
REMARK SMILES CCCCCCCCCCCC(=O)[O-]
REMARK SMILES IDX 7 1 8 2 9 3 10 4 11 5 12 6 13 7 14 8 6 9 5 10 4 11 3 12 2 13
REMARK SMILES IDX 1 14
REMARK H PARENT
REMARK Flexibility Score: inf
ROOT
ATOM      1  C   UNL     1      -0.304 -30.981  -5.060  1.00  0.00     0.000 C 
ENDROOT
BRANCH   1   2
ATOM      2  C   UNL     1      -1.353 -32.098  -4.964  1.00  0.00     0.000 C 
BRANCH   2   3
ATOM      3  C   UNL     1      -2.549 -31.712  -4.079  1.00  0.00     0.000 C 
BRANCH   3   4
ATOM      4  C   UNL     1      -3.647 -30.968  -4.859  1.00  0.00     0.006 C 
BRANCH   4   5
ATOM      5  C   UNL     1      -4.386 -31.888  -5.839  1.00  0.00     0.053 C 
BRANCH   5   6
ATOM      6  C   UNL     1      -4.185 -31.460  -7.260  1.00  0.00     0.041 C 
ATOM      7  O   UNL     1      -4.887 -30.538  -7.752  1.00  0.00    -0.550 OA
ATOM      8  O   UNL     1      -3.243 -32.104  -8.054  1.00  0.00    -0.550 OA
ENDBRANCH   5   6
ENDBRANCH   4   5
ENDBRANCH   3   4
ENDBRANCH   2   3
ENDBRANCH   1   2
BRANCH   1   9
ATOM      9  C   UNL     1       1.117 -31.556  -4.998  1.00  0.00     0.000 C 
BRANCH   9  10
ATOM     10  C   UNL     1       1.681 -31.478  -3.571  1.00  0.00    -0.000 C 
BRANCH  10  11
ATOM     11  C   UNL     1       0.779 -30.675  -2.621  1.00  0.00    -0.000 C 
BRANCH  11  12
ATOM     12  C   UNL     1       1.260 -30.728  -1.161  1.00  0.00    -0.000 C 
BRANCH  12  13
ATOM     13  C   UNL     1       1.598 -29.337  -0.602  1.00  0.00    -0.003 C 
ATOM     14  C   UNL     1       1.831 -29.348   0.909  1.00  0.00     0.004 C 
ENDBRANCH  12  13
ENDBRANCH  11  12
ENDBRANCH  10  11
ENDBRANCH   9  10
ENDBRANCH   1   9
TORSDOF 10
ENDMDL
MODEL 4
REMARK VINA RESULT:    -0.772     22.299     24.254
REMARK INTER + INTRA:          -1.843
REMARK INTER:                  -1.874
REMARK INTRA:                   0.031
REMARK UNBOUND:                -0.620
REMARK SMILES CCCCCCCCCCCC(=O)[O-]
REMARK SMILES IDX 7 1 8 2 9 3 10 4 11 5 12 6 13 7 14 8 6 9 5 10 4 11 3 12 2 13
REMARK SMILES IDX 1 14
REMARK H PARENT
REMARK Flexibility Score: inf
ROOT
ATOM      1  C   UNL     1       4.081 -13.096   8.830  1.00  0.00     0.000 C 
ENDROOT
BRANCH   1   2
ATOM      2  C   UNL     1       3.523 -14.403   9.413  1.00  0.00     0.000 C 
BRANCH   2   3
ATOM      3  C   UNL     1       3.435 -15.526   8.368  1.00  0.00     0.000 C 
BRANCH   3   4
ATOM      4  C   UNL     1       2.307 -15.298   7.347  1.00  0.00     0.006 C 
BRANCH   4   5
ATOM      5  C   UNL     1       2.776 -14.474   6.141  1.00  0.00     0.053 C 
BRANCH   5   6
ATOM      6  C   UNL     1       1.714 -13.529   5.669  1.00  0.00     0.041 C 
ATOM      7  O   UNL     1       1.018 -12.888   6.499  1.00  0.00    -0.550 OA
ATOM      8  O   UNL     1       1.468 -13.383   4.309  1.00  0.00    -0.550 OA
ENDBRANCH   5   6
ENDBRANCH   4   5
ENDBRANCH   3   4
ENDBRANCH   2   3
ENDBRANCH   1   2
BRANCH   1   9
ATOM      9  C   UNL     1       3.405 -11.877   9.470  1.00  0.00     0.000 C 
BRANCH   9  10
ATOM     10  C   UNL     1       2.788 -12.240  10.830  1.00  0.00    -0.000 C 
BRANCH  10  11
ATOM     11  C   UNL     1       3.777 -12.968  11.752  1.00  0.00    -0.000 C 
BRANCH  11  12
ATOM     12  C   UNL     1       4.990 -12.098  12.125  1.00  0.00    -0.000 C 
BRANCH  12  13
ATOM     13  C   UNL     1       6.311 -12.881  12.087  1.00  0.00    -0.003 C 
ATOM     14  C   UNL     1       6.099 -14.395  12.086  1.00  0.00     0.004 C 
ENDBRANCH  12  13
ENDBRANCH  11  12
ENDBRANCH  10  11
ENDBRANCH   9  10
ENDBRANCH   1   9
TORSDOF 10
ENDMDL
MODEL 5
REMARK VINA RESULT:    -0.649      1.112      1.623
REMARK INTER + INTRA:          -1.648
REMARK INTER:                  -2.394
REMARK INTRA:                   0.746
REMARK UNBOUND:                -0.620
REMARK SMILES CCCCCCCCCCCC(=O)[O-]
REMARK SMILES IDX 7 1 8 2 9 3 10 4 11 5 12 6 13 7 14 8 6 9 5 10 4 11 3 12 2 13
REMARK SMILES IDX 1 14
REMARK H PARENT
REMARK Flexibility Score: inf
ROOT
ATOM      1  C   UNL     1      -2.590 -30.748  -4.092  1.00  0.00     0.000 C 
ENDROOT
BRANCH   1   2
ATOM      2  C   UNL     1      -1.412 -31.037  -5.034  1.00  0.00     0.000 C 
BRANCH   2   3
ATOM      3  C   UNL     1      -0.233 -31.715  -4.317  1.00  0.00     0.000 C 
BRANCH   3   4
ATOM      4  C   UNL     1       1.128 -31.131  -4.733  1.00  0.00     0.006 C 
BRANCH   4   5
ATOM      5  C   UNL     1       1.923 -32.094  -5.624  1.00  0.00     0.053 C 
BRANCH   5   6
ATOM      6  C   UNL     1       2.570 -31.381  -6.771  1.00  0.00     0.041 C 
ATOM      7  O   UNL     1       3.264 -30.351  -6.570  1.00  0.00    -0.550 OA
ATOM      8  O   UNL     1       2.376 -31.836  -8.070  1.00  0.00    -0.550 OA
ENDBRANCH   5   6
ENDBRANCH   4   5
ENDBRANCH   3   4
ENDBRANCH   2   3
ENDBRANCH   1   2
BRANCH   1   9
ATOM      9  C   UNL     1      -3.591 -31.910  -4.091  1.00  0.00     0.000 C 
BRANCH   9  10
ATOM     10  C   UNL     1      -4.410 -31.933  -5.391  1.00  0.00    -0.000 C 
BRANCH  10  11
ATOM     11  C   UNL     1      -3.533 -32.121  -6.639  1.00  0.00    -0.000 C 
BRANCH  11  12
ATOM     12  C   UNL     1      -4.308 -31.883  -7.947  1.00  0.00    -0.000 C 
BRANCH  12  13
ATOM     13  C   UNL     1      -5.084 -30.557  -7.939  1.00  0.00    -0.003 C 
ATOM     14  C   UNL     1      -4.536 -29.559  -6.920  1.00  0.00     0.004 C 
ENDBRANCH  12  13
ENDBRANCH  11  12
ENDBRANCH  10  11
ENDBRANCH   9  10
ENDBRANCH   1   9
TORSDOF 10
ENDMDL
MODEL 6
REMARK VINA RESULT:    -0.579     13.053     14.158
REMARK INTER + INTRA:          -1.538
REMARK INTER:                  -1.169
REMARK INTRA:                  -0.369
REMARK UNBOUND:                -0.620
REMARK SMILES CCCCCCCCCCCC(=O)[O-]
REMARK SMILES IDX 7 1 8 2 9 3 10 4 11 5 12 6 13 7 14 8 6 9 5 10 4 11 3 12 2 13
REMARK SMILES IDX 1 14
REMARK H PARENT
REMARK Flexibility Score: inf
ROOT
ATOM      1  C   UNL     1      -4.805 -18.359  -6.152  1.00  0.00     0.000 C 
ENDROOT
BRANCH   1   2
ATOM      2  C   UNL     1      -4.934 -19.823  -6.598  1.00  0.00     0.000 C 
BRANCH   2   3
ATOM      3  C   UNL     1      -4.833 -20.810  -5.424  1.00  0.00     0.000 C 
BRANCH   3   4
ATOM      4  C   UNL     1      -3.757 -21.887  -5.647  1.00  0.00     0.006 C 
BRANCH   4   5
ATOM      5  C   UNL     1      -2.379 -21.278  -5.937  1.00  0.00     0.053 C 
BRANCH   5   6
ATOM      6  C   UNL     1      -1.274 -22.252  -5.662  1.00  0.00     0.041 C 
ATOM      7  O   UNL     1      -1.103 -22.708  -4.501  1.00  0.00    -0.550 OA
ATOM      8  O   UNL     1      -0.411 -22.630  -6.683  1.00  0.00    -0.550 OA
ENDBRANCH   5   6
ENDBRANCH   4   5
ENDBRANCH   3   4
ENDBRANCH   2   3
ENDBRANCH   1   2
BRANCH   1   9
ATOM      9  C   UNL     1      -5.108 -17.403  -7.313  1.00  0.00     0.000 C 
BRANCH   9  10
ATOM     10  C   UNL     1      -4.566 -15.995  -7.023  1.00  0.00    -0.000 C 
BRANCH  10  11
ATOM     11  C   UNL     1      -5.097 -14.942  -8.008  1.00  0.00    -0.000 C 
BRANCH  11  12
ATOM     12  C   UNL     1      -4.170 -13.720  -8.125  1.00  0.00    -0.000 C 
BRANCH  12  13
ATOM     13  C   UNL     1      -2.684 -14.096  -8.020  1.00  0.00    -0.003 C 
ATOM     14  C   UNL     1      -1.778 -12.879  -7.839  1.00  0.00     0.004 C 
ENDBRANCH  12  13
ENDBRANCH  11  12
ENDBRANCH  10  11
ENDBRANCH   9  10
ENDBRANCH   1   9
TORSDOF 10
ENDMDL
MODEL 7
REMARK VINA RESULT:     0.266      3.544      4.502
REMARK INTER + INTRA:          -0.199
REMARK INTER:                  -0.058
REMARK INTRA:                  -0.141
REMARK UNBOUND:                -0.620
REMARK SMILES CCCCCCCCCCCC(=O)[O-]
REMARK SMILES IDX 7 1 8 2 9 3 10 4 11 5 12 6 13 7 14 8 6 9 5 10 4 11 3 12 2 13
REMARK SMILES IDX 1 14
REMARK H PARENT
REMARK Flexibility Score: inf
ROOT
ATOM      1  C   UNL     1      -1.640 -30.960  -3.757  1.00  0.00     0.000 C 
ENDROOT
BRANCH   1   2
ATOM      2  C   UNL     1      -0.167 -30.990  -4.192  1.00  0.00     0.000 C 
BRANCH   2   3
ATOM      3  C   UNL     1       0.784 -31.337  -3.035  1.00  0.00     0.000 C 
BRANCH   3   4
ATOM      4  C   UNL     1       0.201 -30.973  -1.659  1.00  0.00     0.006 C 
BRANCH   4   5
ATOM      5  C   UNL     1       1.262 -31.009  -0.552  1.00  0.00     0.053 C 
BRANCH   5   6
ATOM      6  C   UNL     1       1.718 -29.632  -0.177  1.00  0.00     0.041 C 
ATOM      7  O   UNL     1       1.979 -29.354   1.023  1.00  0.00    -0.550 OA
ATOM      8  O   UNL     1       1.821 -28.645  -1.150  1.00  0.00    -0.550 OA
ENDBRANCH   5   6
ENDBRANCH   4   5
ENDBRANCH   3   4
ENDBRANCH   2   3
ENDBRANCH   1   2
BRANCH   1   9
ATOM      9  C   UNL     1      -2.501 -31.834  -4.676  1.00  0.00     0.000 C 
BRANCH   9  10
ATOM     10  C   UNL     1      -3.602 -31.004  -5.354  1.00  0.00    -0.000 C 
BRANCH  10  11
ATOM     11  C   UNL     1      -4.811 -31.854  -5.773  1.00  0.00    -0.000 C 
BRANCH  11  12
ATOM     12  C   UNL     1      -4.848 -32.123  -7.288  1.00  0.00    -0.000 C 
BRANCH  12  13
ATOM     13  C   UNL     1      -4.196 -30.996  -8.102  1.00  0.00    -0.003 C 
ATOM     14  C   UNL     1      -4.930 -29.663  -7.959  1.00  0.00     0.004 C 
ENDBRANCH  12  13
ENDBRANCH  11  12
ENDBRANCH  10  11
ENDBRANCH   9  10
ENDBRANCH   1   9
TORSDOF 10
ENDMDL
