MODEL 1
REMARK VINA RESULT:    -5.731      0.000      0.000
REMARK INTER + INTRA:          -7.308
REMARK INTER:                  -7.072
REMARK INTRA:                  -0.236
REMARK UNBOUND:                -0.236
REMARK SMILES C=CC(=C)CCC=C(C)C
REMARK SMILES IDX 5 1 6 2 7 3 9 4 8 5 10 6 3 7 4 8 2 9 1 10
REMARK H PARENT
REMARK Flexibility Score: inf
ROOT
ATOM      1  C   UNL     1      18.579  30.420  25.993  1.00  0.00     0.039 C 
ENDROOT
BRANCH   1   2
ATOM      2  C   UNL     1      17.636  29.870  24.917  1.00  0.00     0.032 C 
BRANCH   2   3
ATOM      3  C   UNL     1      17.189  30.968  23.986  1.00  0.00    -0.028 C 
ATOM      4  C   UNL     1      15.178  29.701  23.194  1.00  0.00     0.039 C 
ATOM      5  C   UNL     1      16.073  30.917  23.224  1.00  0.00    -0.080 C 
ATOM      6  C   UNL     1      15.732  32.112  22.370  1.00  0.00     0.039 C 
ENDBRANCH   2   3
ENDBRANCH   1   2
BRANCH   1   7
ATOM      7  C   UNL     1      19.121  29.301  26.856  1.00  0.00    -0.055 C 
ATOM      8  C   UNL     1      19.698  29.603  28.023  1.00  0.00     0.012 C 
BRANCH   7   9
ATOM      9  C   UNL     1      18.993  27.871  26.472  1.00  0.00    -0.005 C 
ATOM     10  C   UNL     1      19.945  27.180  25.844  1.00  0.00     0.009 C 
ENDBRANCH   7   9
ENDBRANCH   1   7
TORSDOF 4
ENDMDL
MODEL 2
REMARK VINA RESULT:    -5.625      1.249      1.673
REMARK INTER + INTRA:          -7.176
REMARK INTER:                  -6.947
REMARK INTRA:                  -0.230
REMARK UNBOUND:                -0.236
REMARK SMILES C=CC(=C)CCC=C(C)C
REMARK SMILES IDX 5 1 6 2 7 3 9 4 8 5 10 6 3 7 4 8 2 9 1 10
REMARK H PARENT
REMARK Flexibility Score: inf
ROOT
ATOM      1  C   UNL     1      17.602  30.406  24.554  1.00  0.00     0.039 C 
ENDROOT
BRANCH   1   2
ATOM      2  C   UNL     1      16.304  29.666  24.214  1.00  0.00     0.032 C 
BRANCH   2   3
ATOM      3  C   UNL     1      15.367  30.557  23.439  1.00  0.00    -0.028 C 
ATOM      4  C   UNL     1      14.544  28.695  21.978  1.00  0.00     0.039 C 
ATOM      5  C   UNL     1      14.551  30.131  22.448  1.00  0.00    -0.080 C 
ATOM      6  C   UNL     1      13.638  31.133  21.790  1.00  0.00     0.039 C 
ENDBRANCH   2   3
ENDBRANCH   1   2
BRANCH   1   7
ATOM      7  C   UNL     1      18.335  29.715  25.682  1.00  0.00    -0.055 C 
ATOM      8  C   UNL     1      18.894  30.457  26.643  1.00  0.00     0.012 C 
BRANCH   7   9
ATOM      9  C   UNL     1      18.417  28.234  25.786  1.00  0.00    -0.005 C 
ATOM     10  C   UNL     1      19.535  27.568  26.078  1.00  0.00     0.009 C 
ENDBRANCH   7   9
ENDBRANCH   1   7
TORSDOF 4
ENDMDL
MODEL 3
REMARK VINA RESULT:    -5.565      0.851      5.256
REMARK INTER + INTRA:          -7.103
REMARK INTER:                  -6.772
REMARK INTRA:                  -0.331
REMARK UNBOUND:                -0.236
REMARK SMILES C=CC(=C)CCC=C(C)C
REMARK SMILES IDX 5 1 6 2 7 3 9 4 8 5 10 6 3 7 4 8 2 9 1 10
REMARK H PARENT
REMARK Flexibility Score: inf
ROOT
ATOM      1  C   UNL     1      17.117  31.306  24.200  1.00  0.00     0.039 C 
ENDROOT
BRANCH   1   2
ATOM      2  C   UNL     1      18.255  30.319  24.487  1.00  0.00     0.032 C 
BRANCH   2   3
ATOM      3  C   UNL     1      18.665  30.383  25.936  1.00  0.00    -0.028 C 
ATOM      4  C   UNL     1      19.098  27.920  26.092  1.00  0.00     0.039 C 
ATOM      5  C   UNL     1      19.071  29.318  26.664  1.00  0.00    -0.080 C 
ATOM      6  C   UNL     1      19.491  29.544  28.093  1.00  0.00     0.039 C 
ENDBRANCH   2   3
ENDBRANCH   1   2
BRANCH   1   7
ATOM      7  C   UNL     1      15.959  30.607  23.521  1.00  0.00    -0.055 C 
ATOM      8  C   UNL     1      15.601  29.389  23.939  1.00  0.00     0.012 C 
BRANCH   7   9
ATOM      9  C   UNL     1      15.175  31.246  22.432  1.00  0.00    -0.005 C 
ATOM     10  C   UNL     1      14.378  30.579  21.597  1.00  0.00     0.009 C 
ENDBRANCH   7   9
ENDBRANCH   1   7
TORSDOF 4
ENDMDL
MODEL 4
REMARK VINA RESULT:    -5.229      1.534      2.885
REMARK INTER + INTRA:          -6.688
REMARK INTER:                  -6.080
REMARK INTRA:                  -0.607
REMARK UNBOUND:                -0.236
REMARK SMILES C=CC(=C)CCC=C(C)C
REMARK SMILES IDX 5 1 6 2 7 3 9 4 8 5 10 6 3 7 4 8 2 9 1 10
REMARK H PARENT
REMARK Flexibility Score: inf
ROOT
ATOM      1  C   UNL     1      19.397  28.403  27.260  1.00  0.00     0.039 C 
ENDROOT
BRANCH   1   2
ATOM      2  C   UNL     1      19.266  28.505  25.736  1.00  0.00     0.032 C 
BRANCH   2   3
ATOM      3  C   UNL     1      17.818  28.609  25.330  1.00  0.00    -0.028 C 
ATOM      4  C   UNL     1      18.130  30.813  24.179  1.00  0.00     0.039 C 
ATOM      5  C   UNL     1      17.297  29.627  24.609  1.00  0.00    -0.080 C 
ATOM      6  C   UNL     1      15.837  29.574  24.242  1.00  0.00     0.039 C 
ENDBRANCH   2   3
ENDBRANCH   1   2
BRANCH   1   7
ATOM      7  C   UNL     1      18.979  29.698  27.923  1.00  0.00    -0.055 C 
ATOM      8  C   UNL     1      19.465  30.852  27.455  1.00  0.00     0.012 C 
BRANCH   7   9
ATOM      9  C   UNL     1      18.010  29.736  29.048  1.00  0.00    -0.005 C 
ATOM     10  C   UNL     1      16.829  29.117  29.036  1.00  0.00     0.009 C 
ENDBRANCH   7   9
ENDBRANCH   1   7
TORSDOF 4
ENDMDL
MODEL 5
REMARK VINA RESULT:    -5.187      1.027      2.208
REMARK INTER + INTRA:          -6.637
REMARK INTER:                  -6.475
REMARK INTRA:                  -0.162
REMARK UNBOUND:                -0.236
REMARK SMILES C=CC(=C)CCC=C(C)C
REMARK SMILES IDX 5 1 6 2 7 3 9 4 8 5 10 6 3 7 4 8 2 9 1 10
REMARK H PARENT
REMARK Flexibility Score: inf
ROOT
ATOM      1  C   UNL     1      17.570  28.453  25.087  1.00  0.00     0.039 C 
ENDROOT
BRANCH   1   2
ATOM      2  C   UNL     1      17.056  29.845  24.700  1.00  0.00     0.032 C 
BRANCH   2   3
ATOM      3  C   UNL     1      15.785  29.741  23.895  1.00  0.00    -0.028 C 
ATOM      4  C   UNL     1      16.160  31.919  22.716  1.00  0.00     0.039 C 
ATOM      5  C   UNL     1      15.381  30.652  22.982  1.00  0.00    -0.080 C 
ATOM      6  C   UNL     1      14.105  30.392  22.224  1.00  0.00     0.039 C 
ENDBRANCH   2   3
ENDBRANCH   1   2
BRANCH   1   7
ATOM      7  C   UNL     1      18.616  28.551  26.175  1.00  0.00    -0.055 C 
ATOM      8  C   UNL     1      19.634  27.685  26.176  1.00  0.00     0.012 C 
BRANCH   7   9
ATOM      9  C   UNL     1      18.578  29.608  27.220  1.00  0.00    -0.005 C 
ATOM     10  C   UNL     1      19.320  30.715  27.188  1.00  0.00     0.009 C 
ENDBRANCH   7   9
ENDBRANCH   1   7
TORSDOF 4
ENDMDL
MODEL 6
REMARK VINA RESULT:    -5.060      6.685      9.024
REMARK INTER + INTRA:          -6.479
REMARK INTER:                  -6.086
REMARK INTRA:                  -0.394
REMARK UNBOUND:                -0.236
REMARK SMILES C=CC(=C)CCC=C(C)C
REMARK SMILES IDX 5 1 6 2 7 3 9 4 8 5 10 6 3 7 4 8 2 9 1 10
REMARK H PARENT
REMARK Flexibility Score: inf
ROOT
ATOM      1  C   UNL     1       9.513  34.378  23.131  1.00  0.00     0.039 C 
ENDROOT
BRANCH   1   2
ATOM      2  C   UNL     1      10.113  33.309  22.211  1.00  0.00     0.032 C 
BRANCH   2   3
ATOM      3  C   UNL     1      11.599  33.186  22.433  1.00  0.00    -0.028 C 
ATOM      4  C   UNL     1      12.161  33.655  20.037  1.00  0.00     0.039 C 
ATOM      5  C   UNL     1      12.533  33.363  21.471  1.00  0.00    -0.080 C 
ATOM      6  C   UNL     1      13.987  33.248  21.853  1.00  0.00     0.039 C 
ENDBRANCH   2   3
ENDBRANCH   1   2
BRANCH   1   7
ATOM      7  C   UNL     1       9.028  33.762  24.425  1.00  0.00    -0.055 C 
ATOM      8  C   UNL     1       7.789  33.264  24.482  1.00  0.00     0.012 C 
BRANCH   7   9
ATOM      9  C   UNL     1       9.898  33.648  25.625  1.00  0.00    -0.005 C 
ATOM     10  C   UNL     1      10.325  32.490  26.128  1.00  0.00     0.009 C 
ENDBRANCH   7   9
ENDBRANCH   1   7
TORSDOF 4
ENDMDL
MODEL 7
REMARK VINA RESULT:    -5.053      7.992      9.792
REMARK INTER + INTRA:          -6.471
REMARK INTER:                  -5.742
REMARK INTRA:                  -0.729
REMARK UNBOUND:                -0.236
REMARK SMILES C=CC(=C)CCC=C(C)C
REMARK SMILES IDX 5 1 6 2 7 3 9 4 8 5 10 6 3 7 4 8 2 9 1 10
REMARK H PARENT
REMARK Flexibility Score: inf
ROOT
ATOM      1  C   UNL     1       9.257  34.398  23.332  1.00  0.00     0.039 C 
ENDROOT
BRANCH   1   2
ATOM      2  C   UNL     1       8.128  33.508  22.799  1.00  0.00     0.032 C 
BRANCH   2   3
ATOM      3  C   UNL     1       7.602  32.603  23.885  1.00  0.00    -0.028 C 
ATOM      4  C   UNL     1       7.915  30.521  22.527  1.00  0.00     0.039 C 
ATOM      5  C   UNL     1       7.524  31.257  23.788  1.00  0.00    -0.080 C 
ATOM      6  C   UNL     1       7.015  30.480  24.974  1.00  0.00     0.039 C 
ENDBRANCH   2   3
ENDBRANCH   1   2
BRANCH   1   7
ATOM      7  C   UNL     1      10.372  33.558  23.914  1.00  0.00    -0.055 C 
ATOM      8  C   UNL     1      11.144  32.843  23.089  1.00  0.00     0.012 C 
BRANCH   7   9
ATOM      9  C   UNL     1      10.671  33.534  25.370  1.00  0.00    -0.005 C 
ATOM     10  C   UNL     1      10.398  32.503  26.170  1.00  0.00     0.009 C 
ENDBRANCH   7   9
ENDBRANCH   1   7
TORSDOF 4
ENDMDL
MODEL 8
REMARK VINA RESULT:    -4.969      7.906      9.735
REMARK INTER + INTRA:          -6.367
REMARK INTER:                  -5.667
REMARK INTRA:                  -0.700
REMARK UNBOUND:                -0.236
REMARK SMILES C=CC(=C)CCC=C(C)C
REMARK SMILES IDX 5 1 6 2 7 3 9 4 8 5 10 6 3 7 4 8 2 9 1 10
REMARK H PARENT
REMARK Flexibility Score: inf
ROOT
ATOM      1  C   UNL     1       9.115  34.167  24.637  1.00  0.00     0.039 C 
ENDROOT
BRANCH   1   2
ATOM      2  C   UNL     1       7.798  33.389  24.736  1.00  0.00     0.032 C 
BRANCH   2   3
ATOM      3  C   UNL     1       7.650  32.438  23.576  1.00  0.00    -0.028 C 
ATOM      4  C   UNL     1       7.157  30.468  25.043  1.00  0.00     0.039 C 
ATOM      5  C   UNL     1       7.338  31.128  23.696  1.00  0.00    -0.080 C 
ATOM      6  C   UNL     1       7.183  30.308  22.441  1.00  0.00     0.039 C 
ENDBRANCH   2   3
ENDBRANCH   1   2
BRANCH   1   7
ATOM      7  C   UNL     1      10.299  33.239  24.797  1.00  0.00    -0.055 C 
ATOM      8  C   UNL     1      10.491  32.627  25.970  1.00  0.00     0.012 C 
BRANCH   7   9
ATOM      9  C   UNL     1      11.235  32.946  23.679  1.00  0.00    -0.005 C 
ATOM     10  C   UNL     1      11.050  33.360  22.425  1.00  0.00     0.009 C 
ENDBRANCH   7   9
ENDBRANCH   1   7
TORSDOF 4
ENDMDL
MODEL 9
REMARK VINA RESULT:    -4.887      7.198      9.296
REMARK INTER + INTRA:          -6.266
REMARK INTER:                  -5.484
REMARK INTRA:                  -0.782
REMARK UNBOUND:                -0.236
REMARK SMILES C=CC(=C)CCC=C(C)C
REMARK SMILES IDX 5 1 6 2 7 3 9 4 8 5 10 6 3 7 4 8 2 9 1 10
REMARK H PARENT
REMARK Flexibility Score: inf
ROOT
ATOM      1  C   UNL     1       9.469  34.468  24.623  1.00  0.00     0.039 C 
ENDROOT
BRANCH   1   2
ATOM      2  C   UNL     1       9.592  34.251  23.110  1.00  0.00     0.032 C 
BRANCH   2   3
ATOM      3  C   UNL     1      10.874  33.531  22.776  1.00  0.00    -0.028 C 
ATOM      4  C   UNL     1       9.699  31.465  21.984  1.00  0.00     0.039 C 
ATOM      5  C   UNL     1      10.938  32.289  22.246  1.00  0.00    -0.080 C 
ATOM      6  C   UNL     1      12.293  31.713  21.926  1.00  0.00     0.039 C 
ENDBRANCH   2   3
ENDBRANCH   1   2
BRANCH   1   7
ATOM      7  C   UNL     1       9.033  33.195  25.314  1.00  0.00    -0.055 C 
ATOM      8  C   UNL     1       9.827  32.660  26.248  1.00  0.00     0.012 C 
BRANCH   7   9
ATOM      9  C   UNL     1       7.730  32.541  25.025  1.00  0.00    -0.005 C 
ATOM     10  C   UNL     1       7.500  31.237  25.182  1.00  0.00     0.009 C 
ENDBRANCH   7   9
ENDBRANCH   1   7
TORSDOF 4
ENDMDL
