MODEL 1
REMARK VINA RESULT:    -4.966      0.000      0.000
REMARK INTER + INTRA:         -13.215
REMARK INTER:                 -10.772
REMARK INTRA:                  -2.443
REMARK UNBOUND:                -2.443
REMARK SMILES CCCCCCCCCCCCCCCCCCCCCC(=O)[O-]
REMARK SMILES IDX 12 1 11 2 10 3 9 4 8 5 7 6 6 7 5 8 4 9 3 10 2 11 1 12 13 13
REMARK SMILES IDX 14 14 15 15 16 16 17 17 18 18 19 19 20 20 21 21 22 22 23 23
REMARK SMILES IDX 24 24
REMARK H PARENT
REMARK Flexibility Score: inf
ROOT
ATOM      1  C   UNL     1      12.056 -12.210  15.156  1.00  0.00     0.000 C 
ENDROOT
BRANCH   1   2
ATOM      2  C   UNL     1      11.394 -13.478  15.723  1.00  0.00     0.000 C 
BRANCH   2   3
ATOM      3  C   UNL     1      12.364 -14.338  16.551  1.00  0.00     0.000 C 
BRANCH   3   4
ATOM      4  C   UNL     1      12.598 -15.764  16.013  1.00  0.00    -0.000 C 
BRANCH   4   5
ATOM      5  C   UNL     1      14.019 -16.305  16.275  1.00  0.00    -0.000 C 
BRANCH   5   6
ATOM      6  C   UNL     1      14.307 -17.590  15.483  1.00  0.00    -0.000 C 
BRANCH   6   7
ATOM      7  C   UNL     1      13.292 -17.779  14.350  1.00  0.00    -0.000 C 
BRANCH   7   8
ATOM      8  C   UNL     1      13.918 -17.438  12.989  1.00  0.00    -0.000 C 
BRANCH   8   9
ATOM      9  C   UNL     1      13.275 -16.204  12.336  1.00  0.00    -0.000 C 
BRANCH   9  10
ATOM     10  C   UNL     1      12.332 -16.573  11.181  1.00  0.00    -0.000 C 
BRANCH  10  11
ATOM     11  C   UNL     1      10.981 -15.866  11.330  1.00  0.00    -0.003 C 
ATOM     12  C   UNL     1      10.653 -15.604  12.796  1.00  0.00     0.004 C 
ENDBRANCH  10  11
ENDBRANCH   9  10
ENDBRANCH   8   9
ENDBRANCH   7   8
ENDBRANCH   6   7
ENDBRANCH   5   6
ENDBRANCH   4   5
ENDBRANCH   3   4
ENDBRANCH   2   3
ENDBRANCH   1   2
BRANCH   1  13
ATOM     13  C   UNL     1      11.144 -10.973  15.242  1.00  0.00     0.000 C 
BRANCH  13  14
ATOM     14  C   UNL     1      11.882  -9.622  15.231  1.00  0.00     0.000 C 
BRANCH  14  15
ATOM     15  C   UNL     1      13.410  -9.777  15.163  1.00  0.00     0.000 C 
BRANCH  15  16
ATOM     16  C   UNL     1      14.141  -8.428  15.068  1.00  0.00     0.000 C 
BRANCH  16  17
ATOM     17  C   UNL     1      15.516  -8.551  14.389  1.00  0.00     0.000 C 
BRANCH  17  18
ATOM     18  C   UNL     1      15.446  -9.296  13.046  1.00  0.00     0.000 C 
BRANCH  18  19
ATOM     19  C   UNL     1      16.439 -10.466  12.964  1.00  0.00     0.000 C 
BRANCH  19  20
ATOM     20  C   UNL     1      15.790 -11.689  12.298  1.00  0.00     0.006 C 
BRANCH  20  21
ATOM     21  C   UNL     1      15.452 -12.791  13.311  1.00  0.00     0.053 C 
BRANCH  21  22
ATOM     22  C   UNL     1      16.181 -14.064  13.014  1.00  0.00     0.041 C 
ATOM     23  O   UNL     1      16.320 -14.939  13.908  1.00  0.00    -0.550 OA
ATOM     24  O   UNL     1      16.673 -14.303  11.737  1.00  0.00    -0.550 OA
ENDBRANCH  21  22
ENDBRANCH  20  21
ENDBRANCH  19  20
ENDBRANCH  18  19
ENDBRANCH  17  18
ENDBRANCH  16  17
ENDBRANCH  15  16
ENDBRANCH  14  15
ENDBRANCH  13  14
ENDBRANCH   1  13
TORSDOF 20
ENDMDL
MODEL 2
REMARK VINA RESULT:    -4.959      2.184      6.661
REMARK INTER + INTRA:         -13.201
REMARK INTER:                 -10.499
REMARK INTRA:                  -2.702
REMARK UNBOUND:                -2.443
REMARK SMILES CCCCCCCCCCCCCCCCCCCCCC(=O)[O-]
REMARK SMILES IDX 12 1 11 2 10 3 9 4 8 5 7 6 6 7 5 8 4 9 3 10 2 11 1 12 13 13
REMARK SMILES IDX 14 14 15 15 16 16 17 17 18 18 19 19 20 20 21 21 22 22 23 23
REMARK SMILES IDX 24 24
REMARK H PARENT
REMARK Flexibility Score: inf
ROOT
ATOM      1  C   UNL     1      11.383 -15.111  15.834  1.00  0.00     0.000 C 
ENDROOT
BRANCH   1   2
ATOM      2  C   UNL     1      11.540 -13.863  14.948  1.00  0.00     0.000 C 
BRANCH   2   3
ATOM      3  C   UNL     1      11.413 -12.550  15.739  1.00  0.00     0.000 C 
BRANCH   3   4
ATOM      4  C   UNL     1      12.142 -11.340  15.120  1.00  0.00    -0.000 C 
BRANCH   4   5
ATOM      5  C   UNL     1      11.456  -9.987  15.402  1.00  0.00    -0.000 C 
BRANCH   5   6
ATOM      6  C   UNL     1      12.390  -8.796  15.140  1.00  0.00    -0.000 C 
BRANCH   6   7
ATOM      7  C   UNL     1      13.858  -9.190  15.342  1.00  0.00    -0.000 C 
BRANCH   7   8
ATOM      8  C   UNL     1      14.678  -8.917  14.073  1.00  0.00    -0.000 C 
BRANCH   8   9
ATOM      9  C   UNL     1      15.326 -10.189  13.503  1.00  0.00    -0.000 C 
BRANCH   9  10
ATOM     10  C   UNL     1      16.344 -10.816  14.467  1.00  0.00    -0.000 C 
BRANCH  10  11
ATOM     11  C   UNL     1      15.918 -12.232  14.869  1.00  0.00    -0.003 C 
ATOM     12  C   UNL     1      15.097 -12.896  13.768  1.00  0.00     0.004 C 
ENDBRANCH  10  11
ENDBRANCH   9  10
ENDBRANCH   8   9
ENDBRANCH   7   8
ENDBRANCH   6   7
ENDBRANCH   5   6
ENDBRANCH   4   5
ENDBRANCH   3   4
ENDBRANCH   2   3
ENDBRANCH   1   2
BRANCH   1  13
ATOM     13  C   UNL     1      12.666 -15.453  16.614  1.00  0.00     0.000 C 
BRANCH  13  14
ATOM     14  C   UNL     1      13.873 -15.840  15.740  1.00  0.00     0.000 C 
BRANCH  14  15
ATOM     15  C   UNL     1      14.053 -17.362  15.612  1.00  0.00     0.000 C 
BRANCH  15  16
ATOM     16  C   UNL     1      15.317 -17.748  14.829  1.00  0.00     0.000 C 
BRANCH  16  17
ATOM     17  C   UNL     1      15.805 -16.618  13.906  1.00  0.00     0.000 C 
BRANCH  17  18
ATOM     18  C   UNL     1      15.352 -16.810  12.449  1.00  0.00     0.000 C 
BRANCH  18  19
ATOM     19  C   UNL     1      14.174 -15.898  12.071  1.00  0.00     0.000 C 
BRANCH  19  20
ATOM     20  C   UNL     1      12.872 -16.706  11.955  1.00  0.00     0.006 C 
BRANCH  20  21
ATOM     21  C   UNL     1      12.721 -17.371  10.579  1.00  0.00     0.053 C 
BRANCH  21  22
ATOM     22  C   UNL     1      11.613 -16.757   9.782  1.00  0.00     0.041 C 
ATOM     23  O   UNL     1      11.229 -15.583  10.029  1.00  0.00    -0.550 OA
ATOM     24  O   UNL     1      11.030 -17.465   8.739  1.00  0.00    -0.550 OA
ENDBRANCH  21  22
ENDBRANCH  20  21
ENDBRANCH  19  20
ENDBRANCH  18  19
ENDBRANCH  17  18
ENDBRANCH  16  17
ENDBRANCH  15  16
ENDBRANCH  14  15
ENDBRANCH  13  14
ENDBRANCH   1  13
TORSDOF 20
ENDMDL
MODEL 3
REMARK VINA RESULT:    -4.935      5.540      9.453
REMARK INTER + INTRA:         -13.149
REMARK INTER:                 -10.757
REMARK INTRA:                  -2.392
REMARK UNBOUND:                -2.443
REMARK SMILES CCCCCCCCCCCCCCCCCCCCCC(=O)[O-]
REMARK SMILES IDX 12 1 11 2 10 3 9 4 8 5 7 6 6 7 5 8 4 9 3 10 2 11 1 12 13 13
REMARK SMILES IDX 14 14 15 15 16 16 17 17 18 18 19 19 20 20 21 21 22 22 23 23
REMARK SMILES IDX 24 24
REMARK H PARENT
REMARK Flexibility Score: inf
ROOT
ATOM      1  C   UNL     1      10.619 -15.742   6.736  1.00  0.00     0.000 C 
ENDROOT
BRANCH   1   2
ATOM      2  C   UNL     1       9.649 -15.259   5.645  1.00  0.00     0.000 C 
BRANCH   2   3
ATOM      3  C   UNL     1       9.673 -16.148   4.389  1.00  0.00     0.000 C 
BRANCH   3   4
ATOM      4  C   UNL     1       8.291 -16.467   3.786  1.00  0.00    -0.000 C 
BRANCH   4   5
ATOM      5  C   UNL     1       8.339 -17.459   2.605  1.00  0.00    -0.000 C 
BRANCH   5   6
ATOM      6  C   UNL     1       7.462 -18.697   2.850  1.00  0.00    -0.000 C 
BRANCH   6   7
ATOM      7  C   UNL     1       6.432 -18.435   3.955  1.00  0.00    -0.000 C 
BRANCH   7   8
ATOM      8  C   UNL     1       6.614 -19.421   5.118  1.00  0.00    -0.000 C 
BRANCH   8   9
ATOM      9  C   UNL     1       7.608 -18.912   6.174  1.00  0.00    -0.000 C 
BRANCH   9  10
ATOM     10  C   UNL     1       8.758 -19.899   6.425  1.00  0.00    -0.000 C 
BRANCH  10  11
ATOM     11  C   UNL     1       9.948 -19.598   5.508  1.00  0.00    -0.003 C 
ATOM     12  C   UNL     1      11.214 -20.294   5.999  1.00  0.00     0.004 C 
ENDBRANCH  10  11
ENDBRANCH   9  10
ENDBRANCH   8   9
ENDBRANCH   7   8
ENDBRANCH   6   7
ENDBRANCH   5   6
ENDBRANCH   4   5
ENDBRANCH   3   4
ENDBRANCH   2   3
ENDBRANCH   1   2
BRANCH   1  13
ATOM     13  C   UNL     1       9.915 -16.541   7.848  1.00  0.00     0.000 C 
BRANCH  13  14
ATOM     14  C   UNL     1      10.814 -17.546   8.592  1.00  0.00     0.000 C 
BRANCH  14  15
ATOM     15  C   UNL     1      11.909 -16.863   9.428  1.00  0.00     0.000 C 
BRANCH  15  16
ATOM     16  C   UNL     1      11.343 -15.864  10.449  1.00  0.00     0.000 C 
BRANCH  16  17
ATOM     17  C   UNL     1      11.611 -16.294  11.902  1.00  0.00     0.000 C 
BRANCH  17  18
ATOM     18  C   UNL     1      10.750 -15.519  12.913  1.00  0.00     0.000 C 
BRANCH  18  19
ATOM     19  C   UNL     1      10.940 -16.014  14.355  1.00  0.00     0.000 C 
BRANCH  19  20
ATOM     20  C   UNL     1      11.503 -14.896  15.247  1.00  0.00     0.006 C 
BRANCH  20  21
ATOM     21  C   UNL     1      12.528 -15.422  16.262  1.00  0.00     0.053 C 
BRANCH  21  22
ATOM     22  C   UNL     1      13.642 -16.166  15.594  1.00  0.00     0.041 C 
ATOM     23  O   UNL     1      13.870 -17.368  15.893  1.00  0.00    -0.550 OA
ATOM     24  O   UNL     1      14.403 -15.546  14.612  1.00  0.00    -0.550 OA
ENDBRANCH  21  22
ENDBRANCH  20  21
ENDBRANCH  19  20
ENDBRANCH  18  19
ENDBRANCH  17  18
ENDBRANCH  16  17
ENDBRANCH  15  16
ENDBRANCH  14  15
ENDBRANCH  13  14
ENDBRANCH   1  13
TORSDOF 20
ENDMDL
MODEL 4
REMARK VINA RESULT:    -4.921      4.919      8.744
REMARK INTER + INTRA:         -13.118
REMARK INTER:                 -10.927
REMARK INTRA:                  -2.191
REMARK UNBOUND:                -2.443
REMARK SMILES CCCCCCCCCCCCCCCCCCCCCC(=O)[O-]
REMARK SMILES IDX 12 1 11 2 10 3 9 4 8 5 7 6 6 7 5 8 4 9 3 10 2 11 1 12 13 13
REMARK SMILES IDX 14 14 15 15 16 16 17 17 18 18 19 19 20 20 21 21 22 22 23 23
REMARK SMILES IDX 24 24
REMARK H PARENT
REMARK Flexibility Score: inf
ROOT
ATOM      1  C   UNL     1      11.394 -19.615   7.968  1.00  0.00     0.000 C 
ENDROOT
BRANCH   1   2
ATOM      2  C   UNL     1       9.984 -19.220   8.440  1.00  0.00     0.000 C 
BRANCH   2   3
ATOM      3  C   UNL     1       8.998 -19.024   7.276  1.00  0.00     0.000 C 
BRANCH   3   4
ATOM      4  C   UNL     1       8.585 -17.563   7.007  1.00  0.00    -0.000 C 
BRANCH   4   5
ATOM      5  C   UNL     1       9.515 -16.521   7.662  1.00  0.00    -0.000 C 
BRANCH   5   6
ATOM      6  C   UNL     1      10.561 -15.973   6.678  1.00  0.00    -0.000 C 
BRANCH   6   7
ATOM      7  C   UNL     1       9.889 -15.269   5.494  1.00  0.00    -0.000 C 
BRANCH   7   8
ATOM      8  C   UNL     1      10.595 -15.620   4.175  1.00  0.00    -0.000 C 
BRANCH   8   9
ATOM      9  C   UNL     1       9.679 -16.372   3.196  1.00  0.00    -0.000 C 
BRANCH   9  10
ATOM     10  C   UNL     1       8.309 -16.702   3.807  1.00  0.00    -0.000 C 
BRANCH  10  11
ATOM     11  C   UNL     1       7.803 -18.062   3.313  1.00  0.00    -0.003 C 
ATOM     12  C   UNL     1       6.306 -18.217   3.560  1.00  0.00     0.004 C 
ENDBRANCH  10  11
ENDBRANCH   9  10
ENDBRANCH   8   9
ENDBRANCH   7   8
ENDBRANCH   6   7
ENDBRANCH   5   6
ENDBRANCH   4   5
ENDBRANCH   3   4
ENDBRANCH   2   3
ENDBRANCH   1   2
BRANCH   1  13
ATOM     13  C   UNL     1      12.501 -19.115   8.914  1.00  0.00     0.000 C 
BRANCH  13  14
ATOM     14  C   UNL     1      12.174 -17.810   9.663  1.00  0.00     0.000 C 
BRANCH  14  15
ATOM     15  C   UNL     1      13.295 -17.375  10.621  1.00  0.00     0.000 C 
BRANCH  15  16
ATOM     16  C   UNL     1      12.857 -16.258  11.581  1.00  0.00     0.000 C 
BRANCH  16  17
ATOM     17  C   UNL     1      11.351 -15.955  11.483  1.00  0.00     0.000 C 
BRANCH  17  18
ATOM     18  C   UNL     1      10.669 -15.907  12.860  1.00  0.00     0.000 C 
BRANCH  18  19
ATOM     19  C   UNL     1      11.444 -15.053  13.876  1.00  0.00     0.000 C 
BRANCH  19  20
ATOM     20  C   UNL     1      11.750 -15.859  15.148  1.00  0.00     0.006 C 
BRANCH  20  21
ATOM     21  C   UNL     1      13.254 -15.935  15.441  1.00  0.00     0.053 C 
BRANCH  21  22
ATOM     22  C   UNL     1      13.782 -17.328  15.291  1.00  0.00     0.041 C 
ATOM     23  O   UNL     1      14.815 -17.685  15.916  1.00  0.00    -0.550 OA
ATOM     24  O   UNL     1      13.111 -18.244  14.492  1.00  0.00    -0.550 OA
ENDBRANCH  21  22
ENDBRANCH  20  21
ENDBRANCH  19  20
ENDBRANCH  18  19
ENDBRANCH  17  18
ENDBRANCH  16  17
ENDBRANCH  15  16
ENDBRANCH  14  15
ENDBRANCH  13  14
ENDBRANCH   1  13
TORSDOF 20
ENDMDL
MODEL 5
REMARK VINA RESULT:    -4.921      3.597      6.400
REMARK INTER + INTRA:         -13.117
REMARK INTER:                 -10.654
REMARK INTRA:                  -2.463
REMARK UNBOUND:                -2.443
REMARK SMILES CCCCCCCCCCCCCCCCCCCCCC(=O)[O-]
REMARK SMILES IDX 12 1 11 2 10 3 9 4 8 5 7 6 6 7 5 8 4 9 3 10 2 11 1 12 13 13
REMARK SMILES IDX 14 14 15 15 16 16 17 17 18 18 19 19 20 20 21 21 22 22 23 23
REMARK SMILES IDX 24 24
REMARK H PARENT
REMARK Flexibility Score: inf
ROOT
ATOM      1  C   UNL     1      11.431 -16.119  14.852  1.00  0.00     0.000 C 
ENDROOT
BRANCH   1   2
ATOM      2  C   UNL     1      11.169 -15.346  13.548  1.00  0.00     0.000 C 
BRANCH   2   3
ATOM      3  C   UNL     1      10.754 -16.262  12.384  1.00  0.00     0.000 C 
BRANCH   3   4
ATOM      4  C   UNL     1      10.783 -15.603  10.991  1.00  0.00    -0.000 C 
BRANCH   4   5
ATOM      5  C   UNL     1      11.275 -16.538   9.867  1.00  0.00    -0.000 C 
BRANCH   5   6
ATOM      6  C   UNL     1      10.829 -16.062   8.476  1.00  0.00    -0.000 C 
BRANCH   6   7
ATOM      7  C   UNL     1      10.223 -17.214   7.666  1.00  0.00    -0.000 C 
BRANCH   7   8
ATOM      8  C   UNL     1       8.786 -16.883   7.234  1.00  0.00    -0.000 C 
BRANCH   8   9
ATOM      9  C   UNL     1       8.737 -15.952   6.011  1.00  0.00    -0.000 C 
BRANCH   9  10
ATOM     10  C   UNL     1       9.932 -16.154   5.068  1.00  0.00    -0.000 C 
BRANCH  10  11
ATOM     11  C   UNL     1       9.459 -16.420   3.634  1.00  0.00    -0.003 C 
ATOM     12  C   UNL     1       7.952 -16.643   3.582  1.00  0.00     0.004 C 
ENDBRANCH  10  11
ENDBRANCH   9  10
ENDBRANCH   8   9
ENDBRANCH   7   8
ENDBRANCH   6   7
ENDBRANCH   5   6
ENDBRANCH   4   5
ENDBRANCH   3   4
ENDBRANCH   2   3
ENDBRANCH   1   2
BRANCH   1  13
ATOM     13  C   UNL     1      12.496 -15.449  15.739  1.00  0.00     0.000 C 
BRANCH  13  14
ATOM     14  C   UNL     1      13.668 -16.360  16.146  1.00  0.00     0.000 C 
BRANCH  14  15
ATOM     15  C   UNL     1      13.795 -17.605  15.252  1.00  0.00     0.000 C 
BRANCH  15  16
ATOM     16  C   UNL     1      14.904 -17.469  14.197  1.00  0.00     0.000 C 
BRANCH  16  17
ATOM     17  C   UNL     1      14.344 -17.317  12.772  1.00  0.00     0.000 C 
BRANCH  17  18
ATOM     18  C   UNL     1      14.491 -15.885  12.231  1.00  0.00     0.000 C 
BRANCH  18  19
ATOM     19  C   UNL     1      15.716 -15.157  12.806  1.00  0.00     0.000 C 
BRANCH  19  20
ATOM     20  C   UNL     1      15.425 -13.660  12.993  1.00  0.00     0.006 C 
BRANCH  20  21
ATOM     21  C   UNL     1      14.987 -13.328  14.426  1.00  0.00     0.053 C 
BRANCH  21  22
ATOM     22  C   UNL     1      14.179 -12.069  14.485  1.00  0.00     0.041 C 
ATOM     23  O   UNL     1      13.070 -12.055  15.081  1.00  0.00    -0.550 OA
ATOM     24  O   UNL     1      14.668 -10.901  13.915  1.00  0.00    -0.550 OA
ENDBRANCH  21  22
ENDBRANCH  20  21
ENDBRANCH  19  20
ENDBRANCH  18  19
ENDBRANCH  17  18
ENDBRANCH  16  17
ENDBRANCH  15  16
ENDBRANCH  14  15
ENDBRANCH  13  14
ENDBRANCH   1  13
TORSDOF 20
ENDMDL
MODEL 6
REMARK VINA RESULT:    -4.905      2.653      5.437
REMARK INTER + INTRA:         -13.083
REMARK INTER:                 -10.062
REMARK INTRA:                  -3.021
REMARK UNBOUND:                -2.443
REMARK SMILES CCCCCCCCCCCCCCCCCCCCCC(=O)[O-]
REMARK SMILES IDX 12 1 11 2 10 3 9 4 8 5 7 6 6 7 5 8 4 9 3 10 2 11 1 12 13 13
REMARK SMILES IDX 14 14 15 15 16 16 17 17 18 18 19 19 20 20 21 21 22 22 23 23
REMARK SMILES IDX 24 24
REMARK H PARENT
REMARK Flexibility Score: inf
ROOT
ATOM      1  C   UNL     1      13.307 -17.264  15.507  1.00  0.00     0.000 C 
ENDROOT
BRANCH   1   2
ATOM      2  C   UNL     1      12.979 -15.876  16.085  1.00  0.00     0.000 C 
BRANCH   2   3
ATOM      3  C   UNL     1      11.634 -15.324  15.583  1.00  0.00     0.000 C 
BRANCH   3   4
ATOM      4  C   UNL     1      11.085 -15.995  14.309  1.00  0.00    -0.000 C 
BRANCH   4   5
ATOM      5  C   UNL     1      11.283 -15.157  13.028  1.00  0.00    -0.000 C 
BRANCH   5   6
ATOM      6  C   UNL     1      10.353 -15.606  11.890  1.00  0.00    -0.000 C 
BRANCH   6   7
ATOM      7  C   UNL     1      11.104 -15.667  10.554  1.00  0.00    -0.000 C 
BRANCH   7   8
ATOM      8  C   UNL     1      11.884 -16.984  10.423  1.00  0.00    -0.000 C 
BRANCH   8   9
ATOM      9  C   UNL     1      12.221 -17.327   8.963  1.00  0.00    -0.000 C 
BRANCH   9  10
ATOM     10  C   UNL     1      11.539 -16.384   7.963  1.00  0.00    -0.000 C 
BRANCH  10  11
ATOM     11  C   UNL     1      10.586 -17.156   7.044  1.00  0.00    -0.003 C 
ATOM     12  C   UNL     1       9.138 -16.731   7.266  1.00  0.00     0.004 C 
ENDBRANCH  10  11
ENDBRANCH   9  10
ENDBRANCH   8   9
ENDBRANCH   7   8
ENDBRANCH   6   7
ENDBRANCH   5   6
ENDBRANCH   4   5
ENDBRANCH   3   4
ENDBRANCH   2   3
ENDBRANCH   1   2
BRANCH   1  13
ATOM     13  C   UNL     1      14.805 -17.609  15.597  1.00  0.00     0.000 C 
BRANCH  13  14
ATOM     14  C   UNL     1      15.530 -17.708  14.243  1.00  0.00     0.000 C 
BRANCH  14  15
ATOM     15  C   UNL     1      14.595 -17.466  13.046  1.00  0.00     0.000 C 
BRANCH  15  16
ATOM     16  C   UNL     1      15.221 -16.557  11.977  1.00  0.00     0.000 C 
BRANCH  16  17
ATOM     17  C   UNL     1      15.785 -15.254  12.569  1.00  0.00     0.000 C 
BRANCH  17  18
ATOM     18  C   UNL     1      14.684 -14.336  13.127  1.00  0.00     0.000 C 
BRANCH  18  19
ATOM     19  C   UNL     1      15.143 -13.544  14.361  1.00  0.00     0.000 C 
BRANCH  19  20
ATOM     20  C   UNL     1      14.054 -12.558  14.813  1.00  0.00     0.006 C 
BRANCH  20  21
ATOM     21  C   UNL     1      14.558 -11.108  14.841  1.00  0.00     0.053 C 
BRANCH  21  22
ATOM     22  C   UNL     1      13.433 -10.129  14.966  1.00  0.00     0.041 C 
ATOM     23  O   UNL     1      13.634  -8.903  14.766  1.00  0.00    -0.550 OA
ATOM     24  O   UNL     1      12.152 -10.575  15.264  1.00  0.00    -0.550 OA
ENDBRANCH  21  22
ENDBRANCH  20  21
ENDBRANCH  19  20
ENDBRANCH  18  19
ENDBRANCH  17  18
ENDBRANCH  16  17
ENDBRANCH  15  16
ENDBRANCH  14  15
ENDBRANCH  13  14
ENDBRANCH   1  13
TORSDOF 20
ENDMDL
MODEL 7
REMARK VINA RESULT:    -4.828      4.698      8.272
REMARK INTER + INTRA:         -12.917
REMARK INTER:                 -10.475
REMARK INTRA:                  -2.441
REMARK UNBOUND:                -2.443
REMARK SMILES CCCCCCCCCCCCCCCCCCCCCC(=O)[O-]
REMARK SMILES IDX 12 1 11 2 10 3 9 4 8 5 7 6 6 7 5 8 4 9 3 10 2 11 1 12 13 13
REMARK SMILES IDX 14 14 15 15 16 16 17 17 18 18 19 19 20 20 21 21 22 22 23 23
REMARK SMILES IDX 24 24
REMARK H PARENT
REMARK Flexibility Score: inf
ROOT
ATOM      1  C   UNL     1      12.277 -16.310   8.805  1.00  0.00     0.000 C 
ENDROOT
BRANCH   1   2
ATOM      2  C   UNL     1      12.097 -17.765   8.341  1.00  0.00     0.000 C 
BRANCH   2   3
ATOM      3  C   UNL     1      10.825 -18.420   8.909  1.00  0.00     0.000 C 
BRANCH   3   4
ATOM      4  C   UNL     1      10.036 -19.291   7.912  1.00  0.00    -0.000 C 
BRANCH   4   5
ATOM      5  C   UNL     1       9.423 -18.497   6.739  1.00  0.00    -0.000 C 
BRANCH   5   6
ATOM      6  C   UNL     1       8.744 -17.200   7.207  1.00  0.00    -0.000 C 
BRANCH   6   7
ATOM      7  C   UNL     1       9.252 -15.993   6.411  1.00  0.00    -0.000 C 
BRANCH   7   8
ATOM      8  C   UNL     1      10.210 -16.436   5.295  1.00  0.00    -0.000 C 
BRANCH   8   9
ATOM      9  C   UNL     1       9.608 -16.253   3.892  1.00  0.00    -0.000 C 
BRANCH   9  10
ATOM     10  C   UNL     1       8.089 -16.476   3.869  1.00  0.00    -0.000 C 
BRANCH  10  11
ATOM     11  C   UNL     1       7.738 -17.783   3.149  1.00  0.00    -0.003 C 
ATOM     12  C   UNL     1       6.505 -18.437   3.763  1.00  0.00     0.004 C 
ENDBRANCH  10  11
ENDBRANCH   9  10
ENDBRANCH   8   9
ENDBRANCH   7   8
ENDBRANCH   6   7
ENDBRANCH   5   6
ENDBRANCH   4   5
ENDBRANCH   3   4
ENDBRANCH   2   3
ENDBRANCH   1   2
BRANCH   1  13
ATOM     13  C   UNL     1      11.326 -15.928   9.954  1.00  0.00     0.000 C 
BRANCH  13  14
ATOM     14  C   UNL     1      11.912 -16.105  11.367  1.00  0.00     0.000 C 
BRANCH  14  15
ATOM     15  C   UNL     1      13.423 -16.388  11.355  1.00  0.00     0.000 C 
BRANCH  15  16
ATOM     16  C   UNL     1      13.829 -17.495  12.341  1.00  0.00     0.000 C 
BRANCH  16  17
ATOM     17  C   UNL     1      15.322 -17.438  12.707  1.00  0.00     0.000 C 
BRANCH  17  18
ATOM     18  C   UNL     1      15.553 -17.272  14.218  1.00  0.00     0.000 C 
BRANCH  18  19
ATOM     19  C   UNL     1      14.310 -17.624  15.049  1.00  0.00     0.000 C 
BRANCH  19  20
ATOM     20  C   UNL     1      13.972 -16.495  16.036  1.00  0.00     0.006 C 
BRANCH  20  21
ATOM     21  C   UNL     1      13.280 -15.311  15.348  1.00  0.00     0.053 C 
BRANCH  21  22
ATOM     22  C   UNL     1      11.813 -15.274  15.644  1.00  0.00     0.041 C 
ATOM     23  O   UNL     1      10.981 -15.643  14.774  1.00  0.00    -0.550 OA
ATOM     24  O   UNL     1      11.365 -14.870  16.895  1.00  0.00    -0.550 OA
ENDBRANCH  21  22
ENDBRANCH  20  21
ENDBRANCH  19  20
ENDBRANCH  18  19
ENDBRANCH  17  18
ENDBRANCH  16  17
ENDBRANCH  15  16
ENDBRANCH  14  15
ENDBRANCH  13  14
ENDBRANCH   1  13
TORSDOF 20
ENDMDL
MODEL 8
REMARK VINA RESULT:    -4.794      5.471      9.281
REMARK INTER + INTRA:         -12.843
REMARK INTER:                  -9.891
REMARK INTRA:                  -2.952
REMARK UNBOUND:                -2.443
REMARK SMILES CCCCCCCCCCCCCCCCCCCCCC(=O)[O-]
REMARK SMILES IDX 12 1 11 2 10 3 9 4 8 5 7 6 6 7 5 8 4 9 3 10 2 11 1 12 13 13
REMARK SMILES IDX 14 14 15 15 16 16 17 17 18 18 19 19 20 20 21 21 22 22 23 23
REMARK SMILES IDX 24 24
REMARK H PARENT
REMARK Flexibility Score: inf
ROOT
ATOM      1  C   UNL     1      10.075 -16.760   7.705  1.00  0.00     0.000 C 
ENDROOT
BRANCH   1   2
ATOM      2  C   UNL     1       8.680 -16.768   7.057  1.00  0.00     0.000 C 
BRANCH   2   3
ATOM      3  C   UNL     1       8.603 -15.892   5.795  1.00  0.00     0.000 C 
BRANCH   3   4
ATOM      4  C   UNL     1       9.900 -15.137   5.442  1.00  0.00    -0.000 C 
BRANCH   4   5
ATOM      5  C   UNL     1      10.619 -15.682   4.191  1.00  0.00    -0.000 C 
BRANCH   5   6
ATOM      6  C   UNL     1      10.003 -16.999   3.693  1.00  0.00    -0.000 C 
BRANCH   6   7
ATOM      7  C   UNL     1      11.002 -18.156   3.812  1.00  0.00    -0.000 C 
BRANCH   7   8
ATOM      8  C   UNL     1      10.279 -19.511   3.762  1.00  0.00    -0.000 C 
BRANCH   8   9
ATOM      9  C   UNL     1       9.265 -19.682   4.904  1.00  0.00    -0.000 C 
BRANCH   9  10
ATOM     10  C   UNL     1       7.880 -20.117   4.403  1.00  0.00    -0.000 C 
BRANCH  10  11
ATOM     11  C   UNL     1       6.811 -19.087   4.784  1.00  0.00    -0.003 C 
ATOM     12  C   UNL     1       6.437 -18.213   3.592  1.00  0.00     0.004 C 
ENDBRANCH  10  11
ENDBRANCH   9  10
ENDBRANCH   8   9
ENDBRANCH   7   8
ENDBRANCH   6   7
ENDBRANCH   5   6
ENDBRANCH   4   5
ENDBRANCH   3   4
ENDBRANCH   2   3
ENDBRANCH   1   2
BRANCH   1  13
ATOM     13  C   UNL     1      10.739 -18.150   7.705  1.00  0.00     0.000 C 
BRANCH  13  14
ATOM     14  C   UNL     1      11.247 -18.625   9.079  1.00  0.00     0.000 C 
BRANCH  14  15
ATOM     15  C   UNL     1      12.693 -18.190   9.365  1.00  0.00     0.000 C 
BRANCH  15  16
ATOM     16  C   UNL     1      12.819 -17.343  10.641  1.00  0.00     0.000 C 
BRANCH  16  17
ATOM     17  C   UNL     1      12.384 -15.883  10.424  1.00  0.00     0.000 C 
BRANCH  17  18
ATOM     18  C   UNL     1      11.090 -15.536  11.178  1.00  0.00     0.000 C 
BRANCH  18  19
ATOM     19  C   UNL     1      10.861 -16.432  12.406  1.00  0.00     0.000 C 
BRANCH  19  20
ATOM     20  C   UNL     1      11.171 -15.670  13.704  1.00  0.00     0.006 C 
BRANCH  20  21
ATOM     21  C   UNL     1      12.676 -15.603  13.994  1.00  0.00     0.053 C 
BRANCH  21  22
ATOM     22  C   UNL     1      13.110 -16.676  14.943  1.00  0.00     0.041 C 
ATOM     23  O   UNL     1      13.366 -16.396  16.143  1.00  0.00    -0.550 OA
ATOM     24  O   UNL     1      13.193 -17.994  14.512  1.00  0.00    -0.550 OA
ENDBRANCH  21  22
ENDBRANCH  20  21
ENDBRANCH  19  20
ENDBRANCH  18  19
ENDBRANCH  17  18
ENDBRANCH  16  17
ENDBRANCH  15  16
ENDBRANCH  14  15
ENDBRANCH  13  14
ENDBRANCH   1  13
TORSDOF 20
ENDMDL
MODEL 9
REMARK VINA RESULT:    -4.769      5.209      9.552
REMARK INTER + INTRA:         -12.789
REMARK INTER:                 -10.103
REMARK INTRA:                  -2.686
REMARK UNBOUND:                -2.443
REMARK SMILES CCCCCCCCCCCCCCCCCCCCCC(=O)[O-]
REMARK SMILES IDX 12 1 11 2 10 3 9 4 8 5 7 6 6 7 5 8 4 9 3 10 2 11 1 12 13 13
REMARK SMILES IDX 14 14 15 15 16 16 17 17 18 18 19 19 20 20 21 21 22 22 23 23
REMARK SMILES IDX 24 24
REMARK H PARENT
REMARK Flexibility Score: inf
ROOT
ATOM      1  C   UNL     1       9.455 -19.810   8.274  1.00  0.00     0.000 C 
ENDROOT
BRANCH   1   2
ATOM      2  C   UNL     1       8.378 -19.472   7.229  1.00  0.00     0.000 C 
BRANCH   2   3
ATOM      3  C   UNL     1       8.626 -20.157   5.874  1.00  0.00     0.000 C 
BRANCH   3   4
ATOM      4  C   UNL     1       7.393 -20.251   4.953  1.00  0.00    -0.000 C 
BRANCH   4   5
ATOM      5  C   UNL     1       6.707 -18.895   4.687  1.00  0.00    -0.000 C 
BRANCH   5   6
ATOM      6  C   UNL     1       7.296 -18.175   3.464  1.00  0.00    -0.000 C 
BRANCH   6   7
ATOM      7  C   UNL     1       7.689 -16.734   3.807  1.00  0.00    -0.000 C 
BRANCH   7   8
ATOM      8  C   UNL     1       8.960 -16.703   4.668  1.00  0.00    -0.000 C 
BRANCH   8   9
ATOM      9  C   UNL     1       8.802 -15.828   5.923  1.00  0.00    -0.000 C 
BRANCH   9  10
ATOM     10  C   UNL     1       9.753 -16.244   7.055  1.00  0.00    -0.000 C 
BRANCH  10  11
ATOM     11  C   UNL     1      11.099 -15.522   6.932  1.00  0.00    -0.003 C 
ATOM     12  C   UNL     1      12.166 -16.439   6.343  1.00  0.00     0.004 C 
ENDBRANCH  10  11
ENDBRANCH   9  10
ENDBRANCH   8   9
ENDBRANCH   7   8
ENDBRANCH   6   7
ENDBRANCH   5   6
ENDBRANCH   4   5
ENDBRANCH   3   4
ENDBRANCH   2   3
ENDBRANCH   1   2
BRANCH   1  13
ATOM     13  C   UNL     1      10.866 -19.911   7.665  1.00  0.00     0.000 C 
BRANCH  13  14
ATOM     14  C   UNL     1      12.009 -19.470   8.597  1.00  0.00     0.000 C 
BRANCH  14  15
ATOM     15  C   UNL     1      11.616 -18.295   9.508  1.00  0.00     0.000 C 
BRANCH  15  16
ATOM     16  C   UNL     1      12.822 -17.446   9.937  1.00  0.00     0.000 C 
BRANCH  16  17
ATOM     17  C   UNL     1      12.532 -16.603  11.192  1.00  0.00     0.000 C 
BRANCH  17  18
ATOM     18  C   UNL     1      11.191 -15.856  11.102  1.00  0.00     0.000 C 
BRANCH  18  19
ATOM     19  C   UNL     1      10.445 -15.816  12.445  1.00  0.00     0.000 C 
BRANCH  19  20
ATOM     20  C   UNL     1      11.383 -16.186  13.604  1.00  0.00     0.006 C 
BRANCH  20  21
ATOM     21  C   UNL     1      11.706 -14.981  14.498  1.00  0.00     0.053 C 
BRANCH  21  22
ATOM     22  C   UNL     1      12.501 -15.378  15.703  1.00  0.00     0.041 C 
ATOM     23  O   UNL     1      13.609 -15.960  15.567  1.00  0.00    -0.550 OA
ATOM     24  O   UNL     1      12.038 -15.069  16.975  1.00  0.00    -0.550 OA
ENDBRANCH  21  22
ENDBRANCH  20  21
ENDBRANCH  19  20
ENDBRANCH  18  19
ENDBRANCH  17  18
ENDBRANCH  16  17
ENDBRANCH  15  16
ENDBRANCH  14  15
ENDBRANCH  13  14
ENDBRANCH   1  13
TORSDOF 20
ENDMDL
