MODEL 1
REMARK VINA RESULT:    -7.546      0.000      0.000
REMARK INTER + INTRA:          -9.182
REMARK INTER:                  -8.869
REMARK INTRA:                  -0.313
REMARK UNBOUND:                -0.313
REMARK SMILES O=c1cc(-c2ccc(O)c(O)c2)oc2cc(O)cc(O)c12
REMARK SMILES IDX 4 1 3 2 2 3 1 4 21 5 19 6 18 7 16 8 15 9 14 10 13 11 5 12
REMARK SMILES IDX 6 13 7 14 8 15 12 16 10 17 9 18 11 20 20 22 17 24
REMARK H PARENT 9 19 11 21 20 23 17 25
REMARK Flexibility Score: inf
ROOT
ATOM      1  C   UNL     1     -23.070  85.106 -23.415  1.00  0.00     0.138 A 
ATOM      2  C   UNL     1     -23.852  84.449 -24.375  1.00  0.00     0.100 A 
ATOM      3  C   UNL     1     -24.238  85.128 -25.532  1.00  0.00     0.197 A 
ATOM      4  O   UNL     1     -24.985  84.530 -26.348  1.00  0.00    -0.289 OA
ATOM      5  C   UNL     1     -23.807  86.459 -25.744  1.00  0.00     0.107 A 
ATOM      6  C   UNL     1     -24.109  87.239 -26.901  1.00  0.00     0.134 A 
ATOM      7  C   UNL     1     -23.709  88.580 -26.954  1.00  0.00     0.093 A 
ATOM      8  C   UNL     1     -22.970  89.153 -25.920  1.00  0.00     0.123 A 
ATOM      9  C   UNL     1     -22.626  88.387 -24.806  1.00  0.00     0.094 A 
ATOM     10  C   UNL     1     -23.039  87.056 -24.708  1.00  0.00     0.146 A 
ATOM     11  O   UNL     1     -22.705  86.366 -23.622  1.00  0.00    -0.456 OA
ENDROOT
BRANCH   1  12
ATOM     12  C   UNL     1     -22.629  84.431 -22.167  1.00  0.00     0.021 A 
ATOM     13  C   UNL     1     -22.643  83.026 -22.100  1.00  0.00     0.016 A 
ATOM     14  C   UNL     1     -22.226  82.366 -20.942  1.00  0.00     0.051 A 
ATOM     15  C   UNL     1     -21.779  83.097 -19.835  1.00  0.00     0.157 A 
ATOM     16  C   UNL     1     -22.165  85.159 -21.055  1.00  0.00     0.062 A 
ATOM     17  C   UNL     1     -21.745  84.496 -19.893  1.00  0.00     0.158 A 
BRANCH  15  18
ATOM     18  O   UNL     1     -21.364  82.442 -18.677  1.00  0.00    -0.504 OA
ATOM     19  H   UNL     1     -21.112  82.955 -17.840  1.00  0.00     0.293 HD
ENDBRANCH  15  18
BRANCH  17  20
ATOM     20  O   UNL     1     -21.289  85.220 -18.792  1.00  0.00    -0.504 OA
ATOM     21  H   UNL     1     -21.394  86.226 -18.739  1.00  0.00     0.293 HD
ENDBRANCH  17  20
ENDBRANCH   1  12
BRANCH   6  22
ATOM     22  O   UNL     1     -24.774  86.744 -28.028  1.00  0.00    -0.507 OA
ATOM     23  H   UNL     1     -25.246  87.309 -28.716  1.00  0.00     0.293 HD
ENDBRANCH   6  22
BRANCH   8  24
ATOM     24  O   UNL     1     -22.576  90.486 -26.014  1.00  0.00    -0.508 OA
ATOM     25  H   UNL     1     -23.248  91.228 -26.174  1.00  0.00     0.293 HD
ENDBRANCH   8  24
TORSDOF 5
ENDMDL
MODEL 2
REMARK VINA RESULT:    -6.844      1.866      6.718
REMARK INTER + INTRA:          -8.358
REMARK INTER:                  -8.091
REMARK INTRA:                  -0.266
REMARK UNBOUND:                -0.313
REMARK SMILES O=c1cc(-c2ccc(O)c(O)c2)oc2cc(O)cc(O)c12
REMARK SMILES IDX 4 1 3 2 2 3 1 4 21 5 19 6 18 7 16 8 15 9 14 10 13 11 5 12
REMARK SMILES IDX 6 13 7 14 8 15 12 16 10 17 9 18 11 20 20 22 17 24
REMARK H PARENT 9 19 11 21 20 23 17 25
REMARK Flexibility Score: inf
ROOT
ATOM      1  C   UNL     1     -23.303  85.248 -23.813  1.00  0.00     0.138 A 
ATOM      2  C   UNL     1     -23.165  84.156 -24.680  1.00  0.00     0.100 A 
ATOM      3  C   UNL     1     -22.711  82.933 -24.182  1.00  0.00     0.197 A 
ATOM      4  O   UNL     1     -22.545  81.988 -24.995  1.00  0.00    -0.289 OA
ATOM      5  C   UNL     1     -22.429  82.795 -22.802  1.00  0.00     0.107 A 
ATOM      6  C   UNL     1     -21.994  81.588 -22.176  1.00  0.00     0.134 A 
ATOM      7  C   UNL     1     -21.652  81.600 -20.818  1.00  0.00     0.093 A 
ATOM      8  C   UNL     1     -21.784  82.757 -20.051  1.00  0.00     0.123 A 
ATOM      9  C   UNL     1     -22.255  83.929 -20.641  1.00  0.00     0.094 A 
ATOM     10  C   UNL     1     -22.573  83.960 -22.001  1.00  0.00     0.146 A 
ATOM     11  O   UNL     1     -23.003  85.102 -22.528  1.00  0.00    -0.456 OA
ENDROOT
BRANCH   1  12
ATOM     12  C   UNL     1     -23.784  86.571 -24.288  1.00  0.00     0.021 A 
ATOM     13  C   UNL     1     -25.164  86.785 -24.453  1.00  0.00     0.016 A 
ATOM     14  C   UNL     1     -25.644  88.021 -24.891  1.00  0.00     0.051 A 
ATOM     15  C   UNL     1     -24.755  89.067 -25.162  1.00  0.00     0.157 A 
ATOM     16  C   UNL     1     -22.897  87.632 -24.550  1.00  0.00     0.062 A 
ATOM     17  C   UNL     1     -23.379  88.874 -24.987  1.00  0.00     0.158 A 
BRANCH  15  18
ATOM     18  O   UNL     1     -25.230  90.302 -25.600  1.00  0.00    -0.504 OA
ATOM     19  H   UNL     1     -24.897  91.171 -25.199  1.00  0.00     0.293 HD
ENDBRANCH  15  18
BRANCH  17  20
ATOM     20  O   UNL     1     -22.497  89.922 -25.248  1.00  0.00    -0.504 OA
ATOM     21  H   UNL     1     -21.506  89.760 -25.382  1.00  0.00     0.293 HD
ENDBRANCH  17  20
ENDBRANCH   1  12
BRANCH   6  22
ATOM     22  O   UNL     1     -21.902  80.355 -22.829  1.00  0.00    -0.507 OA
ATOM     23  H   UNL     1     -21.797  80.233 -23.824  1.00  0.00     0.293 HD
ENDBRANCH   6  22
BRANCH   8  24
ATOM     24  O   UNL     1     -21.448  82.727 -18.699  1.00  0.00    -0.508 OA
ATOM     25  H   UNL     1     -21.273  81.854 -18.215  1.00  0.00     0.293 HD
ENDBRANCH   8  24
TORSDOF 5
ENDMDL
MODEL 3
REMARK VINA RESULT:    -6.712      1.318      3.042
REMARK INTER + INTRA:          -8.202
REMARK INTER:                  -7.908
REMARK INTRA:                  -0.295
REMARK UNBOUND:                -0.313
REMARK SMILES O=c1cc(-c2ccc(O)c(O)c2)oc2cc(O)cc(O)c12
REMARK SMILES IDX 4 1 3 2 2 3 1 4 21 5 19 6 18 7 16 8 15 9 14 10 13 11 5 12
REMARK SMILES IDX 6 13 7 14 8 15 12 16 10 17 9 18 11 20 20 22 17 24
REMARK H PARENT 9 19 11 21 20 23 17 25
REMARK Flexibility Score: inf
ROOT
ATOM      1  C   UNL     1     -22.615  85.415 -23.137  1.00  0.00     0.138 A 
ATOM      2  C   UNL     1     -22.000  86.646 -23.399  1.00  0.00     0.100 A 
ATOM      3  C   UNL     1     -22.371  87.377 -24.529  1.00  0.00     0.197 A 
ATOM      4  O   UNL     1     -21.762  88.451 -24.765  1.00  0.00    -0.289 OA
ATOM      5  C   UNL     1     -23.389  86.887 -25.381  1.00  0.00     0.107 A 
ATOM      6  C   UNL     1     -23.874  87.561 -26.542  1.00  0.00     0.134 A 
ATOM      7  C   UNL     1     -24.818  86.930 -27.363  1.00  0.00     0.093 A 
ATOM      8  C   UNL     1     -25.335  85.677 -27.035  1.00  0.00     0.123 A 
ATOM      9  C   UNL     1     -24.905  85.031 -25.877  1.00  0.00     0.094 A 
ATOM     10  C   UNL     1     -23.941  85.618 -25.054  1.00  0.00     0.146 A 
ATOM     11  O   UNL     1     -23.545  84.961 -23.969  1.00  0.00    -0.456 OA
ENDROOT
BRANCH   1  12
ATOM     12  C   UNL     1     -22.261  84.597 -21.948  1.00  0.00     0.021 A 
ATOM     13  C   UNL     1     -22.100  85.226 -20.701  1.00  0.00     0.016 A 
ATOM     14  C   UNL     1     -21.775  84.480 -19.566  1.00  0.00     0.051 A 
ATOM     15  C   UNL     1     -21.614  83.094 -19.655  1.00  0.00     0.157 A 
ATOM     16  C   UNL     1     -22.110  83.199 -22.028  1.00  0.00     0.062 A 
ATOM     17  C   UNL     1     -21.786  82.451 -20.887  1.00  0.00     0.158 A 
BRANCH  15  18
ATOM     18  O   UNL     1     -21.288  82.346 -18.525  1.00  0.00    -0.504 OA
ATOM     19  H   UNL     1     -21.377  82.730 -17.591  1.00  0.00     0.293 HD
ENDBRANCH  15  18
BRANCH  17  20
ATOM     20  O   UNL     1     -21.635  81.067 -20.970  1.00  0.00    -0.504 OA
ATOM     21  H   UNL     1     -22.433  80.452 -21.080  1.00  0.00     0.293 HD
ENDBRANCH  17  20
ENDBRANCH   1  12
BRANCH   6  22
ATOM     22  O   UNL     1     -23.484  88.849 -26.920  1.00  0.00    -0.507 OA
ATOM     23  H   UNL     1     -22.865  89.066 -27.685  1.00  0.00     0.293 HD
ENDBRANCH   6  22
BRANCH   8  24
ATOM     24  O   UNL     1     -26.284  85.087 -27.868  1.00  0.00    -0.508 OA
ATOM     25  H   UNL     1     -26.883  84.338 -27.541  1.00  0.00     0.293 HD
ENDBRANCH   8  24
TORSDOF 5
ENDMDL
MODEL 4
REMARK VINA RESULT:    -6.703      5.228      8.694
REMARK INTER + INTRA:          -8.192
REMARK INTER:                  -7.896
REMARK INTRA:                  -0.296
REMARK UNBOUND:                -0.313
REMARK SMILES O=c1cc(-c2ccc(O)c(O)c2)oc2cc(O)cc(O)c12
REMARK SMILES IDX 4 1 3 2 2 3 1 4 21 5 19 6 18 7 16 8 15 9 14 10 13 11 5 12
REMARK SMILES IDX 6 13 7 14 8 15 12 16 10 17 9 18 11 20 20 22 17 24
REMARK H PARENT 9 19 11 21 20 23 17 25
REMARK Flexibility Score: inf
ROOT
ATOM      1  C   UNL     1     -23.902  91.430 -29.141  1.00  0.00     0.138 A 
ATOM      2  C   UNL     1     -23.391  91.557 -30.439  1.00  0.00     0.100 A 
ATOM      3  C   UNL     1     -23.370  92.810 -31.053  1.00  0.00     0.197 A 
ATOM      4  O   UNL     1     -22.956  92.881 -32.239  1.00  0.00    -0.289 OA
ATOM      5  C   UNL     1     -23.830  93.948 -30.348  1.00  0.00     0.107 A 
ATOM      6  C   UNL     1     -23.824  95.280 -30.860  1.00  0.00     0.134 A 
ATOM      7  C   UNL     1     -24.396  96.312 -30.104  1.00  0.00     0.093 A 
ATOM      8  C   UNL     1     -24.921  96.071 -28.836  1.00  0.00     0.123 A 
ATOM      9  C   UNL     1     -24.887  94.782 -28.305  1.00  0.00     0.094 A 
ATOM     10  C   UNL     1     -24.354  93.724 -29.046  1.00  0.00     0.146 A 
ATOM     11  O   UNL     1     -24.356  92.508 -28.511  1.00  0.00    -0.456 OA
ENDROOT
BRANCH   1  12
ATOM     12  C   UNL     1     -23.946  90.122 -28.438  1.00  0.00     0.021 A 
ATOM     13  C   UNL     1     -24.309  88.967 -29.153  1.00  0.00     0.016 A 
ATOM     14  C   UNL     1     -24.351  87.723 -28.519  1.00  0.00     0.051 A 
ATOM     15  C   UNL     1     -24.022  87.610 -27.164  1.00  0.00     0.157 A 
ATOM     16  C   UNL     1     -23.603  89.999 -27.078  1.00  0.00     0.062 A 
ATOM     17  C   UNL     1     -23.643  88.749 -26.442  1.00  0.00     0.158 A 
BRANCH  15  18
ATOM     18  O   UNL     1     -24.064  86.371 -26.527  1.00  0.00    -0.504 OA
ATOM     19  H   UNL     1     -23.926  85.507 -27.039  1.00  0.00     0.293 HD
ENDBRANCH  15  18
BRANCH  17  20
ATOM     20  O   UNL     1     -23.305  88.631 -25.095  1.00  0.00    -0.504 OA
ATOM     21  H   UNL     1     -22.372  88.364 -24.803  1.00  0.00     0.293 HD
ENDBRANCH  17  20
ENDBRANCH   1  12
BRANCH   6  22
ATOM     22  O   UNL     1     -23.254  95.648 -32.082  1.00  0.00    -0.507 OA
ATOM     23  H   UNL     1     -22.522  96.331 -32.199  1.00  0.00     0.293 HD
ENDBRANCH   6  22
BRANCH   8  24
ATOM     24  O   UNL     1     -25.469  97.125 -28.107  1.00  0.00    -0.508 OA
ATOM     25  H   UNL     1     -25.176  97.320 -27.156  1.00  0.00     0.293 HD
ENDBRANCH   8  24
TORSDOF 5
ENDMDL
MODEL 5
REMARK VINA RESULT:    -6.581      6.304      9.369
REMARK INTER + INTRA:          -8.048
REMARK INTER:                  -7.778
REMARK INTRA:                  -0.270
REMARK UNBOUND:                -0.313
REMARK SMILES O=c1cc(-c2ccc(O)c(O)c2)oc2cc(O)cc(O)c12
REMARK SMILES IDX 4 1 3 2 2 3 1 4 21 5 19 6 18 7 16 8 15 9 14 10 13 11 5 12
REMARK SMILES IDX 6 13 7 14 8 15 12 16 10 17 9 18 11 20 20 22 17 24
REMARK H PARENT 9 19 11 21 20 23 17 25
REMARK Flexibility Score: inf
ROOT
ATOM      1  C   UNL     1     -24.947  91.968 -28.567  1.00  0.00     0.138 A 
ATOM      2  C   UNL     1     -25.518  92.783 -27.581  1.00  0.00     0.100 A 
ATOM      3  C   UNL     1     -25.491  94.171 -27.732  1.00  0.00     0.197 A 
ATOM      4  O   UNL     1     -25.963  94.876 -26.803  1.00  0.00    -0.289 OA
ATOM      5  C   UNL     1     -24.921  94.742 -28.894  1.00  0.00     0.107 A 
ATOM      6  C   UNL     1     -24.868  96.141 -29.172  1.00  0.00     0.134 A 
ATOM      7  C   UNL     1     -24.190  96.593 -30.312  1.00  0.00     0.093 A 
ATOM      8  C   UNL     1     -23.614  95.696 -31.210  1.00  0.00     0.123 A 
ATOM      9  C   UNL     1     -23.703  94.325 -30.975  1.00  0.00     0.094 A 
ATOM     10  C   UNL     1     -24.343  93.842 -29.831  1.00  0.00     0.146 A 
ATOM     11  O   UNL     1     -24.390  92.529 -29.635  1.00  0.00    -0.456 OA
ENDROOT
BRANCH   1  12
ATOM     12  C   UNL     1     -24.950  90.487 -28.460  1.00  0.00     0.021 A 
ATOM     13  C   UNL     1     -26.168  89.790 -28.562  1.00  0.00     0.016 A 
ATOM     14  C   UNL     1     -26.198  88.396 -28.472  1.00  0.00     0.051 A 
ATOM     15  C   UNL     1     -25.013  87.675 -28.289  1.00  0.00     0.157 A 
ATOM     16  C   UNL     1     -23.760  89.753 -28.288  1.00  0.00     0.062 A 
ATOM     17  C   UNL     1     -23.791  88.354 -28.200  1.00  0.00     0.158 A 
BRANCH  15  18
ATOM     18  O   UNL     1     -25.039  86.285 -28.196  1.00  0.00    -0.504 OA
ATOM     19  H   UNL     1     -24.189  85.745 -28.080  1.00  0.00     0.293 HD
ENDBRANCH  15  18
BRANCH  17  20
ATOM     20  O   UNL     1     -22.612  87.631 -28.028  1.00  0.00    -0.504 OA
ATOM     21  H   UNL     1     -22.419  86.793 -28.565  1.00  0.00     0.293 HD
ENDBRANCH  17  20
ENDBRANCH   1  12
BRANCH   6  22
ATOM     22  O   UNL     1     -25.478  97.121 -28.383  1.00  0.00    -0.507 OA
ATOM     23  H   UNL     1     -24.997  97.727 -27.738  1.00  0.00     0.293 HD
ENDBRANCH   6  22
BRANCH   8  24
ATOM     24  O   UNL     1     -22.960  96.182 -32.342  1.00  0.00    -0.508 OA
ATOM     25  H   UNL     1     -21.993  96.484 -32.307  1.00  0.00     0.293 HD
ENDBRANCH   8  24
TORSDOF 5
ENDMDL
MODEL 6
REMARK VINA RESULT:    -6.264      4.480      9.810
REMARK INTER + INTRA:          -7.676
REMARK INTER:                  -7.392
REMARK INTRA:                  -0.284
REMARK UNBOUND:                -0.313
REMARK SMILES O=c1cc(-c2ccc(O)c(O)c2)oc2cc(O)cc(O)c12
REMARK SMILES IDX 4 1 3 2 2 3 1 4 21 5 19 6 18 7 16 8 15 9 14 10 13 11 5 12
REMARK SMILES IDX 6 13 7 14 8 15 12 16 10 17 9 18 11 20 20 22 17 24
REMARK H PARENT 9 19 11 21 20 23 17 25
REMARK Flexibility Score: inf
ROOT
ATOM      1  C   UNL     1     -24.438  91.643 -28.637  1.00  0.00     0.138 A 
ATOM      2  C   UNL     1     -25.057  90.644 -29.399  1.00  0.00     0.100 A 
ATOM      3  C   UNL     1     -24.953  89.309 -29.003  1.00  0.00     0.197 A 
ATOM      4  O   UNL     1     -25.473  88.432 -29.739  1.00  0.00    -0.289 OA
ATOM      5  C   UNL     1     -24.256  88.979 -27.817  1.00  0.00     0.107 A 
ATOM      6  C   UNL     1     -24.114  87.658 -27.297  1.00  0.00     0.134 A 
ATOM      7  C   UNL     1     -23.317  87.443 -26.165  1.00  0.00     0.093 A 
ATOM      8  C   UNL     1     -22.704  88.507 -25.503  1.00  0.00     0.123 A 
ATOM      9  C   UNL     1     -22.876  89.808 -25.974  1.00  0.00     0.094 A 
ATOM     10  C   UNL     1     -23.637  90.052 -27.119  1.00  0.00     0.146 A 
ATOM     11  O   UNL     1     -23.762  91.305 -27.545  1.00  0.00    -0.456 OA
ENDROOT
BRANCH   1  12
ATOM     12  C   UNL     1     -24.518  93.079 -29.010  1.00  0.00     0.021 A 
ATOM     13  C   UNL     1     -24.157  93.475 -30.310  1.00  0.00     0.016 A 
ATOM     14  C   UNL     1     -24.231  94.818 -30.689  1.00  0.00     0.051 A 
ATOM     15  C   UNL     1     -24.675  95.784 -29.781  1.00  0.00     0.157 A 
ATOM     16  C   UNL     1     -24.977  94.055 -28.106  1.00  0.00     0.062 A 
ATOM     17  C   UNL     1     -25.053  95.403 -28.488  1.00  0.00     0.158 A 
BRANCH  15  18
ATOM     18  O   UNL     1     -24.748  97.125 -30.155  1.00  0.00    -0.504 OA
ATOM     19  H   UNL     1     -24.125  97.515 -30.853  1.00  0.00     0.293 HD
ENDBRANCH  15  18
BRANCH  17  20
ATOM     20  O   UNL     1     -25.506  96.367 -27.589  1.00  0.00    -0.504 OA
ATOM     21  H   UNL     1     -26.194  96.149 -26.878  1.00  0.00     0.293 HD
ENDBRANCH  17  20
ENDBRANCH   1  12
BRANCH   6  22
ATOM     22  O   UNL     1     -24.747  86.532 -27.833  1.00  0.00    -0.507 OA
ATOM     23  H   UNL     1     -24.828  85.639 -27.373  1.00  0.00     0.293 HD
ENDBRANCH   6  22
BRANCH   8  24
ATOM     24  O   UNL     1     -21.930  88.257 -24.371  1.00  0.00    -0.508 OA
ATOM     25  H   UNL     1     -21.120  88.823 -24.148  1.00  0.00     0.293 HD
ENDBRANCH   8  24
TORSDOF 5
ENDMDL
MODEL 7
REMARK VINA RESULT:    -6.172      5.368     10.004
REMARK INTER + INTRA:          -7.568
REMARK INTER:                  -7.262
REMARK INTRA:                  -0.306
REMARK UNBOUND:                -0.313
REMARK SMILES O=c1cc(-c2ccc(O)c(O)c2)oc2cc(O)cc(O)c12
REMARK SMILES IDX 4 1 3 2 2 3 1 4 21 5 19 6 18 7 16 8 15 9 14 10 13 11 5 12
REMARK SMILES IDX 6 13 7 14 8 15 12 16 10 17 9 18 11 20 20 22 17 24
REMARK H PARENT 9 19 11 21 20 23 17 25
REMARK Flexibility Score: inf
ROOT
ATOM      1  C   UNL     1     -24.590  91.808 -28.325  1.00  0.00     0.138 A 
ATOM      2  C   UNL     1     -23.716  90.829 -28.816  1.00  0.00     0.100 A 
ATOM      3  C   UNL     1     -23.772  89.532 -28.302  1.00  0.00     0.197 A 
ATOM      4  O   UNL     1     -22.937  88.692 -28.724  1.00  0.00    -0.289 OA
ATOM      5  C   UNL     1     -24.733  89.207 -27.316  1.00  0.00     0.107 A 
ATOM      6  C   UNL     1     -24.906  87.911 -26.743  1.00  0.00     0.134 A 
ATOM      7  C   UNL     1     -25.827  87.733 -25.702  1.00  0.00     0.093 A 
ATOM      8  C   UNL     1     -26.620  88.789 -25.254  1.00  0.00     0.123 A 
ATOM      9  C   UNL     1     -26.495  90.048 -25.840  1.00  0.00     0.094 A 
ATOM     10  C   UNL     1     -25.563  90.267 -26.857  1.00  0.00     0.146 A 
ATOM     11  O   UNL     1     -25.463  91.485 -27.377  1.00  0.00    -0.456 OA
ENDROOT
BRANCH   1  12
ATOM     12  C   UNL     1     -24.576  93.202 -28.838  1.00  0.00     0.021 A 
ATOM     13  C   UNL     1     -24.192  93.443 -30.169  1.00  0.00     0.016 A 
ATOM     14  C   UNL     1     -24.177  94.744 -30.679  1.00  0.00     0.051 A 
ATOM     15  C   UNL     1     -24.556  95.822 -29.873  1.00  0.00     0.157 A 
ATOM     16  C   UNL     1     -24.968  94.291 -28.036  1.00  0.00     0.062 A 
ATOM     17  C   UNL     1     -24.956  95.596 -28.550  1.00  0.00     0.158 A 
BRANCH  15  18
ATOM     18  O   UNL     1     -24.540  97.121 -30.377  1.00  0.00    -0.504 OA
ATOM     19  H   UNL     1     -24.743  97.314 -31.352  1.00  0.00     0.293 HD
ENDBRANCH  15  18
BRANCH  17  20
ATOM     20  O   UNL     1     -25.342  96.672 -27.752  1.00  0.00    -0.504 OA
ATOM     21  H   UNL     1     -25.589  96.548 -26.777  1.00  0.00     0.293 HD
ENDBRANCH  17  20
ENDBRANCH   1  12
BRANCH   6  22
ATOM     22  O   UNL     1     -24.222  86.768 -27.169  1.00  0.00    -0.507 OA
ATOM     23  H   UNL     1     -23.470  86.759 -27.839  1.00  0.00     0.293 HD
ENDBRANCH   6  22
BRANCH   8  24
ATOM     24  O   UNL     1     -27.537  88.571 -24.227  1.00  0.00    -0.508 OA
ATOM     25  H   UNL     1     -27.502  87.736 -23.654  1.00  0.00     0.293 HD
ENDBRANCH   8  24
TORSDOF 5
ENDMDL
MODEL 8
REMARK VINA RESULT:    -6.130      2.349      7.116
REMARK INTER + INTRA:          -7.519
REMARK INTER:                  -7.249
REMARK INTRA:                  -0.269
REMARK UNBOUND:                -0.313
REMARK SMILES O=c1cc(-c2ccc(O)c(O)c2)oc2cc(O)cc(O)c12
REMARK SMILES IDX 4 1 3 2 2 3 1 4 21 5 19 6 18 7 16 8 15 9 14 10 13 11 5 12
REMARK SMILES IDX 6 13 7 14 8 15 12 16 10 17 9 18 11 20 20 22 17 24
REMARK H PARENT 9 19 11 21 20 23 17 25
REMARK Flexibility Score: inf
ROOT
ATOM      1  C   UNL     1     -22.562  84.969 -23.601  1.00  0.00     0.138 A 
ATOM      2  C   UNL     1     -22.682  84.796 -22.216  1.00  0.00     0.100 A 
ATOM      3  C   UNL     1     -22.353  83.567 -21.641  1.00  0.00     0.197 A 
ATOM      4  O   UNL     1     -22.525  83.427 -20.403  1.00  0.00    -0.289 OA
ATOM      5  C   UNL     1     -21.866  82.518 -22.456  1.00  0.00     0.107 A 
ATOM      6  C   UNL     1     -21.466  81.234 -21.978  1.00  0.00     0.134 A 
ATOM      7  C   UNL     1     -21.092  80.241 -22.893  1.00  0.00     0.093 A 
ATOM      8  C   UNL     1     -21.048  80.504 -24.262  1.00  0.00     0.123 A 
ATOM      9  C   UNL     1     -21.389  81.770 -24.737  1.00  0.00     0.094 A 
ATOM     10  C   UNL     1     -21.798  82.771 -23.853  1.00  0.00     0.146 A 
ATOM     11  O   UNL     1     -22.131  83.958 -24.348  1.00  0.00    -0.456 OA
ENDROOT
BRANCH   1  12
ATOM     12  C   UNL     1     -22.895  86.255 -24.264  1.00  0.00     0.021 A 
ATOM     13  C   UNL     1     -22.067  87.373 -24.057  1.00  0.00     0.016 A 
ATOM     14  C   UNL     1     -22.354  88.593 -24.675  1.00  0.00     0.051 A 
ATOM     15  C   UNL     1     -23.465  88.714 -25.516  1.00  0.00     0.157 A 
ATOM     16  C   UNL     1     -24.005  86.382 -25.122  1.00  0.00     0.062 A 
ATOM     17  C   UNL     1     -24.291  87.606 -25.743  1.00  0.00     0.158 A 
BRANCH  15  18
ATOM     18  O   UNL     1     -23.756  89.930 -26.132  1.00  0.00    -0.504 OA
ATOM     19  H   UNL     1     -24.639  90.088 -26.603  1.00  0.00     0.293 HD
ENDBRANCH  15  18
BRANCH  17  20
ATOM     20  O   UNL     1     -25.391  87.728 -26.590  1.00  0.00    -0.504 OA
ATOM     21  H   UNL     1     -26.264  87.251 -26.397  1.00  0.00     0.293 HD
ENDBRANCH  17  20
ENDBRANCH   1  12
BRANCH   6  22
ATOM     22  O   UNL     1     -21.396  80.888 -20.624  1.00  0.00    -0.507 OA
ATOM     23  H   UNL     1     -21.923  80.148 -20.187  1.00  0.00     0.293 HD
ENDBRANCH   6  22
BRANCH   8  24
ATOM     24  O   UNL     1     -20.656  79.496 -25.142  1.00  0.00    -0.508 OA
ATOM     25  H   UNL     1     -19.740  79.067 -25.082  1.00  0.00     0.293 HD
ENDBRANCH   8  24
TORSDOF 5
ENDMDL
MODEL 9
REMARK VINA RESULT:    -6.041      4.611      7.369
REMARK INTER + INTRA:          -7.414
REMARK INTER:                  -7.102
REMARK INTRA:                  -0.312
REMARK UNBOUND:                -0.313
REMARK SMILES O=c1cc(-c2ccc(O)c(O)c2)oc2cc(O)cc(O)c12
REMARK SMILES IDX 4 1 3 2 2 3 1 4 21 5 19 6 18 7 16 8 15 9 14 10 13 11 5 12
REMARK SMILES IDX 6 13 7 14 8 15 12 16 10 17 9 18 11 20 20 22 17 24
REMARK H PARENT 9 19 11 21 20 23 17 25
REMARK Flexibility Score: inf
ROOT
ATOM      1  C   UNL     1     -21.615  80.641 -24.410  1.00  0.00     0.138 A 
ATOM      2  C   UNL     1     -22.275  79.892 -23.427  1.00  0.00     0.100 A 
ATOM      3  C   UNL     1     -22.681  80.512 -22.244  1.00  0.00     0.197 A 
ATOM      4  O   UNL     1     -23.222  79.800 -21.359  1.00  0.00    -0.289 OA
ATOM      5  C   UNL     1     -22.456  81.897 -22.062  1.00  0.00     0.107 A 
ATOM      6  C   UNL     1     -22.858  82.643 -20.913  1.00  0.00     0.134 A 
ATOM      7  C   UNL     1     -22.492  83.991 -20.802  1.00  0.00     0.093 A 
ATOM      8  C   UNL     1     -21.792  84.633 -21.823  1.00  0.00     0.123 A 
ATOM      9  C   UNL     1     -21.439  83.927 -22.972  1.00  0.00     0.094 A 
ATOM     10  C   UNL     1     -21.758  82.573 -23.099  1.00  0.00     0.146 A 
ATOM     11  O   UNL     1     -21.388  81.933 -24.202  1.00  0.00    -0.456 OA
ENDROOT
BRANCH   1  12
ATOM     12  C   UNL     1     -21.163  80.033 -25.688  1.00  0.00     0.021 A 
ATOM     13  C   UNL     1     -21.012  78.638 -25.774  1.00  0.00     0.016 A 
ATOM     14  C   UNL     1     -20.597  78.041 -26.966  1.00  0.00     0.051 A 
ATOM     15  C   UNL     1     -20.335  78.825 -28.095  1.00  0.00     0.157 A 
ATOM     16  C   UNL     1     -20.911  80.815 -26.832  1.00  0.00     0.062 A 
ATOM     17  C   UNL     1     -20.495  80.214 -28.029  1.00  0.00     0.158 A 
BRANCH  15  18
ATOM     18  O   UNL     1     -19.918  78.233 -29.285  1.00  0.00    -0.504 OA
ATOM     19  H   UNL     1     -20.533  77.633 -29.823  1.00  0.00     0.293 HD
ENDBRANCH  15  18
BRANCH  17  20
ATOM     20  O   UNL     1     -20.244  80.992 -29.159  1.00  0.00    -0.504 OA
ATOM     21  H   UNL     1     -19.834  81.916 -29.087  1.00  0.00     0.293 HD
ENDBRANCH  17  20
ENDBRANCH   1  12
BRANCH   6  22
ATOM     22  O   UNL     1     -23.628  82.121 -19.869  1.00  0.00    -0.507 OA
ATOM     23  H   UNL     1     -24.254  81.335 -19.947  1.00  0.00     0.293 HD
ENDBRANCH   6  22
BRANCH   8  24
ATOM     24  O   UNL     1     -21.459  85.980 -21.685  1.00  0.00    -0.508 OA
ATOM     25  H   UNL     1     -21.651  86.488 -20.830  1.00  0.00     0.293 HD
ENDBRANCH   8  24
TORSDOF 5
ENDMDL
