MODEL 1
REMARK VINA RESULT:    -4.630      0.000      0.000
REMARK INTER + INTRA:          -8.163
REMARK INTER:                  -7.336
REMARK INTRA:                  -0.827
REMARK UNBOUND:                -0.827
REMARK SMILES CCCCCCCCCCCC(=O)[O-]
REMARK SMILES IDX 7 1 8 2 9 3 10 4 11 5 12 6 13 7 14 8 6 9 5 10 4 11 3 12 2 13
REMARK SMILES IDX 1 14
REMARK H PARENT
REMARK Flexibility Score: inf
ROOT
ATOM      1  C   UNL     1      17.051  21.282 -12.859  1.00  0.00     0.000 C 
ENDROOT
BRANCH   1   2
ATOM      2  C   UNL     1      18.104  20.421 -13.573  1.00  0.00     0.000 C 
BRANCH   2   3
ATOM      3  C   UNL     1      17.652  18.963 -13.754  1.00  0.00     0.000 C 
BRANCH   3   4
ATOM      4  C   UNL     1      18.769  17.988 -13.356  1.00  0.00     0.006 C 
BRANCH   4   5
ATOM      5  C   UNL     1      19.761  18.613 -12.366  1.00  0.00     0.053 C 
BRANCH   5   6
ATOM      6  C   UNL     1      19.438  18.249 -10.949  1.00  0.00     0.041 C 
ATOM      7  O   UNL     1      18.515  18.846 -10.336  1.00  0.00    -0.550 OA
ATOM      8  O   UNL     1      20.134  17.225 -10.318  1.00  0.00    -0.550 OA
ENDBRANCH   5   6
ENDBRANCH   4   5
ENDBRANCH   3   4
ENDBRANCH   2   3
ENDBRANCH   1   2
BRANCH   1   9
ATOM      9  C   UNL     1      15.934  20.445 -12.217  1.00  0.00     0.000 C 
BRANCH   9  10
ATOM     10  C   UNL     1      14.723  21.322 -11.870  1.00  0.00    -0.000 C 
BRANCH  10  11
ATOM     11  C   UNL     1      14.874  22.774 -12.360  1.00  0.00    -0.000 C 
BRANCH  11  12
ATOM     12  C   UNL     1      13.728  23.284 -13.256  1.00  0.00    -0.000 C 
BRANCH  12  13
ATOM     13  C   UNL     1      12.399  22.522 -13.106  1.00  0.00    -0.003 C 
ATOM     14  C   UNL     1      11.435  23.194 -12.128  1.00  0.00     0.004 C 
ENDBRANCH  12  13
ENDBRANCH  11  12
ENDBRANCH  10  11
ENDBRANCH   9  10
ENDBRANCH   1   9
TORSDOF 10
ENDMDL
MODEL 2
REMARK VINA RESULT:    -4.424      3.648      7.147
REMARK INTER + INTRA:          -7.837
REMARK INTER:                  -7.132
REMARK INTRA:                  -0.705
REMARK UNBOUND:                -0.827
REMARK SMILES CCCCCCCCCCCC(=O)[O-]
REMARK SMILES IDX 7 1 8 2 9 3 10 4 11 5 12 6 13 7 14 8 6 9 5 10 4 11 3 12 2 13
REMARK SMILES IDX 1 14
REMARK H PARENT
REMARK Flexibility Score: inf
ROOT
ATOM      1  C   UNL     1      16.131  20.336 -12.197  1.00  0.00     0.000 C 
ENDROOT
BRANCH   1   2
ATOM      2  C   UNL     1      15.065  21.406 -11.919  1.00  0.00     0.000 C 
BRANCH   2   3
ATOM      3  C   UNL     1      15.325  22.715 -12.681  1.00  0.00     0.000 C 
BRANCH   3   4
ATOM      4  C   UNL     1      14.013  23.312 -13.211  1.00  0.00     0.006 C 
BRANCH   4   5
ATOM      5  C   UNL     1      12.789  22.483 -12.799  1.00  0.00     0.053 C 
BRANCH   5   6
ATOM      6  C   UNL     1      11.817  23.288 -11.993  1.00  0.00     0.041 C 
ATOM      7  O   UNL     1      12.227  24.216 -11.248  1.00  0.00    -0.550 OA
ATOM      8  O   UNL     1      10.454  23.036 -12.092  1.00  0.00    -0.550 OA
ENDBRANCH   5   6
ENDBRANCH   4   5
ENDBRANCH   3   4
ENDBRANCH   2   3
ENDBRANCH   1   2
BRANCH   1   9
ATOM      9  C   UNL     1      17.337  20.888 -12.974  1.00  0.00     0.000 C 
BRANCH   9  10
ATOM     10  C   UNL     1      17.909  19.826 -13.924  1.00  0.00    -0.000 C 
BRANCH  10  11
ATOM     11  C   UNL     1      19.223  19.210 -13.412  1.00  0.00    -0.000 C 
BRANCH  11  12
ATOM     12  C   UNL     1      19.076  17.844 -12.711  1.00  0.00    -0.000 C 
BRANCH  12  13
ATOM     13  C   UNL     1      18.840  17.918 -11.192  1.00  0.00    -0.003 C 
ATOM     14  C   UNL     1      20.119  18.195 -10.404  1.00  0.00     0.004 C 
ENDBRANCH  12  13
ENDBRANCH  11  12
ENDBRANCH  10  11
ENDBRANCH   9  10
ENDBRANCH   1   9
TORSDOF 10
ENDMDL
MODEL 3
REMARK VINA RESULT:    -4.324      1.448      2.579
REMARK INTER + INTRA:          -7.679
REMARK INTER:                  -6.814
REMARK INTRA:                  -0.865
REMARK UNBOUND:                -0.827
REMARK SMILES CCCCCCCCCCCC(=O)[O-]
REMARK SMILES IDX 7 1 8 2 9 3 10 4 11 5 12 6 13 7 14 8 6 9 5 10 4 11 3 12 2 13
REMARK SMILES IDX 1 14
REMARK H PARENT
REMARK Flexibility Score: inf
ROOT
ATOM      1  C   UNL     1      17.652  19.000 -13.933  1.00  0.00     0.000 C 
ENDROOT
BRANCH   1   2
ATOM      2  C   UNL     1      18.815  18.003 -14.052  1.00  0.00     0.000 C 
BRANCH   2   3
ATOM      3  C   UNL     1      19.798  18.097 -12.876  1.00  0.00     0.000 C 
BRANCH   3   4
ATOM      4  C   UNL     1      19.095  17.787 -11.546  1.00  0.00     0.006 C 
BRANCH   4   5
ATOM      5  C   UNL     1      19.938  18.202 -10.332  1.00  0.00     0.053 C 
BRANCH   5   6
ATOM      6  C   UNL     1      21.065  17.248 -10.084  1.00  0.00     0.041 C 
ATOM      7  O   UNL     1      20.840  16.121  -9.570  1.00  0.00    -0.550 OA
ATOM      8  O   UNL     1      22.361  17.591 -10.453  1.00  0.00    -0.550 OA
ENDBRANCH   5   6
ENDBRANCH   4   5
ENDBRANCH   3   4
ENDBRANCH   2   3
ENDBRANCH   1   2
BRANCH   1   9
ATOM      9  C   UNL     1      18.127  20.453 -13.780  1.00  0.00     0.000 C 
BRANCH   9  10
ATOM     10  C   UNL     1      17.441  21.131 -12.586  1.00  0.00    -0.000 C 
BRANCH  10  11
ATOM     11  C   UNL     1      16.165  20.398 -12.133  1.00  0.00    -0.000 C 
BRANCH  11  12
ATOM     12  C   UNL     1      14.927  21.298 -11.941  1.00  0.00    -0.000 C 
BRANCH  12  13
ATOM     13  C   UNL     1      15.036  22.694 -12.579  1.00  0.00    -0.003 C 
ATOM     14  C   UNL     1      13.869  23.610 -12.210  1.00  0.00     0.004 C 
ENDBRANCH  12  13
ENDBRANCH  11  12
ENDBRANCH  10  11
ENDBRANCH   9  10
ENDBRANCH   1   9
TORSDOF 10
ENDMDL
MODEL 4
REMARK VINA RESULT:    -4.287      3.426      7.099
REMARK INTER + INTRA:          -7.621
REMARK INTER:                  -6.944
REMARK INTRA:                  -0.677
REMARK UNBOUND:                -0.827
REMARK SMILES CCCCCCCCCCCC(=O)[O-]
REMARK SMILES IDX 7 1 8 2 9 3 10 4 11 5 12 6 13 7 14 8 6 9 5 10 4 11 3 12 2 13
REMARK SMILES IDX 1 14
REMARK H PARENT
REMARK Flexibility Score: inf
ROOT
ATOM      1  C   UNL     1      17.340  19.411 -13.578  1.00  0.00     0.000 C 
ENDROOT
BRANCH   1   2
ATOM      2  C   UNL     1      16.739  20.120 -12.356  1.00  0.00     0.000 C 
BRANCH   2   3
ATOM      3  C   UNL     1      16.387  21.589 -12.637  1.00  0.00     0.000 C 
BRANCH   3   4
ATOM      4  C   UNL     1      14.971  21.920 -12.143  1.00  0.00     0.006 C 
BRANCH   4   5
ATOM      5  C   UNL     1      14.320  23.046 -12.957  1.00  0.00     0.053 C 
BRANCH   5   6
ATOM      6  C   UNL     1      13.089  23.577 -12.287  1.00  0.00     0.041 C 
ATOM      7  O   UNL     1      12.884  24.818 -12.231  1.00  0.00    -0.550 OA
ATOM      8  O   UNL     1      12.152  22.699 -11.756  1.00  0.00    -0.550 OA
ENDBRANCH   5   6
ENDBRANCH   4   5
ENDBRANCH   3   4
ENDBRANCH   2   3
ENDBRANCH   1   2
BRANCH   1   9
ATOM      9  C   UNL     1      18.754  19.906 -13.916  1.00  0.00     0.000 C 
BRANCH   9  10
ATOM     10  C   UNL     1      19.817  18.931 -13.389  1.00  0.00    -0.000 C 
BRANCH  10  11
ATOM     11  C   UNL     1      19.266  17.512 -13.158  1.00  0.00    -0.000 C 
BRANCH  11  12
ATOM     12  C   UNL     1      19.367  16.999 -11.708  1.00  0.00    -0.000 C 
BRANCH  12  13
ATOM     13  C   UNL     1      19.681  18.081 -10.658  1.00  0.00    -0.003 C 
ATOM     14  C   UNL     1      21.031  17.873  -9.974  1.00  0.00     0.004 C 
ENDBRANCH  12  13
ENDBRANCH  11  12
ENDBRANCH  10  11
ENDBRANCH   9  10
ENDBRANCH   1   9
TORSDOF 10
ENDMDL
MODEL 5
REMARK VINA RESULT:    -4.257      1.217      2.170
REMARK INTER + INTRA:          -7.572
REMARK INTER:                  -6.832
REMARK INTRA:                  -0.740
REMARK UNBOUND:                -0.827
REMARK SMILES CCCCCCCCCCCC(=O)[O-]
REMARK SMILES IDX 7 1 8 2 9 3 10 4 11 5 12 6 13 7 14 8 6 9 5 10 4 11 3 12 2 13
REMARK SMILES IDX 1 14
REMARK H PARENT
REMARK Flexibility Score: inf
ROOT
ATOM      1  C   UNL     1      14.906  21.510 -11.870  1.00  0.00     0.000 C 
ENDROOT
BRANCH   1   2
ATOM      2  C   UNL     1      15.906  20.372 -12.122  1.00  0.00     0.000 C 
BRANCH   2   3
ATOM      3  C   UNL     1      17.137  20.832 -12.919  1.00  0.00     0.000 C 
BRANCH   3   4
ATOM      4  C   UNL     1      17.875  19.632 -13.531  1.00  0.00     0.006 C 
BRANCH   4   5
ATOM      5  C   UNL     1      19.168  19.298 -12.775  1.00  0.00     0.053 C 
BRANCH   5   6
ATOM      6  C   UNL     1      18.938  18.275 -11.704  1.00  0.00     0.041 C 
ATOM      7  O   UNL     1      18.529  18.629 -10.567  1.00  0.00    -0.550 OA
ATOM      8  O   UNL     1      19.145  16.928 -11.973  1.00  0.00    -0.550 OA
ENDBRANCH   5   6
ENDBRANCH   4   5
ENDBRANCH   3   4
ENDBRANCH   2   3
ENDBRANCH   1   2
BRANCH   1   9
ATOM      9  C   UNL     1      15.228  22.775 -12.680  1.00  0.00     0.000 C 
BRANCH   9  10
ATOM     10  C   UNL     1      14.006  23.232 -13.491  1.00  0.00    -0.000 C 
BRANCH  10  11
ATOM     11  C   UNL     1      12.685  22.636 -12.971  1.00  0.00    -0.000 C 
BRANCH  11  12
ATOM     12  C   UNL     1      11.821  23.596 -12.129  1.00  0.00    -0.000 C 
BRANCH  12  13
ATOM     13  C   UNL     1      12.257  25.072 -12.178  1.00  0.00    -0.003 C 
ATOM     14  C   UNL     1      12.747  25.593 -10.828  1.00  0.00     0.004 C 
ENDBRANCH  12  13
ENDBRANCH  11  12
ENDBRANCH  10  11
ENDBRANCH   9  10
ENDBRANCH   1   9
TORSDOF 10
ENDMDL
MODEL 6
REMARK VINA RESULT:    -4.172     10.833     13.128
REMARK INTER + INTRA:          -7.437
REMARK INTER:                  -6.403
REMARK INTRA:                  -1.034
REMARK UNBOUND:                -0.827
REMARK SMILES CCCCCCCCCCCC(=O)[O-]
REMARK SMILES IDX 7 1 8 2 9 3 10 4 11 5 12 6 13 7 14 8 6 9 5 10 4 11 3 12 2 13
REMARK SMILES IDX 1 14
REMARK H PARENT
REMARK Flexibility Score: inf
ROOT
ATOM      1  C   UNL     1       7.473  16.119  -8.368  1.00  0.00     0.000 C 
ENDROOT
BRANCH   1   2
ATOM      2  C   UNL     1       6.613  14.894  -8.023  1.00  0.00     0.000 C 
BRANCH   2   3
ATOM      3  C   UNL     1       5.306  15.270  -7.308  1.00  0.00     0.000 C 
BRANCH   3   4
ATOM      4  C   UNL     1       4.973  16.755  -7.517  1.00  0.00     0.006 C 
BRANCH   4   5
ATOM      5  C   UNL     1       4.563  17.448  -6.211  1.00  0.00     0.053 C 
BRANCH   5   6
ATOM      6  C   UNL     1       5.742  18.037  -5.499  1.00  0.00     0.041 C 
ATOM      7  O   UNL     1       5.901  17.839  -4.266  1.00  0.00    -0.550 OA
ATOM      8  O   UNL     1       6.683  18.777  -6.205  1.00  0.00    -0.550 OA
ENDBRANCH   5   6
ENDBRANCH   4   5
ENDBRANCH   3   4
ENDBRANCH   2   3
ENDBRANCH   1   2
BRANCH   1   9
ATOM      9  C   UNL     1       8.327  15.910  -9.628  1.00  0.00     0.000 C 
BRANCH   9  10
ATOM     10  C   UNL     1       8.159  14.485 -10.173  1.00  0.00    -0.000 C 
BRANCH  10  11
ATOM     11  C   UNL     1       9.451  13.653 -10.082  1.00  0.00    -0.000 C 
BRANCH  11  12
ATOM     12  C   UNL     1       9.289  12.261  -9.438  1.00  0.00    -0.000 C 
BRANCH  12  13
ATOM     13  C   UNL     1       9.314  12.253  -7.899  1.00  0.00    -0.003 C 
ATOM     14  C   UNL     1       8.076  11.599  -7.287  1.00  0.00     0.004 C 
ENDBRANCH  12  13
ENDBRANCH  11  12
ENDBRANCH  10  11
ENDBRANCH   9  10
ENDBRANCH   1   9
TORSDOF 10
ENDMDL
MODEL 7
REMARK VINA RESULT:    -4.142     11.197     13.263
REMARK INTER + INTRA:          -7.390
REMARK INTER:                  -6.032
REMARK INTRA:                  -1.359
REMARK UNBOUND:                -0.827
REMARK SMILES CCCCCCCCCCCC(=O)[O-]
REMARK SMILES IDX 7 1 8 2 9 3 10 4 11 5 12 6 13 7 14 8 6 9 5 10 4 11 3 12 2 13
REMARK SMILES IDX 1 14
REMARK H PARENT
REMARK Flexibility Score: inf
ROOT
ATOM      1  C   UNL     1       4.784  14.935 -10.357  1.00  0.00     0.000 C 
ENDROOT
BRANCH   1   2
ATOM      2  C   UNL     1       4.272  14.093  -9.179  1.00  0.00     0.000 C 
BRANCH   2   3
ATOM      3  C   UNL     1       4.555  14.746  -7.817  1.00  0.00     0.000 C 
BRANCH   3   4
ATOM      4  C   UNL     1       4.910  16.231  -7.983  1.00  0.00     0.006 C 
BRANCH   4   5
ATOM      5  C   UNL     1       4.866  16.991  -6.652  1.00  0.00     0.053 C 
BRANCH   5   6
ATOM      6  C   UNL     1       6.205  17.556  -6.288  1.00  0.00     0.041 C 
ATOM      7  O   UNL     1       6.290  18.696  -5.761  1.00  0.00    -0.550 OA
ATOM      8  O   UNL     1       7.357  16.807  -6.499  1.00  0.00    -0.550 OA
ENDBRANCH   5   6
ENDBRANCH   4   5
ENDBRANCH   3   4
ENDBRANCH   2   3
ENDBRANCH   1   2
BRANCH   1   9
ATOM      9  C   UNL     1       5.395  14.080 -11.478  1.00  0.00     0.000 C 
BRANCH   9  10
ATOM     10  C   UNL     1       6.884  13.812 -11.213  1.00  0.00    -0.000 C 
BRANCH  10  11
ATOM     11  C   UNL     1       7.614  15.029 -10.617  1.00  0.00    -0.000 C 
BRANCH  11  12
ATOM     12  C   UNL     1       8.210  14.811  -9.212  1.00  0.00    -0.000 C 
BRANCH  12  13
ATOM     13  C   UNL     1       8.528  13.346  -8.863  1.00  0.00    -0.003 C 
ATOM     14  C   UNL     1       7.648  12.796  -7.741  1.00  0.00     0.004 C 
ENDBRANCH  12  13
ENDBRANCH  11  12
ENDBRANCH  10  11
ENDBRANCH   9  10
ENDBRANCH   1   9
TORSDOF 10
ENDMDL
MODEL 8
REMARK VINA RESULT:    -4.108      3.020      7.436
REMARK INTER + INTRA:          -7.336
REMARK INTER:                  -6.296
REMARK INTRA:                  -1.041
REMARK UNBOUND:                -0.827
REMARK SMILES CCCCCCCCCCCC(=O)[O-]
REMARK SMILES IDX 7 1 8 2 9 3 10 4 11 5 12 6 13 7 14 8 6 9 5 10 4 11 3 12 2 13
REMARK SMILES IDX 1 14
REMARK H PARENT
REMARK Flexibility Score: inf
ROOT
ATOM      1  C   UNL     1      19.305  17.125 -11.658  1.00  0.00     0.000 C 
ENDROOT
BRANCH   1   2
ATOM      2  C   UNL     1      19.084  17.558 -13.115  1.00  0.00     0.000 C 
BRANCH   2   3
ATOM      3  C   UNL     1      19.916  18.792 -13.499  1.00  0.00     0.000 C 
BRANCH   3   4
ATOM      4  C   UNL     1      19.009  19.946 -13.955  1.00  0.00     0.006 C 
BRANCH   4   5
ATOM      5  C   UNL     1      17.527  19.663 -13.680  1.00  0.00     0.053 C 
BRANCH   5   6
ATOM      6  C   UNL     1      16.976  20.560 -12.615  1.00  0.00     0.041 C 
ATOM      7  O   UNL     1      16.921  20.166 -11.420  1.00  0.00    -0.550 OA
ATOM      8  O   UNL     1      16.555  21.845 -12.936  1.00  0.00    -0.550 OA
ENDBRANCH   5   6
ENDBRANCH   4   5
ENDBRANCH   3   4
ENDBRANCH   2   3
ENDBRANCH   1   2
BRANCH   1   9
ATOM      9  C   UNL     1      19.877  18.251 -10.784  1.00  0.00     0.000 C 
BRANCH   9  10
ATOM     10  C   UNL     1      21.051  17.742  -9.934  1.00  0.00    -0.000 C 
BRANCH  10  11
ATOM     11  C   UNL     1      22.223  17.220 -10.784  1.00  0.00    -0.000 C 
BRANCH  11  12
ATOM     12  C   UNL     1      22.757  15.832 -10.379  1.00  0.00    -0.000 C 
BRANCH  12  13
ATOM     13  C   UNL     1      21.672  14.783 -10.077  1.00  0.00    -0.003 C 
ATOM     14  C   UNL     1      21.685  14.313  -8.623  1.00  0.00     0.004 C 
ENDBRANCH  12  13
ENDBRANCH  11  12
ENDBRANCH  10  11
ENDBRANCH   9  10
ENDBRANCH   1   9
TORSDOF 10
ENDMDL
MODEL 9
REMARK VINA RESULT:    -4.036      3.010      6.667
REMARK INTER + INTRA:          -7.222
REMARK INTER:                  -6.087
REMARK INTRA:                  -1.135
REMARK UNBOUND:                -0.827
REMARK SMILES CCCCCCCCCCCC(=O)[O-]
REMARK SMILES IDX 7 1 8 2 9 3 10 4 11 5 12 6 13 7 14 8 6 9 5 10 4 11 3 12 2 13
REMARK SMILES IDX 1 14
REMARK H PARENT
REMARK Flexibility Score: inf
ROOT
ATOM      1  C   UNL     1      20.139  18.492 -14.125  1.00  0.00     0.000 C 
ENDROOT
BRANCH   1   2
ATOM      2  C   UNL     1      19.410  19.787 -13.740  1.00  0.00     0.000 C 
BRANCH   2   3
ATOM      3  C   UNL     1      17.911  19.570 -13.482  1.00  0.00     0.000 C 
BRANCH   3   4
ATOM      4  C   UNL     1      17.319  20.730 -12.667  1.00  0.00     0.006 C 
BRANCH   4   5
ATOM      5  C   UNL     1      15.918  20.408 -12.132  1.00  0.00     0.053 C 
BRANCH   5   6
ATOM      6  C   UNL     1      15.042  21.623 -12.102  1.00  0.00     0.041 C 
ATOM      7  O   UNL     1      13.930  21.587 -11.512  1.00  0.00    -0.550 OA
ATOM      8  O   UNL     1      15.468  22.804 -12.696  1.00  0.00    -0.550 OA
ENDBRANCH   5   6
ENDBRANCH   4   5
ENDBRANCH   3   4
ENDBRANCH   2   3
ENDBRANCH   1   2
BRANCH   1   9
ATOM      9  C   UNL     1      19.288  17.236 -13.881  1.00  0.00     0.000 C 
BRANCH   9  10
ATOM     10  C   UNL     1      20.176  16.027 -13.555  1.00  0.00    -0.000 C 
BRANCH  10  11
ATOM     11  C   UNL     1      21.182  16.310 -12.425  1.00  0.00    -0.000 C 
BRANCH  11  12
ATOM     12  C   UNL     1      20.566  16.428 -11.016  1.00  0.00    -0.000 C 
BRANCH  12  13
ATOM     13  C   UNL     1      20.707  17.814 -10.362  1.00  0.00    -0.003 C 
ATOM     14  C   UNL     1      19.376  18.557 -10.249  1.00  0.00     0.004 C 
ENDBRANCH  12  13
ENDBRANCH  11  12
ENDBRANCH  10  11
ENDBRANCH   9  10
ENDBRANCH   1   9
TORSDOF 10
ENDMDL
