MODEL 1
REMARK VINA RESULT:    -7.022      0.000      0.000
REMARK INTER + INTRA:          -8.546
REMARK INTER:                  -8.253
REMARK INTRA:                  -0.293
REMARK UNBOUND:                -0.293
REMARK SMILES O=c1cc(-c2ccc(O)c(O)c2)oc2cc(O)cc(O)c12
REMARK SMILES IDX 4 1 3 2 2 3 1 4 21 5 19 6 18 7 16 8 15 9 14 10 13 11 5 12
REMARK SMILES IDX 6 13 7 14 8 15 12 16 10 17 9 18 11 20 20 22 17 24
REMARK H PARENT 9 19 11 21 20 23 17 25
REMARK Flexibility Score: inf
ROOT
ATOM      1  C   UNL     1      29.220 -36.362  13.392  1.00  0.00     0.138 A 
ATOM      2  C   UNL     1      29.200 -37.069  12.182  1.00  0.00     0.100 A 
ATOM      3  C   UNL     1      28.785 -38.402  12.168  1.00  0.00     0.197 A 
ATOM      4  O   UNL     1      28.837 -39.029  11.079  1.00  0.00    -0.289 OA
ATOM      5  C   UNL     1      28.360 -39.019  13.369  1.00  0.00     0.107 A 
ATOM      6  C   UNL     1      27.878 -40.358  13.469  1.00  0.00     0.134 A 
ATOM      7  C   UNL     1      27.595 -40.898  14.730  1.00  0.00     0.093 A 
ATOM      8  C   UNL     1      27.716 -40.130  15.887  1.00  0.00     0.123 A 
ATOM      9  C   UNL     1      28.135 -38.801  15.796  1.00  0.00     0.094 A 
ATOM     10  C   UNL     1      28.459 -38.245  14.556  1.00  0.00     0.146 A 
ATOM     11  O   UNL     1      28.867 -36.980  14.514  1.00  0.00    -0.456 OA
ENDROOT
BRANCH   1  12
ATOM     12  C   UNL     1      29.650 -34.943  13.463  1.00  0.00     0.021 A 
ATOM     13  C   UNL     1      29.190 -34.031  12.499  1.00  0.00     0.016 A 
ATOM     14  C   UNL     1      29.585 -32.693  12.542  1.00  0.00     0.051 A 
ATOM     15  C   UNL     1      30.454 -32.236  13.538  1.00  0.00     0.157 A 
ATOM     16  C   UNL     1      30.536 -34.487  14.458  1.00  0.00     0.062 A 
ATOM     17  C   UNL     1      30.940 -33.147  14.505  1.00  0.00     0.158 A 
BRANCH  15  18
ATOM     18  O   UNL     1      30.806 -30.886  13.527  1.00  0.00    -0.504 OA
ATOM     19  H   UNL     1      31.421 -30.456  14.204  1.00  0.00     0.293 HD
ENDBRANCH  15  18
BRANCH  17  20
ATOM     20  O   UNL     1      31.823 -32.768  15.519  1.00  0.00    -0.504 OA
ATOM     21  H   UNL     1      32.688 -33.246  15.723  1.00  0.00     0.293 HD
ENDBRANCH  17  20
ENDBRANCH   1  12
BRANCH   6  22
ATOM     22  O   UNL     1      27.639 -41.186  12.368  1.00  0.00    -0.507 OA
ATOM     23  H   UNL     1      26.745 -41.302  11.917  1.00  0.00     0.293 HD
ENDBRANCH   6  22
BRANCH   8  24
ATOM     24  O   UNL     1      27.411 -40.695  17.123  1.00  0.00    -0.508 OA
ATOM     25  H   UNL     1      27.196 -41.682  17.215  1.00  0.00     0.293 HD
ENDBRANCH   8  24
TORSDOF 5
ENDMDL
MODEL 2
REMARK VINA RESULT:    -6.992      2.003      7.266
REMARK INTER + INTRA:          -8.512
REMARK INTER:                  -8.235
REMARK INTRA:                  -0.277
REMARK UNBOUND:                -0.293
REMARK SMILES O=c1cc(-c2ccc(O)c(O)c2)oc2cc(O)cc(O)c12
REMARK SMILES IDX 4 1 3 2 2 3 1 4 21 5 19 6 18 7 16 8 15 9 14 10 13 11 5 12
REMARK SMILES IDX 6 13 7 14 8 15 12 16 10 17 9 18 11 20 20 22 17 24
REMARK H PARENT 9 19 11 21 20 23 17 25
REMARK Flexibility Score: inf
ROOT
ATOM      1  C   UNL     1      29.551 -36.114  13.349  1.00  0.00     0.138 A 
ATOM      2  C   UNL     1      28.824 -34.916  13.335  1.00  0.00     0.100 A 
ATOM      3  C   UNL     1      29.489 -33.708  13.124  1.00  0.00     0.197 A 
ATOM      4  O   UNL     1      28.820 -32.643  13.179  1.00  0.00    -0.289 OA
ATOM      5  C   UNL     1      30.886 -33.704  12.894  1.00  0.00     0.107 A 
ATOM      6  C   UNL     1      31.662 -32.537  12.627  1.00  0.00     0.134 A 
ATOM      7  C   UNL     1      33.056 -32.642  12.531  1.00  0.00     0.093 A 
ATOM      8  C   UNL     1      33.694 -33.878  12.631  1.00  0.00     0.123 A 
ATOM      9  C   UNL     1      32.939 -35.033  12.838  1.00  0.00     0.094 A 
ATOM     10  C   UNL     1      31.551 -34.956  12.974  1.00  0.00     0.146 A 
ATOM     11  O   UNL     1      30.870 -36.078  13.184  1.00  0.00    -0.456 OA
ENDROOT
BRANCH   1  12
ATOM     12  C   UNL     1      28.894 -37.427  13.568  1.00  0.00     0.021 A 
ATOM     13  C   UNL     1      28.209 -37.667  14.770  1.00  0.00     0.016 A 
ATOM     14  C   UNL     1      27.589 -38.895  15.001  1.00  0.00     0.051 A 
ATOM     15  C   UNL     1      27.646 -39.916  14.047  1.00  0.00     0.157 A 
ATOM     16  C   UNL     1      28.965 -38.459  12.612  1.00  0.00     0.062 A 
ATOM     17  C   UNL     1      28.348 -39.696  12.838  1.00  0.00     0.158 A 
BRANCH  15  18
ATOM     18  O   UNL     1      27.001 -41.118  14.338  1.00  0.00    -0.504 OA
ATOM     19  H   UNL     1      27.457 -42.020  14.334  1.00  0.00     0.293 HD
ENDBRANCH  15  18
BRANCH  17  20
ATOM     20  O   UNL     1      28.461 -40.672  11.846  1.00  0.00    -0.504 OA
ATOM     21  H   UNL     1      28.536 -40.470  10.860  1.00  0.00     0.293 HD
ENDBRANCH  17  20
ENDBRANCH   1  12
BRANCH   6  22
ATOM     22  O   UNL     1      31.117 -31.265  12.424  1.00  0.00    -0.507 OA
ATOM     23  H   UNL     1      30.625 -30.975  11.593  1.00  0.00     0.293 HD
ENDBRANCH   6  22
BRANCH   8  24
ATOM     24  O   UNL     1      35.081 -33.946  12.515  1.00  0.00    -0.508 OA
ATOM     25  H   UNL     1      35.571 -33.496  11.750  1.00  0.00     0.293 HD
ENDBRANCH   8  24
TORSDOF 5
ENDMDL
MODEL 3
REMARK VINA RESULT:    -6.460      2.966      7.771
REMARK INTER + INTRA:          -7.886
REMARK INTER:                  -7.590
REMARK INTRA:                  -0.296
REMARK UNBOUND:                -0.293
REMARK SMILES O=c1cc(-c2ccc(O)c(O)c2)oc2cc(O)cc(O)c12
REMARK SMILES IDX 4 1 3 2 2 3 1 4 21 5 19 6 18 7 16 8 15 9 14 10 13 11 5 12
REMARK SMILES IDX 6 13 7 14 8 15 12 16 10 17 9 18 11 20 20 22 17 24
REMARK H PARENT 9 19 11 21 20 23 17 25
REMARK Flexibility Score: inf
ROOT
ATOM      1  C   UNL     1      29.985 -40.206  14.029  1.00  0.00     0.138 A 
ATOM      2  C   UNL     1      31.255 -39.978  14.575  1.00  0.00     0.100 A 
ATOM      3  C   UNL     1      31.878 -38.744  14.382  1.00  0.00     0.197 A 
ATOM      4  O   UNL     1      33.043 -38.589  14.831  1.00  0.00    -0.289 OA
ATOM      5  C   UNL     1      31.209 -37.722  13.665  1.00  0.00     0.107 A 
ATOM      6  C   UNL     1      31.729 -36.412  13.442  1.00  0.00     0.134 A 
ATOM      7  C   UNL     1      31.028 -35.523  12.618  1.00  0.00     0.093 A 
ATOM      8  C   UNL     1      29.799 -35.873  12.060  1.00  0.00     0.123 A 
ATOM      9  C   UNL     1      29.255 -37.133  12.316  1.00  0.00     0.094 A 
ATOM     10  C   UNL     1      29.947 -38.055  13.105  1.00  0.00     0.146 A 
ATOM     11  O   UNL     1      29.402 -39.250  13.313  1.00  0.00    -0.456 OA
ENDROOT
BRANCH   1  12
ATOM     12  C   UNL     1      29.277 -41.499  14.204  1.00  0.00     0.021 A 
ATOM     13  C   UNL     1      27.950 -41.627  13.763  1.00  0.00     0.016 A 
ATOM     14  C   UNL     1      27.262 -42.831  13.921  1.00  0.00     0.051 A 
ATOM     15  C   UNL     1      27.875 -43.929  14.532  1.00  0.00     0.157 A 
ATOM     16  C   UNL     1      29.891 -42.600  14.832  1.00  0.00     0.062 A 
ATOM     17  C   UNL     1      29.206 -43.810  14.998  1.00  0.00     0.158 A 
BRANCH  15  18
ATOM     18  O   UNL     1      27.133 -45.105  14.655  1.00  0.00    -0.504 OA
ATOM     19  H   UNL     1      27.364 -45.970  14.188  1.00  0.00     0.293 HD
ENDBRANCH  15  18
BRANCH  17  20
ATOM     20  O   UNL     1      29.877 -44.858  15.631  1.00  0.00    -0.504 OA
ATOM     21  H   UNL     1      30.386 -45.580  15.143  1.00  0.00     0.293 HD
ENDBRANCH  17  20
ENDBRANCH   1  12
BRANCH   6  22
ATOM     22  O   UNL     1      32.907 -35.930  14.021  1.00  0.00    -0.507 OA
ATOM     23  H   UNL     1      33.232 -36.164  14.946  1.00  0.00     0.293 HD
ENDBRANCH   6  22
BRANCH   8  24
ATOM     24  O   UNL     1      29.122 -34.957  11.258  1.00  0.00    -0.508 OA
ATOM     25  H   UNL     1      28.396 -34.358  11.635  1.00  0.00     0.293 HD
ENDBRANCH   8  24
TORSDOF 5
ENDMDL
MODEL 4
REMARK VINA RESULT:    -6.427      4.027      6.115
REMARK INTER + INTRA:          -7.847
REMARK INTER:                  -7.572
REMARK INTRA:                  -0.275
REMARK UNBOUND:                -0.293
REMARK SMILES O=c1cc(-c2ccc(O)c(O)c2)oc2cc(O)cc(O)c12
REMARK SMILES IDX 4 1 3 2 2 3 1 4 21 5 19 6 18 7 16 8 15 9 14 10 13 11 5 12
REMARK SMILES IDX 6 13 7 14 8 15 12 16 10 17 9 18 11 20 20 22 17 24
REMARK H PARENT 9 19 11 21 20 23 17 25
REMARK Flexibility Score: inf
ROOT
ATOM      1  C   UNL     1      33.436 -34.591  13.706  1.00  0.00     0.138 A 
ATOM      2  C   UNL     1      32.774 -33.402  13.370  1.00  0.00     0.100 A 
ATOM      3  C   UNL     1      31.496 -33.457  12.812  1.00  0.00     0.197 A 
ATOM      4  O   UNL     1      30.953 -32.377  12.464  1.00  0.00    -0.289 OA
ATOM      5  C   UNL     1      30.866 -34.710  12.618  1.00  0.00     0.107 A 
ATOM      6  C   UNL     1      29.551 -34.886  12.095  1.00  0.00     0.134 A 
ATOM      7  C   UNL     1      29.077 -36.179  11.839  1.00  0.00     0.093 A 
ATOM      8  C   UNL     1      29.846 -37.302  12.143  1.00  0.00     0.123 A 
ATOM      9  C   UNL     1      31.113 -37.143  12.705  1.00  0.00     0.094 A 
ATOM     10  C   UNL     1      31.628 -35.865  12.939  1.00  0.00     0.146 A 
ATOM     11  O   UNL     1      32.845 -35.756  13.463  1.00  0.00    -0.456 OA
ENDROOT
BRANCH   1  12
ATOM     12  C   UNL     1      34.795 -34.590  14.303  1.00  0.00     0.021 A 
ATOM     13  C   UNL     1      35.052 -35.374  15.439  1.00  0.00     0.016 A 
ATOM     14  C   UNL     1      36.320 -35.385  16.022  1.00  0.00     0.051 A 
ATOM     15  C   UNL     1      37.356 -34.608  15.494  1.00  0.00     0.157 A 
ATOM     16  C   UNL     1      35.834 -33.796  13.780  1.00  0.00     0.062 A 
ATOM     17  C   UNL     1      37.108 -33.799  14.361  1.00  0.00     0.158 A 
BRANCH  15  18
ATOM     18  O   UNL     1      38.601 -34.668  16.122  1.00  0.00    -0.504 OA
ATOM     19  H   UNL     1      39.317 -33.961  16.027  1.00  0.00     0.293 HD
ENDBRANCH  15  18
BRANCH  17  20
ATOM     20  O   UNL     1      38.087 -32.985  13.789  1.00  0.00    -0.504 OA
ATOM     21  H   UNL     1      38.614 -32.291  14.298  1.00  0.00     0.293 HD
ENDBRANCH  17  20
ENDBRANCH   1  12
BRANCH   6  22
ATOM     22  O   UNL     1      28.666 -33.835  11.835  1.00  0.00    -0.507 OA
ATOM     23  H   UNL     1      27.675 -33.940  11.679  1.00  0.00     0.293 HD
ENDBRANCH   6  22
BRANCH   8  24
ATOM     24  O   UNL     1      29.336 -38.573  11.889  1.00  0.00    -0.508 OA
ATOM     25  H   UNL     1      29.384 -39.312  12.582  1.00  0.00     0.293 HD
ENDBRANCH   8  24
TORSDOF 5
ENDMDL
MODEL 5
REMARK VINA RESULT:    -6.400      2.233      2.996
REMARK INTER + INTRA:          -7.815
REMARK INTER:                  -7.502
REMARK INTRA:                  -0.314
REMARK UNBOUND:                -0.293
REMARK SMILES O=c1cc(-c2ccc(O)c(O)c2)oc2cc(O)cc(O)c12
REMARK SMILES IDX 4 1 3 2 2 3 1 4 21 5 19 6 18 7 16 8 15 9 14 10 13 11 5 12
REMARK SMILES IDX 6 13 7 14 8 15 12 16 10 17 9 18 11 20 20 22 17 24
REMARK H PARENT 9 19 11 21 20 23 17 25
REMARK Flexibility Score: inf
ROOT
ATOM      1  C   UNL     1      30.717 -36.702  13.721  1.00  0.00     0.138 A 
ATOM      2  C   UNL     1      31.755 -37.307  14.443  1.00  0.00     0.100 A 
ATOM      3  C   UNL     1      31.710 -38.678  14.699  1.00  0.00     0.197 A 
ATOM      4  O   UNL     1      32.624 -39.182  15.402  1.00  0.00    -0.289 OA
ATOM      5  C   UNL     1      30.634 -39.452  14.201  1.00  0.00     0.107 A 
ATOM      6  C   UNL     1      30.504 -40.864  14.365  1.00  0.00     0.134 A 
ATOM      7  C   UNL     1      29.337 -41.504  13.929  1.00  0.00     0.093 A 
ATOM      8  C   UNL     1      28.325 -40.796  13.282  1.00  0.00     0.123 A 
ATOM      9  C   UNL     1      28.465 -39.424  13.068  1.00  0.00     0.094 A 
ATOM     10  C   UNL     1      29.602 -38.751  13.523  1.00  0.00     0.146 A 
ATOM     11  O   UNL     1      29.691 -37.441  13.312  1.00  0.00    -0.456 OA
ENDROOT
BRANCH   1  12
ATOM     12  C   UNL     1      30.716 -35.249  13.420  1.00  0.00     0.021 A 
ATOM     13  C   UNL     1      31.909 -34.518  13.530  1.00  0.00     0.016 A 
ATOM     14  C   UNL     1      31.932 -33.149  13.257  1.00  0.00     0.051 A 
ATOM     15  C   UNL     1      30.765 -32.476  12.882  1.00  0.00     0.157 A 
ATOM     16  C   UNL     1      29.537 -34.569  13.056  1.00  0.00     0.062 A 
ATOM     17  C   UNL     1      29.551 -33.195  12.785  1.00  0.00     0.158 A 
BRANCH  15  18
ATOM     18  O   UNL     1      30.856 -31.108  12.619  1.00  0.00    -0.504 OA
ATOM     19  H   UNL     1      31.100 -30.415  13.312  1.00  0.00     0.293 HD
ENDBRANCH  15  18
BRANCH  17  20
ATOM     20  O   UNL     1      28.343 -32.589  12.431  1.00  0.00    -0.504 OA
ATOM     21  H   UNL     1      27.509 -33.097  12.176  1.00  0.00     0.293 HD
ENDBRANCH  17  20
ENDBRANCH   1  12
BRANCH   6  22
ATOM     22  O   UNL     1      31.493 -41.680  14.921  1.00  0.00    -0.507 OA
ATOM     23  H   UNL     1      32.481 -41.481  14.905  1.00  0.00     0.293 HD
ENDBRANCH   6  22
BRANCH   8  24
ATOM     24  O   UNL     1      27.185 -41.470  12.848  1.00  0.00    -0.508 OA
ATOM     25  H   UNL     1      27.114 -42.480  12.901  1.00  0.00     0.293 HD
ENDBRANCH   8  24
TORSDOF 5
ENDMDL
MODEL 6
REMARK VINA RESULT:    -6.373      3.249      4.799
REMARK INTER + INTRA:          -7.784
REMARK INTER:                  -7.516
REMARK INTRA:                  -0.267
REMARK UNBOUND:                -0.293
REMARK SMILES O=c1cc(-c2ccc(O)c(O)c2)oc2cc(O)cc(O)c12
REMARK SMILES IDX 4 1 3 2 2 3 1 4 21 5 19 6 18 7 16 8 15 9 14 10 13 11 5 12
REMARK SMILES IDX 6 13 7 14 8 15 12 16 10 17 9 18 11 20 20 22 17 24
REMARK H PARENT 9 19 11 21 20 23 17 25
REMARK Flexibility Score: inf
ROOT
ATOM      1  C   UNL     1      32.286 -35.616  13.957  1.00  0.00     0.138 A 
ATOM      2  C   UNL     1      31.409 -35.435  15.036  1.00  0.00     0.100 A 
ATOM      3  C   UNL     1      30.136 -36.004  14.995  1.00  0.00     0.197 A 
ATOM      4  O   UNL     1      29.350 -35.771  15.949  1.00  0.00    -0.289 OA
ATOM      5  C   UNL     1      29.750 -36.785  13.879  1.00  0.00     0.107 A 
ATOM      6  C   UNL     1      28.493 -37.447  13.746  1.00  0.00     0.134 A 
ATOM      7  C   UNL     1      28.179 -38.097  12.545  1.00  0.00     0.093 A 
ATOM      8  C   UNL     1      29.097 -38.160  11.498  1.00  0.00     0.123 A 
ATOM      9  C   UNL     1      30.351 -37.563  11.638  1.00  0.00     0.094 A 
ATOM     10  C   UNL     1      30.681 -36.877  12.810  1.00  0.00     0.146 A 
ATOM     11  O   UNL     1      31.880 -36.309  12.898  1.00  0.00    -0.456 OA
ENDROOT
BRANCH   1  12
ATOM     12  C   UNL     1      33.651 -35.035  13.950  1.00  0.00     0.021 A 
ATOM     13  C   UNL     1      34.006 -34.116  12.949  1.00  0.00     0.016 A 
ATOM     14  C   UNL     1      35.286 -33.559  12.918  1.00  0.00     0.051 A 
ATOM     15  C   UNL     1      36.243 -33.915  13.874  1.00  0.00     0.157 A 
ATOM     16  C   UNL     1      34.619 -35.404  14.904  1.00  0.00     0.062 A 
ATOM     17  C   UNL     1      35.906 -34.853  14.877  1.00  0.00     0.158 A 
BRANCH  15  18
ATOM     18  O   UNL     1      37.502 -33.319  13.789  1.00  0.00    -0.504 OA
ATOM     19  H   UNL     1      37.752 -32.456  14.251  1.00  0.00     0.293 HD
ENDBRANCH  15  18
BRANCH  17  20
ATOM     20  O   UNL     1      36.813 -35.268  15.854  1.00  0.00    -0.504 OA
ATOM     21  H   UNL     1      37.764 -34.936  15.921  1.00  0.00     0.293 HD
ENDBRANCH  17  20
ENDBRANCH   1  12
BRANCH   6  22
ATOM     22  O   UNL     1      27.536 -37.518  14.762  1.00  0.00    -0.507 OA
ATOM     23  H   UNL     1      27.733 -37.424  15.747  1.00  0.00     0.293 HD
ENDBRANCH   6  22
BRANCH   8  24
ATOM     24  O   UNL     1      28.756 -38.828  10.324  1.00  0.00    -0.508 OA
ATOM     25  H   UNL     1      29.127 -38.543   9.425  1.00  0.00     0.293 HD
ENDBRANCH   8  24
TORSDOF 5
ENDMDL
MODEL 7
REMARK VINA RESULT:    -6.358      3.190      5.175
REMARK INTER + INTRA:          -7.766
REMARK INTER:                  -7.466
REMARK INTRA:                  -0.300
REMARK UNBOUND:                -0.293
REMARK SMILES O=c1cc(-c2ccc(O)c(O)c2)oc2cc(O)cc(O)c12
REMARK SMILES IDX 4 1 3 2 2 3 1 4 21 5 19 6 18 7 16 8 15 9 14 10 13 11 5 12
REMARK SMILES IDX 6 13 7 14 8 15 12 16 10 17 9 18 11 20 20 22 17 24
REMARK H PARENT 9 19 11 21 20 23 17 25
REMARK Flexibility Score: inf
ROOT
ATOM      1  C   UNL     1      28.660 -40.855  14.052  1.00  0.00     0.138 A 
ATOM      2  C   UNL     1      27.324 -41.094  14.403  1.00  0.00     0.100 A 
ATOM      3  C   UNL     1      26.961 -42.332  14.936  1.00  0.00     0.197 A 
ATOM      4  O   UNL     1      25.745 -42.539  15.183  1.00  0.00    -0.289 OA
ATOM      5  C   UNL     1      27.948 -43.325  15.146  1.00  0.00     0.107 A 
ATOM      6  C   UNL     1      27.701 -44.608  15.719  1.00  0.00     0.134 A 
ATOM      7  C   UNL     1      28.735 -45.551  15.771  1.00  0.00     0.093 A 
ATOM      8  C   UNL     1      30.020 -45.238  15.326  1.00  0.00     0.123 A 
ATOM      9  C   UNL     1      30.286 -43.967  14.813  1.00  0.00     0.094 A 
ATOM     10  C   UNL     1      29.267 -43.017  14.716  1.00  0.00     0.146 A 
ATOM     11  O   UNL     1      29.557 -41.823  14.209  1.00  0.00    -0.456 OA
ENDROOT
BRANCH   1  12
ATOM     12  C   UNL     1      29.101 -39.557  13.483  1.00  0.00     0.021 A 
ATOM     13  C   UNL     1      28.255 -38.864  12.602  1.00  0.00     0.016 A 
ATOM     14  C   UNL     1      28.649 -37.645  12.050  1.00  0.00     0.051 A 
ATOM     15  C   UNL     1      29.899 -37.094  12.353  1.00  0.00     0.157 A 
ATOM     16  C   UNL     1      30.364 -39.010  13.778  1.00  0.00     0.062 A 
ATOM     17  C   UNL     1      30.769 -37.789  13.225  1.00  0.00     0.158 A 
BRANCH  15  18
ATOM     18  O   UNL     1      30.230 -35.869  11.772  1.00  0.00    -0.504 OA
ATOM     19  H   UNL     1      30.727 -35.775  10.897  1.00  0.00     0.293 HD
ENDBRANCH  15  18
BRANCH  17  20
ATOM     20  O   UNL     1      32.037 -37.310  13.561  1.00  0.00    -0.504 OA
ATOM     21  H   UNL     1      32.277 -36.930  14.466  1.00  0.00     0.293 HD
ENDBRANCH  17  20
ENDBRANCH   1  12
BRANCH   6  22
ATOM     22  O   UNL     1      26.476 -44.994  16.271  1.00  0.00    -0.507 OA
ATOM     23  H   UNL     1      25.735 -45.451  15.764  1.00  0.00     0.293 HD
ENDBRANCH   6  22
BRANCH   8  24
ATOM     24  O   UNL     1      31.027 -46.196  15.408  1.00  0.00    -0.508 OA
ATOM     25  H   UNL     1      31.455 -46.443  16.294  1.00  0.00     0.293 HD
ENDBRANCH   8  24
TORSDOF 5
ENDMDL
MODEL 8
REMARK VINA RESULT:    -6.217      2.153      7.352
REMARK INTER + INTRA:          -7.601
REMARK INTER:                  -7.284
REMARK INTRA:                  -0.317
REMARK UNBOUND:                -0.293
REMARK SMILES O=c1cc(-c2ccc(O)c(O)c2)oc2cc(O)cc(O)c12
REMARK SMILES IDX 4 1 3 2 2 3 1 4 21 5 19 6 18 7 16 8 15 9 14 10 13 11 5 12
REMARK SMILES IDX 6 13 7 14 8 15 12 16 10 17 9 18 11 20 20 22 17 24
REMARK H PARENT 9 19 11 21 20 23 17 25
REMARK Flexibility Score: inf
ROOT
ATOM      1  C   UNL     1      30.493 -38.169  14.029  1.00  0.00     0.138 A 
ATOM      2  C   UNL     1      31.772 -37.805  14.472  1.00  0.00     0.100 A 
ATOM      3  C   UNL     1      32.174 -36.471  14.404  1.00  0.00     0.197 A 
ATOM      4  O   UNL     1      33.349 -36.185  14.751  1.00  0.00    -0.289 OA
ATOM      5  C   UNL     1      31.276 -35.490  13.916  1.00  0.00     0.107 A 
ATOM      6  C   UNL     1      31.562 -34.094  13.839  1.00  0.00     0.134 A 
ATOM      7  C   UNL     1      30.639 -33.234  13.231  1.00  0.00     0.093 A 
ATOM      8  C   UNL     1      29.418 -33.708  12.753  1.00  0.00     0.123 A 
ATOM      9  C   UNL     1      29.105 -35.063  12.873  1.00  0.00     0.094 A 
ATOM     10  C   UNL     1      30.019 -35.952  13.442  1.00  0.00     0.146 A 
ATOM     11  O   UNL     1      29.690 -37.237  13.525  1.00  0.00    -0.456 OA
ENDROOT
BRANCH   1  12
ATOM     12  C   UNL     1      30.015 -39.573  14.080  1.00  0.00     0.021 A 
ATOM     13  C   UNL     1      30.777 -40.539  14.756  1.00  0.00     0.016 A 
ATOM     14  C   UNL     1      30.351 -41.867  14.813  1.00  0.00     0.051 A 
ATOM     15  C   UNL     1      29.163 -42.264  14.190  1.00  0.00     0.157 A 
ATOM     16  C   UNL     1      28.826 -39.974  13.441  1.00  0.00     0.062 A 
ATOM     17  C   UNL     1      28.393 -41.305  13.491  1.00  0.00     0.158 A 
BRANCH  15  18
ATOM     18  O   UNL     1      28.791 -43.605  14.290  1.00  0.00    -0.504 OA
ATOM     19  H   UNL     1      28.139 -44.059  13.665  1.00  0.00     0.293 HD
ENDBRANCH  15  18
BRANCH  17  20
ATOM     20  O   UNL     1      27.206 -41.629  12.832  1.00  0.00    -0.504 OA
ATOM     21  H   UNL     1      26.285 -41.478  13.217  1.00  0.00     0.293 HD
ENDBRANCH  17  20
ENDBRANCH   1  12
BRANCH   6  22
ATOM     22  O   UNL     1      32.716 -33.502  14.362  1.00  0.00    -0.507 OA
ATOM     23  H   UNL     1      32.764 -32.569  14.739  1.00  0.00     0.293 HD
ENDBRANCH   6  22
BRANCH   8  24
ATOM     24  O   UNL     1      28.518 -32.820  12.168  1.00  0.00    -0.508 OA
ATOM     25  H   UNL     1      27.715 -33.148  11.643  1.00  0.00     0.293 HD
ENDBRANCH   8  24
TORSDOF 5
ENDMDL
MODEL 9
REMARK VINA RESULT:    -6.110      4.662      6.598
REMARK INTER + INTRA:          -7.475
REMARK INTER:                  -7.210
REMARK INTRA:                  -0.264
REMARK UNBOUND:                -0.293
REMARK SMILES O=c1cc(-c2ccc(O)c(O)c2)oc2cc(O)cc(O)c12
REMARK SMILES IDX 4 1 3 2 2 3 1 4 21 5 19 6 18 7 16 8 15 9 14 10 13 11 5 12
REMARK SMILES IDX 6 13 7 14 8 15 12 16 10 17 9 18 11 20 20 22 17 24
REMARK H PARENT 9 19 11 21 20 23 17 25
REMARK Flexibility Score: inf
ROOT
ATOM      1  C   UNL     1      33.585 -34.362  14.070  1.00  0.00     0.138 A 
ATOM      2  C   UNL     1      33.233 -35.007  12.877  1.00  0.00     0.100 A 
ATOM      3  C   UNL     1      31.922 -34.920  12.406  1.00  0.00     0.197 A 
ATOM      4  O   UNL     1      31.620 -35.561  11.366  1.00  0.00    -0.289 OA
ATOM      5  C   UNL     1      30.967 -34.156  13.119  1.00  0.00     0.107 A 
ATOM      6  C   UNL     1      29.613 -33.964  12.713  1.00  0.00     0.134 A 
ATOM      7  C   UNL     1      28.728 -33.283  13.560  1.00  0.00     0.093 A 
ATOM      8  C   UNL     1      29.162 -32.737  14.767  1.00  0.00     0.123 A 
ATOM      9  C   UNL     1      30.498 -32.873  15.149  1.00  0.00     0.094 A 
ATOM     10  C   UNL     1      31.396 -33.577  14.343  1.00  0.00     0.146 A 
ATOM     11  O   UNL     1      32.657 -33.696  14.749  1.00  0.00    -0.456 OA
ENDROOT
BRANCH   1  12
ATOM     12  C   UNL     1      34.964 -34.420  14.616  1.00  0.00     0.021 A 
ATOM     13  C   UNL     1      35.223 -35.187  15.763  1.00  0.00     0.016 A 
ATOM     14  C   UNL     1      36.510 -35.253  16.298  1.00  0.00     0.051 A 
ATOM     15  C   UNL     1      37.565 -34.548  15.710  1.00  0.00     0.157 A 
ATOM     16  C   UNL     1      36.023 -33.699  14.031  1.00  0.00     0.062 A 
ATOM     17  C   UNL     1      37.317 -33.757  14.564  1.00  0.00     0.158 A 
BRANCH  15  18
ATOM     18  O   UNL     1      38.829 -34.661  16.291  1.00  0.00    -0.504 OA
ATOM     19  H   UNL     1      39.055 -34.334  17.220  1.00  0.00     0.293 HD
ENDBRANCH  15  18
BRANCH  17  20
ATOM     20  O   UNL     1      38.316 -33.013  13.932  1.00  0.00    -0.504 OA
ATOM     21  H   UNL     1      38.277 -32.014  13.798  1.00  0.00     0.293 HD
ENDBRANCH  17  20
ENDBRANCH   1  12
BRANCH   6  22
ATOM     22  O   UNL     1      29.096 -34.394  11.487  1.00  0.00    -0.507 OA
ATOM     23  H   UNL     1      29.639 -34.814  10.748  1.00  0.00     0.293 HD
ENDBRANCH   6  22
BRANCH   8  24
ATOM     24  O   UNL     1      28.258 -32.054  15.577  1.00  0.00    -0.508 OA
ATOM     25  H   UNL     1      27.777 -31.223  15.250  1.00  0.00     0.293 HD
ENDBRANCH   8  24
TORSDOF 5
ENDMDL
