MODEL 1
REMARK VINA RESULT:    -4.223      0.000      0.000
REMARK INTER + INTRA:         -13.733
REMARK INTER:                  -9.654
REMARK INTRA:                  -4.079
REMARK UNBOUND:                -4.079
REMARK SMILES CCCCCCCCCCCCCCCCCCCCCCCC(=O)[O-]
REMARK SMILES IDX 13 1 14 2 15 3 16 4 17 5 18 6 19 7 20 8 21 9 22 10 23 11
REMARK SMILES IDX 24 12 25 13 26 14 12 15 11 16 10 17 9 18 8 19 7 20 6 21 5 22
REMARK SMILES IDX 4 23 3 24 2 25 1 26
REMARK H PARENT
REMARK Flexibility Score: inf
ROOT
ATOM      1  C   UNL     1       5.513 -21.739  -5.169  1.00  0.00     0.000 C 
ENDROOT
BRANCH   1   2
ATOM      2  C   UNL     1       5.432 -21.650  -6.701  1.00  0.00     0.000 C 
BRANCH   2   3
ATOM      3  C   UNL     1       6.335 -20.547  -7.283  1.00  0.00     0.000 C 
BRANCH   3   4
ATOM      4  C   UNL     1       5.557 -19.265  -7.620  1.00  0.00     0.000 C 
BRANCH   4   5
ATOM      5  C   UNL     1       4.059 -19.379  -7.299  1.00  0.00     0.000 C 
BRANCH   5   6
ATOM      6  C   UNL     1       3.628 -18.294  -6.299  1.00  0.00     0.000 C 
BRANCH   6   7
ATOM      7  C   UNL     1       4.800 -17.405  -5.853  1.00  0.00     0.000 C 
BRANCH   7   8
ATOM      8  C   UNL     1       4.370 -16.320  -4.851  1.00  0.00     0.000 C 
BRANCH   8   9
ATOM      9  C   UNL     1       2.870 -15.993  -4.951  1.00  0.00     0.000 C 
BRANCH   9  10
ATOM     10  C   UNL     1       2.291 -15.490  -3.620  1.00  0.00     0.006 C 
BRANCH  10  11
ATOM     11  C   UNL     1       3.399 -15.258  -2.589  1.00  0.00     0.053 C 
BRANCH  11  12
ATOM     12  C   UNL     1       2.824 -15.213  -1.208  1.00  0.00     0.041 C 
ATOM     13  O   UNL     1       3.579 -15.051  -0.212  1.00  0.00    -0.550 OA
ATOM     14  O   UNL     1       1.464 -15.417  -1.015  1.00  0.00    -0.550 OA
ENDBRANCH  11  12
ENDBRANCH  10  11
ENDBRANCH   9  10
ENDBRANCH   8   9
ENDBRANCH   7   8
ENDBRANCH   6   7
ENDBRANCH   5   6
ENDBRANCH   4   5
ENDBRANCH   3   4
ENDBRANCH   2   3
ENDBRANCH   1   2
BRANCH   1  15
ATOM     15  C   UNL     1       6.606 -20.831  -4.582  1.00  0.00     0.000 C 
BRANCH  15  16
ATOM     16  C   UNL     1       6.140 -20.089  -3.318  1.00  0.00     0.000 C 
BRANCH  16  17
ATOM     17  C   UNL     1       4.618 -20.162  -3.117  1.00  0.00     0.000 C 
BRANCH  17  18
ATOM     18  C   UNL     1       4.091 -18.879  -2.457  1.00  0.00    -0.000 C 
BRANCH  18  19
ATOM     19  C   UNL     1       2.571 -18.913  -2.210  1.00  0.00    -0.000 C 
BRANCH  19  20
ATOM     20  C   UNL     1       1.857 -20.182  -2.710  1.00  0.00    -0.000 C 
BRANCH  20  21
ATOM     21  C   UNL     1       0.863 -19.964  -3.867  1.00  0.00    -0.000 C 
BRANCH  21  22
ATOM     22  C   UNL     1       1.246 -20.704  -5.167  1.00  0.00    -0.000 C 
BRANCH  22  23
ATOM     23  C   UNL     1       0.178 -21.724  -5.604  1.00  0.00    -0.000 C 
BRANCH  23  24
ATOM     24  C   UNL     1       0.553 -22.465  -6.901  1.00  0.00    -0.000 C 
BRANCH  24  25
ATOM     25  C   UNL     1       1.665 -21.796  -7.729  1.00  0.00    -0.003 C 
ATOM     26  C   UNL     1       1.127 -20.960  -8.890  1.00  0.00     0.004 C 
ENDBRANCH  24  25
ENDBRANCH  23  24
ENDBRANCH  22  23
ENDBRANCH  21  22
ENDBRANCH  20  21
ENDBRANCH  19  20
ENDBRANCH  18  19
ENDBRANCH  17  18
ENDBRANCH  16  17
ENDBRANCH  15  16
ENDBRANCH   1  15
TORSDOF 22
ENDMDL
MODEL 2
REMARK VINA RESULT:    -4.203      2.795      6.461
REMARK INTER + INTRA:         -13.689
REMARK INTER:                  -9.215
REMARK INTRA:                  -4.474
REMARK UNBOUND:                -4.079
REMARK SMILES CCCCCCCCCCCCCCCCCCCCCCCC(=O)[O-]
REMARK SMILES IDX 13 1 14 2 15 3 16 4 17 5 18 6 19 7 20 8 21 9 22 10 23 11
REMARK SMILES IDX 24 12 25 13 26 14 12 15 11 16 10 17 9 18 8 19 7 20 6 21 5 22
REMARK SMILES IDX 4 23 3 24 2 25 1 26
REMARK H PARENT
REMARK Flexibility Score: inf
ROOT
ATOM      1  C   UNL     1       3.068 -20.097  -3.172  1.00  0.00     0.000 C 
ENDROOT
BRANCH   1   2
ATOM      2  C   UNL     1       4.568 -20.374  -2.983  1.00  0.00     0.000 C 
BRANCH   2   3
ATOM      3  C   UNL     1       5.171 -21.198  -4.134  1.00  0.00     0.000 C 
BRANCH   3   4
ATOM      4  C   UNL     1       6.513 -20.632  -4.625  1.00  0.00     0.000 C 
BRANCH   4   5
ATOM      5  C   UNL     1       7.054 -21.372  -5.858  1.00  0.00     0.000 C 
BRANCH   5   6
ATOM      6  C   UNL     1       6.008 -21.400  -6.983  1.00  0.00     0.000 C 
BRANCH   6   7
ATOM      7  C   UNL     1       5.663 -19.996  -7.502  1.00  0.00     0.000 C 
BRANCH   7   8
ATOM      8  C   UNL     1       4.149 -19.721  -7.502  1.00  0.00     0.000 C 
BRANCH   8   9
ATOM      9  C   UNL     1       3.322 -21.007  -7.337  1.00  0.00     0.000 C 
BRANCH   9  10
ATOM     10  C   UNL     1       1.834 -20.790  -7.650  1.00  0.00     0.006 C 
BRANCH  10  11
ATOM     11  C   UNL     1       1.117 -22.124  -7.875  1.00  0.00     0.053 C 
BRANCH  11  12
ATOM     12  C   UNL     1       0.485 -22.597  -6.604  1.00  0.00     0.041 C 
ATOM     13  O   UNL     1       0.125 -23.799  -6.484  1.00  0.00    -0.550 OA
ATOM     14  O   UNL     1       0.230 -21.696  -5.578  1.00  0.00    -0.550 OA
ENDBRANCH  11  12
ENDBRANCH  10  11
ENDBRANCH   9  10
ENDBRANCH   8   9
ENDBRANCH   7   8
ENDBRANCH   6   7
ENDBRANCH   5   6
ENDBRANCH   4   5
ENDBRANCH   3   4
ENDBRANCH   2   3
ENDBRANCH   1   2
BRANCH   1  15
ATOM     15  C   UNL     1       2.614 -18.803  -2.475  1.00  0.00     0.000 C 
BRANCH  15  16
ATOM     16  C   UNL     1       1.639 -17.981  -3.335  1.00  0.00     0.000 C 
BRANCH  16  17
ATOM     17  C   UNL     1       1.489 -18.542  -4.758  1.00  0.00     0.000 C 
BRANCH  17  18
ATOM     18  C   UNL     1       1.999 -17.535  -5.799  1.00  0.00    -0.000 C 
BRANCH  18  19
ATOM     19  C   UNL     1       2.647 -16.290  -5.164  1.00  0.00    -0.000 C 
BRANCH  19  20
ATOM     20  C   UNL     1       4.157 -16.136  -5.423  1.00  0.00    -0.000 C 
BRANCH  20  21
ATOM     21  C   UNL     1       5.035 -17.285  -4.891  1.00  0.00    -0.000 C 
BRANCH  21  22
ATOM     22  C   UNL     1       6.134 -16.827  -3.908  1.00  0.00    -0.000 C 
BRANCH  22  23
ATOM     23  C   UNL     1       5.649 -16.804  -2.447  1.00  0.00    -0.000 C 
BRANCH  23  24
ATOM     24  C   UNL     1       5.378 -15.380  -1.928  1.00  0.00    -0.000 C 
BRANCH  24  25
ATOM     25  C   UNL     1       3.891 -14.982  -1.882  1.00  0.00    -0.003 C 
ATOM     26  C   UNL     1       3.124 -15.658  -0.746  1.00  0.00     0.004 C 
ENDBRANCH  24  25
ENDBRANCH  23  24
ENDBRANCH  22  23
ENDBRANCH  21  22
ENDBRANCH  20  21
ENDBRANCH  19  20
ENDBRANCH  18  19
ENDBRANCH  17  18
ENDBRANCH  16  17
ENDBRANCH  15  16
ENDBRANCH   1  15
TORSDOF 22
ENDMDL
MODEL 3
REMARK VINA RESULT:    -4.144     12.126     13.915
REMARK INTER + INTRA:         -13.553
REMARK INTER:                 -10.923
REMARK INTRA:                  -2.630
REMARK UNBOUND:                -4.079
REMARK SMILES CCCCCCCCCCCCCCCCCCCCCCCC(=O)[O-]
REMARK SMILES IDX 13 1 14 2 15 3 16 4 17 5 18 6 19 7 20 8 21 9 22 10 23 11
REMARK SMILES IDX 24 12 25 13 26 14 12 15 11 16 10 17 9 18 8 19 7 20 6 21 5 22
REMARK SMILES IDX 4 23 3 24 2 25 1 26
REMARK H PARENT
REMARK Flexibility Score: inf
ROOT
ATOM      1  C   UNL     1      -8.579 -24.594  -1.970  1.00  0.00     0.000 C 
ENDROOT
BRANCH   1   2
ATOM      2  C   UNL     1      -7.468 -23.547  -2.146  1.00  0.00     0.000 C 
BRANCH   2   3
ATOM      3  C   UNL     1      -7.761 -22.234  -1.398  1.00  0.00     0.000 C 
BRANCH   3   4
ATOM      4  C   UNL     1      -9.108 -22.265  -0.659  1.00  0.00     0.000 C 
BRANCH   4   5
ATOM      5  C   UNL     1      -9.322 -21.033   0.234  1.00  0.00     0.000 C 
BRANCH   5   6
ATOM      6  C   UNL     1      -9.133 -19.735  -0.565  1.00  0.00     0.000 C 
BRANCH   6   7
ATOM      7  C   UNL     1      -9.895 -18.550   0.047  1.00  0.00     0.000 C 
BRANCH   7   8
ATOM      8  C   UNL     1     -10.424 -18.852   1.460  1.00  0.00     0.000 C 
BRANCH   8   9
ATOM      9  C   UNL     1      -9.644 -18.096   2.549  1.00  0.00     0.000 C 
BRANCH   9  10
ATOM     10  C   UNL     1      -8.895 -19.045   3.497  1.00  0.00     0.006 C 
BRANCH  10  11
ATOM     11  C   UNL     1      -8.207 -18.268   4.623  1.00  0.00     0.053 C 
BRANCH  11  12
ATOM     12  C   UNL     1      -7.051 -19.050   5.163  1.00  0.00     0.041 C 
ATOM     13  O   UNL     1      -5.958 -19.080   4.536  1.00  0.00    -0.550 OA
ATOM     14  O   UNL     1      -7.200 -19.800   6.322  1.00  0.00    -0.550 OA
ENDBRANCH  11  12
ENDBRANCH  10  11
ENDBRANCH   9  10
ENDBRANCH   8   9
ENDBRANCH   7   8
ENDBRANCH   6   7
ENDBRANCH   5   6
ENDBRANCH   4   5
ENDBRANCH   3   4
ENDBRANCH   2   3
ENDBRANCH   1   2
BRANCH   1  15
ATOM     15  C   UNL     1      -9.196 -25.030  -3.309  1.00  0.00     0.000 C 
BRANCH  15  16
ATOM     16  C   UNL     1      -9.550 -26.527  -3.335  1.00  0.00     0.000 C 
BRANCH  16  17
ATOM     17  C   UNL     1     -10.100 -27.027  -1.990  1.00  0.00     0.000 C 
BRANCH  17  18
ATOM     18  C   UNL     1      -9.242 -28.177  -1.441  1.00  0.00    -0.000 C 
BRANCH  18  19
ATOM     19  C   UNL     1      -8.115 -27.691  -0.510  1.00  0.00    -0.000 C 
BRANCH  19  20
ATOM     20  C   UNL     1      -6.788 -28.463  -0.634  1.00  0.00    -0.000 C 
BRANCH  20  21
ATOM     21  C   UNL     1      -5.570 -27.612  -1.040  1.00  0.00    -0.000 C 
BRANCH  21  22
ATOM     22  C   UNL     1      -5.717 -26.925  -2.414  1.00  0.00    -0.000 C 
BRANCH  22  23
ATOM     23  C   UNL     1      -5.543 -27.904  -3.589  1.00  0.00    -0.000 C 
BRANCH  23  24
ATOM     24  C   UNL     1      -6.843 -28.124  -4.384  1.00  0.00    -0.000 C 
BRANCH  24  25
ATOM     25  C   UNL     1      -7.297 -29.592  -4.486  1.00  0.00    -0.003 C 
ATOM     26  C   UNL     1      -6.663 -30.491  -3.425  1.00  0.00     0.004 C 
ENDBRANCH  24  25
ENDBRANCH  23  24
ENDBRANCH  22  23
ENDBRANCH  21  22
ENDBRANCH  20  21
ENDBRANCH  19  20
ENDBRANCH  18  19
ENDBRANCH  17  18
ENDBRANCH  16  17
ENDBRANCH  15  16
ENDBRANCH   1  15
TORSDOF 22
ENDMDL
MODEL 4
REMARK VINA RESULT:    -4.094      2.273      5.891
REMARK INTER + INTRA:         -13.440
REMARK INTER:                  -8.858
REMARK INTRA:                  -4.582
REMARK UNBOUND:                -4.079
REMARK SMILES CCCCCCCCCCCCCCCCCCCCCCCC(=O)[O-]
REMARK SMILES IDX 13 1 14 2 15 3 16 4 17 5 18 6 19 7 20 8 21 9 22 10 23 11
REMARK SMILES IDX 24 12 25 13 26 14 12 15 11 16 10 17 9 18 8 19 7 20 6 21 5 22
REMARK SMILES IDX 4 23 3 24 2 25 1 26
REMARK H PARENT
REMARK Flexibility Score: inf
ROOT
ATOM      1  C   UNL     1       3.180 -20.628  -8.271  1.00  0.00     0.000 C 
ENDROOT
BRANCH   1   2
ATOM      2  C   UNL     1       1.645 -20.679  -8.219  1.00  0.00     0.000 C 
BRANCH   2   3
ATOM      3  C   UNL     1       1.107 -22.061  -7.807  1.00  0.00     0.000 C 
BRANCH   3   4
ATOM      4  C   UNL     1       0.129 -21.985  -6.624  1.00  0.00     0.000 C 
BRANCH   4   5
ATOM      5  C   UNL     1       0.845 -21.883  -5.268  1.00  0.00     0.000 C 
BRANCH   5   6
ATOM      6  C   UNL     1       0.326 -20.683  -4.462  1.00  0.00     0.000 C 
BRANCH   6   7
ATOM      7  C   UNL     1       1.133 -19.402  -4.725  1.00  0.00     0.000 C 
BRANCH   7   8
ATOM      8  C   UNL     1       1.625 -18.736  -3.427  1.00  0.00     0.000 C 
BRANCH   8   9
ATOM      9  C   UNL     1       2.839 -17.822  -3.663  1.00  0.00     0.000 C 
BRANCH   9  10
ATOM     10  C   UNL     1       3.996 -18.126  -2.699  1.00  0.00     0.006 C 
BRANCH  10  11
ATOM     11  C   UNL     1       4.277 -19.630  -2.633  1.00  0.00     0.053 C 
BRANCH  11  12
ATOM     12  C   UNL     1       5.741 -19.878  -2.444  1.00  0.00     0.041 C 
ATOM     13  O   UNL     1       6.307 -20.827  -3.052  1.00  0.00    -0.550 OA
ATOM     14  O   UNL     1       6.466 -19.105  -1.547  1.00  0.00    -0.550 OA
ENDBRANCH  11  12
ENDBRANCH  10  11
ENDBRANCH   9  10
ENDBRANCH   8   9
ENDBRANCH   7   8
ENDBRANCH   6   7
ENDBRANCH   5   6
ENDBRANCH   4   5
ENDBRANCH   3   4
ENDBRANCH   2   3
ENDBRANCH   1   2
BRANCH   1  15
ATOM     15  C   UNL     1       3.786 -19.866  -7.080  1.00  0.00     0.000 C 
BRANCH  15  16
ATOM     16  C   UNL     1       4.333 -20.809  -5.995  1.00  0.00     0.000 C 
BRANCH  16  17
ATOM     17  C   UNL     1       5.280 -21.877  -6.562  1.00  0.00     0.000 C 
BRANCH  17  18
ATOM     18  C   UNL     1       6.737 -21.390  -6.531  1.00  0.00    -0.000 C 
BRANCH  18  19
ATOM     19  C   UNL     1       7.413 -21.434  -7.914  1.00  0.00    -0.000 C 
BRANCH  19  20
ATOM     20  C   UNL     1       7.902 -20.074  -8.446  1.00  0.00    -0.000 C 
BRANCH  20  21
ATOM     21  C   UNL     1       6.990 -19.415  -9.498  1.00  0.00    -0.000 C 
BRANCH  21  22
ATOM     22  C   UNL     1       6.709 -17.920  -9.233  1.00  0.00    -0.000 C 
BRANCH  22  23
ATOM     23  C   UNL     1       7.273 -17.441  -7.883  1.00  0.00    -0.000 C 
BRANCH  23  24
ATOM     24  C   UNL     1       6.175 -17.141  -6.847  1.00  0.00    -0.000 C 
BRANCH  24  25
ATOM     25  C   UNL     1       6.382 -17.807  -5.474  1.00  0.00    -0.003 C 
ATOM     26  C   UNL     1       7.845 -18.140  -5.185  1.00  0.00     0.004 C 
ENDBRANCH  24  25
ENDBRANCH  23  24
ENDBRANCH  22  23
ENDBRANCH  21  22
ENDBRANCH  20  21
ENDBRANCH  19  20
ENDBRANCH  18  19
ENDBRANCH  17  18
ENDBRANCH  16  17
ENDBRANCH  15  16
ENDBRANCH   1  15
TORSDOF 22
ENDMDL
MODEL 5
REMARK VINA RESULT:    -4.090     11.896     13.891
REMARK INTER + INTRA:         -13.431
REMARK INTER:                 -10.902
REMARK INTRA:                  -2.529
REMARK UNBOUND:                -4.079
REMARK SMILES CCCCCCCCCCCCCCCCCCCCCCCC(=O)[O-]
REMARK SMILES IDX 13 1 14 2 15 3 16 4 17 5 18 6 19 7 20 8 21 9 22 10 23 11
REMARK SMILES IDX 24 12 25 13 26 14 12 15 11 16 10 17 9 18 8 19 7 20 6 21 5 22
REMARK SMILES IDX 4 23 3 24 2 25 1 26
REMARK H PARENT
REMARK Flexibility Score: inf
ROOT
ATOM      1  C   UNL     1     -10.167 -20.113   0.321  1.00  0.00     0.000 C 
ENDROOT
BRANCH   1   2
ATOM      2  C   UNL     1      -9.611 -19.126  -0.719  1.00  0.00     0.000 C 
BRANCH   2   3
ATOM      3  C   UNL     1     -10.699 -18.221  -1.323  1.00  0.00     0.000 C 
BRANCH   3   4
ATOM      4  C   UNL     1     -10.314 -16.733  -1.291  1.00  0.00     0.000 C 
BRANCH   4   5
ATOM      5  C   UNL     1      -8.876 -16.504  -0.800  1.00  0.00     0.000 C 
BRANCH   5   6
ATOM      6  C   UNL     1      -8.868 -15.808   0.569  1.00  0.00     0.000 C 
BRANCH   6   7
ATOM      7  C   UNL     1     -10.273 -15.689   1.178  1.00  0.00     0.000 C 
BRANCH   7   8
ATOM      8  C   UNL     1     -10.428 -16.505   2.474  1.00  0.00     0.000 C 
BRANCH   8   9
ATOM      9  C   UNL     1      -9.271 -17.498   2.680  1.00  0.00     0.000 C 
BRANCH   9  10
ATOM     10  C   UNL     1      -9.596 -18.563   3.738  1.00  0.00     0.006 C 
BRANCH  10  11
ATOM     11  C   UNL     1      -8.443 -19.560   3.889  1.00  0.00     0.053 C 
BRANCH  11  12
ATOM     12  C   UNL     1      -7.443 -19.052   4.879  1.00  0.00     0.041 C 
ATOM     13  O   UNL     1      -7.829 -18.531   5.960  1.00  0.00    -0.550 OA
ATOM     14  O   UNL     1      -6.087 -19.091   4.579  1.00  0.00    -0.550 OA
ENDBRANCH  11  12
ENDBRANCH  10  11
ENDBRANCH   9  10
ENDBRANCH   8   9
ENDBRANCH   7   8
ENDBRANCH   6   7
ENDBRANCH   5   6
ENDBRANCH   4   5
ENDBRANCH   3   4
ENDBRANCH   2   3
ENDBRANCH   1   2
BRANCH   1  15
ATOM     15  C   UNL     1      -9.250 -21.329   0.529  1.00  0.00     0.000 C 
BRANCH  15  16
ATOM     16  C   UNL     1      -9.095 -22.176  -0.747  1.00  0.00     0.000 C 
BRANCH  16  17
ATOM     17  C   UNL     1      -7.641 -22.247  -1.237  1.00  0.00     0.000 C 
BRANCH  17  18
ATOM     18  C   UNL     1      -7.439 -23.442  -2.180  1.00  0.00    -0.000 C 
BRANCH  18  19
ATOM     19  C   UNL     1      -8.578 -24.475  -2.091  1.00  0.00    -0.000 C 
BRANCH  19  20
ATOM     20  C   UNL     1      -8.189 -25.912  -2.487  1.00  0.00    -0.000 C 
BRANCH  20  21
ATOM     21  C   UNL     1      -7.595 -26.767  -1.352  1.00  0.00    -0.000 C 
BRANCH  21  22
ATOM     22  C   UNL     1      -6.077 -27.017  -1.487  1.00  0.00    -0.000 C 
BRANCH  22  23
ATOM     23  C   UNL     1      -5.581 -26.878  -2.938  1.00  0.00    -0.000 C 
BRANCH  23  24
ATOM     24  C   UNL     1      -5.312 -28.236  -3.612  1.00  0.00    -0.000 C 
BRANCH  24  25
ATOM     25  C   UNL     1      -6.569 -28.964  -4.122  1.00  0.00    -0.003 C 
ATOM     26  C   UNL     1      -6.661 -30.411  -3.640  1.00  0.00     0.004 C 
ENDBRANCH  24  25
ENDBRANCH  23  24
ENDBRANCH  22  23
ENDBRANCH  21  22
ENDBRANCH  20  21
ENDBRANCH  19  20
ENDBRANCH  18  19
ENDBRANCH  17  18
ENDBRANCH  16  17
ENDBRANCH  15  16
ENDBRANCH   1  15
TORSDOF 22
ENDMDL
MODEL 6
REMARK VINA RESULT:    -4.090      2.273      5.207
REMARK INTER + INTRA:         -13.430
REMARK INTER:                  -9.355
REMARK INTRA:                  -4.075
REMARK UNBOUND:                -4.079
REMARK SMILES CCCCCCCCCCCCCCCCCCCCCCCC(=O)[O-]
REMARK SMILES IDX 13 1 14 2 15 3 16 4 17 5 18 6 19 7 20 8 21 9 22 10 23 11
REMARK SMILES IDX 24 12 25 13 26 14 12 15 11 16 10 17 9 18 8 19 7 20 6 21 5 22
REMARK SMILES IDX 4 23 3 24 2 25 1 26
REMARK H PARENT
REMARK Flexibility Score: inf
ROOT
ATOM      1  C   UNL     1       0.110 -22.186  -6.782  1.00  0.00     0.000 C 
ENDROOT
BRANCH   1   2
ATOM      2  C   UNL     1       1.234 -22.101  -7.827  1.00  0.00     0.000 C 
BRANCH   2   3
ATOM      3  C   UNL     1       1.605 -20.651  -8.187  1.00  0.00     0.000 C 
BRANCH   3   4
ATOM      4  C   UNL     1       3.087 -20.339  -7.926  1.00  0.00     0.000 C 
BRANCH   4   5
ATOM      5  C   UNL     1       3.721 -21.291  -6.899  1.00  0.00     0.000 C 
BRANCH   5   6
ATOM      6  C   UNL     1       5.254 -21.267  -7.002  1.00  0.00     0.000 C 
BRANCH   6   7
ATOM      7  C   UNL     1       5.938 -21.409  -5.633  1.00  0.00     0.000 C 
BRANCH   7   8
ATOM      8  C   UNL     1       4.964 -21.201  -4.460  1.00  0.00     0.000 C 
BRANCH   8   9
ATOM      9  C   UNL     1       5.695 -20.914  -3.138  1.00  0.00     0.000 C 
BRANCH   9  10
ATOM     10  C   UNL     1       5.324 -19.545  -2.550  1.00  0.00     0.006 C 
BRANCH  10  11
ATOM     11  C   UNL     1       6.532 -18.603  -2.543  1.00  0.00     0.053 C 
BRANCH  11  12
ATOM     12  C   UNL     1       7.143 -18.549  -1.178  1.00  0.00     0.041 C 
ATOM     13  O   UNL     1       7.324 -17.439  -0.609  1.00  0.00    -0.550 OA
ATOM     14  O   UNL     1       7.575 -19.717  -0.564  1.00  0.00    -0.550 OA
ENDBRANCH  11  12
ENDBRANCH  10  11
ENDBRANCH   9  10
ENDBRANCH   8   9
ENDBRANCH   7   8
ENDBRANCH   6   7
ENDBRANCH   5   6
ENDBRANCH   4   5
ENDBRANCH   3   4
ENDBRANCH   2   3
ENDBRANCH   1   2
BRANCH   1  15
ATOM     15  C   UNL     1       0.633 -22.057  -5.342  1.00  0.00     0.000 C 
BRANCH  15  16
ATOM     16  C   UNL     1       0.142 -20.774  -4.650  1.00  0.00     0.000 C 
BRANCH  16  17
ATOM     17  C   UNL     1       1.190 -20.179  -3.696  1.00  0.00     0.000 C 
BRANCH  17  18
ATOM     18  C   UNL     1       1.196 -18.645  -3.780  1.00  0.00    -0.000 C 
BRANCH  18  19
ATOM     19  C   UNL     1       1.914 -18.116  -5.036  1.00  0.00    -0.000 C 
BRANCH  19  20
ATOM     20  C   UNL     1       3.445 -18.004  -4.914  1.00  0.00    -0.000 C 
BRANCH  20  21
ATOM     21  C   UNL     1       4.174 -17.554  -6.195  1.00  0.00    -0.000 C 
BRANCH  21  22
ATOM     22  C   UNL     1       5.713 -17.574  -6.078  1.00  0.00    -0.000 C 
BRANCH  22  23
ATOM     23  C   UNL     1       6.412 -17.566  -7.450  1.00  0.00    -0.000 C 
BRANCH  23  24
ATOM     24  C   UNL     1       7.611 -18.530  -7.517  1.00  0.00    -0.000 C 
BRANCH  24  25
ATOM     25  C   UNL     1       7.717 -19.337  -8.824  1.00  0.00    -0.003 C 
ATOM     26  C   UNL     1       6.642 -18.969  -9.845  1.00  0.00     0.004 C 
ENDBRANCH  24  25
ENDBRANCH  23  24
ENDBRANCH  22  23
ENDBRANCH  21  22
ENDBRANCH  20  21
ENDBRANCH  19  20
ENDBRANCH  18  19
ENDBRANCH  17  18
ENDBRANCH  16  17
ENDBRANCH  15  16
ENDBRANCH   1  15
TORSDOF 22
ENDMDL
MODEL 7
REMARK VINA RESULT:    -4.053      1.619      5.193
REMARK INTER + INTRA:         -13.344
REMARK INTER:                  -9.418
REMARK INTRA:                  -3.926
REMARK UNBOUND:                -4.079
REMARK SMILES CCCCCCCCCCCCCCCCCCCCCCCC(=O)[O-]
REMARK SMILES IDX 13 1 14 2 15 3 16 4 17 5 18 6 19 7 20 8 21 9 22 10 23 11
REMARK SMILES IDX 24 12 25 13 26 14 12 15 11 16 10 17 9 18 8 19 7 20 6 21 5 22
REMARK SMILES IDX 4 23 3 24 2 25 1 26
REMARK H PARENT
REMARK Flexibility Score: inf
ROOT
ATOM      1  C   UNL     1       4.268 -20.733  -5.849  1.00  0.00     0.000 C 
ENDROOT
BRANCH   1   2
ATOM      2  C   UNL     1       3.721 -21.354  -7.145  1.00  0.00     0.000 C 
BRANCH   2   3
ATOM      3  C   UNL     1       2.716 -20.439  -7.866  1.00  0.00     0.000 C 
BRANCH   3   4
ATOM      4  C   UNL     1       1.279 -20.982  -7.810  1.00  0.00     0.000 C 
BRANCH   4   5
ATOM      5  C   UNL     1       1.121 -22.141  -6.813  1.00  0.00     0.000 C 
BRANCH   5   6
ATOM      6  C   UNL     1       0.198 -21.744  -5.651  1.00  0.00     0.000 C 
BRANCH   6   7
ATOM      7  C   UNL     1       0.773 -20.596  -4.808  1.00  0.00     0.000 C 
BRANCH   7   8
ATOM      8  C   UNL     1       0.558 -20.805  -3.298  1.00  0.00     0.000 C 
BRANCH   8   9
ATOM      9  C   UNL     1       1.727 -20.259  -2.460  1.00  0.00     0.000 C 
BRANCH   9  10
ATOM     10  C   UNL     1       2.483 -19.131  -3.177  1.00  0.00     0.006 C 
BRANCH  10  11
ATOM     11  C   UNL     1       2.416 -17.827  -2.378  1.00  0.00     0.053 C 
BRANCH  11  12
ATOM     12  C   UNL     1       3.776 -17.451  -1.880  1.00  0.00     0.041 C 
ATOM     13  O   UNL     1       4.012 -16.268  -1.513  1.00  0.00    -0.550 OA
ATOM     14  O   UNL     1       4.802 -18.387  -1.886  1.00  0.00    -0.550 OA
ENDBRANCH  11  12
ENDBRANCH  10  11
ENDBRANCH   9  10
ENDBRANCH   8   9
ENDBRANCH   7   8
ENDBRANCH   6   7
ENDBRANCH   5   6
ENDBRANCH   4   5
ENDBRANCH   3   4
ENDBRANCH   2   3
ENDBRANCH   1   2
BRANCH   1  15
ATOM     15  C   UNL     1       5.209 -21.684  -5.091  1.00  0.00     0.000 C 
BRANCH  15  16
ATOM     16  C   UNL     1       5.905 -20.998  -3.902  1.00  0.00     0.000 C 
BRANCH  16  17
ATOM     17  C   UNL     1       7.229 -20.327  -4.299  1.00  0.00     0.000 C 
BRANCH  17  18
ATOM     18  C   UNL     1       8.263 -21.373  -4.739  1.00  0.00    -0.000 C 
BRANCH  18  19
ATOM     19  C   UNL     1       8.809 -21.118  -6.157  1.00  0.00    -0.000 C 
BRANCH  19  20
ATOM     20  C   UNL     1       8.081 -21.875  -7.283  1.00  0.00    -0.000 C 
BRANCH  20  21
ATOM     21  C   UNL     1       7.606 -21.002  -8.460  1.00  0.00    -0.000 C 
BRANCH  21  22
ATOM     22  C   UNL     1       7.663 -19.486  -8.177  1.00  0.00    -0.000 C 
BRANCH  22  23
ATOM     23  C   UNL     1       6.280 -18.815  -8.258  1.00  0.00    -0.000 C 
BRANCH  23  24
ATOM     24  C   UNL     1       6.195 -17.514  -7.440  1.00  0.00    -0.000 C 
BRANCH  24  25
ATOM     25  C   UNL     1       5.225 -17.564  -6.245  1.00  0.00    -0.003 C 
ATOM     26  C   UNL     1       5.827 -16.994  -4.961  1.00  0.00     0.004 C 
ENDBRANCH  24  25
ENDBRANCH  23  24
ENDBRANCH  22  23
ENDBRANCH  21  22
ENDBRANCH  20  21
ENDBRANCH  19  20
ENDBRANCH  18  19
ENDBRANCH  17  18
ENDBRANCH  16  17
ENDBRANCH  15  16
ENDBRANCH   1  15
TORSDOF 22
ENDMDL
MODEL 8
REMARK VINA RESULT:    -4.050      1.193      4.176
REMARK INTER + INTRA:         -13.337
REMARK INTER:                  -9.250
REMARK INTRA:                  -4.087
REMARK UNBOUND:                -4.079
REMARK SMILES CCCCCCCCCCCCCCCCCCCCCCCC(=O)[O-]
REMARK SMILES IDX 13 1 14 2 15 3 16 4 17 5 18 6 19 7 20 8 21 9 22 10 23 11
REMARK SMILES IDX 24 12 25 13 26 14 12 15 11 16 10 17 9 18 8 19 7 20 6 21 5 22
REMARK SMILES IDX 4 23 3 24 2 25 1 26
REMARK H PARENT
REMARK Flexibility Score: inf
ROOT
ATOM      1  C   UNL     1       1.023 -21.754  -7.473  1.00  0.00     0.000 C 
ENDROOT
BRANCH   1   2
ATOM      2  C   UNL     1       2.019 -20.927  -8.301  1.00  0.00     0.000 C 
BRANCH   2   3
ATOM      3  C   UNL     1       2.829 -19.937  -7.445  1.00  0.00     0.000 C 
BRANCH   3   4
ATOM      4  C   UNL     1       4.307 -19.870  -7.861  1.00  0.00     0.000 C 
BRANCH   4   5
ATOM      5  C   UNL     1       5.067 -18.728  -7.169  1.00  0.00     0.000 C 
BRANCH   5   6
ATOM      6  C   UNL     1       4.172 -18.016  -6.143  1.00  0.00     0.000 C 
BRANCH   6   7
ATOM      7  C   UNL     1       4.943 -16.988  -5.301  1.00  0.00     0.000 C 
BRANCH   7   8
ATOM      8  C   UNL     1       4.358 -16.822  -3.888  1.00  0.00     0.000 C 
BRANCH   8   9
ATOM      9  C   UNL     1       3.014 -16.072  -3.896  1.00  0.00     0.000 C 
BRANCH   9  10
ATOM     10  C   UNL     1       2.148 -16.411  -2.674  1.00  0.00     0.006 C 
BRANCH  10  11
ATOM     11  C   UNL     1       3.012 -16.634  -1.430  1.00  0.00     0.053 C 
BRANCH  11  12
ATOM     12  C   UNL     1       3.151 -15.361  -0.657  1.00  0.00     0.041 C 
ATOM     13  O   UNL     1       2.166 -14.584  -0.534  1.00  0.00    -0.550 OA
ATOM     14  O   UNL     1       4.383 -14.998  -0.131  1.00  0.00    -0.550 OA
ENDBRANCH  11  12
ENDBRANCH  10  11
ENDBRANCH   9  10
ENDBRANCH   8   9
ENDBRANCH   7   8
ENDBRANCH   6   7
ENDBRANCH   5   6
ENDBRANCH   4   5
ENDBRANCH   3   4
ENDBRANCH   2   3
ENDBRANCH   1   2
BRANCH   1  15
ATOM     15  C   UNL     1       1.346 -21.734  -5.970  1.00  0.00     0.000 C 
BRANCH  15  16
ATOM     16  C   UNL     1       0.124 -21.366  -5.110  1.00  0.00     0.000 C 
BRANCH  16  17
ATOM     17  C   UNL     1       0.511 -20.626  -3.820  1.00  0.00     0.000 C 
BRANCH  17  18
ATOM     18  C   UNL     1       1.862 -19.913  -3.982  1.00  0.00    -0.000 C 
BRANCH  18  19
ATOM     19  C   UNL     1       2.750 -20.020  -2.729  1.00  0.00    -0.000 C 
BRANCH  19  20
ATOM     20  C   UNL     1       4.233 -20.329  -3.005  1.00  0.00    -0.000 C 
BRANCH  20  21
ATOM     21  C   UNL     1       4.518 -21.032  -4.347  1.00  0.00    -0.000 C 
BRANCH  21  22
ATOM     22  C   UNL     1       6.007 -21.374  -4.569  1.00  0.00    -0.000 C 
BRANCH  22  23
ATOM     23  C   UNL     1       6.931 -20.158  -4.370  1.00  0.00    -0.000 C 
BRANCH  23  24
ATOM     24  C   UNL     1       8.421 -20.502  -4.550  1.00  0.00    -0.000 C 
BRANCH  24  25
ATOM     25  C   UNL     1       8.787 -21.089  -5.926  1.00  0.00    -0.003 C 
ATOM     26  C   UNL     1       8.493 -20.134  -7.082  1.00  0.00     0.004 C 
ENDBRANCH  24  25
ENDBRANCH  23  24
ENDBRANCH  22  23
ENDBRANCH  21  22
ENDBRANCH  20  21
ENDBRANCH  19  20
ENDBRANCH  18  19
ENDBRANCH  17  18
ENDBRANCH  16  17
ENDBRANCH  15  16
ENDBRANCH   1  15
TORSDOF 22
ENDMDL
MODEL 9
REMARK VINA RESULT:    -4.020      1.481      4.701
REMARK INTER + INTRA:         -13.270
REMARK INTER:                  -9.321
REMARK INTRA:                  -3.949
REMARK UNBOUND:                -4.079
REMARK SMILES CCCCCCCCCCCCCCCCCCCCCCCC(=O)[O-]
REMARK SMILES IDX 13 1 14 2 15 3 16 4 17 5 18 6 19 7 20 8 21 9 22 10 23 11
REMARK SMILES IDX 24 12 25 13 26 14 12 15 11 16 10 17 9 18 8 19 7 20 6 21 5 22
REMARK SMILES IDX 4 23 3 24 2 25 1 26
REMARK H PARENT
REMARK Flexibility Score: inf
ROOT
ATOM      1  C   UNL     1       3.026 -20.159  -7.192  1.00  0.00     0.000 C 
ENDROOT
BRANCH   1   2
ATOM      2  C   UNL     1       1.835 -20.586  -8.065  1.00  0.00     0.000 C 
BRANCH   2   3
ATOM      3  C   UNL     1       1.373 -22.026  -7.781  1.00  0.00     0.000 C 
BRANCH   3   4
ATOM      4  C   UNL     1       0.117 -22.079  -6.895  1.00  0.00     0.000 C 
BRANCH   4   5
ATOM      5  C   UNL     1       0.449 -22.070  -5.395  1.00  0.00     0.000 C 
BRANCH   5   6
ATOM      6  C   UNL     1       0.188 -20.685  -4.784  1.00  0.00     0.000 C 
BRANCH   6   7
ATOM      7  C   UNL     1       0.580 -20.613  -3.299  1.00  0.00     0.000 C 
BRANCH   7   8
ATOM      8  C   UNL     1       1.417 -19.365  -2.969  1.00  0.00     0.000 C 
BRANCH   8   9
ATOM      9  C   UNL     1       1.513 -18.394  -4.158  1.00  0.00     0.000 C 
BRANCH   9  10
ATOM     10  C   UNL     1       2.177 -17.063  -3.775  1.00  0.00     0.006 C 
BRANCH  10  11
ATOM     11  C   UNL     1       1.273 -16.240  -2.854  1.00  0.00     0.053 C 
BRANCH  11  12
ATOM     12  C   UNL     1       1.956 -15.983  -1.547  1.00  0.00     0.041 C 
ATOM     13  O   UNL     1       2.870 -16.753  -1.147  1.00  0.00    -0.550 OA
ATOM     14  O   UNL     1       1.537 -14.934  -0.740  1.00  0.00    -0.550 OA
ENDBRANCH  11  12
ENDBRANCH  10  11
ENDBRANCH   9  10
ENDBRANCH   8   9
ENDBRANCH   7   8
ENDBRANCH   6   7
ENDBRANCH   5   6
ENDBRANCH   4   5
ENDBRANCH   3   4
ENDBRANCH   2   3
ENDBRANCH   1   2
BRANCH   1  15
ATOM     15  C   UNL     1       4.226 -21.112  -7.325  1.00  0.00     0.000 C 
BRANCH  15  16
ATOM     16  C   UNL     1       4.617 -21.757  -5.984  1.00  0.00     0.000 C 
BRANCH  16  17
ATOM     17  C   UNL     1       4.011 -21.024  -4.777  1.00  0.00     0.000 C 
BRANCH  17  18
ATOM     18  C   UNL     1       5.089 -20.714  -3.727  1.00  0.00    -0.000 C 
BRANCH  18  19
ATOM     19  C   UNL     1       5.019 -19.267  -3.204  1.00  0.00    -0.000 C 
BRANCH  19  20
ATOM     20  C   UNL     1       6.059 -18.304  -3.806  1.00  0.00    -0.000 C 
BRANCH  20  21
ATOM     21  C   UNL     1       6.027 -18.180  -5.341  1.00  0.00    -0.000 C 
BRANCH  21  22
ATOM     22  C   UNL     1       7.165 -18.943  -6.053  1.00  0.00    -0.000 C 
BRANCH  22  23
ATOM     23  C   UNL     1       7.059 -18.869  -7.587  1.00  0.00    -0.000 C 
BRANCH  23  24
ATOM     24  C   UNL     1       8.038 -19.817  -8.302  1.00  0.00    -0.000 C 
BRANCH  24  25
ATOM     25  C   UNL     1       7.693 -21.313  -8.181  1.00  0.00    -0.003 C 
ATOM     26  C   UNL     1       8.739 -22.108  -7.400  1.00  0.00     0.004 C 
ENDBRANCH  24  25
ENDBRANCH  23  24
ENDBRANCH  22  23
ENDBRANCH  21  22
ENDBRANCH  20  21
ENDBRANCH  19  20
ENDBRANCH  18  19
ENDBRANCH  17  18
ENDBRANCH  16  17
ENDBRANCH  15  16
ENDBRANCH   1  15
TORSDOF 22
ENDMDL
