MODEL 1
REMARK VINA RESULT:    -5.326      0.000      0.000
REMARK INTER + INTRA:          -6.242
REMARK INTER:                  -6.105
REMARK INTRA:                  -0.137
REMARK UNBOUND:                -0.137
REMARK SMILES O=C([O-])C=Cc1ccc(O)cc1
REMARK SMILES IDX 6 1 7 2 12 3 8 4 11 5 9 6 5 7 4 8 2 9 1 10 3 11 10 12
REMARK H PARENT 10 13
REMARK Flexibility Score: inf
ROOT
ATOM      1  C   UNL     1     -10.200  -2.939  -9.922  1.00  0.00    -0.025 A 
ATOM      2  C   UNL     1      -8.794  -3.033  -9.861  1.00  0.00     0.012 A 
ATOM      3  C   UNL     1     -10.961  -4.119  -9.868  1.00  0.00     0.012 A 
ATOM      4  C   UNL     1      -8.175  -4.279  -9.723  1.00  0.00     0.047 A 
ATOM      5  C   UNL     1     -10.338  -5.362  -9.729  1.00  0.00     0.047 A 
ATOM      6  C   UNL     1      -8.942  -5.446  -9.654  1.00  0.00     0.115 A 
ENDROOT
BRANCH   1   7
ATOM      7  C   UNL     1     -10.908  -1.644 -10.080  1.00  0.00     0.010 C 
ATOM      8  C   UNL     1     -10.470  -0.488  -9.562  1.00  0.00     0.025 C 
BRANCH   8   9
ATOM      9  C   UNL     1     -11.205   0.777  -9.730  1.00  0.00     0.064 C 
ATOM     10  O   UNL     1     -12.465   0.810  -9.690  1.00  0.00    -0.545 OA
ATOM     11  O   UNL     1     -10.499   1.955  -9.936  1.00  0.00    -0.545 OA
ENDBRANCH   8   9
ENDBRANCH   1   7
BRANCH   6  12
ATOM     12  O   UNL     1      -8.310  -6.679  -9.516  1.00  0.00    -0.508 OA
ATOM     13  H   UNL     1      -8.827  -7.549  -9.578  1.00  0.00     0.293 HD
ENDBRANCH   6  12
TORSDOF 3
ENDMDL
MODEL 2
REMARK VINA RESULT:    -5.298     16.594     17.921
REMARK INTER + INTRA:          -6.209
REMARK INTER:                  -6.059
REMARK INTRA:                  -0.150
REMARK UNBOUND:                -0.137
REMARK SMILES O=C([O-])C=Cc1ccc(O)cc1
REMARK SMILES IDX 6 1 7 2 12 3 8 4 11 5 9 6 5 7 4 8 2 9 1 10 3 11 10 12
REMARK H PARENT 10 13
REMARK Flexibility Score: inf
ROOT
ATOM      1  C   UNL     1     -10.146   5.428   6.170  1.00  0.00    -0.025 A 
ATOM      2  C   UNL     1     -10.544   4.610   7.247  1.00  0.00     0.012 A 
ATOM      3  C   UNL     1     -10.488   5.040   4.863  1.00  0.00     0.012 A 
ATOM      4  C   UNL     1     -11.286   3.447   7.016  1.00  0.00     0.047 A 
ATOM      5  C   UNL     1     -11.230   3.877   4.636  1.00  0.00     0.047 A 
ATOM      6  C   UNL     1     -11.634   3.079   5.713  1.00  0.00     0.115 A 
ENDROOT
BRANCH   1   7
ATOM      7  C   UNL     1      -9.348   6.665   6.357  1.00  0.00     0.010 C 
ATOM      8  C   UNL     1      -9.325   7.677   5.479  1.00  0.00     0.025 C 
BRANCH   8   9
ATOM      9  C   UNL     1      -8.512   8.886   5.694  1.00  0.00     0.064 C 
ATOM     10  O   UNL     1      -8.075   9.559   4.721  1.00  0.00    -0.545 OA
ATOM     11  O   UNL     1      -8.221   9.292   6.989  1.00  0.00    -0.545 OA
ENDBRANCH   8   9
ENDBRANCH   1   7
BRANCH   6  12
ATOM     12  O   UNL     1     -12.374   1.918   5.501  1.00  0.00    -0.508 OA
ATOM     13  H   UNL     1     -12.826   1.431   6.267  1.00  0.00     0.293 HD
ENDBRANCH   6  12
TORSDOF 3
ENDMDL
MODEL 3
REMARK VINA RESULT:    -5.275     16.604     17.926
REMARK INTER + INTRA:          -6.183
REMARK INTER:                  -6.043
REMARK INTRA:                  -0.141
REMARK UNBOUND:                -0.137
REMARK SMILES O=C([O-])C=Cc1ccc(O)cc1
REMARK SMILES IDX 6 1 7 2 12 3 8 4 11 5 9 6 5 7 4 8 2 9 1 10 3 11 10 12
REMARK H PARENT 10 13
REMARK Flexibility Score: inf
ROOT
ATOM      1  C   UNL     1     -10.114   5.430   6.100  1.00  0.00    -0.025 A 
ATOM      2  C   UNL     1     -10.490   5.005   4.809  1.00  0.00     0.012 A 
ATOM      3  C   UNL     1     -10.522   4.671   7.209  1.00  0.00     0.012 A 
ATOM      4  C   UNL     1     -11.235   3.833   4.640  1.00  0.00     0.047 A 
ATOM      5  C   UNL     1     -11.266   3.500   7.036  1.00  0.00     0.047 A 
ATOM      6  C   UNL     1     -11.623   3.076   5.750  1.00  0.00     0.115 A 
ENDROOT
BRANCH   1   7
ATOM      7  C   UNL     1      -9.334   6.670   6.336  1.00  0.00     0.010 C 
ATOM      8  C   UNL     1      -9.267   7.686   5.464  1.00  0.00     0.025 C 
BRANCH   8   9
ATOM      9  C   UNL     1      -8.473   8.898   5.728  1.00  0.00     0.064 C 
ATOM     10  O   UNL     1      -8.012   9.595   4.783  1.00  0.00    -0.545 OA
ATOM     11  O   UNL     1      -8.226   9.280   7.040  1.00  0.00    -0.545 OA
ENDBRANCH   8   9
ENDBRANCH   1   7
BRANCH   6  12
ATOM     12  O   UNL     1     -12.364   1.912   5.564  1.00  0.00    -0.508 OA
ATOM     13  H   UNL     1     -11.913   1.019   5.397  1.00  0.00     0.293 HD
ENDBRANCH   6  12
TORSDOF 3
ENDMDL
MODEL 4
REMARK VINA RESULT:    -4.613     17.332     19.593
REMARK INTER + INTRA:          -5.424
REMARK INTER:                  -5.282
REMARK INTRA:                  -0.142
REMARK UNBOUND:                -0.137
REMARK SMILES O=C([O-])C=Cc1ccc(O)cc1
REMARK SMILES IDX 6 1 7 2 12 3 8 4 11 5 9 6 5 7 4 8 2 9 1 10 3 11 10 12
REMARK H PARENT 10 13
REMARK Flexibility Score: inf
ROOT
ATOM      1  C   UNL     1      -9.184   8.626   5.389  1.00  0.00    -0.025 A 
ATOM      2  C   UNL     1      -7.985   9.100   5.959  1.00  0.00     0.012 A 
ATOM      3  C   UNL     1     -10.252   9.522   5.212  1.00  0.00     0.012 A 
ATOM      4  C   UNL     1      -7.857  10.446   6.317  1.00  0.00     0.047 A 
ATOM      5  C   UNL     1     -10.120  10.866   5.570  1.00  0.00     0.047 A 
ATOM      6  C   UNL     1      -8.920  11.333   6.122  1.00  0.00     0.115 A 
ENDROOT
BRANCH   1   7
ATOM      7  C   UNL     1      -9.377   7.206   5.002  1.00  0.00     0.010 C 
ATOM      8  C   UNL     1     -10.292   6.400   5.560  1.00  0.00     0.025 C 
BRANCH   8   9
ATOM      9  C   UNL     1     -10.447   4.991   5.158  1.00  0.00     0.064 C 
ATOM     10  O   UNL     1      -9.939   4.558   4.088  1.00  0.00    -0.545 OA
ATOM     11  O   UNL     1     -11.168   4.126   5.969  1.00  0.00    -0.545 OA
ENDBRANCH   8   9
ENDBRANCH   1   7
BRANCH   6  12
ATOM     12  O   UNL     1      -8.776  12.671   6.483  1.00  0.00    -0.508 OA
ATOM     13  H   UNL     1      -7.881  13.045   6.777  1.00  0.00     0.293 HD
ENDBRANCH   6  12
TORSDOF 3
ENDMDL
MODEL 5
REMARK VINA RESULT:    -4.595     17.537     19.801
REMARK INTER + INTRA:          -5.403
REMARK INTER:                  -5.269
REMARK INTRA:                  -0.135
REMARK UNBOUND:                -0.137
REMARK SMILES O=C([O-])C=Cc1ccc(O)cc1
REMARK SMILES IDX 6 1 7 2 12 3 8 4 11 5 9 6 5 7 4 8 2 9 1 10 3 11 10 12
REMARK H PARENT 10 13
REMARK Flexibility Score: inf
ROOT
ATOM      1  C   UNL     1      -9.090   8.888   5.498  1.00  0.00    -0.025 A 
ATOM      2  C   UNL     1     -10.070   9.899   5.576  1.00  0.00     0.012 A 
ATOM      3  C   UNL     1      -7.796   9.161   5.970  1.00  0.00     0.012 A 
ATOM      4  C   UNL     1      -9.759  11.141   6.139  1.00  0.00     0.047 A 
ATOM      5  C   UNL     1      -7.489  10.403   6.531  1.00  0.00     0.047 A 
ATOM      6  C   UNL     1      -8.472  11.397   6.620  1.00  0.00     0.115 A 
ENDROOT
BRANCH   1   7
ATOM      7  C   UNL     1      -9.363   7.557   4.901  1.00  0.00     0.010 C 
ATOM      8  C   UNL     1      -9.945   6.548   5.564  1.00  0.00     0.025 C 
BRANCH   8   9
ATOM      9  C   UNL     1     -10.190   5.235   4.941  1.00  0.00     0.064 C 
ATOM     10  O   UNL     1     -11.124   4.488   5.341  1.00  0.00    -0.545 OA
ATOM     11  O   UNL     1      -9.378   4.812   3.898  1.00  0.00    -0.545 OA
ENDBRANCH   8   9
ENDBRANCH   1   7
BRANCH   6  12
ATOM     12  O   UNL     1      -8.180  12.639   7.178  1.00  0.00    -0.508 OA
ATOM     13  H   UNL     1      -8.747  13.455   6.977  1.00  0.00     0.293 HD
ENDBRANCH   6  12
TORSDOF 3
ENDMDL
MODEL 6
REMARK VINA RESULT:    -4.482     17.223     19.411
REMARK INTER + INTRA:          -5.274
REMARK INTER:                  -5.140
REMARK INTRA:                  -0.134
REMARK UNBOUND:                -0.137
REMARK SMILES O=C([O-])C=Cc1ccc(O)cc1
REMARK SMILES IDX 6 1 7 2 12 3 8 4 11 5 9 6 5 7 4 8 2 9 1 10 3 11 10 12
REMARK H PARENT 10 13
REMARK Flexibility Score: inf
ROOT
ATOM      1  C   UNL     1      -9.504   8.065   5.476  1.00  0.00    -0.025 A 
ATOM      2  C   UNL     1     -10.322   9.135   5.059  1.00  0.00     0.012 A 
ATOM      3  C   UNL     1      -8.306   8.350   6.152  1.00  0.00     0.012 A 
ATOM      4  C   UNL     1      -9.955  10.455   5.340  1.00  0.00     0.047 A 
ATOM      5  C   UNL     1      -7.944   9.671   6.431  1.00  0.00     0.047 A 
ATOM      6  C   UNL     1      -8.769  10.728   6.028  1.00  0.00     0.115 A 
ENDROOT
BRANCH   1   7
ATOM      7  C   UNL     1      -9.840   6.647   5.194  1.00  0.00     0.010 C 
ATOM      8  C   UNL     1     -10.606   5.890   5.992  1.00  0.00     0.025 C 
BRANCH   8   9
ATOM      9  C   UNL     1     -10.909   4.481   5.686  1.00  0.00     0.064 C 
ATOM     10  O   UNL     1     -11.055   3.631   6.606  1.00  0.00    -0.545 OA
ATOM     11  O   UNL     1     -11.035   4.082   4.363  1.00  0.00    -0.545 OA
ENDBRANCH   8   9
ENDBRANCH   1   7
BRANCH   6  12
ATOM     12  O   UNL     1      -8.419  12.048   6.299  1.00  0.00    -0.508 OA
ATOM     13  H   UNL     1      -7.648  12.274   6.919  1.00  0.00     0.293 HD
ENDBRANCH   6  12
TORSDOF 3
ENDMDL
MODEL 7
REMARK VINA RESULT:    -4.419     16.638     17.909
REMARK INTER + INTRA:          -5.202
REMARK INTER:                  -5.060
REMARK INTRA:                  -0.142
REMARK UNBOUND:                -0.137
REMARK SMILES O=C([O-])C=Cc1ccc(O)cc1
REMARK SMILES IDX 6 1 7 2 12 3 8 4 11 5 9 6 5 7 4 8 2 9 1 10 3 11 10 12
REMARK H PARENT 10 13
REMARK Flexibility Score: inf
ROOT
ATOM      1  C   UNL     1     -12.450   5.338   6.049  1.00  0.00    -0.025 A 
ATOM      2  C   UNL     1     -12.814   4.768   4.812  1.00  0.00     0.012 A 
ATOM      3  C   UNL     1     -11.859   4.517   7.025  1.00  0.00     0.012 A 
ATOM      4  C   UNL     1     -12.566   3.416   4.556  1.00  0.00     0.047 A 
ATOM      5  C   UNL     1     -11.612   3.166   6.765  1.00  0.00     0.047 A 
ATOM      6  C   UNL     1     -11.963   2.612   5.527  1.00  0.00     0.115 A 
ENDROOT
BRANCH   1   7
ATOM      7  C   UNL     1     -12.700   6.763   6.378  1.00  0.00     0.010 C 
ATOM      8  C   UNL     1     -13.591   7.531   5.734  1.00  0.00     0.025 C 
BRANCH   8   9
ATOM      9  C   UNL     1     -13.805   8.946   6.080  1.00  0.00     0.064 C 
ATOM     10  O   UNL     1     -13.454   9.404   7.201  1.00  0.00    -0.545 OA
ATOM     11  O   UNL     1     -14.405   9.791   5.156  1.00  0.00    -0.545 OA
ENDBRANCH   8   9
ENDBRANCH   1   7
BRANCH   6  12
ATOM     12  O   UNL     1     -11.723   1.267   5.256  1.00  0.00    -0.508 OA
ATOM     13  H   UNL     1     -11.180   0.689   5.887  1.00  0.00     0.293 HD
ENDBRANCH   6  12
TORSDOF 3
ENDMDL
MODEL 8
REMARK VINA RESULT:    -4.330     19.754     21.473
REMARK INTER + INTRA:          -5.099
REMARK INTER:                  -4.960
REMARK INTRA:                  -0.139
REMARK UNBOUND:                -0.137
REMARK SMILES O=C([O-])C=Cc1ccc(O)cc1
REMARK SMILES IDX 6 1 7 2 12 3 8 4 11 5 9 6 5 7 4 8 2 9 1 10 3 11 10 12
REMARK H PARENT 10 13
REMARK Flexibility Score: inf
ROOT
ATOM      1  C   UNL     1      -6.297  10.767   6.182  1.00  0.00    -0.025 A 
ATOM      2  C   UNL     1      -6.851  10.080   5.082  1.00  0.00     0.012 A 
ATOM      3  C   UNL     1      -7.134  11.116   7.254  1.00  0.00     0.012 A 
ATOM      4  C   UNL     1      -8.205   9.731   5.076  1.00  0.00     0.047 A 
ATOM      5  C   UNL     1      -8.487  10.765   7.245  1.00  0.00     0.047 A 
ATOM      6  C   UNL     1      -9.026  10.069   6.156  1.00  0.00     0.115 A 
ENDROOT
BRANCH   1   7
ATOM      7  C   UNL     1      -4.870  11.171   6.234  1.00  0.00     0.010 C 
ATOM      8  C   UNL     1      -4.174  11.589   5.168  1.00  0.00     0.025 C 
BRANCH   8   9
ATOM      9  C   UNL     1      -2.754  11.971   5.256  1.00  0.00     0.064 C 
ATOM     10  O   UNL     1      -2.375  12.897   6.023  1.00  0.00    -0.545 OA
ATOM     11  O   UNL     1      -1.817  11.302   4.480  1.00  0.00    -0.545 OA
ENDBRANCH   8   9
ENDBRANCH   1   7
BRANCH   6  12
ATOM     12  O   UNL     1     -10.373   9.714   6.135  1.00  0.00    -0.508 OA
ATOM     13  H   UNL     1     -11.016  10.118   5.463  1.00  0.00     0.293 HD
ENDBRANCH   6  12
TORSDOF 3
ENDMDL
MODEL 9
REMARK VINA RESULT:    -4.192     17.993     19.106
REMARK INTER + INTRA:          -4.941
REMARK INTER:                  -4.805
REMARK INTRA:                  -0.136
REMARK UNBOUND:                -0.137
REMARK SMILES O=C([O-])C=Cc1ccc(O)cc1
REMARK SMILES IDX 6 1 7 2 12 3 8 4 11 5 9 6 5 7 4 8 2 9 1 10 3 11 10 12
REMARK H PARENT 10 13
REMARK Flexibility Score: inf
ROOT
ATOM      1  C   UNL     1     -10.750   6.999   5.654  1.00  0.00    -0.025 A 
ATOM      2  C   UNL     1      -9.403   7.221   5.302  1.00  0.00     0.012 A 
ATOM      3  C   UNL     1     -11.636   8.089   5.668  1.00  0.00     0.012 A 
ATOM      4  C   UNL     1      -8.968   8.502   4.948  1.00  0.00     0.047 A 
ATOM      5  C   UNL     1     -11.197   9.368   5.313  1.00  0.00     0.047 A 
ATOM      6  C   UNL     1      -9.861   9.578   4.949  1.00  0.00     0.115 A 
ENDROOT
BRANCH   1   7
ATOM      7  C   UNL     1     -11.262   5.663   6.049  1.00  0.00     0.010 C 
ATOM      8  C   UNL     1     -10.759   4.941   7.060  1.00  0.00     0.025 C 
BRANCH   8   9
ATOM      9  C   UNL     1     -11.286   3.613   7.417  1.00  0.00     0.064 C 
ATOM     10  O   UNL     1     -11.206   2.643   6.615  1.00  0.00    -0.545 OA
ATOM     11  O   UNL     1     -11.881   3.425   8.657  1.00  0.00    -0.545 OA
ENDBRANCH   8   9
ENDBRANCH   1   7
BRANCH   6  12
ATOM     12  O   UNL     1      -9.411  10.847   4.593  1.00  0.00    -0.508 OA
ATOM     13  H   UNL     1      -9.661  11.267   3.705  1.00  0.00     0.293 HD
ENDBRANCH   6  12
TORSDOF 3
ENDMDL
