MODEL 1
REMARK VINA RESULT:    -5.400      0.000      0.000
REMARK INTER + INTRA:          -7.041
REMARK INTER:                  -6.662
REMARK INTRA:                  -0.379
REMARK UNBOUND:                -0.379
REMARK SMILES Oc1cc(O)c2cc(O)c(-c3cc(O)c(O)c(O)c3)[o+]c2c1
REMARK SMILES IDX 10 1 20 2 21 3 22 4 2 5 3 6 4 7 6 8 7 9 8 10 11 11 12 12
REMARK SMILES IDX 13 13 19 14 15 15 17 16 14 17 16 19 18 21 9 23 1 25 5 27
REMARK H PARENT 14 18 16 20 18 22 9 24 1 26 5 28
REMARK Flexibility Score: inf
ROOT
ATOM      1  C   UNL     1       2.577   7.350  -2.801  1.00  0.00     0.402 A 
ATOM      2  O   UNL     1       3.172   8.090  -3.732  1.00  0.00    -0.202 OA
ATOM      3  C   UNL     1       3.274   7.719  -5.004  1.00  0.00     0.368 A 
ATOM      4  C   UNL     1       3.916   8.567  -5.911  1.00  0.00     0.162 A 
ATOM      5  C   UNL     1       4.034   8.204  -7.255  1.00  0.00     0.128 A 
ATOM      6  C   UNL     1       3.507   6.988  -7.696  1.00  0.00     0.093 A 
ATOM      7  C   UNL     1       2.858   6.121  -6.807  1.00  0.00     0.136 A 
ATOM      8  C   UNL     1       2.738   6.484  -5.440  1.00  0.00     0.125 A 
ATOM      9  C   UNL     1       2.117   5.672  -4.477  1.00  0.00     0.078 A 
ATOM     10  C   UNL     1       2.042   6.096  -3.147  1.00  0.00     0.223 A 
ENDROOT
BRANCH   1  11
ATOM     11  C   UNL     1       2.520   7.877  -1.418  1.00  0.00     0.091 A 
ATOM     12  C   UNL     1       1.379   8.541  -0.934  1.00  0.00     0.068 A 
ATOM     13  C   UNL     1       1.352   9.053   0.370  1.00  0.00     0.162 A 
ATOM     14  C   UNL     1       3.647   7.764  -0.589  1.00  0.00     0.068 A 
ATOM     15  C   UNL     1       2.478   8.914   1.200  1.00  0.00     0.200 A 
ATOM     16  C   UNL     1       3.625   8.272   0.717  1.00  0.00     0.162 A 
BRANCH  13  17
ATOM     17  O   UNL     1       0.214   9.704   0.843  1.00  0.00    -0.504 OA
ATOM     18  H   UNL     1      -0.587   9.874   0.246  1.00  0.00     0.293 HD
ENDBRANCH  13  17
BRANCH  15  19
ATOM     19  O   UNL     1       2.474   9.412   2.503  1.00  0.00    -0.502 OA
ATOM     20  H   UNL     1       1.664   9.869   2.903  1.00  0.00     0.293 HD
ENDBRANCH  15  19
BRANCH  16  21
ATOM     21  O   UNL     1       4.742   8.144   1.540  1.00  0.00    -0.504 OA
ATOM     22  H   UNL     1       5.004   7.252   1.945  1.00  0.00     0.293 HD
ENDBRANCH  16  21
ENDBRANCH   1  11
BRANCH  10  23
ATOM     23  O   UNL     1       1.469   5.269  -2.181  1.00  0.00    -0.500 OA
ATOM     24  H   UNL     1       0.917   4.456  -2.434  1.00  0.00     0.294 HD
ENDBRANCH  10  23
BRANCH   5  25
ATOM     25  O   UNL     1       4.673   9.043  -8.165  1.00  0.00    -0.507 OA
ATOM     26  H   UNL     1       4.433  10.026  -8.238  1.00  0.00     0.293 HD
ENDBRANCH   5  25
BRANCH   7  27
ATOM     27  O   UNL     1       2.355   4.924  -7.328  1.00  0.00    -0.507 OA
ATOM     28  H   UNL     1       1.545   4.443  -6.968  1.00  0.00     0.293 HD
ENDBRANCH   7  27
TORSDOF 7
ENDMDL
MODEL 2
REMARK VINA RESULT:    -5.229      1.607      2.582
REMARK INTER + INTRA:          -6.831
REMARK INTER:                  -7.164
REMARK INTRA:                   0.333
REMARK UNBOUND:                -0.379
REMARK SMILES Oc1cc(O)c2cc(O)c(-c3cc(O)c(O)c(O)c3)[o+]c2c1
REMARK SMILES IDX 10 1 20 2 21 3 22 4 2 5 3 6 4 7 6 8 7 9 8 10 11 11 12 12
REMARK SMILES IDX 13 13 19 14 15 15 17 16 14 17 16 19 18 21 9 23 1 25 5 27
REMARK H PARENT 14 18 16 20 18 22 9 24 1 26 5 28
REMARK Flexibility Score: inf
ROOT
ATOM      1  C   UNL     1       3.191   7.357  -2.438  1.00  0.00     0.402 A 
ATOM      2  O   UNL     1       2.276   7.686  -3.345  1.00  0.00    -0.202 OA
ATOM      3  C   UNL     1       2.290   7.232  -4.594  1.00  0.00     0.368 A 
ATOM      4  C   UNL     1       1.282   7.632  -5.475  1.00  0.00     0.162 A 
ATOM      5  C   UNL     1       1.270   7.166  -6.793  1.00  0.00     0.128 A 
ATOM      6  C   UNL     1       2.271   6.297  -7.232  1.00  0.00     0.093 A 
ATOM      7  C   UNL     1       3.293   5.881  -6.369  1.00  0.00     0.136 A 
ATOM      8  C   UNL     1       3.310   6.352  -5.030  1.00  0.00     0.125 A 
ATOM      9  C   UNL     1       4.301   6.000  -4.100  1.00  0.00     0.078 A 
ATOM     10  C   UNL     1       4.254   6.509  -2.799  1.00  0.00     0.223 A 
ENDROOT
BRANCH   1  11
ATOM     11  C   UNL     1       3.061   7.922  -1.075  1.00  0.00     0.091 A 
ATOM     12  C   UNL     1       4.142   7.921  -0.176  1.00  0.00     0.068 A 
ATOM     13  C   UNL     1       3.994   8.439   1.117  1.00  0.00     0.162 A 
ATOM     14  C   UNL     1       1.820   8.417  -0.648  1.00  0.00     0.068 A 
ATOM     15  C   UNL     1       2.752   8.954   1.527  1.00  0.00     0.200 A 
ATOM     16  C   UNL     1       1.665   8.939   0.643  1.00  0.00     0.162 A 
BRANCH  13  17
ATOM     17  O   UNL     1       5.073   8.440   1.999  1.00  0.00    -0.504 OA
ATOM     18  H   UNL     1       5.170   9.146   2.720  1.00  0.00     0.293 HD
ENDBRANCH  13  17
BRANCH  15  19
ATOM     19  O   UNL     1       2.580   9.479   2.808  1.00  0.00    -0.502 OA
ATOM     20  H   UNL     1       2.534  10.476   2.980  1.00  0.00     0.293 HD
ENDBRANCH  15  19
BRANCH  16  21
ATOM     21  O   UNL     1       0.434   9.443   1.056  1.00  0.00    -0.504 OA
ATOM     22  H   UNL     1      -0.435   9.137   0.632  1.00  0.00     0.293 HD
ENDBRANCH  16  21
ENDBRANCH   1  11
BRANCH  10  23
ATOM     23  O   UNL     1       5.264   6.198  -1.889  1.00  0.00    -0.500 OA
ATOM     24  H   UNL     1       6.244   6.230  -2.149  1.00  0.00     0.294 HD
ENDBRANCH  10  23
BRANCH   5  25
ATOM     25  O   UNL     1       0.269   7.562  -7.677  1.00  0.00    -0.507 OA
ATOM     26  H   UNL     1       0.368   7.441  -8.679  1.00  0.00     0.293 HD
ENDBRANCH   5  25
BRANCH   7  27
ATOM     27  O   UNL     1       4.255   5.008  -6.884  1.00  0.00    -0.507 OA
ATOM     28  H   UNL     1       5.193   4.917  -6.524  1.00  0.00     0.293 HD
ENDBRANCH   7  27
TORSDOF 7
ENDMDL
MODEL 3
REMARK VINA RESULT:    -5.194      2.484      7.108
REMARK INTER + INTRA:          -6.788
REMARK INTER:                  -6.464
REMARK INTRA:                  -0.324
REMARK UNBOUND:                -0.379
REMARK SMILES Oc1cc(O)c2cc(O)c(-c3cc(O)c(O)c(O)c3)[o+]c2c1
REMARK SMILES IDX 10 1 20 2 21 3 22 4 2 5 3 6 4 7 6 8 7 9 8 10 11 11 12 12
REMARK SMILES IDX 13 13 19 14 15 15 17 16 14 17 16 19 18 21 9 23 1 25 5 27
REMARK H PARENT 14 18 16 20 18 22 9 24 1 26 5 28
REMARK Flexibility Score: inf
ROOT
ATOM      1  C   UNL     1       3.573   7.542  -1.877  1.00  0.00     0.402 A 
ATOM      2  O   UNL     1       3.084   8.013  -0.733  1.00  0.00    -0.202 OA
ATOM      3  C   UNL     1       3.844   8.341   0.306  1.00  0.00     0.368 A 
ATOM      4  C   UNL     1       3.238   8.830   1.466  1.00  0.00     0.162 A 
ATOM      5  C   UNL     1       4.014   9.186   2.572  1.00  0.00     0.128 A 
ATOM      6  C   UNL     1       5.403   9.052   2.519  1.00  0.00     0.093 A 
ATOM      7  C   UNL     1       6.036   8.565   1.368  1.00  0.00     0.136 A 
ATOM      8  C   UNL     1       5.252   8.200   0.242  1.00  0.00     0.125 A 
ATOM      9  C   UNL     1       5.797   7.689  -0.946  1.00  0.00     0.078 A 
ATOM     10  C   UNL     1       4.960   7.347  -2.012  1.00  0.00     0.223 A 
ENDROOT
BRANCH   1  11
ATOM     11  C   UNL     1       2.622   7.221  -2.966  1.00  0.00     0.091 A 
ATOM     12  C   UNL     1       2.277   5.892  -3.268  1.00  0.00     0.068 A 
ATOM     13  C   UNL     1       1.393   5.607  -4.317  1.00  0.00     0.162 A 
ATOM     14  C   UNL     1       2.098   8.258  -3.753  1.00  0.00     0.068 A 
ATOM     15  C   UNL     1       0.854   6.654  -5.084  1.00  0.00     0.200 A 
ATOM     16  C   UNL     1       1.212   7.979  -4.802  1.00  0.00     0.162 A 
BRANCH  13  17
ATOM     17  O   UNL     1       1.051   4.286  -4.604  1.00  0.00    -0.504 OA
ATOM     18  H   UNL     1       0.086   4.004  -4.736  1.00  0.00     0.293 HD
ENDBRANCH  13  17
BRANCH  15  19
ATOM     19  O   UNL     1      -0.030   6.396  -6.131  1.00  0.00    -0.502 OA
ATOM     20  H   UNL     1      -0.439   7.137  -6.687  1.00  0.00     0.293 HD
ENDBRANCH  15  19
BRANCH  16  21
ATOM     21  O   UNL     1       0.682   9.014  -5.571  1.00  0.00    -0.504 OA
ATOM     22  H   UNL     1      -0.016   9.648  -5.199  1.00  0.00     0.293 HD
ENDBRANCH  16  21
ENDBRANCH   1  11
BRANCH  10  23
ATOM     23  O   UNL     1       5.497   6.795  -3.174  1.00  0.00    -0.500 OA
ATOM     24  H   UNL     1       5.891   5.860  -3.188  1.00  0.00     0.294 HD
ENDBRANCH  10  23
BRANCH   5  25
ATOM     25  O   UNL     1       3.416   9.674   3.732  1.00  0.00    -0.507 OA
ATOM     26  H   UNL     1       3.083   9.050   4.459  1.00  0.00     0.293 HD
ENDBRANCH   5  25
BRANCH   7  27
ATOM     27  O   UNL     1       7.430   8.463   1.394  1.00  0.00    -0.507 OA
ATOM     28  H   UNL     1       8.060   9.220   1.173  1.00  0.00     0.293 HD
ENDBRANCH   7  27
TORSDOF 7
ENDMDL
MODEL 4
REMARK VINA RESULT:    -5.127      2.315      7.207
REMARK INTER + INTRA:          -6.705
REMARK INTER:                  -6.396
REMARK INTRA:                  -0.309
REMARK UNBOUND:                -0.379
REMARK SMILES Oc1cc(O)c2cc(O)c(-c3cc(O)c(O)c(O)c3)[o+]c2c1
REMARK SMILES IDX 10 1 20 2 21 3 22 4 2 5 3 6 4 7 6 8 7 9 8 10 11 11 12 12
REMARK SMILES IDX 13 13 19 14 15 15 17 16 14 17 16 19 18 21 9 23 1 25 5 27
REMARK H PARENT 14 18 16 20 18 22 9 24 1 26 5 28
REMARK Flexibility Score: inf
ROOT
ATOM      1  C   UNL     1       2.675   8.528  -0.571  1.00  0.00     0.402 A 
ATOM      2  O   UNL     1       3.978   8.540  -0.307  1.00  0.00    -0.202 OA
ATOM      3  C   UNL     1       4.474   8.752   0.908  1.00  0.00     0.368 A 
ATOM      4  C   UNL     1       5.860   8.743   1.088  1.00  0.00     0.162 A 
ATOM      5  C   UNL     1       6.408   8.958   2.356  1.00  0.00     0.128 A 
ATOM      6  C   UNL     1       5.567   9.183   3.448  1.00  0.00     0.093 A 
ATOM      7  C   UNL     1       4.175   9.196   3.294  1.00  0.00     0.136 A 
ATOM      8  C   UNL     1       3.613   8.980   2.009  1.00  0.00     0.125 A 
ATOM      9  C   UNL     1       2.232   8.989   1.758  1.00  0.00     0.078 A 
ATOM     10  C   UNL     1       1.753   8.774   0.463  1.00  0.00     0.223 A 
ENDROOT
BRANCH   1  11
ATOM     11  C   UNL     1       2.246   8.273  -1.966  1.00  0.00     0.091 A 
ATOM     12  C   UNL     1       1.753   9.307  -2.781  1.00  0.00     0.068 A 
ATOM     13  C   UNL     1       1.331   9.042  -4.090  1.00  0.00     0.162 A 
ATOM     14  C   UNL     1       2.277   6.963  -2.469  1.00  0.00     0.068 A 
ATOM     15  C   UNL     1       1.387   7.730  -4.593  1.00  0.00     0.200 A 
ATOM     16  C   UNL     1       1.858   6.692  -3.778  1.00  0.00     0.162 A 
BRANCH  13  17
ATOM     17  O   UNL     1       0.850  10.075  -4.893  1.00  0.00    -0.504 OA
ATOM     18  H   UNL     1       1.387  10.920  -5.050  1.00  0.00     0.293 HD
ENDBRANCH  13  17
BRANCH  15  19
ATOM     19  O   UNL     1       0.976   7.442  -5.894  1.00  0.00    -0.502 OA
ATOM     20  H   UNL     1       0.532   6.565  -6.137  1.00  0.00     0.293 HD
ENDBRANCH  15  19
BRANCH  16  21
ATOM     21  O   UNL     1       1.904   5.392  -4.278  1.00  0.00    -0.504 OA
ATOM     22  H   UNL     1       2.693   5.060  -4.821  1.00  0.00     0.293 HD
ENDBRANCH  16  21
ENDBRANCH   1  11
BRANCH  10  23
ATOM     23  O   UNL     1       0.384   8.831   0.204  1.00  0.00    -0.500 OA
ATOM     24  H   UNL     1      -0.294   8.965   0.947  1.00  0.00     0.294 HD
ENDBRANCH  10  23
BRANCH   5  25
ATOM     25  O   UNL     1       7.789   8.952   2.543  1.00  0.00    -0.507 OA
ATOM     26  H   UNL     1       8.311   8.085   2.605  1.00  0.00     0.293 HD
ENDBRANCH   5  25
BRANCH   7  27
ATOM     27  O   UNL     1       3.403   9.424   4.438  1.00  0.00    -0.507 OA
ATOM     28  H   UNL     1       3.720   9.939   5.245  1.00  0.00     0.293 HD
ENDBRANCH   7  27
TORSDOF 7
ENDMDL
MODEL 5
REMARK VINA RESULT:    -5.046      1.180      7.176
REMARK INTER + INTRA:          -6.605
REMARK INTER:                  -6.229
REMARK INTRA:                  -0.376
REMARK UNBOUND:                -0.379
REMARK SMILES Oc1cc(O)c2cc(O)c(-c3cc(O)c(O)c(O)c3)[o+]c2c1
REMARK SMILES IDX 10 1 20 2 21 3 22 4 2 5 3 6 4 7 6 8 7 9 8 10 11 11 12 12
REMARK SMILES IDX 13 13 19 14 15 15 17 16 14 17 16 19 18 21 9 23 1 25 5 27
REMARK H PARENT 14 18 16 20 18 22 9 24 1 26 5 28
REMARK Flexibility Score: inf
ROOT
ATOM      1  C   UNL     1       3.454   7.193  -3.244  1.00  0.00     0.402 A 
ATOM      2  O   UNL     1       2.486   7.868  -2.632  1.00  0.00    -0.202 OA
ATOM      3  C   UNL     1       2.563   8.273  -1.369  1.00  0.00     0.368 A 
ATOM      4  C   UNL     1       1.494   8.980  -0.813  1.00  0.00     0.162 A 
ATOM      5  C   UNL     1       1.552   9.420   0.512  1.00  0.00     0.128 A 
ATOM      6  C   UNL     1       2.683   9.153   1.286  1.00  0.00     0.093 A 
ATOM      7  C   UNL     1       3.769   8.446   0.752  1.00  0.00     0.136 A 
ATOM      8  C   UNL     1       3.715   7.995  -0.593  1.00  0.00     0.125 A 
ATOM      9  C   UNL     1       4.748   7.269  -1.206  1.00  0.00     0.078 A 
ATOM     10  C   UNL     1       4.621   6.853  -2.534  1.00  0.00     0.223 A 
ENDROOT
BRANCH   1  11
ATOM     11  C   UNL     1       3.252   6.806  -4.659  1.00  0.00     0.091 A 
ATOM     12  C   UNL     1       3.564   7.686  -5.711  1.00  0.00     0.068 A 
ATOM     13  C   UNL     1       3.344   7.310  -7.043  1.00  0.00     0.162 A 
ATOM     14  C   UNL     1       2.683   5.558  -4.959  1.00  0.00     0.068 A 
ATOM     15  C   UNL     1       2.796   6.049  -7.334  1.00  0.00     0.200 A 
ATOM     16  C   UNL     1       2.463   5.176  -6.289  1.00  0.00     0.162 A 
BRANCH  13  17
ATOM     17  O   UNL     1       3.663   8.186  -8.079  1.00  0.00    -0.504 OA
ATOM     18  H   UNL     1       3.273   9.120  -8.123  1.00  0.00     0.293 HD
ENDBRANCH  13  17
BRANCH  15  19
ATOM     19  O   UNL     1       2.571   5.651  -8.652  1.00  0.00    -0.502 OA
ATOM     20  H   UNL     1       2.860   6.214  -9.441  1.00  0.00     0.293 HD
ENDBRANCH  15  19
BRANCH  16  21
ATOM     21  O   UNL     1       1.911   3.930  -6.582  1.00  0.00    -0.504 OA
ATOM     22  H   UNL     1       1.949   3.164  -5.918  1.00  0.00     0.293 HD
ENDBRANCH  16  21
ENDBRANCH   1  11
BRANCH  10  23
ATOM     23  O   UNL     1       5.625   6.090  -3.129  1.00  0.00    -0.500 OA
ATOM     24  H   UNL     1       6.429   5.765  -2.603  1.00  0.00     0.294 HD
ENDBRANCH  10  23
BRANCH   5  25
ATOM     25  O   UNL     1       0.489  10.125   1.073  1.00  0.00    -0.507 OA
ATOM     26  H   UNL     1       0.384  10.214   2.078  1.00  0.00     0.293 HD
ENDBRANCH   5  25
BRANCH   7  27
ATOM     27  O   UNL     1       4.866   8.222   1.590  1.00  0.00    -0.507 OA
ATOM     28  H   UNL     1       5.763   7.885   1.276  1.00  0.00     0.293 HD
ENDBRANCH   7  27
TORSDOF 7
ENDMDL
MODEL 6
REMARK VINA RESULT:    -4.990      1.451      2.102
REMARK INTER + INTRA:          -6.535
REMARK INTER:                  -6.844
REMARK INTRA:                   0.308
REMARK UNBOUND:                -0.379
REMARK SMILES Oc1cc(O)c2cc(O)c(-c3cc(O)c(O)c(O)c3)[o+]c2c1
REMARK SMILES IDX 10 1 20 2 21 3 22 4 2 5 3 6 4 7 6 8 7 9 8 10 11 11 12 12
REMARK SMILES IDX 13 13 19 14 15 15 17 16 14 17 16 19 18 21 9 23 1 25 5 27
REMARK H PARENT 14 18 16 20 18 22 9 24 1 26 5 28
REMARK Flexibility Score: inf
ROOT
ATOM      1  C   UNL     1       2.370   7.814  -2.921  1.00  0.00     0.402 A 
ATOM      2  O   UNL     1       3.193   6.845  -3.311  1.00  0.00    -0.202 OA
ATOM      3  C   UNL     1       3.261   6.404  -4.562  1.00  0.00     0.368 A 
ATOM      4  C   UNL     1       4.160   5.382  -4.876  1.00  0.00     0.162 A 
ATOM      5  C   UNL     1       4.255   4.901  -6.185  1.00  0.00     0.128 A 
ATOM      6  C   UNL     1       3.445   5.445  -7.185  1.00  0.00     0.093 A 
ATOM      7  C   UNL     1       2.536   6.471  -6.897  1.00  0.00     0.136 A 
ATOM      8  C   UNL     1       2.435   6.961  -5.569  1.00  0.00     0.125 A 
ATOM      9  C   UNL     1       1.543   7.975  -5.185  1.00  0.00     0.078 A 
ATOM     10  C   UNL     1       1.497   8.402  -3.855  1.00  0.00     0.223 A 
ENDROOT
BRANCH   1  11
ATOM     11  C   UNL     1       2.395   8.224  -1.499  1.00  0.00     0.091 A 
ATOM     12  C   UNL     1       1.313   8.907  -0.915  1.00  0.00     0.068 A 
ATOM     13  C   UNL     1       1.364   9.307   0.427  1.00  0.00     0.162 A 
ATOM     14  C   UNL     1       3.543   7.980  -0.729  1.00  0.00     0.068 A 
ATOM     15  C   UNL     1       2.509   9.037   1.196  1.00  0.00     0.200 A 
ATOM     16  C   UNL     1       3.599   8.376   0.614  1.00  0.00     0.162 A 
BRANCH  13  17
ATOM     17  O   UNL     1       0.283   9.977   0.999  1.00  0.00    -0.504 OA
ATOM     18  H   UNL     1      -0.447   9.481   1.497  1.00  0.00     0.293 HD
ENDBRANCH  13  17
BRANCH  15  19
ATOM     19  O   UNL     1       2.582   9.422   2.535  1.00  0.00    -0.502 OA
ATOM     20  H   UNL     1       2.648  10.393   2.813  1.00  0.00     0.293 HD
ENDBRANCH  15  19
BRANCH  16  21
ATOM     21  O   UNL     1       4.736   8.118   1.378  1.00  0.00    -0.504 OA
ATOM     22  H   UNL     1       5.024   8.737   2.127  1.00  0.00     0.293 HD
ENDBRANCH  16  21
ENDBRANCH   1  11
BRANCH  10  23
ATOM     23  O   UNL     1       0.578   9.375  -3.464  1.00  0.00    -0.500 OA
ATOM     24  H   UNL     1       0.133   9.353  -2.552  1.00  0.00     0.294 HD
ENDBRANCH  10  23
BRANCH   5  25
ATOM     25  O   UNL     1       5.148   3.882  -6.505  1.00  0.00    -0.507 OA
ATOM     26  H   UNL     1       5.096   2.972  -6.061  1.00  0.00     0.293 HD
ENDBRANCH   5  25
BRANCH   7  27
ATOM     27  O   UNL     1       1.765   6.964  -7.954  1.00  0.00    -0.507 OA
ATOM     28  H   UNL     1       1.482   6.419  -8.755  1.00  0.00     0.293 HD
ENDBRANCH   7  27
TORSDOF 7
ENDMDL
MODEL 7
REMARK VINA RESULT:    -4.957      1.440      2.756
REMARK INTER + INTRA:          -6.495
REMARK INTER:                  -6.814
REMARK INTRA:                   0.319
REMARK UNBOUND:                -0.379
REMARK SMILES Oc1cc(O)c2cc(O)c(-c3cc(O)c(O)c(O)c3)[o+]c2c1
REMARK SMILES IDX 10 1 20 2 21 3 22 4 2 5 3 6 4 7 6 8 7 9 8 10 11 11 12 12
REMARK SMILES IDX 13 13 19 14 15 15 17 16 14 17 16 19 18 21 9 23 1 25 5 27
REMARK H PARENT 14 18 16 20 18 22 9 24 1 26 5 28
REMARK Flexibility Score: inf
ROOT
ATOM      1  C   UNL     1       2.498   7.784  -2.926  1.00  0.00     0.402 A 
ATOM      2  O   UNL     1       3.315   6.811  -3.321  1.00  0.00    -0.202 OA
ATOM      3  C   UNL     1       3.366   6.365  -4.571  1.00  0.00     0.368 A 
ATOM      4  C   UNL     1       4.259   5.340  -4.892  1.00  0.00     0.162 A 
ATOM      5  C   UNL     1       4.337   4.854  -6.201  1.00  0.00     0.128 A 
ATOM      6  C   UNL     1       3.517   5.396  -7.193  1.00  0.00     0.093 A 
ATOM      7  C   UNL     1       2.613   6.425  -6.898  1.00  0.00     0.136 A 
ATOM      8  C   UNL     1       2.529   6.920  -5.570  1.00  0.00     0.125 A 
ATOM      9  C   UNL     1       1.645   7.938  -5.180  1.00  0.00     0.078 A 
ATOM     10  C   UNL     1       1.615   8.370  -3.851  1.00  0.00     0.223 A 
ENDROOT
BRANCH   1  11
ATOM     11  C   UNL     1       2.541   8.199  -1.505  1.00  0.00     0.091 A 
ATOM     12  C   UNL     1       3.682   7.981  -0.712  1.00  0.00     0.068 A 
ATOM     13  C   UNL     1       3.696   8.360   0.637  1.00  0.00     0.162 A 
ATOM     14  C   UNL     1       1.402   8.771  -0.918  1.00  0.00     0.068 A 
ATOM     15  C   UNL     1       2.557   8.954   1.209  1.00  0.00     0.200 A 
ATOM     16  C   UNL     1       1.411   9.155   0.430  1.00  0.00     0.162 A 
BRANCH  13  17
ATOM     17  O   UNL     1       4.834   8.145   1.413  1.00  0.00    -0.504 OA
ATOM     18  H   UNL     1       5.237   8.883   1.979  1.00  0.00     0.293 HD
ENDBRANCH  13  17
BRANCH  15  19
ATOM     19  O   UNL     1       2.548   9.343   2.549  1.00  0.00    -0.502 OA
ATOM     20  H   UNL     1       1.688   9.448   3.073  1.00  0.00     0.293 HD
ENDBRANCH  15  19
BRANCH  16  21
ATOM     21  O   UNL     1       0.281   9.736   1.004  1.00  0.00    -0.504 OA
ATOM     22  H   UNL     1      -0.389  10.255   0.448  1.00  0.00     0.293 HD
ENDBRANCH  16  21
ENDBRANCH   1  11
BRANCH  10  23
ATOM     23  O   UNL     1       0.703   9.347  -3.452  1.00  0.00    -0.500 OA
ATOM     24  H   UNL     1      -0.093   9.599  -4.028  1.00  0.00     0.294 HD
ENDBRANCH  10  23
BRANCH   5  25
ATOM     25  O   UNL     1       5.224   3.831  -6.528  1.00  0.00    -0.507 OA
ATOM     26  H   UNL     1       6.012   3.991  -7.146  1.00  0.00     0.293 HD
ENDBRANCH   5  25
BRANCH   7  27
ATOM     27  O   UNL     1       1.830   6.915  -7.948  1.00  0.00    -0.507 OA
ATOM     28  H   UNL     1       2.144   7.599  -8.620  1.00  0.00     0.293 HD
ENDBRANCH   7  27
TORSDOF 7
ENDMDL
MODEL 8
REMARK VINA RESULT:    -4.885     15.664     17.883
REMARK INTER + INTRA:          -6.406
REMARK INTER:                  -6.026
REMARK INTRA:                  -0.380
REMARK UNBOUND:                -0.379
REMARK SMILES Oc1cc(O)c2cc(O)c(-c3cc(O)c(O)c(O)c3)[o+]c2c1
REMARK SMILES IDX 10 1 20 2 21 3 22 4 2 5 3 6 4 7 6 8 7 9 8 10 11 11 12 12
REMARK SMILES IDX 13 13 19 14 15 15 17 16 14 17 16 19 18 21 9 23 1 25 5 27
REMARK H PARENT 14 18 16 20 18 22 9 24 1 26 5 28
REMARK Flexibility Score: inf
ROOT
ATOM      1  C   UNL     1       3.512  -4.780   8.688  1.00  0.00     0.402 A 
ATOM      2  O   UNL     1       3.365  -5.939   8.052  1.00  0.00    -0.202 OA
ATOM      3  C   UNL     1       2.190  -6.533   7.879  1.00  0.00     0.368 A 
ATOM      4  C   UNL     1       2.136  -7.749   7.194  1.00  0.00     0.162 A 
ATOM      5  C   UNL     1       0.912  -8.394   6.994  1.00  0.00     0.128 A 
ATOM      6  C   UNL     1      -0.264  -7.820   7.481  1.00  0.00     0.093 A 
ATOM      7  C   UNL     1      -0.238  -6.600   8.170  1.00  0.00     0.136 A 
ATOM      8  C   UNL     1       1.003  -5.943   8.378  1.00  0.00     0.125 A 
ATOM      9  C   UNL     1       1.127  -4.727   9.069  1.00  0.00     0.078 A 
ATOM     10  C   UNL     1       2.385  -4.142   9.238  1.00  0.00     0.223 A 
ENDROOT
BRANCH   1  11
ATOM     11  C   UNL     1       4.875  -4.215   8.808  1.00  0.00     0.091 A 
ATOM     12  C   UNL     1       5.697  -4.515   9.909  1.00  0.00     0.068 A 
ATOM     13  C   UNL     1       6.976  -3.952  10.017  1.00  0.00     0.162 A 
ATOM     14  C   UNL     1       5.338  -3.315   7.836  1.00  0.00     0.068 A 
ATOM     15  C   UNL     1       7.440  -3.070   9.025  1.00  0.00     0.200 A 
ATOM     16  C   UNL     1       6.617  -2.750   7.938  1.00  0.00     0.162 A 
BRANCH  13  17
ATOM     17  O   UNL     1       7.787  -4.261  11.108  1.00  0.00    -0.504 OA
ATOM     18  H   UNL     1       7.476  -4.111  12.060  1.00  0.00     0.293 HD
ENDBRANCH  13  17
BRANCH  15  19
ATOM     19  O   UNL     1       8.710  -2.500   9.109  1.00  0.00    -0.502 OA
ATOM     20  H   UNL     1       8.992  -1.926   9.894  1.00  0.00     0.293 HD
ENDBRANCH  15  19
BRANCH  16  21
ATOM     21  O   UNL     1       7.077  -1.868   6.962  1.00  0.00    -0.504 OA
ATOM     22  H   UNL     1       6.605  -1.771   6.069  1.00  0.00     0.293 HD
ENDBRANCH  16  21
ENDBRANCH   1  11
BRANCH  10  23
ATOM     23  O   UNL     1       2.514  -2.959   9.966  1.00  0.00    -0.500 OA
ATOM     24  H   UNL     1       2.571  -2.960  10.978  1.00  0.00     0.294 HD
ENDBRANCH  10  23
BRANCH   5  25
ATOM     25  O   UNL     1       0.851  -9.608   6.312  1.00  0.00    -0.507 OA
ATOM     26  H   UNL     1       0.685  -9.646   5.313  1.00  0.00     0.293 HD
ENDBRANCH   5  25
BRANCH   7  27
ATOM     27  O   UNL     1      -1.458  -6.090   8.623  1.00  0.00    -0.507 OA
ATOM     28  H   UNL     1      -2.110  -5.577   8.049  1.00  0.00     0.293 HD
ENDBRANCH   7  27
TORSDOF 7
ENDMDL
MODEL 9
REMARK VINA RESULT:    -4.880      2.690      3.390
REMARK INTER + INTRA:          -6.400
REMARK INTER:                  -6.277
REMARK INTRA:                  -0.123
REMARK UNBOUND:                -0.379
REMARK SMILES Oc1cc(O)c2cc(O)c(-c3cc(O)c(O)c(O)c3)[o+]c2c1
REMARK SMILES IDX 10 1 20 2 21 3 22 4 2 5 3 6 4 7 6 8 7 9 8 10 11 11 12 12
REMARK SMILES IDX 13 13 19 14 15 15 17 16 14 17 16 19 18 21 9 23 1 25 5 27
REMARK H PARENT 14 18 16 20 18 22 9 24 1 26 5 28
REMARK Flexibility Score: inf
ROOT
ATOM      1  C   UNL     1       3.067   5.928  -4.722  1.00  0.00     0.402 A 
ATOM      2  O   UNL     1       4.321   5.604  -5.023  1.00  0.00    -0.202 OA
ATOM      3  C   UNL     1       4.642   4.757  -5.995  1.00  0.00     0.368 A 
ATOM      4  C   UNL     1       5.990   4.481  -6.240  1.00  0.00     0.162 A 
ATOM      5  C   UNL     1       6.356   3.597  -7.259  1.00  0.00     0.128 A 
ATOM      6  C   UNL     1       5.370   2.986  -8.037  1.00  0.00     0.093 A 
ATOM      7  C   UNL     1       4.012   3.247  -7.813  1.00  0.00     0.136 A 
ATOM      8  C   UNL     1       3.635   4.142  -6.778  1.00  0.00     0.125 A 
ATOM      9  C   UNL     1       2.300   4.451  -6.473  1.00  0.00     0.078 A 
ATOM     10  C   UNL     1       2.006   5.339  -5.434  1.00  0.00     0.223 A 
ENDROOT
BRANCH   1  11
ATOM     11  C   UNL     1       2.838   6.892  -3.621  1.00  0.00     0.091 A 
ATOM     12  C   UNL     1       2.038   8.033  -3.802  1.00  0.00     0.068 A 
ATOM     13  C   UNL     1       1.851   8.946  -2.755  1.00  0.00     0.162 A 
ATOM     14  C   UNL     1       3.478   6.696  -2.387  1.00  0.00     0.068 A 
ATOM     15  C   UNL     1       2.478   8.728  -1.516  1.00  0.00     0.200 A 
ATOM     16  C   UNL     1       3.293   7.604  -1.336  1.00  0.00     0.162 A 
BRANCH  13  17
ATOM     17  O   UNL     1       1.050  10.072  -2.942  1.00  0.00    -0.504 OA
ATOM     18  H   UNL     1       1.423  11.010  -2.852  1.00  0.00     0.293 HD
ENDBRANCH  13  17
BRANCH  15  19
ATOM     19  O   UNL     1       2.304   9.621  -0.458  1.00  0.00    -0.502 OA
ATOM     20  H   UNL     1       2.251  10.622  -0.601  1.00  0.00     0.293 HD
ENDBRANCH  15  19
BRANCH  16  21
ATOM     21  O   UNL     1       3.920   7.396  -0.108  1.00  0.00    -0.504 OA
ATOM     22  H   UNL     1       3.776   6.545   0.423  1.00  0.00     0.293 HD
ENDBRANCH  16  21
ENDBRANCH   1  11
BRANCH  10  23
ATOM     23  O   UNL     1       0.679   5.610  -5.099  1.00  0.00    -0.500 OA
ATOM     24  H   UNL     1       0.278   5.299  -4.221  1.00  0.00     0.294 HD
ENDBRANCH  10  23
BRANCH   5  25
ATOM     25  O   UNL     1       7.698   3.316  -7.508  1.00  0.00    -0.507 OA
ATOM     26  H   UNL     1       8.112   2.431  -7.238  1.00  0.00     0.293 HD
ENDBRANCH   5  25
BRANCH   7  27
ATOM     27  O   UNL     1       3.087   2.598  -8.638  1.00  0.00    -0.507 OA
ATOM     28  H   UNL     1       3.193   2.487  -9.635  1.00  0.00     0.293 HD
ENDBRANCH   7  27
TORSDOF 7
ENDMDL
