MODEL 1
REMARK VINA RESULT:     3.571      0.000      0.000
REMARK INTER + INTRA:           5.810
REMARK INTER:                   6.494
REMARK INTRA:                  -0.684
REMARK UNBOUND:                -0.684
REMARK SMILES CCCCCCCCCCCCCCCC(=O)[O-]
REMARK SMILES IDX 9 1 10 2 11 3 12 4 13 5 14 6 15 7 16 8 17 9 18 10 8 11 7 12
REMARK SMILES IDX 6 13 5 14 4 15 3 16 2 17 1 18
REMARK H PARENT
REMARK Flexibility Score: inf
ROOT
ATOM      1  C   UNL     1     -34.716  23.750   6.792  1.00  0.00     0.000 C 
ENDROOT
BRANCH   1   2
ATOM      2  C   UNL     1     -35.197  22.409   7.375  1.00  0.00     0.000 C 
BRANCH   2   3
ATOM      3  C   UNL     1     -36.620  22.429   7.964  1.00  0.00     0.000 C 
BRANCH   3   4
ATOM      4  C   UNL     1     -37.358  23.770   7.762  1.00  0.00     0.000 C 
BRANCH   4   5
ATOM      5  C   UNL     1     -38.804  23.579   7.282  1.00  0.00     0.000 C 
BRANCH   5   6
ATOM      6  C   UNL     1     -39.070  22.115   6.901  1.00  0.00     0.006 C 
BRANCH   6   7
ATOM      7  C   UNL     1     -39.109  21.907   5.382  1.00  0.00     0.053 C 
BRANCH   7   8
ATOM      8  C   UNL     1     -38.275  22.920   4.659  1.00  0.00     0.041 C 
ATOM      9  O   UNL     1     -37.067  22.677   4.401  1.00  0.00    -0.550 OA
ATOM     10  O   UNL     1     -38.823  24.145   4.302  1.00  0.00    -0.550 OA
ENDBRANCH   7   8
ENDBRANCH   6   7
ENDBRANCH   5   6
ENDBRANCH   4   5
ENDBRANCH   3   4
ENDBRANCH   2   3
ENDBRANCH   1   2
BRANCH   1  11
ATOM     11  C   UNL     1     -33.964  24.660   7.786  1.00  0.00     0.000 C 
BRANCH  11  12
ATOM     12  C   UNL     1     -33.001  25.675   7.140  1.00  0.00    -0.000 C 
BRANCH  12  13
ATOM     13  C   UNL     1     -32.165  25.124   5.969  1.00  0.00    -0.000 C 
BRANCH  13  14
ATOM     14  C   UNL     1     -31.149  24.028   6.350  1.00  0.00    -0.000 C 
BRANCH  14  15
ATOM     15  C   UNL     1     -30.316  24.323   7.611  1.00  0.00    -0.000 C 
BRANCH  15  16
ATOM     16  C   UNL     1     -28.906  23.718   7.549  1.00  0.00    -0.000 C 
BRANCH  16  17
ATOM     17  C   UNL     1     -27.844  24.767   7.898  1.00  0.00    -0.003 C 
ATOM     18  C   UNL     1     -27.811  25.884   6.859  1.00  0.00     0.004 C 
ENDBRANCH  16  17
ENDBRANCH  15  16
ENDBRANCH  14  15
ENDBRANCH  13  14
ENDBRANCH  12  13
ENDBRANCH  11  12
ENDBRANCH   1  11
TORSDOF 14
ENDMDL
MODEL 2
REMARK VINA RESULT:     5.222      3.724      8.463
REMARK INTER + INTRA:           8.811
REMARK INTER:                   8.908
REMARK INTRA:                  -0.098
REMARK UNBOUND:                -0.684
REMARK SMILES CCCCCCCCCCCCCCCC(=O)[O-]
REMARK SMILES IDX 9 1 10 2 11 3 12 4 13 5 14 6 15 7 16 8 17 9 18 10 8 11 7 12
REMARK SMILES IDX 6 13 5 14 4 15 3 16 2 17 1 18
REMARK H PARENT
REMARK Flexibility Score: inf
ROOT
ATOM      1  C   UNL     1     -34.979  23.037   6.872  1.00  0.00     0.000 C 
ENDROOT
BRANCH   1   2
ATOM      2  C   UNL     1     -34.074  24.220   7.262  1.00  0.00     0.000 C 
BRANCH   2   3
ATOM      3  C   UNL     1     -32.977  24.564   6.238  1.00  0.00     0.000 C 
BRANCH   3   4
ATOM      4  C   UNL     1     -31.582  24.774   6.866  1.00  0.00     0.000 C 
BRANCH   4   5
ATOM      5  C   UNL     1     -30.665  23.557   6.685  1.00  0.00     0.000 C 
BRANCH   5   6
ATOM      6  C   UNL     1     -29.566  23.530   7.757  1.00  0.00     0.006 C 
BRANCH   6   7
ATOM      7  C   UNL     1     -29.056  24.935   8.103  1.00  0.00     0.053 C 
BRANCH   7   8
ATOM      8  C   UNL     1     -27.865  25.314   7.278  1.00  0.00     0.041 C 
ATOM      9  O   UNL     1     -27.838  26.420   6.676  1.00  0.00    -0.550 OA
ATOM     10  O   UNL     1     -26.801  24.432   7.146  1.00  0.00    -0.550 OA
ENDBRANCH   7   8
ENDBRANCH   6   7
ENDBRANCH   5   6
ENDBRANCH   4   5
ENDBRANCH   3   4
ENDBRANCH   2   3
ENDBRANCH   1   2
BRANCH   1  11
ATOM     11  C   UNL     1     -35.818  22.450   8.027  1.00  0.00     0.000 C 
BRANCH  11  12
ATOM     12  C   UNL     1     -36.571  21.149   7.690  1.00  0.00    -0.000 C 
BRANCH  12  13
ATOM     13  C   UNL     1     -38.102  21.221   7.857  1.00  0.00    -0.000 C 
BRANCH  13  14
ATOM     14  C   UNL     1     -38.877  21.649   6.594  1.00  0.00    -0.000 C 
BRANCH  14  15
ATOM     15  C   UNL     1     -37.999  21.977   5.372  1.00  0.00    -0.000 C 
BRANCH  15  16
ATOM     16  C   UNL     1     -38.314  23.352   4.764  1.00  0.00    -0.000 C 
BRANCH  16  17
ATOM     17  C   UNL     1     -39.125  24.210   5.741  1.00  0.00    -0.003 C 
ATOM     18  C   UNL     1     -38.357  24.444   7.038  1.00  0.00     0.004 C 
ENDBRANCH  16  17
ENDBRANCH  15  16
ENDBRANCH  14  15
ENDBRANCH  13  14
ENDBRANCH  12  13
ENDBRANCH  11  12
ENDBRANCH   1  11
TORSDOF 14
ENDMDL
MODEL 3
REMARK VINA RESULT:     5.398     12.482     14.535
REMARK INTER + INTRA:           9.132
REMARK INTER:                   9.951
REMARK INTRA:                  -0.819
REMARK UNBOUND:                -0.684
REMARK SMILES CCCCCCCCCCCCCCCC(=O)[O-]
REMARK SMILES IDX 9 1 10 2 11 3 12 4 13 5 14 6 15 7 16 8 17 9 18 10 8 11 7 12
REMARK SMILES IDX 6 13 5 14 4 15 3 16 2 17 1 18
REMARK H PARENT
REMARK Flexibility Score: inf
ROOT
ATOM      1  C   UNL     1     -28.216  32.945  -3.255  1.00  0.00     0.000 C 
ENDROOT
BRANCH   1   2
ATOM      2  C   UNL     1     -29.568  33.088  -2.533  1.00  0.00     0.000 C 
BRANCH   2   3
ATOM      3  C   UNL     1     -29.720  32.231  -1.262  1.00  0.00     0.000 C 
BRANCH   3   4
ATOM      4  C   UNL     1     -30.909  31.248  -1.312  1.00  0.00     0.000 C 
BRANCH   4   5
ATOM      5  C   UNL     1     -31.596  31.225  -2.685  1.00  0.00     0.000 C 
BRANCH   5   6
ATOM      6  C   UNL     1     -32.570  30.042  -2.795  1.00  0.00     0.006 C 
BRANCH   6   7
ATOM      7  C   UNL     1     -33.955  30.474  -3.293  1.00  0.00     0.053 C 
BRANCH   7   8
ATOM      8  C   UNL     1     -35.034  30.118  -2.318  1.00  0.00     0.041 C 
ATOM      9  O   UNL     1     -35.764  31.019  -1.825  1.00  0.00    -0.550 OA
ATOM     10  O   UNL     1     -35.211  28.798  -1.926  1.00  0.00    -0.550 OA
ENDBRANCH   7   8
ENDBRANCH   6   7
ENDBRANCH   5   6
ENDBRANCH   4   5
ENDBRANCH   3   4
ENDBRANCH   2   3
ENDBRANCH   1   2
BRANCH   1  11
ATOM     11  C   UNL     1     -27.421  31.670  -2.903  1.00  0.00     0.000 C 
BRANCH  11  12
ATOM     12  C   UNL     1     -26.044  31.551  -3.586  1.00  0.00    -0.000 C 
BRANCH  12  13
ATOM     13  C   UNL     1     -26.039  30.755  -4.906  1.00  0.00    -0.000 C 
BRANCH  13  14
ATOM     14  C   UNL     1     -26.463  31.558  -6.153  1.00  0.00    -0.000 C 
BRANCH  14  15
ATOM     15  C   UNL     1     -26.870  30.704  -7.369  1.00  0.00    -0.000 C 
BRANCH  15  16
ATOM     16  C   UNL     1     -25.739  30.552  -8.396  1.00  0.00    -0.000 C 
BRANCH  16  17
ATOM     17  C   UNL     1     -25.086  31.906  -8.697  1.00  0.00    -0.003 C 
ATOM     18  C   UNL     1     -23.565  31.796  -8.703  1.00  0.00     0.004 C 
ENDBRANCH  16  17
ENDBRANCH  15  16
ENDBRANCH  14  15
ENDBRANCH  13  14
ENDBRANCH  12  13
ENDBRANCH  11  12
ENDBRANCH   1  11
TORSDOF 14
ENDMDL
MODEL 4
REMARK VINA RESULT:     5.525      3.377      8.021
REMARK INTER + INTRA:           9.362
REMARK INTER:                   9.409
REMARK INTRA:                  -0.047
REMARK UNBOUND:                -0.684
REMARK SMILES CCCCCCCCCCCCCCCC(=O)[O-]
REMARK SMILES IDX 9 1 10 2 11 3 12 4 13 5 14 6 15 7 16 8 17 9 18 10 8 11 7 12
REMARK SMILES IDX 6 13 5 14 4 15 3 16 2 17 1 18
REMARK H PARENT
REMARK Flexibility Score: inf
ROOT
ATOM      1  C   UNL     1     -34.753  23.208   6.136  1.00  0.00     0.000 C 
ENDROOT
BRANCH   1   2
ATOM      2  C   UNL     1     -33.239  23.348   5.888  1.00  0.00     0.000 C 
BRANCH   2   3
ATOM      3  C   UNL     1     -32.818  24.634   5.153  1.00  0.00     0.000 C 
BRANCH   3   4
ATOM      4  C   UNL     1     -32.593  25.840   6.090  1.00  0.00     0.000 C 
BRANCH   4   5
ATOM      5  C   UNL     1     -32.581  25.441   7.572  1.00  0.00     0.000 C 
BRANCH   5   6
ATOM      6  C   UNL     1     -31.373  24.547   7.892  1.00  0.00     0.006 C 
BRANCH   6   7
ATOM      7  C   UNL     1     -30.132  24.935   7.078  1.00  0.00     0.053 C 
BRANCH   7   8
ATOM      8  C   UNL     1     -28.918  24.173   7.516  1.00  0.00     0.041 C 
ATOM      9  O   UNL     1     -29.028  22.986   7.921  1.00  0.00    -0.550 OA
ATOM     10  O   UNL     1     -27.672  24.786   7.509  1.00  0.00    -0.550 OA
ENDBRANCH   7   8
ENDBRANCH   6   7
ENDBRANCH   5   6
ENDBRANCH   4   5
ENDBRANCH   3   4
ENDBRANCH   2   3
ENDBRANCH   1   2
BRANCH   1  11
ATOM     11  C   UNL     1     -35.153  22.975   7.608  1.00  0.00     0.000 C 
BRANCH  11  12
ATOM     12  C   UNL     1     -36.492  22.241   7.812  1.00  0.00    -0.000 C 
BRANCH  12  13
ATOM     13  C   UNL     1     -37.703  23.157   8.077  1.00  0.00    -0.000 C 
BRANCH  13  14
ATOM     14  C   UNL     1     -39.059  22.602   7.595  1.00  0.00    -0.000 C 
BRANCH  14  15
ATOM     15  C   UNL     1     -39.002  21.198   6.967  1.00  0.00    -0.000 C 
BRANCH  15  16
ATOM     16  C   UNL     1     -38.471  21.209   5.527  1.00  0.00    -0.000 C 
BRANCH  16  17
ATOM     17  C   UNL     1     -39.124  22.331   4.712  1.00  0.00    -0.003 C 
ATOM     18  C   UNL     1     -38.146  23.477   4.469  1.00  0.00     0.004 C 
ENDBRANCH  16  17
ENDBRANCH  15  16
ENDBRANCH  14  15
ENDBRANCH  13  14
ENDBRANCH  12  13
ENDBRANCH  11  12
ENDBRANCH   1  11
TORSDOF 14
ENDMDL
MODEL 5
REMARK VINA RESULT:     5.725     13.985     17.055
REMARK INTER + INTRA:           9.727
REMARK INTER:                  10.532
REMARK INTRA:                  -0.805
REMARK UNBOUND:                -0.684
REMARK SMILES CCCCCCCCCCCCCCCC(=O)[O-]
REMARK SMILES IDX 9 1 10 2 11 3 12 4 13 5 14 6 15 7 16 8 17 9 18 10 8 11 7 12
REMARK SMILES IDX 6 13 5 14 4 15 3 16 2 17 1 18
REMARK H PARENT
REMARK Flexibility Score: inf
ROOT
ATOM      1  C   UNL     1     -27.576  31.512  -2.735  1.00  0.00     0.000 C 
ENDROOT
BRANCH   1   2
ATOM      2  C   UNL     1     -26.312  31.081  -3.502  1.00  0.00     0.000 C 
BRANCH   2   3
ATOM      3  C   UNL     1     -26.225  31.594  -4.951  1.00  0.00     0.000 C 
BRANCH   3   4
ATOM      4  C   UNL     1     -26.324  30.477  -6.013  1.00  0.00     0.000 C 
BRANCH   4   5
ATOM      5  C   UNL     1     -27.061  30.933  -7.280  1.00  0.00     0.000 C 
BRANCH   5   6
ATOM      6  C   UNL     1     -26.149  30.845  -8.511  1.00  0.00     0.006 C 
BRANCH   6   7
ATOM      7  C   UNL     1     -25.228  32.065  -8.642  1.00  0.00     0.053 C 
BRANCH   7   8
ATOM      8  C   UNL     1     -23.781  31.681  -8.583  1.00  0.00     0.041 C 
ATOM      9  O   UNL     1     -23.437  30.590  -8.058  1.00  0.00    -0.550 OA
ATOM     10  O   UNL     1     -22.812  32.545  -9.076  1.00  0.00    -0.550 OA
ENDBRANCH   7   8
ENDBRANCH   6   7
ENDBRANCH   5   6
ENDBRANCH   4   5
ENDBRANCH   3   4
ENDBRANCH   2   3
ENDBRANCH   1   2
BRANCH   1  11
ATOM     11  C   UNL     1     -28.199  32.845  -3.202  1.00  0.00     0.000 C 
BRANCH  11  12
ATOM     12  C   UNL     1     -29.624  33.116  -2.682  1.00  0.00    -0.000 C 
BRANCH  12  13
ATOM     13  C   UNL     1     -30.006  32.350  -1.401  1.00  0.00    -0.000 C 
BRANCH  13  14
ATOM     14  C   UNL     1     -30.914  31.123  -1.620  1.00  0.00    -0.000 C 
BRANCH  14  15
ATOM     15  C   UNL     1     -31.902  31.246  -2.795  1.00  0.00    -0.000 C 
BRANCH  15  16
ATOM     16  C   UNL     1     -32.875  30.061  -2.883  1.00  0.00    -0.000 C 
BRANCH  16  17
ATOM     17  C   UNL     1     -34.236  30.509  -3.429  1.00  0.00    -0.003 C 
ATOM     18  C   UNL     1     -35.324  30.386  -2.367  1.00  0.00     0.004 C 
ENDBRANCH  16  17
ENDBRANCH  15  16
ENDBRANCH  14  15
ENDBRANCH  13  14
ENDBRANCH  12  13
ENDBRANCH  11  12
ENDBRANCH   1  11
TORSDOF 14
ENDMDL
MODEL 6
REMARK VINA RESULT:     5.834      0.917      2.159
REMARK INTER + INTRA:           9.924
REMARK INTER:                  10.683
REMARK INTRA:                  -0.759
REMARK UNBOUND:                -0.684
REMARK SMILES CCCCCCCCCCCCCCCC(=O)[O-]
REMARK SMILES IDX 9 1 10 2 11 3 12 4 13 5 14 6 15 7 16 8 17 9 18 10 8 11 7 12
REMARK SMILES IDX 6 13 5 14 4 15 3 16 2 17 1 18
REMARK H PARENT
REMARK Flexibility Score: inf
ROOT
ATOM      1  C   UNL     1     -33.545  25.104   6.439  1.00  0.00     0.000 C 
ENDROOT
BRANCH   1   2
ATOM      2  C   UNL     1     -33.964  23.745   7.031  1.00  0.00     0.000 C 
BRANCH   2   3
ATOM      3  C   UNL     1     -35.445  23.643   7.438  1.00  0.00     0.000 C 
BRANCH   3   4
ATOM      4  C   UNL     1     -35.859  22.240   7.934  1.00  0.00     0.000 C 
BRANCH   4   5
ATOM      5  C   UNL     1     -37.374  22.007   7.844  1.00  0.00     0.000 C 
BRANCH   5   6
ATOM      6  C   UNL     1     -38.118  23.320   7.560  1.00  0.00     0.006 C 
BRANCH   6   7
ATOM      7  C   UNL     1     -39.075  23.199   6.366  1.00  0.00     0.053 C 
BRANCH   7   8
ATOM      8  C   UNL     1     -38.354  23.323   5.059  1.00  0.00     0.041 C 
ATOM      9  O   UNL     1     -38.587  24.298   4.297  1.00  0.00    -0.550 OA
ATOM     10  O   UNL     1     -37.452  22.343   4.667  1.00  0.00    -0.550 OA
ENDBRANCH   7   8
ENDBRANCH   6   7
ENDBRANCH   5   6
ENDBRANCH   4   5
ENDBRANCH   3   4
ENDBRANCH   2   3
ENDBRANCH   1   2
BRANCH   1  11
ATOM     11  C   UNL     1     -32.039  25.421   6.539  1.00  0.00     0.000 C 
BRANCH  11  12
ATOM     12  C   UNL     1     -31.271  24.615   7.604  1.00  0.00    -0.000 C 
BRANCH  12  13
ATOM     13  C   UNL     1     -30.144  23.719   7.055  1.00  0.00    -0.000 C 
BRANCH  13  14
ATOM     14  C   UNL     1     -28.894  23.617   7.953  1.00  0.00    -0.000 C 
BRANCH  14  15
ATOM     15  C   UNL     1     -27.612  24.225   7.355  1.00  0.00    -0.000 C 
BRANCH  15  16
ATOM     16  C   UNL     1     -27.543  25.750   7.517  1.00  0.00    -0.000 C 
BRANCH  16  17
ATOM     17  C   UNL     1     -28.125  26.458   6.288  1.00  0.00    -0.003 C 
ATOM     18  C   UNL     1     -27.398  27.770   6.012  1.00  0.00     0.004 C 
ENDBRANCH  16  17
ENDBRANCH  15  16
ENDBRANCH  14  15
ENDBRANCH  13  14
ENDBRANCH  12  13
ENDBRANCH  11  12
ENDBRANCH   1  11
TORSDOF 14
ENDMDL
MODEL 7
REMARK VINA RESULT:     5.917     12.885     14.967
REMARK INTER + INTRA:          10.075
REMARK INTER:                  10.812
REMARK INTRA:                  -0.738
REMARK UNBOUND:                -0.684
REMARK SMILES CCCCCCCCCCCCCCCC(=O)[O-]
REMARK SMILES IDX 9 1 10 2 11 3 12 4 13 5 14 6 15 7 16 8 17 9 18 10 8 11 7 12
REMARK SMILES IDX 6 13 5 14 4 15 3 16 2 17 1 18
REMARK H PARENT
REMARK Flexibility Score: inf
ROOT
ATOM      1  C   UNL     1     -27.171  31.605  -2.629  1.00  0.00     0.000 C 
ENDROOT
BRANCH   1   2
ATOM      2  C   UNL     1     -28.467  32.317  -3.059  1.00  0.00     0.000 C 
BRANCH   2   3
ATOM      3  C   UNL     1     -29.436  32.653  -1.910  1.00  0.00     0.000 C 
BRANCH   3   4
ATOM      4  C   UNL     1     -30.491  31.557  -1.647  1.00  0.00     0.000 C 
BRANCH   4   5
ATOM      5  C   UNL     1     -31.618  31.562  -2.689  1.00  0.00     0.000 C 
BRANCH   5   6
ATOM      6  C   UNL     1     -32.399  30.240  -2.662  1.00  0.00     0.006 C 
BRANCH   6   7
ATOM      7  C   UNL     1     -33.794  30.377  -3.286  1.00  0.00     0.053 C 
BRANCH   7   8
ATOM      8  C   UNL     1     -34.879  30.075  -2.297  1.00  0.00     0.041 C 
ATOM      9  O   UNL     1     -34.991  28.917  -1.814  1.00  0.00    -0.550 OA
ATOM     10  O   UNL     1     -35.787  31.061  -1.938  1.00  0.00    -0.550 OA
ENDBRANCH   7   8
ENDBRANCH   6   7
ENDBRANCH   5   6
ENDBRANCH   4   5
ENDBRANCH   3   4
ENDBRANCH   2   3
ENDBRANCH   1   2
BRANCH   1  11
ATOM     11  C   UNL     1     -26.041  31.616  -3.680  1.00  0.00     0.000 C 
BRANCH  11  12
ATOM     12  C   UNL     1     -26.315  30.774  -4.942  1.00  0.00    -0.000 C 
BRANCH  12  13
ATOM     13  C   UNL     1     -26.656  31.587  -6.206  1.00  0.00    -0.000 C 
BRANCH  13  14
ATOM     14  C   UNL     1     -26.911  30.746  -7.473  1.00  0.00    -0.000 C 
BRANCH  14  15
ATOM     15  C   UNL     1     -25.927  30.998  -8.630  1.00  0.00    -0.000 C 
BRANCH  15  16
ATOM     16  C   UNL     1     -24.470  30.698  -8.250  1.00  0.00    -0.000 C 
BRANCH  16  17
ATOM     17  C   UNL     1     -23.543  31.837  -8.690  1.00  0.00    -0.003 C 
ATOM     18  C   UNL     1     -24.342  33.067  -9.111  1.00  0.00     0.004 C 
ENDBRANCH  16  17
ENDBRANCH  15  16
ENDBRANCH  14  15
ENDBRANCH  13  14
ENDBRANCH  12  13
ENDBRANCH  11  12
ENDBRANCH   1  11
TORSDOF 14
ENDMDL
MODEL 8
REMARK VINA RESULT:     6.207     15.995     19.270
REMARK INTER + INTRA:          10.602
REMARK INTER:                  10.996
REMARK INTRA:                  -0.394
REMARK UNBOUND:                -0.684
REMARK SMILES CCCCCCCCCCCCCCCC(=O)[O-]
REMARK SMILES IDX 9 1 10 2 11 3 12 4 13 5 14 6 15 7 16 8 17 9 18 10 8 11 7 12
REMARK SMILES IDX 6 13 5 14 4 15 3 16 2 17 1 18
REMARK H PARENT
REMARK Flexibility Score: inf
ROOT
ATOM      1  C   UNL     1     -23.855  29.852  -7.939  1.00  0.00     0.000 C 
ENDROOT
BRANCH   1   2
ATOM      2  C   UNL     1     -22.472  29.208  -7.730  1.00  0.00     0.000 C 
BRANCH   2   3
ATOM      3  C   UNL     1     -22.487  27.866  -6.975  1.00  0.00     0.000 C 
BRANCH   3   4
ATOM      4  C   UNL     1     -21.182  27.569  -6.207  1.00  0.00     0.000 C 
BRANCH   4   5
ATOM      5  C   UNL     1     -21.275  26.293  -5.358  1.00  0.00     0.000 C 
BRANCH   5   6
ATOM      6  C   UNL     1     -19.950  26.014  -4.634  1.00  0.00     0.006 C 
BRANCH   6   7
ATOM      7  C   UNL     1     -18.876  25.462  -5.580  1.00  0.00     0.053 C 
BRANCH   7   8
ATOM      8  C   UNL     1     -19.016  23.984  -5.781  1.00  0.00     0.041 C 
ATOM      9  O   UNL     1     -18.933  23.491  -6.937  1.00  0.00    -0.550 OA
ATOM     10  O   UNL     1     -19.274  23.156  -4.697  1.00  0.00    -0.550 OA
ENDBRANCH   7   8
ENDBRANCH   6   7
ENDBRANCH   5   6
ENDBRANCH   4   5
ENDBRANCH   3   4
ENDBRANCH   2   3
ENDBRANCH   1   2
BRANCH   1  11
ATOM     11  C   UNL     1     -23.826  31.335  -8.364  1.00  0.00     0.000 C 
BRANCH  11  12
ATOM     12  C   UNL     1     -25.171  32.077  -8.237  1.00  0.00    -0.000 C 
BRANCH  12  13
ATOM     13  C   UNL     1     -26.420  31.183  -8.353  1.00  0.00    -0.000 C 
BRANCH  13  14
ATOM     14  C   UNL     1     -26.830  30.460  -7.054  1.00  0.00    -0.000 C 
BRANCH  14  15
ATOM     15  C   UNL     1     -26.368  31.145  -5.754  1.00  0.00    -0.000 C 
BRANCH  15  16
ATOM     16  C   UNL     1     -26.650  30.302  -4.502  1.00  0.00    -0.000 C 
BRANCH  16  17
ATOM     17  C   UNL     1     -26.259  31.063  -3.230  1.00  0.00    -0.003 C 
ATOM     18  C   UNL     1     -25.615  32.405  -3.566  1.00  0.00     0.004 C 
ENDBRANCH  16  17
ENDBRANCH  15  16
ENDBRANCH  14  15
ENDBRANCH  13  14
ENDBRANCH  12  13
ENDBRANCH  11  12
ENDBRANCH   1  11
TORSDOF 14
ENDMDL
