MODEL 1
REMARK VINA RESULT:    -4.019      0.000      0.000
REMARK INTER + INTRA:         -11.704
REMARK INTER:                  -8.719
REMARK INTRA:                  -2.985
REMARK UNBOUND:                -2.985
REMARK SMILES CCCCCCCCCCCCCCCCCCCCCC(=O)[O-]
REMARK SMILES IDX 12 1 11 2 10 3 9 4 8 5 7 6 6 7 5 8 4 9 3 10 2 11 1 12 13 13
REMARK SMILES IDX 14 14 15 15 16 16 17 17 18 18 19 19 20 20 21 21 22 22 23 23
REMARK SMILES IDX 24 24
REMARK H PARENT
REMARK Flexibility Score: inf
ROOT
ATOM      1  C   UNL     1     189.339 186.048 166.560  1.00  0.00     0.000 C 
ENDROOT
BRANCH   1   2
ATOM      2  C   UNL     1     188.289 185.221 165.795  1.00  0.00     0.000 C 
BRANCH   2   3
ATOM      3  C   UNL     1     186.884 185.338 166.412  1.00  0.00     0.000 C 
BRANCH   3   4
ATOM      4  C   UNL     1     186.812 184.746 167.830  1.00  0.00    -0.000 C 
BRANCH   4   5
ATOM      5  C   UNL     1     186.002 185.625 168.799  1.00  0.00    -0.000 C 
BRANCH   5   6
ATOM      6  C   UNL     1     185.460 186.897 168.128  1.00  0.00    -0.000 C 
BRANCH   6   7
ATOM      7  C   UNL     1     184.656 187.779 169.095  1.00  0.00    -0.000 C 
BRANCH   7   8
ATOM      8  C   UNL     1     184.318 187.017 170.382  1.00  0.00    -0.000 C 
BRANCH   8   9
ATOM      9  C   UNL     1     182.906 187.369 170.873  1.00  0.00    -0.000 C 
BRANCH   9  10
ATOM     10  C   UNL     1     182.056 188.074 169.800  1.00  0.00    -0.000 C 
BRANCH  10  11
ATOM     11  C   UNL     1     181.684 189.533 170.124  1.00  0.00    -0.003 C 
ATOM     12  C   UNL     1     181.197 190.311 168.903  1.00  0.00     0.004 C 
ENDBRANCH  10  11
ENDBRANCH   9  10
ENDBRANCH   8   9
ENDBRANCH   7   8
ENDBRANCH   6   7
ENDBRANCH   5   6
ENDBRANCH   4   5
ENDBRANCH   3   4
ENDBRANCH   2   3
ENDBRANCH   1   2
BRANCH   1  13
ATOM     13  C   UNL     1     189.587 187.450 165.974  1.00  0.00     0.000 C 
BRANCH  13  14
ATOM     14  C   UNL     1     189.735 188.526 167.065  1.00  0.00     0.000 C 
BRANCH  14  15
ATOM     15  C   UNL     1     189.249 188.043 168.441  1.00  0.00     0.000 C 
BRANCH  15  16
ATOM     16  C   UNL     1     188.292 189.039 169.116  1.00  0.00     0.000 C 
BRANCH  16  17
ATOM     17  C   UNL     1     187.905 188.560 170.520  1.00  0.00     0.000 C 
BRANCH  17  18
ATOM     18  C   UNL     1     188.617 187.247 170.870  1.00  0.00     0.000 C 
BRANCH  18  19
ATOM     19  C   UNL     1     187.744 186.296 171.707  1.00  0.00     0.000 C 
BRANCH  19  20
ATOM     20  C   UNL     1     188.481 185.678 172.913  1.00  0.00     0.006 C 
BRANCH  20  21
ATOM     21  C   UNL     1     189.986 185.984 172.892  1.00  0.00     0.053 C 
BRANCH  21  22
ATOM     22  C   UNL     1     190.778 184.724 173.030  1.00  0.00     0.041 C 
ATOM     23  O   UNL     1     190.931 184.194 174.162  1.00  0.00    -0.550 OA
ATOM     24  O   UNL     1     191.307 184.107 171.904  1.00  0.00    -0.550 OA
ENDBRANCH  21  22
ENDBRANCH  20  21
ENDBRANCH  19  20
ENDBRANCH  18  19
ENDBRANCH  17  18
ENDBRANCH  16  17
ENDBRANCH  15  16
ENDBRANCH  14  15
ENDBRANCH  13  14
ENDBRANCH   1  13
TORSDOF 20
ENDMDL
MODEL 2
REMARK VINA RESULT:    -3.978     11.523     13.649
REMARK INTER + INTRA:         -11.614
REMARK INTER:                  -7.635
REMARK INTRA:                  -3.979
REMARK UNBOUND:                -2.985
REMARK SMILES CCCCCCCCCCCCCCCCCCCCCC(=O)[O-]
REMARK SMILES IDX 12 1 11 2 10 3 9 4 8 5 7 6 6 7 5 8 4 9 3 10 2 11 1 12 13 13
REMARK SMILES IDX 14 14 15 15 16 16 17 17 18 18 19 19 20 20 21 21 22 22 23 23
REMARK SMILES IDX 24 24
REMARK H PARENT
REMARK Flexibility Score: inf
ROOT
ATOM      1  C   UNL     1     182.629 194.382 178.408  1.00  0.00     0.000 C 
ENDROOT
BRANCH   1   2
ATOM      2  C   UNL     1     181.523 194.122 177.369  1.00  0.00     0.000 C 
BRANCH   2   3
ATOM      3  C   UNL     1     180.122 194.480 177.900  1.00  0.00     0.000 C 
BRANCH   3   4
ATOM      4  C   UNL     1     179.925 195.996 178.066  1.00  0.00    -0.000 C 
BRANCH   4   5
ATOM      5  C   UNL     1     179.885 196.740 176.719  1.00  0.00    -0.000 C 
BRANCH   5   6
ATOM      6  C   UNL     1     181.048 197.733 176.560  1.00  0.00    -0.000 C 
BRANCH   6   7
ATOM      7  C   UNL     1     181.581 197.794 175.120  1.00  0.00    -0.000 C 
BRANCH   7   8
ATOM      8  C   UNL     1     182.527 196.622 174.834  1.00  0.00    -0.000 C 
BRANCH   8   9
ATOM      9  C   UNL     1     181.927 195.676 173.783  1.00  0.00    -0.000 C 
BRANCH   9  10
ATOM     10  C   UNL     1     180.670 196.253 173.105  1.00  0.00    -0.000 C 
BRANCH  10  11
ATOM     11  C   UNL     1     179.401 195.395 173.258  1.00  0.00    -0.003 C 
ATOM     12  C   UNL     1     179.637 194.117 174.060  1.00  0.00     0.004 C 
ENDBRANCH  10  11
ENDBRANCH   9  10
ENDBRANCH   8   9
ENDBRANCH   7   8
ENDBRANCH   6   7
ENDBRANCH   5   6
ENDBRANCH   4   5
ENDBRANCH   3   4
ENDBRANCH   2   3
ENDBRANCH   1   2
BRANCH   1  13
ATOM     13  C   UNL     1     183.641 195.466 177.993  1.00  0.00     0.000 C 
BRANCH  13  14
ATOM     14  C   UNL     1     184.032 196.385 179.165  1.00  0.00     0.000 C 
BRANCH  14  15
ATOM     15  C   UNL     1     182.810 196.988 179.877  1.00  0.00     0.000 C 
BRANCH  15  16
ATOM     16  C   UNL     1     182.799 196.697 181.386  1.00  0.00     0.000 C 
BRANCH  16  17
ATOM     17  C   UNL     1     181.585 195.843 181.770  1.00  0.00     0.000 C 
BRANCH  17  18
ATOM     18  C   UNL     1     181.982 194.373 181.960  1.00  0.00     0.000 C 
BRANCH  18  19
ATOM     19  C   UNL     1     183.486 194.189 182.229  1.00  0.00     0.000 C 
BRANCH  19  20
ATOM     20  C   UNL     1     184.138 193.088 181.368  1.00  0.00     0.006 C 
BRANCH  20  21
ATOM     21  C   UNL     1     185.664 193.236 181.293  1.00  0.00     0.053 C 
BRANCH  21  22
ATOM     22  C   UNL     1     186.288 192.913 182.614  1.00  0.00     0.041 C 
ATOM     23  O   UNL     1     187.044 193.747 183.177  1.00  0.00    -0.550 OA
ATOM     24  O   UNL     1     185.995 191.712 183.246  1.00  0.00    -0.550 OA
ENDBRANCH  21  22
ENDBRANCH  20  21
ENDBRANCH  19  20
ENDBRANCH  18  19
ENDBRANCH  17  18
ENDBRANCH  16  17
ENDBRANCH  15  16
ENDBRANCH  14  15
ENDBRANCH  13  14
ENDBRANCH   1  13
TORSDOF 20
ENDMDL
MODEL 3
REMARK VINA RESULT:    -3.878      2.204      6.112
REMARK INTER + INTRA:         -11.399
REMARK INTER:                  -7.230
REMARK INTRA:                  -4.169
REMARK UNBOUND:                -2.985
REMARK SMILES CCCCCCCCCCCCCCCCCCCCCC(=O)[O-]
REMARK SMILES IDX 12 1 11 2 10 3 9 4 8 5 7 6 6 7 5 8 4 9 3 10 2 11 1 12 13 13
REMARK SMILES IDX 14 14 15 15 16 16 17 17 18 18 19 19 20 20 21 21 22 22 23 23
REMARK SMILES IDX 24 24
REMARK H PARENT
REMARK Flexibility Score: inf
ROOT
ATOM      1  C   UNL     1     185.536 186.496 168.568  1.00  0.00     0.000 C 
ENDROOT
BRANCH   1   2
ATOM      2  C   UNL     1     185.600 187.032 170.010  1.00  0.00     0.000 C 
BRANCH   2   3
ATOM      3  C   UNL     1     186.822 186.500 170.781  1.00  0.00     0.000 C 
BRANCH   3   4
ATOM      4  C   UNL     1     187.950 187.540 170.889  1.00  0.00    -0.000 C 
BRANCH   4   5
ATOM      5  C   UNL     1     187.599 188.869 170.197  1.00  0.00    -0.000 C 
BRANCH   5   6
ATOM      6  C   UNL     1     188.460 189.130 168.950  1.00  0.00    -0.000 C 
BRANCH   6   7
ATOM      7  C   UNL     1     189.879 188.558 169.082  1.00  0.00    -0.000 C 
BRANCH   7   8
ATOM      8  C   UNL     1     190.671 188.749 167.783  1.00  0.00    -0.000 C 
BRANCH   8   9
ATOM      9  C   UNL     1     192.117 188.256 167.943  1.00  0.00    -0.000 C 
BRANCH   9  10
ATOM     10  C   UNL     1     192.427 187.763 169.369  1.00  0.00    -0.000 C 
BRANCH  10  11
ATOM     11  C   UNL     1     193.824 187.142 169.549  1.00  0.00    -0.003 C 
ATOM     12  C   UNL     1     194.091 185.984 168.589  1.00  0.00     0.004 C 
ENDBRANCH  10  11
ENDBRANCH   9  10
ENDBRANCH   8   9
ENDBRANCH   7   8
ENDBRANCH   6   7
ENDBRANCH   5   6
ENDBRANCH   4   5
ENDBRANCH   3   4
ENDBRANCH   2   3
ENDBRANCH   1   2
BRANCH   1  13
ATOM     13  C   UNL     1     186.183 185.111 168.381  1.00  0.00     0.000 C 
BRANCH  13  14
ATOM     14  C   UNL     1     187.002 185.016 167.080  1.00  0.00     0.000 C 
BRANCH  14  15
ATOM     15  C   UNL     1     188.318 185.809 167.151  1.00  0.00     0.000 C 
BRANCH  15  16
ATOM     16  C   UNL     1     189.517 185.019 166.604  1.00  0.00     0.000 C 
BRANCH  16  17
ATOM     17  C   UNL     1     190.634 184.925 167.650  1.00  0.00     0.000 C 
BRANCH  17  18
ATOM     18  C   UNL     1     190.058 184.926 169.072  1.00  0.00     0.000 C 
BRANCH  18  19
ATOM     19  C   UNL     1     191.058 184.415 170.124  1.00  0.00     0.000 C 
BRANCH  19  20
ATOM     20  C   UNL     1     190.871 185.052 171.516  1.00  0.00     0.006 C 
BRANCH  20  21
ATOM     21  C   UNL     1     189.674 184.457 172.271  1.00  0.00     0.053 C 
BRANCH  21  22
ATOM     22  C   UNL     1     189.365 185.268 173.488  1.00  0.00     0.041 C 
ATOM     23  O   UNL     1     188.177 185.379 173.890  1.00  0.00    -0.550 OA
ATOM     24  O   UNL     1     190.393 185.861 174.209  1.00  0.00    -0.550 OA
ENDBRANCH  21  22
ENDBRANCH  20  21
ENDBRANCH  19  20
ENDBRANCH  18  19
ENDBRANCH  17  18
ENDBRANCH  16  17
ENDBRANCH  15  16
ENDBRANCH  14  15
ENDBRANCH  13  14
ENDBRANCH   1  13
TORSDOF 20
ENDMDL
MODEL 4
REMARK VINA RESULT:    -3.874      2.095      4.610
REMARK INTER + INTRA:         -11.390
REMARK INTER:                  -7.779
REMARK INTRA:                  -3.610
REMARK UNBOUND:                -2.985
REMARK SMILES CCCCCCCCCCCCCCCCCCCCCC(=O)[O-]
REMARK SMILES IDX 12 1 11 2 10 3 9 4 8 5 7 6 6 7 5 8 4 9 3 10 2 11 1 12 13 13
REMARK SMILES IDX 14 14 15 15 16 16 17 17 18 18 19 19 20 20 21 21 22 22 23 23
REMARK SMILES IDX 24 24
REMARK H PARENT
REMARK Flexibility Score: inf
ROOT
ATOM      1  C   UNL     1     187.999 185.007 168.135  1.00  0.00     0.000 C 
ENDROOT
BRANCH   1   2
ATOM      2  C   UNL     1     186.479 185.116 167.916  1.00  0.00     0.000 C 
BRANCH   2   3
ATOM      3  C   UNL     1     186.058 186.504 167.399  1.00  0.00     0.000 C 
BRANCH   3   4
ATOM      4  C   UNL     1     185.101 187.226 168.362  1.00  0.00    -0.000 C 
BRANCH   4   5
ATOM      5  C   UNL     1     185.086 186.597 169.766  1.00  0.00    -0.000 C 
BRANCH   5   6
ATOM      6  C   UNL     1     185.924 187.396 170.778  1.00  0.00    -0.000 C 
BRANCH   6   7
ATOM      7  C   UNL     1     187.269 186.724 171.094  1.00  0.00    -0.000 C 
BRANCH   7   8
ATOM      8  C   UNL     1     188.437 187.682 170.831  1.00  0.00    -0.000 C 
BRANCH   8   9
ATOM      9  C   UNL     1     188.127 188.615 169.651  1.00  0.00    -0.000 C 
BRANCH   9  10
ATOM     10  C   UNL     1     189.314 188.770 168.682  1.00  0.00    -0.000 C 
BRANCH  10  11
ATOM     11  C   UNL     1     190.700 188.757 169.350  1.00  0.00    -0.003 C 
ATOM     12  C   UNL     1     191.849 188.782 168.343  1.00  0.00     0.004 C 
ENDBRANCH  10  11
ENDBRANCH   9  10
ENDBRANCH   8   9
ENDBRANCH   7   8
ENDBRANCH   6   7
ENDBRANCH   5   6
ENDBRANCH   4   5
ENDBRANCH   3   4
ENDBRANCH   2   3
ENDBRANCH   1   2
BRANCH   1  13
ATOM     13  C   UNL     1     188.839 185.279 166.873  1.00  0.00     0.000 C 
BRANCH  13  14
ATOM     14  C   UNL     1     190.352 185.247 167.155  1.00  0.00     0.000 C 
BRANCH  14  15
ATOM     15  C   UNL     1     190.672 185.193 168.658  1.00  0.00     0.000 C 
BRANCH  15  16
ATOM     16  C   UNL     1     191.470 183.939 169.050  1.00  0.00     0.000 C 
BRANCH  16  17
ATOM     17  C   UNL     1     191.365 183.673 170.557  1.00  0.00     0.000 C 
BRANCH  17  18
ATOM     18  C   UNL     1     190.334 184.603 171.210  1.00  0.00     0.000 C 
BRANCH  18  19
ATOM     19  C   UNL     1     190.070 184.262 172.687  1.00  0.00     0.000 C 
BRANCH  19  20
ATOM     20  C   UNL     1     189.635 185.475 173.534  1.00  0.00     0.006 C 
BRANCH  20  21
ATOM     21  C   UNL     1     190.738 186.539 173.634  1.00  0.00     0.053 C 
BRANCH  21  22
ATOM     22  C   UNL     1     191.396 186.485 174.976  1.00  0.00     0.041 C 
ATOM     23  O   UNL     1     191.870 185.400 175.404  1.00  0.00    -0.550 OA
ATOM     24  O   UNL     1     191.532 187.643 175.731  1.00  0.00    -0.550 OA
ENDBRANCH  21  22
ENDBRANCH  20  21
ENDBRANCH  19  20
ENDBRANCH  18  19
ENDBRANCH  17  18
ENDBRANCH  16  17
ENDBRANCH  15  16
ENDBRANCH  14  15
ENDBRANCH  13  14
ENDBRANCH   1  13
TORSDOF 20
ENDMDL
MODEL 5
REMARK VINA RESULT:    -3.870     11.642     15.207
REMARK INTER + INTRA:         -11.380
REMARK INTER:                  -8.014
REMARK INTRA:                  -3.366
REMARK UNBOUND:                -2.985
REMARK SMILES CCCCCCCCCCCCCCCCCCCCCC(=O)[O-]
REMARK SMILES IDX 12 1 11 2 10 3 9 4 8 5 7 6 6 7 5 8 4 9 3 10 2 11 1 12 13 13
REMARK SMILES IDX 14 14 15 15 16 16 17 17 18 18 19 19 20 20 21 21 22 22 23 23
REMARK SMILES IDX 24 24
REMARK H PARENT
REMARK Flexibility Score: inf
ROOT
ATOM      1  C   UNL     1     180.792 194.904 180.091  1.00  0.00     0.000 C 
ENDROOT
BRANCH   1   2
ATOM      2  C   UNL     1     180.750 193.942 181.293  1.00  0.00     0.000 C 
BRANCH   2   3
ATOM      3  C   UNL     1     180.638 194.685 182.637  1.00  0.00     0.000 C 
BRANCH   3   4
ATOM      4  C   UNL     1     182.000 194.856 183.331  1.00  0.00    -0.000 C 
BRANCH   4   5
ATOM      5  C   UNL     1     182.707 196.164 182.936  1.00  0.00    -0.000 C 
BRANCH   5   6
ATOM      6  C   UNL     1     184.222 196.116 183.194  1.00  0.00    -0.000 C 
BRANCH   6   7
ATOM      7  C   UNL     1     185.046 196.252 181.904  1.00  0.00    -0.000 C 
BRANCH   7   8
ATOM      8  C   UNL     1     184.249 195.762 180.689  1.00  0.00    -0.000 C 
BRANCH   8   9
ATOM      9  C   UNL     1     184.830 194.448 180.145  1.00  0.00    -0.000 C 
BRANCH   9  10
ATOM     10  C   UNL     1     184.508 193.235 181.037  1.00  0.00    -0.000 C 
BRANCH  10  11
ATOM     11  C   UNL     1     185.719 192.354 181.394  1.00  0.00    -0.003 C 
ATOM     12  C   UNL     1     185.932 192.213 182.901  1.00  0.00     0.004 C 
ENDBRANCH  10  11
ENDBRANCH   9  10
ENDBRANCH   8   9
ENDBRANCH   7   8
ENDBRANCH   6   7
ENDBRANCH   5   6
ENDBRANCH   4   5
ENDBRANCH   3   4
ENDBRANCH   2   3
ENDBRANCH   1   2
BRANCH   1  13
ATOM     13  C   UNL     1     180.391 194.256 178.752  1.00  0.00     0.000 C 
BRANCH  13  14
ATOM     14  C   UNL     1     179.090 194.848 178.179  1.00  0.00     0.000 C 
BRANCH  14  15
ATOM     15  C   UNL     1     179.304 195.550 176.828  1.00  0.00     0.000 C 
BRANCH  15  16
ATOM     16  C   UNL     1     179.093 197.070 176.909  1.00  0.00     0.000 C 
BRANCH  16  17
ATOM     17  C   UNL     1     180.280 197.752 177.600  1.00  0.00     0.000 C 
BRANCH  17  18
ATOM     18  C   UNL     1     181.559 197.609 176.765  1.00  0.00     0.000 C 
BRANCH  18  19
ATOM     19  C   UNL     1     182.668 196.831 177.495  1.00  0.00     0.000 C 
BRANCH  19  20
ATOM     20  C   UNL     1     183.096 195.538 176.770  1.00  0.00     0.006 C 
BRANCH  20  21
ATOM     21  C   UNL     1     182.765 195.576 175.272  1.00  0.00     0.053 C 
BRANCH  21  22
ATOM     22  C   UNL     1     182.351 194.222 174.792  1.00  0.00     0.041 C 
ATOM     23  O   UNL     1     181.624 193.490 175.514  1.00  0.00    -0.550 OA
ATOM     24  O   UNL     1     182.725 193.787 173.527  1.00  0.00    -0.550 OA
ENDBRANCH  21  22
ENDBRANCH  20  21
ENDBRANCH  19  20
ENDBRANCH  18  19
ENDBRANCH  17  18
ENDBRANCH  16  17
ENDBRANCH  15  16
ENDBRANCH  14  15
ENDBRANCH  13  14
ENDBRANCH   1  13
TORSDOF 20
ENDMDL
MODEL 6
REMARK VINA RESULT:    -3.869     10.914     14.374
REMARK INTER + INTRA:         -11.379
REMARK INTER:                  -7.816
REMARK INTRA:                  -3.563
REMARK UNBOUND:                -2.985
REMARK SMILES CCCCCCCCCCCCCCCCCCCCCC(=O)[O-]
REMARK SMILES IDX 12 1 11 2 10 3 9 4 8 5 7 6 6 7 5 8 4 9 3 10 2 11 1 12 13 13
REMARK SMILES IDX 14 14 15 15 16 16 17 17 18 18 19 19 20 20 21 21 22 22 23 23
REMARK SMILES IDX 24 24
REMARK H PARENT
REMARK Flexibility Score: inf
ROOT
ATOM      1  C   UNL     1     182.232 194.563 177.940  1.00  0.00     0.000 C 
ENDROOT
BRANCH   1   2
ATOM      2  C   UNL     1     182.189 195.821 178.827  1.00  0.00     0.000 C 
BRANCH   2   3
ATOM      3  C   UNL     1     183.351 196.787 178.534  1.00  0.00     0.000 C 
BRANCH   3   4
ATOM      4  C   UNL     1     184.418 196.778 179.641  1.00  0.00    -0.000 C 
BRANCH   4   5
ATOM      5  C   UNL     1     185.422 195.622 179.487  1.00  0.00    -0.000 C 
BRANCH   5   6
ATOM      6  C   UNL     1     185.097 194.433 180.406  1.00  0.00    -0.000 C 
BRANCH   6   7
ATOM      7  C   UNL     1     184.413 194.865 181.712  1.00  0.00    -0.000 C 
BRANCH   7   8
ATOM      8  C   UNL     1     183.157 194.027 181.977  1.00  0.00    -0.000 C 
BRANCH   8   9
ATOM      9  C   UNL     1     182.224 194.734 182.972  1.00  0.00    -0.000 C 
BRANCH   9  10
ATOM     10  C   UNL     1     180.733 194.517 182.653  1.00  0.00    -0.000 C 
BRANCH  10  11
ATOM     11  C   UNL     1     180.451 193.878 181.281  1.00  0.00    -0.003 C 
ATOM     12  C   UNL     1     179.563 192.638 181.371  1.00  0.00     0.004 C 
ENDBRANCH  10  11
ENDBRANCH   9  10
ENDBRANCH   8   9
ENDBRANCH   7   8
ENDBRANCH   6   7
ENDBRANCH   5   6
ENDBRANCH   4   5
ENDBRANCH   3   4
ENDBRANCH   2   3
ENDBRANCH   1   2
BRANCH   1  13
ATOM     13  C   UNL     1     180.847 194.061 177.490  1.00  0.00     0.000 C 
BRANCH  13  14
ATOM     14  C   UNL     1     179.712 195.011 177.912  1.00  0.00     0.000 C 
BRANCH  14  15
ATOM     15  C   UNL     1     179.190 195.864 176.745  1.00  0.00     0.000 C 
BRANCH  15  16
ATOM     16  C   UNL     1     179.587 197.344 176.866  1.00  0.00     0.000 C 
BRANCH  16  17
ATOM     17  C   UNL     1     180.514 197.758 175.717  1.00  0.00     0.000 C 
BRANCH  17  18
ATOM     18  C   UNL     1     180.667 196.622 174.696  1.00  0.00     0.000 C 
BRANCH  18  19
ATOM     19  C   UNL     1     182.133 196.215 174.469  1.00  0.00     0.000 C 
BRANCH  19  20
ATOM     20  C   UNL     1     182.317 194.714 174.163  1.00  0.00     0.006 C 
BRANCH  20  21
ATOM     21  C   UNL     1     180.993 194.030 173.796  1.00  0.00     0.053 C 
BRANCH  21  22
ATOM     22  C   UNL     1     180.878 193.872 172.313  1.00  0.00     0.041 C 
ATOM     23  O   UNL     1     180.330 194.771 171.622  1.00  0.00    -0.550 OA
ATOM     24  O   UNL     1     181.419 192.757 171.687  1.00  0.00    -0.550 OA
ENDBRANCH  21  22
ENDBRANCH  20  21
ENDBRANCH  19  20
ENDBRANCH  18  19
ENDBRANCH  17  18
ENDBRANCH  16  17
ENDBRANCH  15  16
ENDBRANCH  14  15
ENDBRANCH  13  14
ENDBRANCH   1  13
TORSDOF 20
ENDMDL
MODEL 7
REMARK VINA RESULT:    -3.861      2.523      5.575
REMARK INTER + INTRA:         -11.361
REMARK INTER:                  -8.145
REMARK INTRA:                  -3.215
REMARK UNBOUND:                -2.985
REMARK SMILES CCCCCCCCCCCCCCCCCCCCCC(=O)[O-]
REMARK SMILES IDX 12 1 11 2 10 3 9 4 8 5 7 6 6 7 5 8 4 9 3 10 2 11 1 12 13 13
REMARK SMILES IDX 14 14 15 15 16 16 17 17 18 18 19 19 20 20 21 21 22 22 23 23
REMARK SMILES IDX 24 24
REMARK H PARENT
REMARK Flexibility Score: inf
ROOT
ATOM      1  C   UNL     1     188.534 188.559 169.546  1.00  0.00     0.000 C 
ENDROOT
BRANCH   1   2
ATOM      2  C   UNL     1     187.167 188.942 170.140  1.00  0.00     0.000 C 
BRANCH   2   3
ATOM      3  C   UNL     1     186.254 187.720 170.350  1.00  0.00     0.000 C 
BRANCH   3   4
ATOM      4  C   UNL     1     185.157 187.612 169.277  1.00  0.00    -0.000 C 
BRANCH   4   5
ATOM      5  C   UNL     1     185.560 186.695 168.109  1.00  0.00    -0.000 C 
BRANCH   5   6
ATOM      6  C   UNL     1     186.367 185.471 168.572  1.00  0.00    -0.000 C 
BRANCH   6   7
ATOM      7  C   UNL     1     187.509 185.117 167.608  1.00  0.00    -0.000 C 
BRANCH   7   8
ATOM      8  C   UNL     1     187.739 186.242 166.591  1.00  0.00    -0.000 C 
BRANCH   8   9
ATOM      9  C   UNL     1     189.235 186.560 166.453  1.00  0.00    -0.000 C 
BRANCH   9  10
ATOM     10  C   UNL     1     189.504 187.826 165.617  1.00  0.00    -0.000 C 
BRANCH  10  11
ATOM     11  C   UNL     1     190.165 188.982 166.388  1.00  0.00    -0.003 C 
ATOM     12  C   UNL     1     191.406 188.548 167.167  1.00  0.00     0.004 C 
ENDBRANCH  10  11
ENDBRANCH   9  10
ENDBRANCH   8   9
ENDBRANCH   7   8
ENDBRANCH   6   7
ENDBRANCH   5   6
ENDBRANCH   4   5
ENDBRANCH   3   4
ENDBRANCH   2   3
ENDBRANCH   1   2
BRANCH   1  13
ATOM     13  C   UNL     1     189.482 187.865 170.541  1.00  0.00     0.000 C 
BRANCH  13  14
ATOM     14  C   UNL     1     189.905 186.462 170.069  1.00  0.00     0.000 C 
BRANCH  14  15
ATOM     15  C   UNL     1     189.376 185.345 170.984  1.00  0.00     0.000 C 
BRANCH  15  16
ATOM     16  C   UNL     1     188.572 185.886 172.177  1.00  0.00     0.000 C 
BRANCH  16  17
ATOM     17  C   UNL     1     189.028 185.231 173.486  1.00  0.00     0.000 C 
BRANCH  17  18
ATOM     18  C   UNL     1     190.553 185.302 173.635  1.00  0.00     0.000 C 
BRANCH  18  19
ATOM     19  C   UNL     1     191.054 186.706 174.016  1.00  0.00     0.000 C 
BRANCH  19  20
ATOM     20  C   UNL     1     191.545 186.813 175.475  1.00  0.00     0.006 C 
BRANCH  20  21
ATOM     21  C   UNL     1     192.260 188.143 175.751  1.00  0.00     0.053 C 
BRANCH  21  22
ATOM     22  C   UNL     1     191.630 188.846 176.911  1.00  0.00     0.041 C 
ATOM     23  O   UNL     1     192.093 189.947 177.310  1.00  0.00    -0.550 OA
ATOM     24  O   UNL     1     190.503 188.311 177.520  1.00  0.00    -0.550 OA
ENDBRANCH  21  22
ENDBRANCH  20  21
ENDBRANCH  19  20
ENDBRANCH  18  19
ENDBRANCH  17  18
ENDBRANCH  16  17
ENDBRANCH  15  16
ENDBRANCH  14  15
ENDBRANCH  13  14
ENDBRANCH   1  13
TORSDOF 20
ENDMDL
MODEL 8
REMARK VINA RESULT:    -3.854     11.764     15.144
REMARK INTER + INTRA:         -11.346
REMARK INTER:                  -7.402
REMARK INTRA:                  -3.945
REMARK UNBOUND:                -2.985
REMARK SMILES CCCCCCCCCCCCCCCCCCCCCC(=O)[O-]
REMARK SMILES IDX 12 1 11 2 10 3 9 4 8 5 7 6 6 7 5 8 4 9 3 10 2 11 1 12 13 13
REMARK SMILES IDX 14 14 15 15 16 16 17 17 18 18 19 19 20 20 21 21 22 22 23 23
REMARK SMILES IDX 24 24
REMARK H PARENT
REMARK Flexibility Score: inf
ROOT
ATOM      1  C   UNL     1     182.639 194.373 178.453  1.00  0.00     0.000 C 
ENDROOT
BRANCH   1   2
ATOM      2  C   UNL     1     181.146 194.059 178.250  1.00  0.00     0.000 C 
BRANCH   2   3
ATOM      3  C   UNL     1     180.288 194.473 179.460  1.00  0.00     0.000 C 
BRANCH   3   4
ATOM      4  C   UNL     1     180.882 193.995 180.795  1.00  0.00    -0.000 C 
BRANCH   4   5
ATOM      5  C   UNL     1     180.812 195.070 181.894  1.00  0.00    -0.000 C 
BRANCH   5   6
ATOM      6  C   UNL     1     181.521 196.373 181.490  1.00  0.00    -0.000 C 
BRANCH   6   7
ATOM      7  C   UNL     1     182.675 196.736 182.437  1.00  0.00    -0.000 C 
BRANCH   7   8
ATOM      8  C   UNL     1     182.793 195.716 183.576  1.00  0.00    -0.000 C 
BRANCH   8   9
ATOM      9  C   UNL     1     183.993 194.782 183.354  1.00  0.00    -0.000 C 
BRANCH   9  10
ATOM     10  C   UNL     1     184.927 195.263 182.228  1.00  0.00    -0.000 C 
BRANCH  10  11
ATOM     11  C   UNL     1     185.106 194.269 181.067  1.00  0.00    -0.003 C 
ATOM     12  C   UNL     1     184.519 192.890 181.365  1.00  0.00     0.004 C 
ENDBRANCH  10  11
ENDBRANCH   9  10
ENDBRANCH   8   9
ENDBRANCH   7   8
ENDBRANCH   6   7
ENDBRANCH   5   6
ENDBRANCH   4   5
ENDBRANCH   3   4
ENDBRANCH   2   3
ENDBRANCH   1   2
BRANCH   1  13
ATOM     13  C   UNL     1     183.160 195.539 177.593  1.00  0.00     0.000 C 
BRANCH  13  14
ATOM     14  C   UNL     1     183.003 196.902 178.292  1.00  0.00     0.000 C 
BRANCH  14  15
ATOM     15  C   UNL     1     182.055 197.848 177.536  1.00  0.00     0.000 C 
BRANCH  15  16
ATOM     16  C   UNL     1     180.662 197.931 178.180  1.00  0.00     0.000 C 
BRANCH  16  17
ATOM     17  C   UNL     1     179.592 197.355 177.244  1.00  0.00     0.000 C 
BRANCH  17  18
ATOM     18  C   UNL     1     180.146 197.161 175.827  1.00  0.00     0.000 C 
BRANCH  18  19
ATOM     19  C   UNL     1     179.662 195.858 175.167  1.00  0.00     0.000 C 
BRANCH  19  20
ATOM     20  C   UNL     1     180.808 194.923 174.728  1.00  0.00     0.006 C 
BRANCH  20  21
ATOM     21  C   UNL     1     181.641 195.523 173.587  1.00  0.00     0.053 C 
BRANCH  21  22
ATOM     22  C   UNL     1     180.765 195.874 172.427  1.00  0.00     0.041 C 
ATOM     23  O   UNL     1     180.674 197.070 172.043  1.00  0.00    -0.550 OA
ATOM     24  O   UNL     1     180.088 194.876 171.739  1.00  0.00    -0.550 OA
ENDBRANCH  21  22
ENDBRANCH  20  21
ENDBRANCH  19  20
ENDBRANCH  18  19
ENDBRANCH  17  18
ENDBRANCH  16  17
ENDBRANCH  15  16
ENDBRANCH  14  15
ENDBRANCH  13  14
ENDBRANCH   1  13
TORSDOF 20
ENDMDL
MODEL 9
REMARK VINA RESULT:    -3.848     11.672     15.188
REMARK INTER + INTRA:         -11.332
REMARK INTER:                  -7.512
REMARK INTRA:                  -3.820
REMARK UNBOUND:                -2.985
REMARK SMILES CCCCCCCCCCCCCCCCCCCCCC(=O)[O-]
REMARK SMILES IDX 12 1 11 2 10 3 9 4 8 5 7 6 6 7 5 8 4 9 3 10 2 11 1 12 13 13
REMARK SMILES IDX 14 14 15 15 16 16 17 17 18 18 19 19 20 20 21 21 22 22 23 23
REMARK SMILES IDX 24 24
REMARK H PARENT
REMARK Flexibility Score: inf
ROOT
ATOM      1  C   UNL     1     181.230 194.392 180.112  1.00  0.00     0.000 C 
ENDROOT
BRANCH   1   2
ATOM      2  C   UNL     1     181.015 195.273 181.357  1.00  0.00     0.000 C 
BRANCH   2   3
ATOM      3  C   UNL     1     181.958 196.490 181.387  1.00  0.00     0.000 C 
BRANCH   3   4
ATOM      4  C   UNL     1     182.694 196.631 182.729  1.00  0.00    -0.000 C 
BRANCH   4   5
ATOM      5  C   UNL     1     182.598 195.363 183.595  1.00  0.00    -0.000 C 
BRANCH   5   6
ATOM      6  C   UNL     1     183.969 194.894 184.108  1.00  0.00    -0.000 C 
BRANCH   6   7
ATOM      7  C   UNL     1     184.920 194.490 182.972  1.00  0.00    -0.000 C 
BRANCH   7   8
ATOM      8  C   UNL     1     184.308 193.376 182.114  1.00  0.00    -0.000 C 
BRANCH   8   9
ATOM      9  C   UNL     1     184.718 193.528 180.641  1.00  0.00    -0.000 C 
BRANCH   9  10
ATOM     10  C   UNL     1     185.559 194.792 180.381  1.00  0.00    -0.000 C 
BRANCH  10  11
ATOM     11  C   UNL     1     184.949 195.777 179.368  1.00  0.00    -0.003 C 
ATOM     12  C   UNL     1     185.200 197.240 179.733  1.00  0.00     0.004 C 
ENDBRANCH  10  11
ENDBRANCH   9  10
ENDBRANCH   8   9
ENDBRANCH   7   8
ENDBRANCH   6   7
ENDBRANCH   5   6
ENDBRANCH   4   5
ENDBRANCH   3   4
ENDBRANCH   2   3
ENDBRANCH   1   2
BRANCH   1  13
ATOM     13  C   UNL     1     180.015 194.327 179.168  1.00  0.00     0.000 C 
BRANCH  13  14
ATOM     14  C   UNL     1     180.394 194.607 177.702  1.00  0.00     0.000 C 
BRANCH  14  15
ATOM     15  C   UNL     1     181.864 194.277 177.398  1.00  0.00     0.000 C 
BRANCH  15  16
ATOM     16  C   UNL     1     182.600 195.433 176.702  1.00  0.00     0.000 C 
BRANCH  16  17
ATOM     17  C   UNL     1     182.106 196.788 177.221  1.00  0.00     0.000 C 
BRANCH  17  18
ATOM     18  C   UNL     1     181.781 197.737 176.060  1.00  0.00     0.000 C 
BRANCH  18  19
ATOM     19  C   UNL     1     181.847 197.047 174.686  1.00  0.00     0.000 C 
BRANCH  19  20
ATOM     20  C   UNL     1     180.492 197.004 173.949  1.00  0.00     0.006 C 
BRANCH  20  21
ATOM     21  C   UNL     1     179.665 195.767 174.326  1.00  0.00     0.053 C 
BRANCH  21  22
ATOM     22  C   UNL     1     180.181 194.556 173.618  1.00  0.00     0.041 C 
ATOM     23  O   UNL     1     180.494 194.621 172.400  1.00  0.00    -0.550 OA
ATOM     24  O   UNL     1     180.364 193.368 174.313  1.00  0.00    -0.550 OA
ENDBRANCH  21  22
ENDBRANCH  20  21
ENDBRANCH  19  20
ENDBRANCH  18  19
ENDBRANCH  17  18
ENDBRANCH  16  17
ENDBRANCH  15  16
ENDBRANCH  14  15
ENDBRANCH  13  14
ENDBRANCH   1  13
TORSDOF 20
ENDMDL
