MODEL 1
REMARK VINA RESULT:    -5.039      0.000      0.000
REMARK INTER + INTRA:          -9.878
REMARK INTER:                  -9.163
REMARK INTRA:                  -0.715
REMARK UNBOUND:                -0.715
REMARK SMILES CCCCCCCCCCCCCCCC(=O)[O-]
REMARK SMILES IDX 9 1 10 2 11 3 12 4 13 5 14 6 15 7 16 8 17 9 18 10 8 11 7 12
REMARK SMILES IDX 6 13 5 14 4 15 3 16 2 17 1 18
REMARK H PARENT
REMARK Flexibility Score: inf
ROOT
ATOM      1  C   UNL     1      96.565 124.640 124.542  1.00  0.00     0.000 C 
ENDROOT
BRANCH   1   2
ATOM      2  C   UNL     1      95.270 124.127 123.892  1.00  0.00     0.000 C 
BRANCH   2   3
ATOM      3  C   UNL     1      94.374 123.364 124.884  1.00  0.00     0.000 C 
BRANCH   3   4
ATOM      4  C   UNL     1      93.063 122.865 124.248  1.00  0.00     0.000 C 
BRANCH   4   5
ATOM      5  C   UNL     1      92.787 123.385 122.825  1.00  0.00     0.000 C 
BRANCH   5   6
ATOM      6  C   UNL     1      92.935 122.298 121.750  1.00  0.00     0.006 C 
BRANCH   6   7
ATOM      7  C   UNL     1      92.288 122.738 120.434  1.00  0.00     0.053 C 
BRANCH   7   8
ATOM      8  C   UNL     1      92.837 121.945 119.290  1.00  0.00     0.041 C 
ATOM      9  O   UNL     1      92.253 121.953 118.174  1.00  0.00    -0.550 OA
ATOM     10  O   UNL     1      93.966 121.156 119.470  1.00  0.00    -0.550 OA
ENDBRANCH   7   8
ENDBRANCH   6   7
ENDBRANCH   5   6
ENDBRANCH   4   5
ENDBRANCH   3   4
ENDBRANCH   2   3
ENDBRANCH   1   2
BRANCH   1  11
ATOM     11  C   UNL     1      96.881 123.938 125.872  1.00  0.00     0.000 C 
BRANCH  11  12
ATOM     12  C   UNL     1      98.124 124.553 126.534  1.00  0.00    -0.000 C 
BRANCH  12  13
ATOM     13  C   UNL     1      99.282 123.550 126.669  1.00  0.00    -0.000 C 
BRANCH  13  14
ATOM     14  C   UNL     1      98.807 122.088 126.601  1.00  0.00    -0.000 C 
BRANCH  14  15
ATOM     15  C   UNL     1      99.821 121.160 125.907  1.00  0.00    -0.000 C 
BRANCH  15  16
ATOM     16  C   UNL     1     100.653 120.276 126.854  1.00  0.00    -0.000 C 
BRANCH  16  17
ATOM     17  C   UNL     1     102.094 120.065 126.365  1.00  0.00    -0.003 C 
ATOM     18  C   UNL     1     102.117 119.390 124.997  1.00  0.00     0.004 C 
ENDBRANCH  16  17
ENDBRANCH  15  16
ENDBRANCH  14  15
ENDBRANCH  13  14
ENDBRANCH  12  13
ENDBRANCH  11  12
ENDBRANCH   1  11
TORSDOF 14
ENDMDL
MODEL 2
REMARK VINA RESULT:    -5.001      3.357      8.751
REMARK INTER + INTRA:          -9.810
REMARK INTER:                  -9.183
REMARK INTRA:                  -0.627
REMARK UNBOUND:                -0.715
REMARK SMILES CCCCCCCCCCCCCCCC(=O)[O-]
REMARK SMILES IDX 9 1 10 2 11 3 12 4 13 5 14 6 15 7 16 8 17 9 18 10 8 11 7 12
REMARK SMILES IDX 6 13 5 14 4 15 3 16 2 17 1 18
REMARK H PARENT
REMARK Flexibility Score: inf
ROOT
ATOM      1  C   UNL     1      94.517 123.049 124.888  1.00  0.00     0.000 C 
ENDROOT
BRANCH   1   2
ATOM      2  C   UNL     1      95.417 123.984 124.064  1.00  0.00     0.000 C 
BRANCH   2   3
ATOM      3  C   UNL     1      96.570 124.575 124.894  1.00  0.00     0.000 C 
BRANCH   3   4
ATOM      4  C   UNL     1      97.013 123.655 126.047  1.00  0.00     0.000 C 
BRANCH   4   5
ATOM      5  C   UNL     1      98.359 124.023 126.697  1.00  0.00     0.000 C 
BRANCH   5   6
ATOM      6  C   UNL     1      99.478 123.023 126.368  1.00  0.00     0.006 C 
BRANCH   6   7
ATOM      7  C   UNL     1      99.040 121.590 126.679  1.00  0.00     0.053 C 
BRANCH   7   8
ATOM      8  C   UNL     1     100.114 120.620 126.299  1.00  0.00     0.041 C 
ATOM      9  O   UNL     1     101.047 120.360 127.102  1.00  0.00    -0.550 OA
ATOM     10  O   UNL     1     100.111 120.040 125.036  1.00  0.00    -0.550 OA
ENDBRANCH   7   8
ENDBRANCH   6   7
ENDBRANCH   5   6
ENDBRANCH   4   5
ENDBRANCH   3   4
ENDBRANCH   2   3
ENDBRANCH   1   2
BRANCH   1  11
ATOM     11  C   UNL     1      93.033 123.159 124.502  1.00  0.00     0.000 C 
BRANCH  11  12
ATOM     12  C   UNL     1      92.879 123.502 123.013  1.00  0.00    -0.000 C 
BRANCH  12  13
ATOM     13  C   UNL     1      92.468 122.288 122.164  1.00  0.00    -0.000 C 
BRANCH  13  14
ATOM     14  C   UNL     1      93.184 122.250 120.802  1.00  0.00    -0.000 C 
BRANCH  14  15
ATOM     15  C   UNL     1      92.227 122.463 119.615  1.00  0.00    -0.000 C 
BRANCH  15  16
ATOM     16  C   UNL     1      92.709 121.879 118.275  1.00  0.00    -0.000 C 
BRANCH  16  17
ATOM     17  C   UNL     1      91.747 122.173 117.114  1.00  0.00    -0.003 C 
ATOM     18  C   UNL     1      91.953 121.187 115.967  1.00  0.00     0.004 C 
ENDBRANCH  16  17
ENDBRANCH  15  16
ENDBRANCH  14  15
ENDBRANCH  13  14
ENDBRANCH  12  13
ENDBRANCH  11  12
ENDBRANCH   1  11
TORSDOF 14
ENDMDL
MODEL 3
REMARK VINA RESULT:    -4.988      0.678      1.477
REMARK INTER + INTRA:          -9.786
REMARK INTER:                  -8.951
REMARK INTRA:                  -0.835
REMARK UNBOUND:                -0.715
REMARK SMILES CCCCCCCCCCCCCCCC(=O)[O-]
REMARK SMILES IDX 9 1 10 2 11 3 12 4 13 5 14 6 15 7 16 8 17 9 18 10 8 11 7 12
REMARK SMILES IDX 6 13 5 14 4 15 3 16 2 17 1 18
REMARK H PARENT
REMARK Flexibility Score: inf
ROOT
ATOM      1  C   UNL     1      95.294 124.010 123.984  1.00  0.00     0.000 C 
ENDROOT
BRANCH   1   2
ATOM      2  C   UNL     1      94.514 123.128 124.973  1.00  0.00     0.000 C 
BRANCH   2   3
ATOM      3  C   UNL     1      93.047 122.928 124.554  1.00  0.00     0.000 C 
BRANCH   3   4
ATOM      4  C   UNL     1      92.769 123.378 123.107  1.00  0.00     0.000 C 
BRANCH   4   5
ATOM      5  C   UNL     1      92.366 122.252 122.138  1.00  0.00     0.000 C 
BRANCH   5   6
ATOM      6  C   UNL     1      93.208 122.236 120.853  1.00  0.00     0.006 C 
BRANCH   6   7
ATOM      7  C   UNL     1      92.351 122.582 119.632  1.00  0.00     0.053 C 
BRANCH   7   8
ATOM      8  C   UNL     1      92.727 121.722 118.467  1.00  0.00     0.041 C 
ATOM      9  O   UNL     1      93.784 121.038 118.500  1.00  0.00    -0.550 OA
ATOM     10  O   UNL     1      91.936 121.713 117.326  1.00  0.00    -0.550 OA
ENDBRANCH   7   8
ENDBRANCH   6   7
ENDBRANCH   5   6
ENDBRANCH   4   5
ENDBRANCH   3   4
ENDBRANCH   2   3
ENDBRANCH   1   2
BRANCH   1  11
ATOM     11  C   UNL     1      96.553 124.633 124.608  1.00  0.00     0.000 C 
BRANCH  11  12
ATOM     12  C   UNL     1      96.902 123.946 125.937  1.00  0.00    -0.000 C 
BRANCH  12  13
ATOM     13  C   UNL     1      98.217 124.461 126.544  1.00  0.00    -0.000 C 
BRANCH  13  14
ATOM     14  C   UNL     1      99.340 123.410 126.498  1.00  0.00    -0.000 C 
BRANCH  14  15
ATOM     15  C   UNL     1      98.809 121.967 126.425  1.00  0.00    -0.000 C 
BRANCH  15  16
ATOM     16  C   UNL     1      99.833 120.875 126.782  1.00  0.00    -0.000 C 
BRANCH  16  17
ATOM     17  C   UNL     1     101.193 121.083 126.099  1.00  0.00    -0.003 C 
ATOM     18  C   UNL     1     101.558 119.887 125.225  1.00  0.00     0.004 C 
ENDBRANCH  16  17
ENDBRANCH  15  16
ENDBRANCH  14  15
ENDBRANCH  13  14
ENDBRANCH  12  13
ENDBRANCH  11  12
ENDBRANCH   1  11
TORSDOF 14
ENDMDL
MODEL 4
REMARK VINA RESULT:    -4.953      3.237      8.487
REMARK INTER + INTRA:          -9.721
REMARK INTER:                  -8.993
REMARK INTRA:                  -0.728
REMARK UNBOUND:                -0.715
REMARK SMILES CCCCCCCCCCCCCCCC(=O)[O-]
REMARK SMILES IDX 9 1 10 2 11 3 12 4 13 5 14 6 15 7 16 8 17 9 18 10 8 11 7 12
REMARK SMILES IDX 6 13 5 14 4 15 3 16 2 17 1 18
REMARK H PARENT
REMARK Flexibility Score: inf
ROOT
ATOM      1  C   UNL     1      95.282 124.117 124.120  1.00  0.00     0.000 C 
ENDROOT
BRANCH   1   2
ATOM      2  C   UNL     1      96.674 124.481 124.662  1.00  0.00     0.000 C 
BRANCH   2   3
ATOM      3  C   UNL     1      96.868 124.051 126.127  1.00  0.00     0.000 C 
BRANCH   3   4
ATOM      4  C   UNL     1      98.260 124.411 126.679  1.00  0.00     0.000 C 
BRANCH   4   5
ATOM      5  C   UNL     1      99.357 123.361 126.422  1.00  0.00     0.000 C 
BRANCH   5   6
ATOM      6  C   UNL     1      98.823 121.921 126.431  1.00  0.00     0.006 C 
BRANCH   6   7
ATOM      7  C   UNL     1      99.861 120.956 127.012  1.00  0.00     0.053 C 
BRANCH   7   8
ATOM      8  C   UNL     1     100.757 120.438 125.932  1.00  0.00     0.041 C 
ATOM      9  O   UNL     1     102.007 120.521 126.050  1.00  0.00    -0.550 OA
ATOM     10  O   UNL     1     100.209 119.906 124.771  1.00  0.00    -0.550 OA
ENDBRANCH   7   8
ENDBRANCH   6   7
ENDBRANCH   5   6
ENDBRANCH   4   5
ENDBRANCH   3   4
ENDBRANCH   2   3
ENDBRANCH   1   2
BRANCH   1  11
ATOM     11  C   UNL     1      94.547 123.099 125.006  1.00  0.00     0.000 C 
BRANCH  11  12
ATOM     12  C   UNL     1      93.126 122.843 124.482  1.00  0.00    -0.000 C 
BRANCH  12  13
ATOM     13  C   UNL     1      92.894 123.435 123.082  1.00  0.00    -0.000 C 
BRANCH  13  14
ATOM     14  C   UNL     1      92.751 122.353 121.999  1.00  0.00    -0.000 C 
BRANCH  14  15
ATOM     15  C   UNL     1      92.506 122.937 120.596  1.00  0.00    -0.000 C 
BRANCH  15  16
ATOM     16  C   UNL     1      92.763 121.966 119.429  1.00  0.00    -0.000 C 
BRANCH  16  17
ATOM     17  C   UNL     1      92.001 122.349 118.152  1.00  0.00    -0.003 C 
ATOM     18  C   UNL     1      92.267 121.346 117.032  1.00  0.00     0.004 C 
ENDBRANCH  16  17
ENDBRANCH  15  16
ENDBRANCH  14  15
ENDBRANCH  13  14
ENDBRANCH  12  13
ENDBRANCH  11  12
ENDBRANCH   1  11
TORSDOF 14
ENDMDL
MODEL 5
REMARK VINA RESULT:    -4.511     13.496     15.590
REMARK INTER + INTRA:          -8.917
REMARK INTER:                  -7.240
REMARK INTRA:                  -1.677
REMARK UNBOUND:                -0.715
REMARK SMILES CCCCCCCCCCCCCCCC(=O)[O-]
REMARK SMILES IDX 9 1 10 2 11 3 12 4 13 5 14 6 15 7 16 8 17 9 18 10 8 11 7 12
REMARK SMILES IDX 6 13 5 14 4 15 3 16 2 17 1 18
REMARK H PARENT
REMARK Flexibility Score: inf
ROOT
ATOM      1  C   UNL     1      84.016 124.408 128.036  1.00  0.00     0.000 C 
ENDROOT
BRANCH   1   2
ATOM      2  C   UNL     1      82.484 124.537 128.077  1.00  0.00     0.000 C 
BRANCH   2   3
ATOM      3  C   UNL     1      81.973 125.069 129.427  1.00  0.00     0.000 C 
BRANCH   3   4
ATOM      4  C   UNL     1      83.019 125.920 130.171  1.00  0.00     0.000 C 
BRANCH   4   5
ATOM      5  C   UNL     1      82.531 127.310 130.622  1.00  0.00     0.000 C 
BRANCH   5   6
ATOM      6  C   UNL     1      83.463 128.446 130.178  1.00  0.00     0.006 C 
BRANCH   6   7
ATOM      7  C   UNL     1      83.063 129.771 130.833  1.00  0.00     0.053 C 
BRANCH   7   8
ATOM      8  C   UNL     1      84.088 130.187 131.841  1.00  0.00     0.041 C 
ATOM      9  O   UNL     1      84.982 129.380 132.206  1.00  0.00    -0.550 OA
ATOM     10  O   UNL     1      84.026 131.451 132.414  1.00  0.00    -0.550 OA
ENDBRANCH   7   8
ENDBRANCH   6   7
ENDBRANCH   5   6
ENDBRANCH   4   5
ENDBRANCH   3   4
ENDBRANCH   2   3
ENDBRANCH   1   2
BRANCH   1  11
ATOM     11  C   UNL     1      84.556 124.191 126.614  1.00  0.00     0.000 C 
BRANCH  11  12
ATOM     12  C   UNL     1      83.413 124.187 125.588  1.00  0.00    -0.000 C 
BRANCH  12  13
ATOM     13  C   UNL     1      83.371 122.898 124.751  1.00  0.00    -0.000 C 
BRANCH  13  14
ATOM     14  C   UNL     1      84.525 121.938 125.087  1.00  0.00    -0.000 C 
BRANCH  14  15
ATOM     15  C   UNL     1      84.047 120.638 125.759  1.00  0.00    -0.000 C 
BRANCH  15  16
ATOM     16  C   UNL     1      84.561 120.417 127.193  1.00  0.00    -0.000 C 
BRANCH  16  17
ATOM     17  C   UNL     1      83.540 120.827 128.265  1.00  0.00    -0.003 C 
ATOM     18  C   UNL     1      82.124 120.843 127.698  1.00  0.00     0.004 C 
ENDBRANCH  16  17
ENDBRANCH  15  16
ENDBRANCH  14  15
ENDBRANCH  13  14
ENDBRANCH  12  13
ENDBRANCH  11  12
ENDBRANCH   1  11
TORSDOF 14
ENDMDL
MODEL 6
REMARK VINA RESULT:    -4.408     13.011     15.052
REMARK INTER + INTRA:          -8.730
REMARK INTER:                  -7.578
REMARK INTRA:                  -1.152
REMARK UNBOUND:                -0.715
REMARK SMILES CCCCCCCCCCCCCCCC(=O)[O-]
REMARK SMILES IDX 9 1 10 2 11 3 12 4 13 5 14 6 15 7 16 8 17 9 18 10 8 11 7 12
REMARK SMILES IDX 6 13 5 14 4 15 3 16 2 17 1 18
REMARK H PARENT
REMARK Flexibility Score: inf
ROOT
ATOM      1  C   UNL     1      83.068 124.682 128.227  1.00  0.00     0.000 C 
ENDROOT
BRANCH   1   2
ATOM      2  C   UNL     1      84.366 124.535 127.417  1.00  0.00     0.000 C 
BRANCH   2   3
ATOM      3  C   UNL     1      84.104 124.173 125.944  1.00  0.00     0.000 C 
BRANCH   3   4
ATOM      4  C   UNL     1      82.834 123.323 125.752  1.00  0.00     0.000 C 
BRANCH   4   5
ATOM      5  C   UNL     1      83.079 121.885 125.257  1.00  0.00     0.000 C 
BRANCH   5   6
ATOM      6  C   UNL     1      84.488 121.370 125.582  1.00  0.00     0.006 C 
BRANCH   6   7
ATOM      7  C   UNL     1      84.442 120.301 126.677  1.00  0.00     0.053 C 
BRANCH   7   8
ATOM      8  C   UNL     1      84.360 120.939 128.028  1.00  0.00     0.041 C 
ATOM      9  O   UNL     1      85.403 121.358 128.596  1.00  0.00    -0.550 OA
ATOM     10  O   UNL     1      83.137 121.027 128.682  1.00  0.00    -0.550 OA
ENDBRANCH   7   8
ENDBRANCH   6   7
ENDBRANCH   5   6
ENDBRANCH   4   5
ENDBRANCH   3   4
ENDBRANCH   2   3
ENDBRANCH   1   2
BRANCH   1  11
ATOM     11  C   UNL     1      83.325 124.921 129.723  1.00  0.00     0.000 C 
BRANCH  11  12
ATOM     12  C   UNL     1      82.322 125.934 130.296  1.00  0.00    -0.000 C 
BRANCH  12  13
ATOM     13  C   UNL     1      82.993 126.997 131.182  1.00  0.00    -0.000 C 
BRANCH  13  14
ATOM     14  C   UNL     1      83.119 128.359 130.477  1.00  0.00    -0.000 C 
BRANCH  14  15
ATOM     15  C   UNL     1      84.491 129.022 130.694  1.00  0.00    -0.000 C 
BRANCH  15  16
ATOM     16  C   UNL     1      84.957 129.095 132.160  1.00  0.00    -0.000 C 
BRANCH  16  17
ATOM     17  C   UNL     1      84.071 130.004 133.025  1.00  0.00    -0.003 C 
ATOM     18  C   UNL     1      83.904 131.379 132.385  1.00  0.00     0.004 C 
ENDBRANCH  16  17
ENDBRANCH  15  16
ENDBRANCH  14  15
ENDBRANCH  13  14
ENDBRANCH  12  13
ENDBRANCH  11  12
ENDBRANCH   1  11
TORSDOF 14
ENDMDL
MODEL 7
REMARK VINA RESULT:    -4.043      0.991      2.030
REMARK INTER + INTRA:          -8.067
REMARK INTER:                  -7.484
REMARK INTRA:                  -0.584
REMARK UNBOUND:                -0.715
REMARK SMILES CCCCCCCCCCCCCCCC(=O)[O-]
REMARK SMILES IDX 9 1 10 2 11 3 12 4 13 5 14 6 15 7 16 8 17 9 18 10 8 11 7 12
REMARK SMILES IDX 6 13 5 14 4 15 3 16 2 17 1 18
REMARK H PARENT
REMARK Flexibility Score: inf
ROOT
ATOM      1  C   UNL     1      96.790 123.516 125.964  1.00  0.00     0.000 C 
ENDROOT
BRANCH   1   2
ATOM      2  C   UNL     1      96.476 124.535 124.856  1.00  0.00     0.000 C 
BRANCH   2   3
ATOM      3  C   UNL     1      95.312 124.085 123.955  1.00  0.00     0.000 C 
BRANCH   3   4
ATOM      4  C   UNL     1      94.184 123.387 124.736  1.00  0.00     0.000 C 
BRANCH   4   5
ATOM      5  C   UNL     1      92.924 123.059 123.912  1.00  0.00     0.000 C 
BRANCH   5   6
ATOM      6  C   UNL     1      93.149 123.181 122.398  1.00  0.00     0.006 C 
BRANCH   6   7
ATOM      7  C   UNL     1      92.545 121.986 121.656  1.00  0.00     0.053 C 
BRANCH   7   8
ATOM      8  C   UNL     1      92.873 122.055 120.198  1.00  0.00     0.041 C 
ATOM      9  O   UNL     1      93.845 121.402 119.735  1.00  0.00    -0.550 OA
ATOM     10  O   UNL     1      92.135 122.879 119.358  1.00  0.00    -0.550 OA
ENDBRANCH   7   8
ENDBRANCH   6   7
ENDBRANCH   5   6
ENDBRANCH   4   5
ENDBRANCH   3   4
ENDBRANCH   2   3
ENDBRANCH   1   2
BRANCH   1  11
ATOM     11  C   UNL     1      98.293 123.415 126.270  1.00  0.00     0.000 C 
BRANCH  11  12
ATOM     12  C   UNL     1      98.677 121.980 126.660  1.00  0.00    -0.000 C 
BRANCH  12  13
ATOM     13  C   UNL     1     100.198 121.773 126.737  1.00  0.00    -0.000 C 
BRANCH  13  14
ATOM     14  C   UNL     1     100.583 120.299 126.954  1.00  0.00    -0.000 C 
BRANCH  14  15
ATOM     15  C   UNL     1     101.924 119.926 126.295  1.00  0.00    -0.000 C 
BRANCH  15  16
ATOM     16  C   UNL     1     101.808 119.205 124.940  1.00  0.00    -0.000 C 
BRANCH  16  17
ATOM     17  C   UNL     1     100.939 119.968 123.928  1.00  0.00    -0.003 C 
ATOM     18  C   UNL     1     100.208 119.006 122.996  1.00  0.00     0.004 C 
ENDBRANCH  16  17
ENDBRANCH  15  16
ENDBRANCH  14  15
ENDBRANCH  13  14
ENDBRANCH  12  13
ENDBRANCH  11  12
ENDBRANCH   1  11
TORSDOF 14
ENDMDL
MODEL 8
REMARK VINA RESULT:    -3.768      3.730      9.134
REMARK INTER + INTRA:          -7.566
REMARK INTER:                  -6.938
REMARK INTRA:                  -0.628
REMARK UNBOUND:                -0.715
REMARK SMILES CCCCCCCCCCCCCCCC(=O)[O-]
REMARK SMILES IDX 9 1 10 2 11 3 12 4 13 5 14 6 15 7 16 8 17 9 18 10 8 11 7 12
REMARK SMILES IDX 6 13 5 14 4 15 3 16 2 17 1 18
REMARK H PARENT
REMARK Flexibility Score: inf
ROOT
ATOM      1  C   UNL     1      92.578 122.578 122.889  1.00  0.00     0.000 C 
ENDROOT
BRANCH   1   2
ATOM      2  C   UNL     1      93.099 123.749 123.739  1.00  0.00     0.000 C 
BRANCH   2   3
ATOM      3  C   UNL     1      94.368 123.385 124.529  1.00  0.00     0.000 C 
BRANCH   3   4
ATOM      4  C   UNL     1      95.631 124.083 123.992  1.00  0.00     0.000 C 
BRANCH   4   5
ATOM      5  C   UNL     1      96.620 124.566 125.069  1.00  0.00     0.000 C 
BRANCH   5   6
ATOM      6  C   UNL     1      97.243 123.414 125.871  1.00  0.00     0.006 C 
BRANCH   6   7
ATOM      7  C   UNL     1      98.580 123.836 126.486  1.00  0.00     0.053 C 
BRANCH   7   8
ATOM      8  C   UNL     1      99.525 122.676 126.531  1.00  0.00     0.041 C 
ATOM      9  O   UNL     1     100.749 122.847 126.290  1.00  0.00    -0.550 OA
ATOM     10  O   UNL     1      99.046 121.399 126.789  1.00  0.00    -0.550 OA
ENDBRANCH   7   8
ENDBRANCH   6   7
ENDBRANCH   5   6
ENDBRANCH   4   5
ENDBRANCH   3   4
ENDBRANCH   2   3
ENDBRANCH   1   2
BRANCH   1  11
ATOM     11  C   UNL     1      92.637 122.866 121.380  1.00  0.00     0.000 C 
BRANCH  11  12
ATOM     12  C   UNL     1      93.851 122.178 120.739  1.00  0.00    -0.000 C 
BRANCH  12  13
ATOM     13  C   UNL     1      93.530 121.566 119.365  1.00  0.00    -0.000 C 
BRANCH  13  14
ATOM     14  C   UNL     1      92.097 121.878 118.901  1.00  0.00    -0.000 C 
BRANCH  14  15
ATOM     15  C   UNL     1      92.048 122.885 117.738  1.00  0.00    -0.000 C 
BRANCH  15  16
ATOM     16  C   UNL     1      91.784 122.271 116.352  1.00  0.00    -0.000 C 
BRANCH  16  17
ATOM     17  C   UNL     1      92.504 120.930 116.144  1.00  0.00    -0.003 C 
ATOM     18  C   UNL     1      91.608 119.933 115.414  1.00  0.00     0.004 C 
ENDBRANCH  16  17
ENDBRANCH  15  16
ENDBRANCH  14  15
ENDBRANCH  13  14
ENDBRANCH  12  13
ENDBRANCH  11  12
ENDBRANCH   1  11
TORSDOF 14
ENDMDL
MODEL 9
REMARK VINA RESULT:    -3.184     12.924     16.302
REMARK INTER + INTRA:          -6.505
REMARK INTER:                  -5.707
REMARK INTRA:                  -0.798
REMARK UNBOUND:                -0.715
REMARK SMILES CCCCCCCCCCCCCCCC(=O)[O-]
REMARK SMILES IDX 9 1 10 2 11 3 12 4 13 5 14 6 15 7 16 8 17 9 18 10 8 11 7 12
REMARK SMILES IDX 6 13 5 14 4 15 3 16 2 17 1 18
REMARK H PARENT
REMARK Flexibility Score: inf
ROOT
ATOM      1  C   UNL     1      82.485 124.926 130.875  1.00  0.00     0.000 C 
ENDROOT
BRANCH   1   2
ATOM      2  C   UNL     1      83.292 125.151 129.586  1.00  0.00     0.000 C 
BRANCH   2   3
ATOM      3  C   UNL     1      83.468 123.860 128.768  1.00  0.00     0.000 C 
BRANCH   3   4
ATOM      4  C   UNL     1      83.392 122.587 129.631  1.00  0.00     0.000 C 
BRANCH   4   5
ATOM      5  C   UNL     1      84.362 121.462 129.224  1.00  0.00     0.000 C 
BRANCH   5   6
ATOM      6  C   UNL     1      85.835 121.893 129.274  1.00  0.00     0.006 C 
BRANCH   6   7
ATOM      7  C   UNL     1      86.695 120.828 129.961  1.00  0.00     0.053 C 
BRANCH   7   8
ATOM      8  C   UNL     1      86.046 120.370 131.229  1.00  0.00     0.041 C 
ATOM      9  O   UNL     1      85.491 119.241 131.285  1.00  0.00    -0.550 OA
ATOM     10  O   UNL     1      86.010 121.210 132.335  1.00  0.00    -0.550 OA
ENDBRANCH   7   8
ENDBRANCH   6   7
ENDBRANCH   5   6
ENDBRANCH   4   5
ENDBRANCH   3   4
ENDBRANCH   2   3
ENDBRANCH   1   2
BRANCH   1  11
ATOM     11  C   UNL     1      83.362 124.939 132.137  1.00  0.00     0.000 C 
BRANCH  11  12
ATOM     12  C   UNL     1      82.932 126.062 133.092  1.00  0.00    -0.000 C 
BRANCH  12  13
ATOM     13  C   UNL     1      83.257 127.462 132.546  1.00  0.00    -0.000 C 
BRANCH  13  14
ATOM     14  C   UNL     1      81.994 128.301 132.282  1.00  0.00    -0.000 C 
BRANCH  14  15
ATOM     15  C   UNL     1      82.234 129.450 131.286  1.00  0.00    -0.000 C 
BRANCH  15  16
ATOM     16  C   UNL     1      81.877 130.853 131.808  1.00  0.00    -0.000 C 
BRANCH  16  17
ATOM     17  C   UNL     1      83.033 131.855 131.670  1.00  0.00    -0.003 C 
ATOM     18  C   UNL     1      84.119 131.588 132.709  1.00  0.00     0.004 C 
ENDBRANCH  16  17
ENDBRANCH  15  16
ENDBRANCH  14  15
ENDBRANCH  13  14
ENDBRANCH  12  13
ENDBRANCH  11  12
ENDBRANCH   1  11
TORSDOF 14
ENDMDL
