MODEL 1
REMARK VINA RESULT:    -6.743      0.000      0.000
REMARK INTER + INTRA:         -19.677
REMARK INTER:                 -16.992
REMARK INTRA:                  -2.685
REMARK UNBOUND:                -2.685
REMARK SMILES CCCCCCCCCCCCCCCCCCCCCCCCCCCC(=O)[O-]
REMARK SMILES IDX 15 1 16 2 17 3 18 4 19 5 20 6 21 7 22 8 23 9 24 10 25 11
REMARK SMILES IDX 26 12 27 13 28 14 29 15 30 16 14 17 13 18 12 19 11 20 10 21
REMARK SMILES IDX 9 22 8 23 7 24 6 25 5 26 4 27 3 28 2 29 1 30
REMARK H PARENT
REMARK Flexibility Score: inf
ROOT
ATOM      1  C   UNL     1      13.283   2.323  16.386  1.00  0.00     0.000 C 
ENDROOT
BRANCH   1   2
ATOM      2  C   UNL     1      13.249   3.636  17.191  1.00  0.00     0.000 C 
BRANCH   2   3
ATOM      3  C   UNL     1      14.034   3.555  18.510  1.00  0.00     0.000 C 
BRANCH   3   4
ATOM      4  C   UNL     1      14.501   2.117  18.786  1.00  0.00     0.000 C 
BRANCH   4   5
ATOM      5  C   UNL     1      14.764   1.850  20.282  1.00  0.00     0.000 C 
BRANCH   5   6
ATOM      6  C   UNL     1      15.550   0.558  20.562  1.00  0.00     0.000 C 
BRANCH   6   7
ATOM      7  C   UNL     1      16.475   0.150  19.403  1.00  0.00     0.000 C 
BRANCH   7   8
ATOM      8  C   UNL     1      16.530  -1.372  19.196  1.00  0.00     0.000 C 
BRANCH   8   9
ATOM      9  C   UNL     1      16.493  -1.766  17.709  1.00  0.00     0.000 C 
BRANCH   9  10
ATOM     10  C   UNL     1      16.063  -0.594  16.801  1.00  0.00     0.000 C 
BRANCH  10  11
ATOM     11  C   UNL     1      16.349  -0.823  15.303  1.00  0.00     0.000 C 
BRANCH  11  12
ATOM     12  C   UNL     1      17.417   0.098  14.690  1.00  0.00     0.006 C 
BRANCH  12  13
ATOM     13  C   UNL     1      18.622  -0.675  14.131  1.00  0.00     0.053 C 
BRANCH  13  14
ATOM     14  C   UNL     1      19.552  -1.088  15.231  1.00  0.00     0.041 C 
ATOM     15  O   UNL     1      19.454  -2.234  15.748  1.00  0.00    -0.550 OA
ATOM     16  O   UNL     1      20.512  -0.199  15.703  1.00  0.00    -0.550 OA
ENDBRANCH  13  14
ENDBRANCH  12  13
ENDBRANCH  11  12
ENDBRANCH  10  11
ENDBRANCH   9  10
ENDBRANCH   8   9
ENDBRANCH   7   8
ENDBRANCH   6   7
ENDBRANCH   5   6
ENDBRANCH   4   5
ENDBRANCH   3   4
ENDBRANCH   2   3
ENDBRANCH   1   2
BRANCH   1  17
ATOM     17  C   UNL     1      13.632   2.475  14.893  1.00  0.00     0.000 C 
BRANCH  17  18
ATOM     18  C   UNL     1      15.122   2.765  14.648  1.00  0.00     0.000 C 
BRANCH  18  19
ATOM     19  C   UNL     1      15.464   2.879  13.151  1.00  0.00     0.000 C 
BRANCH  19  20
ATOM     20  C   UNL     1      15.412   1.552  12.364  1.00  0.00     0.000 C 
BRANCH  20  21
ATOM     21  C   UNL     1      16.027   1.603  10.954  1.00  0.00     0.000 C 
BRANCH  21  22
ATOM     22  C   UNL     1      17.218   0.647  10.788  1.00  0.00    -0.000 C 
BRANCH  22  23
ATOM     23  C   UNL     1      18.243   1.209   9.793  1.00  0.00    -0.000 C 
BRANCH  23  24
ATOM     24  C   UNL     1      18.222   0.475   8.439  1.00  0.00    -0.000 C 
BRANCH  24  25
ATOM     25  C   UNL     1      19.089   1.120   7.341  1.00  0.00    -0.000 C 
BRANCH  25  26
ATOM     26  C   UNL     1      20.492   0.505   7.174  1.00  0.00    -0.000 C 
BRANCH  26  27
ATOM     27  C   UNL     1      20.473  -0.938   6.624  1.00  0.00    -0.000 C 
BRANCH  27  28
ATOM     28  C   UNL     1      21.864  -1.591   6.640  1.00  0.00    -0.000 C 
BRANCH  28  29
ATOM     29  C   UNL     1      22.528  -1.503   5.261  1.00  0.00    -0.003 C 
ATOM     30  C   UNL     1      23.982  -1.053   5.380  1.00  0.00     0.004 C 
ENDBRANCH  28  29
ENDBRANCH  27  28
ENDBRANCH  26  27
ENDBRANCH  25  26
ENDBRANCH  24  25
ENDBRANCH  23  24
ENDBRANCH  22  23
ENDBRANCH  21  22
ENDBRANCH  20  21
ENDBRANCH  19  20
ENDBRANCH  18  19
ENDBRANCH  17  18
ENDBRANCH   1  17
TORSDOF 26
ENDMDL
MODEL 2
REMARK VINA RESULT:    -6.593      1.305      1.834
REMARK INTER + INTRA:         -19.298
REMARK INTER:                 -16.702
REMARK INTRA:                  -2.596
REMARK UNBOUND:                -2.685
REMARK SMILES CCCCCCCCCCCCCCCCCCCCCCCCCCCC(=O)[O-]
REMARK SMILES IDX 15 1 16 2 17 3 18 4 19 5 20 6 21 7 22 8 23 9 24 10 25 11
REMARK SMILES IDX 26 12 27 13 28 14 29 15 30 16 14 17 13 18 12 19 11 20 10 21
REMARK SMILES IDX 9 22 8 23 7 24 6 25 5 26 4 27 3 28 2 29 1 30
REMARK H PARENT
REMARK Flexibility Score: inf
ROOT
ATOM      1  C   UNL     1      13.426   2.258  16.351  1.00  0.00     0.000 C 
ENDROOT
BRANCH   1   2
ATOM      2  C   UNL     1      12.910   3.499  17.104  1.00  0.00     0.000 C 
BRANCH   2   3
ATOM      3  C   UNL     1      13.608   3.718  18.455  1.00  0.00     0.000 C 
BRANCH   3   4
ATOM      4  C   UNL     1      14.694   2.657  18.693  1.00  0.00     0.000 C 
BRANCH   4   5
ATOM      5  C   UNL     1      14.725   2.147  20.148  1.00  0.00     0.000 C 
BRANCH   5   6
ATOM      6  C   UNL     1      15.432   0.792  20.327  1.00  0.00     0.000 C 
BRANCH   6   7
ATOM      7  C   UNL     1      14.489  -0.322  20.812  1.00  0.00     0.000 C 
BRANCH   7   8
ATOM      8  C   UNL     1      13.357  -0.616  19.815  1.00  0.00     0.000 C 
BRANCH   8   9
ATOM      9  C   UNL     1      13.876  -0.836  18.384  1.00  0.00     0.000 C 
BRANCH   9  10
ATOM     10  C   UNL     1      15.039  -1.850  18.329  1.00  0.00     0.000 C 
BRANCH  10  11
ATOM     11  C   UNL     1      15.857  -1.797  17.022  1.00  0.00     0.000 C 
BRANCH  11  12
ATOM     12  C   UNL     1      16.121  -0.387  16.469  1.00  0.00     0.006 C 
BRANCH  12  13
ATOM     13  C   UNL     1      17.495  -0.260  15.791  1.00  0.00     0.053 C 
BRANCH  13  14
ATOM     14  C   UNL     1      18.444   0.527  16.644  1.00  0.00     0.041 C 
ATOM     15  O   UNL     1      19.664   0.598  16.334  1.00  0.00    -0.550 OA
ATOM     16  O   UNL     1      17.985   1.162  17.793  1.00  0.00    -0.550 OA
ENDBRANCH  13  14
ENDBRANCH  12  13
ENDBRANCH  11  12
ENDBRANCH  10  11
ENDBRANCH   9  10
ENDBRANCH   8   9
ENDBRANCH   7   8
ENDBRANCH   6   7
ENDBRANCH   5   6
ENDBRANCH   4   5
ENDBRANCH   3   4
ENDBRANCH   2   3
ENDBRANCH   1   2
BRANCH   1  17
ATOM     17  C   UNL     1      13.672   2.459  14.843  1.00  0.00     0.000 C 
BRANCH  17  18
ATOM     18  C   UNL     1      15.161   2.609  14.489  1.00  0.00     0.000 C 
BRANCH  18  19
ATOM     19  C   UNL     1      15.382   2.996  13.015  1.00  0.00     0.000 C 
BRANCH  19  20
ATOM     20  C   UNL     1      15.736   1.823  12.076  1.00  0.00     0.000 C 
BRANCH  20  21
ATOM     21  C   UNL     1      16.677   0.764  12.677  1.00  0.00     0.000 C 
BRANCH  21  22
ATOM     22  C   UNL     1      18.034   0.698  11.960  1.00  0.00    -0.000 C 
BRANCH  22  23
ATOM     23  C   UNL     1      17.935   1.261  10.535  1.00  0.00    -0.000 C 
BRANCH  23  24
ATOM     24  C   UNL     1      17.328   0.256   9.539  1.00  0.00    -0.000 C 
BRANCH  24  25
ATOM     25  C   UNL     1      18.218  -0.065   8.322  1.00  0.00    -0.000 C 
BRANCH  25  26
ATOM     26  C   UNL     1      18.797   1.165   7.597  1.00  0.00    -0.000 C 
BRANCH  26  27
ATOM     27  C   UNL     1      19.753   0.808   6.437  1.00  0.00    -0.000 C 
BRANCH  27  28
ATOM     28  C   UNL     1      21.118   0.307   6.934  1.00  0.00    -0.000 C 
BRANCH  28  29
ATOM     29  C   UNL     1      21.331  -1.165   6.564  1.00  0.00    -0.003 C 
ATOM     30  C   UNL     1      22.447  -1.317   5.534  1.00  0.00     0.004 C 
ENDBRANCH  28  29
ENDBRANCH  27  28
ENDBRANCH  26  27
ENDBRANCH  25  26
ENDBRANCH  24  25
ENDBRANCH  23  24
ENDBRANCH  22  23
ENDBRANCH  21  22
ENDBRANCH  20  21
ENDBRANCH  19  20
ENDBRANCH  18  19
ENDBRANCH  17  18
ENDBRANCH   1  17
TORSDOF 26
ENDMDL
MODEL 3
REMARK VINA RESULT:    -6.508      2.908      9.432
REMARK INTER + INTRA:         -19.084
REMARK INTER:                 -16.322
REMARK INTRA:                  -2.762
REMARK UNBOUND:                -2.685
REMARK SMILES CCCCCCCCCCCCCCCCCCCCCCCCCCCC(=O)[O-]
REMARK SMILES IDX 15 1 16 2 17 3 18 4 19 5 20 6 21 7 22 8 23 9 24 10 25 11
REMARK SMILES IDX 26 12 27 13 28 14 29 15 30 16 14 17 13 18 12 19 11 20 10 21
REMARK SMILES IDX 9 22 8 23 7 24 6 25 5 26 4 27 3 28 2 29 1 30
REMARK H PARENT
REMARK Flexibility Score: inf
ROOT
ATOM      1  C   UNL     1      17.156  -2.207  16.897  1.00  0.00     0.000 C 
ENDROOT
BRANCH   1   2
ATOM      2  C   UNL     1      16.146  -1.200  16.313  1.00  0.00     0.000 C 
BRANCH   2   3
ATOM      3  C   UNL     1      16.548  -0.678  14.925  1.00  0.00     0.000 C 
BRANCH   3   4
ATOM      4  C   UNL     1      18.068  -0.470  14.834  1.00  0.00     0.000 C 
BRANCH   4   5
ATOM      5  C   UNL     1      18.581  -0.434  13.380  1.00  0.00     0.000 C 
BRANCH   5   6
ATOM      6  C   UNL     1      17.544   0.063  12.358  1.00  0.00     0.000 C 
BRANCH   6   7
ATOM      7  C   UNL     1      18.115   1.095  11.371  1.00  0.00     0.000 C 
BRANCH   7   8
ATOM      8  C   UNL     1      17.387   1.088  10.018  1.00  0.00     0.000 C 
BRANCH   8   9
ATOM      9  C   UNL     1      18.113   0.234   8.964  1.00  0.00     0.000 C 
BRANCH   9  10
ATOM     10  C   UNL     1      18.565   1.066   7.744  1.00  0.00     0.000 C 
BRANCH  10  11
ATOM     11  C   UNL     1      20.060   0.914   7.400  1.00  0.00     0.000 C 
BRANCH  11  12
ATOM     12  C   UNL     1      20.473  -0.465   6.860  1.00  0.00     0.006 C 
BRANCH  12  13
ATOM     13  C   UNL     1      21.705  -0.402   5.943  1.00  0.00     0.053 C 
BRANCH  13  14
ATOM     14  C   UNL     1      22.302  -1.763   5.752  1.00  0.00     0.041 C 
ATOM     15  O   UNL     1      23.366  -1.901   5.089  1.00  0.00    -0.550 OA
ATOM     16  O   UNL     1      21.671  -2.882   6.284  1.00  0.00    -0.550 OA
ENDBRANCH  13  14
ENDBRANCH  12  13
ENDBRANCH  11  12
ENDBRANCH  10  11
ENDBRANCH   9  10
ENDBRANCH   8   9
ENDBRANCH   7   8
ENDBRANCH   6   7
ENDBRANCH   5   6
ENDBRANCH   4   5
ENDBRANCH   3   4
ENDBRANCH   2   3
ENDBRANCH   1   2
BRANCH   1  17
ATOM     17  C   UNL     1      17.828  -1.776  18.215  1.00  0.00     0.000 C 
BRANCH  17  18
ATOM     18  C   UNL     1      17.878  -0.250  18.396  1.00  0.00     0.000 C 
BRANCH  18  19
ATOM     19  C   UNL     1      17.090   0.225  19.631  1.00  0.00     0.000 C 
BRANCH  19  20
ATOM     20  C   UNL     1      16.002  -0.749  20.129  1.00  0.00     0.000 C 
BRANCH  20  21
ATOM     21  C   UNL     1      14.672  -0.091  20.539  1.00  0.00     0.000 C 
BRANCH  21  22
ATOM     22  C   UNL     1      13.571  -0.263  19.482  1.00  0.00    -0.000 C 
BRANCH  22  23
ATOM     23  C   UNL     1      13.624   0.863  18.440  1.00  0.00    -0.000 C 
BRANCH  23  24
ATOM     24  C   UNL     1      14.214   2.168  19.004  1.00  0.00    -0.000 C 
BRANCH  24  25
ATOM     25  C   UNL     1      13.668   3.456  18.358  1.00  0.00    -0.000 C 
BRANCH  25  26
ATOM     26  C   UNL     1      14.533   4.032  17.220  1.00  0.00    -0.000 C 
BRANCH  26  27
ATOM     27  C   UNL     1      15.014   2.967  16.210  1.00  0.00    -0.000 C 
BRANCH  27  28
ATOM     28  C   UNL     1      13.930   2.594  15.188  1.00  0.00    -0.000 C 
BRANCH  28  29
ATOM     29  C   UNL     1      14.549   1.958  13.937  1.00  0.00    -0.003 C 
ATOM     30  C   UNL     1      15.386   2.973  13.163  1.00  0.00     0.004 C 
ENDBRANCH  28  29
ENDBRANCH  27  28
ENDBRANCH  26  27
ENDBRANCH  25  26
ENDBRANCH  24  25
ENDBRANCH  23  24
ENDBRANCH  22  23
ENDBRANCH  21  22
ENDBRANCH  20  21
ENDBRANCH  19  20
ENDBRANCH  18  19
ENDBRANCH  17  18
ENDBRANCH   1  17
TORSDOF 26
ENDMDL
MODEL 4
REMARK VINA RESULT:    -6.190      1.988      3.987
REMARK INTER + INTRA:         -18.282
REMARK INTER:                 -15.982
REMARK INTRA:                  -2.300
REMARK UNBOUND:                -2.685
REMARK SMILES CCCCCCCCCCCCCCCCCCCCCCCCCCCC(=O)[O-]
REMARK SMILES IDX 15 1 16 2 17 3 18 4 19 5 20 6 21 7 22 8 23 9 24 10 25 11
REMARK SMILES IDX 26 12 27 13 28 14 29 15 30 16 14 17 13 18 12 19 11 20 10 21
REMARK SMILES IDX 9 22 8 23 7 24 6 25 5 26 4 27 3 28 2 29 1 30
REMARK H PARENT
REMARK Flexibility Score: inf
ROOT
ATOM      1  C   UNL     1      18.079   0.667  17.251  1.00  0.00     0.000 C 
ENDROOT
BRANCH   1   2
ATOM      2  C   UNL     1      17.717   0.337  18.712  1.00  0.00     0.000 C 
BRANCH   2   3
ATOM      3  C   UNL     1      17.575  -1.170  18.973  1.00  0.00     0.000 C 
BRANCH   3   4
ATOM      4  C   UNL     1      16.196  -1.498  19.569  1.00  0.00     0.000 C 
BRANCH   4   5
ATOM      5  C   UNL     1      15.523  -0.277  20.228  1.00  0.00     0.000 C 
BRANCH   5   6
ATOM      6  C   UNL     1      14.026  -0.133  19.907  1.00  0.00     0.000 C 
BRANCH   6   7
ATOM      7  C   UNL     1      13.716   1.064  18.992  1.00  0.00     0.000 C 
BRANCH   7   8
ATOM      8  C   UNL     1      14.526   2.317  19.361  1.00  0.00     0.000 C 
BRANCH   8   9
ATOM      9  C   UNL     1      13.944   3.598  18.737  1.00  0.00     0.000 C 
BRANCH   9  10
ATOM     10  C   UNL     1      12.876   3.297  17.663  1.00  0.00     0.000 C 
BRANCH  10  11
ATOM     11  C   UNL     1      13.428   3.248  16.224  1.00  0.00     0.000 C 
BRANCH  11  12
ATOM     12  C   UNL     1      14.278   2.011  15.889  1.00  0.00     0.006 C 
BRANCH  12  13
ATOM     13  C   UNL     1      15.484   2.340  14.995  1.00  0.00     0.053 C 
BRANCH  13  14
ATOM     14  C   UNL     1      15.175   2.069  13.554  1.00  0.00     0.041 C 
ATOM     15  O   UNL     1      14.453   1.085  13.236  1.00  0.00    -0.550 OA
ATOM     16  O   UNL     1      15.702   2.888  12.562  1.00  0.00    -0.550 OA
ENDBRANCH  13  14
ENDBRANCH  12  13
ENDBRANCH  11  12
ENDBRANCH  10  11
ENDBRANCH   9  10
ENDBRANCH   8   9
ENDBRANCH   7   8
ENDBRANCH   6   7
ENDBRANCH   5   6
ENDBRANCH   4   5
ENDBRANCH   3   4
ENDBRANCH   2   3
ENDBRANCH   1   2
BRANCH   1  17
ATOM     17  C   UNL     1      17.848  -0.474  16.242  1.00  0.00     0.000 C 
BRANCH  17  18
ATOM     18  C   UNL     1      18.653  -0.304  14.944  1.00  0.00     0.000 C 
BRANCH  18  19
ATOM     19  C   UNL     1      17.823  -0.623  13.687  1.00  0.00     0.000 C 
BRANCH  19  20
ATOM     20  C   UNL     1      18.343   0.012  12.380  1.00  0.00     0.000 C 
BRANCH  20  21
ATOM     21  C   UNL     1      17.330   0.052  11.222  1.00  0.00     0.000 C 
BRANCH  21  22
ATOM     22  C   UNL     1      17.692   1.089  10.149  1.00  0.00    -0.000 C 
BRANCH  22  23
ATOM     23  C   UNL     1      18.130   0.406   8.846  1.00  0.00    -0.000 C 
BRANCH  23  24
ATOM     24  C   UNL     1      18.329   1.403   7.689  1.00  0.00    -0.000 C 
BRANCH  24  25
ATOM     25  C   UNL     1      19.613   1.189   6.865  1.00  0.00    -0.000 C 
BRANCH  25  26
ATOM     26  C   UNL     1      20.198  -0.236   6.931  1.00  0.00    -0.000 C 
BRANCH  26  27
ATOM     27  C   UNL     1      21.580  -0.369   6.254  1.00  0.00    -0.000 C 
BRANCH  27  28
ATOM     28  C   UNL     1      22.076  -1.822   6.211  1.00  0.00    -0.000 C 
BRANCH  28  29
ATOM     29  C   UNL     1      23.166  -2.000   5.148  1.00  0.00    -0.003 C 
ATOM     30  C   UNL     1      24.384  -1.134   5.461  1.00  0.00     0.004 C 
ENDBRANCH  28  29
ENDBRANCH  27  28
ENDBRANCH  26  27
ENDBRANCH  25  26
ENDBRANCH  24  25
ENDBRANCH  23  24
ENDBRANCH  22  23
ENDBRANCH  21  22
ENDBRANCH  20  21
ENDBRANCH  19  20
ENDBRANCH  18  19
ENDBRANCH  17  18
ENDBRANCH   1  17
TORSDOF 26
ENDMDL
MODEL 5
REMARK VINA RESULT:    -6.183      3.294     11.018
REMARK INTER + INTRA:         -18.266
REMARK INTER:                 -16.391
REMARK INTRA:                  -1.874
REMARK UNBOUND:                -2.685
REMARK SMILES CCCCCCCCCCCCCCCCCCCCCCCCCCCC(=O)[O-]
REMARK SMILES IDX 15 1 16 2 17 3 18 4 19 5 20 6 21 7 22 8 23 9 24 10 25 11
REMARK SMILES IDX 26 12 27 13 28 14 29 15 30 16 14 17 13 18 12 19 11 20 10 21
REMARK SMILES IDX 9 22 8 23 7 24 6 25 5 26 4 27 3 28 2 29 1 30
REMARK H PARENT
REMARK Flexibility Score: inf
ROOT
ATOM      1  C   UNL     1      16.920   0.890  12.357  1.00  0.00     0.000 C 
ENDROOT
BRANCH   1   2
ATOM      2  C   UNL     1      17.174   0.211  10.997  1.00  0.00     0.000 C 
BRANCH   2   3
ATOM      3  C   UNL     1      17.815   1.150   9.964  1.00  0.00     0.000 C 
BRANCH   3   4
ATOM      4  C   UNL     1      18.208   0.383   8.691  1.00  0.00     0.000 C 
BRANCH   4   5
ATOM      5  C   UNL     1      19.207   1.160   7.809  1.00  0.00     0.000 C 
BRANCH   5   6
ATOM      6  C   UNL     1      19.714   0.372   6.589  1.00  0.00     0.000 C 
BRANCH   6   7
ATOM      7  C   UNL     1      21.235   0.143   6.607  1.00  0.00     0.000 C 
BRANCH   7   8
ATOM      8  C   UNL     1      21.611  -1.346   6.556  1.00  0.00     0.000 C 
BRANCH   8   9
ATOM      9  C   UNL     1      22.535  -1.679   5.371  1.00  0.00     0.000 C 
BRANCH   9  10
ATOM     10  C   UNL     1      23.864  -0.895   5.423  1.00  0.00     0.000 C 
BRANCH  10  11
ATOM     11  C   UNL     1      25.093  -1.764   5.759  1.00  0.00     0.000 C 
BRANCH  11  12
ATOM     12  C   UNL     1      26.381  -0.985   6.074  1.00  0.00     0.006 C 
BRANCH  12  13
ATOM     13  C   UNL     1      27.136  -1.547   7.289  1.00  0.00     0.053 C 
BRANCH  13  14
ATOM     14  C   UNL     1      28.301  -0.675   7.647  1.00  0.00     0.041 C 
ATOM     15  O   UNL     1      29.406  -0.820   7.056  1.00  0.00    -0.550 OA
ATOM     16  O   UNL     1      28.174   0.282   8.648  1.00  0.00    -0.550 OA
ENDBRANCH  13  14
ENDBRANCH  12  13
ENDBRANCH  11  12
ENDBRANCH  10  11
ENDBRANCH   9  10
ENDBRANCH   8   9
ENDBRANCH   7   8
ENDBRANCH   6   7
ENDBRANCH   5   6
ENDBRANCH   4   5
ENDBRANCH   3   4
ENDBRANCH   2   3
ENDBRANCH   1   2
BRANCH   1  17
ATOM     17  C   UNL     1      15.605   1.685  12.460  1.00  0.00     0.000 C 
BRANCH  17  18
ATOM     18  C   UNL     1      14.764   1.305  13.690  1.00  0.00     0.000 C 
BRANCH  18  19
ATOM     19  C   UNL     1      14.241   2.536  14.452  1.00  0.00     0.000 C 
BRANCH  19  20
ATOM     20  C   UNL     1      13.318   2.222  15.648  1.00  0.00     0.000 C 
BRANCH  20  21
ATOM     21  C   UNL     1      13.145   3.368  16.661  1.00  0.00     0.000 C 
BRANCH  21  22
ATOM     22  C   UNL     1      13.609   2.989  18.075  1.00  0.00    -0.000 C 
BRANCH  22  23
ATOM     23  C   UNL     1      13.901   1.485  18.177  1.00  0.00    -0.000 C 
BRANCH  23  24
ATOM     24  C   UNL     1      14.416   1.071  19.567  1.00  0.00    -0.000 C 
BRANCH  24  25
ATOM     25  C   UNL     1      15.892   0.630  19.604  1.00  0.00    -0.000 C 
BRANCH  25  26
ATOM     26  C   UNL     1      16.116  -0.895  19.599  1.00  0.00    -0.000 C 
BRANCH  26  27
ATOM     27  C   UNL     1      17.208  -1.357  18.610  1.00  0.00    -0.000 C 
BRANCH  27  28
ATOM     28  C   UNL     1      16.620  -1.977  17.333  1.00  0.00    -0.000 C 
BRANCH  28  29
ATOM     29  C   UNL     1      16.213  -0.889  16.333  1.00  0.00    -0.003 C 
ATOM     30  C   UNL     1      17.387   0.034  16.017  1.00  0.00     0.004 C 
ENDBRANCH  28  29
ENDBRANCH  27  28
ENDBRANCH  26  27
ENDBRANCH  25  26
ENDBRANCH  24  25
ENDBRANCH  23  24
ENDBRANCH  22  23
ENDBRANCH  21  22
ENDBRANCH  20  21
ENDBRANCH  19  20
ENDBRANCH  18  19
ENDBRANCH  17  18
ENDBRANCH   1  17
TORSDOF 26
ENDMDL
MODEL 6
REMARK VINA RESULT:    -6.127      2.652      6.795
REMARK INTER + INTRA:         -18.124
REMARK INTER:                 -16.755
REMARK INTRA:                  -1.369
REMARK UNBOUND:                -2.685
REMARK SMILES CCCCCCCCCCCCCCCCCCCCCCCCCCCC(=O)[O-]
REMARK SMILES IDX 15 1 16 2 17 3 18 4 19 5 20 6 21 7 22 8 23 9 24 10 25 11
REMARK SMILES IDX 26 12 27 13 28 14 29 15 30 16 14 17 13 18 12 19 11 20 10 21
REMARK SMILES IDX 9 22 8 23 7 24 6 25 5 26 4 27 3 28 2 29 1 30
REMARK H PARENT
REMARK Flexibility Score: inf
ROOT
ATOM      1  C   UNL     1      17.771   0.223  10.005  1.00  0.00     0.000 C 
ENDROOT
BRANCH   1   2
ATOM      2  C   UNL     1      17.502   1.170  11.190  1.00  0.00     0.000 C 
BRANCH   2   3
ATOM      3  C   UNL     1      16.021   1.550  11.335  1.00  0.00     0.000 C 
BRANCH   3   4
ATOM      4  C   UNL     1      15.791   2.403  12.593  1.00  0.00     0.000 C 
BRANCH   4   5
ATOM      5  C   UNL     1      14.766   1.778  13.561  1.00  0.00     0.000 C 
BRANCH   5   6
ATOM      6  C   UNL     1      14.597   2.547  14.883  1.00  0.00     0.000 C 
BRANCH   6   7
ATOM      7  C   UNL     1      13.125   2.731  15.291  1.00  0.00     0.000 C 
BRANCH   7   8
ATOM      8  C   UNL     1      12.971   3.329  16.698  1.00  0.00     0.000 C 
BRANCH   8   9
ATOM      9  C   UNL     1      14.282   3.286  17.502  1.00  0.00     0.000 C 
BRANCH   9  10
ATOM     10  C   UNL     1      14.100   2.636  18.890  1.00  0.00     0.000 C 
BRANCH  10  11
ATOM     11  C   UNL     1      14.881   1.319  19.075  1.00  0.00     0.000 C 
BRANCH  11  12
ATOM     12  C   UNL     1      14.248   0.082  18.416  1.00  0.00     0.006 C 
BRANCH  12  13
ATOM     13  C   UNL     1      15.150  -1.160  18.489  1.00  0.00     0.053 C 
BRANCH  13  14
ATOM     14  C   UNL     1      15.845  -1.396  17.183  1.00  0.00     0.041 C 
ATOM     15  O   UNL     1      16.490  -2.462  16.992  1.00  0.00    -0.550 OA
ATOM     16  O   UNL     1      15.803  -0.427  16.186  1.00  0.00    -0.550 OA
ENDBRANCH  13  14
ENDBRANCH  12  13
ENDBRANCH  11  12
ENDBRANCH  10  11
ENDBRANCH   9  10
ENDBRANCH   8   9
ENDBRANCH   7   8
ENDBRANCH   6   7
ENDBRANCH   5   6
ENDBRANCH   4   5
ENDBRANCH   3   4
ENDBRANCH   2   3
ENDBRANCH   1   2
BRANCH   1  17
ATOM     17  C   UNL     1      17.983   0.915   8.645  1.00  0.00     0.000 C 
BRANCH  17  18
ATOM     18  C   UNL     1      18.960   0.160   7.729  1.00  0.00     0.000 C 
BRANCH  18  19
ATOM     19  C   UNL     1      19.736   1.100   6.788  1.00  0.00     0.000 C 
BRANCH  19  20
ATOM     20  C   UNL     1      21.176   0.655   6.458  1.00  0.00     0.000 C 
BRANCH  20  21
ATOM     21  C   UNL     1      21.441  -0.855   6.589  1.00  0.00     0.000 C 
BRANCH  21  22
ATOM     22  C   UNL     1      22.268  -1.419   5.423  1.00  0.00    -0.000 C 
BRANCH  22  23
ATOM     23  C   UNL     1      23.693  -0.848   5.429  1.00  0.00    -0.000 C 
BRANCH  23  24
ATOM     24  C   UNL     1      24.757  -1.908   5.768  1.00  0.00    -0.000 C 
BRANCH  24  25
ATOM     25  C   UNL     1      26.167  -1.346   6.034  1.00  0.00    -0.000 C 
BRANCH  25  26
ATOM     26  C   UNL     1      27.093  -2.270   6.849  1.00  0.00    -0.000 C 
BRANCH  26  27
ATOM     27  C   UNL     1      28.250  -2.873   6.023  1.00  0.00    -0.000 C 
BRANCH  27  28
ATOM     28  C   UNL     1      29.080  -1.799   5.303  1.00  0.00    -0.000 C 
BRANCH  28  29
ATOM     29  C   UNL     1      30.450  -1.626   5.970  1.00  0.00    -0.003 C 
ATOM     30  C   UNL     1      30.912  -2.927   6.621  1.00  0.00     0.004 C 
ENDBRANCH  28  29
ENDBRANCH  27  28
ENDBRANCH  26  27
ENDBRANCH  25  26
ENDBRANCH  24  25
ENDBRANCH  23  24
ENDBRANCH  22  23
ENDBRANCH  21  22
ENDBRANCH  20  21
ENDBRANCH  19  20
ENDBRANCH  18  19
ENDBRANCH  17  18
ENDBRANCH   1  17
TORSDOF 26
ENDMDL
MODEL 7
REMARK VINA RESULT:    -6.019      5.314     12.714
REMARK INTER + INTRA:         -17.853
REMARK INTER:                 -15.385
REMARK INTRA:                  -2.468
REMARK UNBOUND:                -2.685
REMARK SMILES CCCCCCCCCCCCCCCCCCCCCCCCCCCC(=O)[O-]
REMARK SMILES IDX 15 1 16 2 17 3 18 4 19 5 20 6 21 7 22 8 23 9 24 10 25 11
REMARK SMILES IDX 26 12 27 13 28 14 29 15 30 16 14 17 13 18 12 19 11 20 10 21
REMARK SMILES IDX 9 22 8 23 7 24 6 25 5 26 4 27 3 28 2 29 1 30
REMARK H PARENT
REMARK Flexibility Score: inf
ROOT
ATOM      1  C   UNL     1      26.259  -0.739   5.862  1.00  0.00     0.000 C 
ENDROOT
BRANCH   1   2
ATOM      2  C   UNL     1      24.854  -0.668   5.234  1.00  0.00     0.000 C 
BRANCH   2   3
ATOM      3  C   UNL     1      23.908  -1.764   5.746  1.00  0.00     0.000 C 
BRANCH   3   4
ATOM      4  C   UNL     1      22.459  -1.490   5.311  1.00  0.00     0.000 C 
BRANCH   4   5
ATOM      5  C   UNL     1      21.504  -1.284   6.505  1.00  0.00     0.000 C 
BRANCH   5   6
ATOM      6  C   UNL     1      21.157   0.188   6.787  1.00  0.00     0.000 C 
BRANCH   6   7
ATOM      7  C   UNL     1      19.678   0.520   6.529  1.00  0.00     0.000 C 
BRANCH   7   8
ATOM      8  C   UNL     1      19.026   1.271   7.701  1.00  0.00     0.000 C 
BRANCH   8   9
ATOM      9  C   UNL     1      18.193   0.344   8.603  1.00  0.00     0.000 C 
BRANCH   9  10
ATOM     10  C   UNL     1      17.707   1.053   9.886  1.00  0.00     0.000 C 
BRANCH  10  11
ATOM     11  C   UNL     1      17.945   0.245  11.178  1.00  0.00     0.000 C 
BRANCH  11  12
ATOM     12  C   UNL     1      17.050   0.631  12.367  1.00  0.00     0.006 C 
BRANCH  12  13
ATOM     13  C   UNL     1      15.977   1.667  11.995  1.00  0.00     0.053 C 
BRANCH  13  14
ATOM     14  C   UNL     1      15.069   1.939  13.155  1.00  0.00     0.041 C 
ATOM     15  O   UNL     1      14.320   1.028  13.601  1.00  0.00    -0.550 OA
ATOM     16  O   UNL     1      15.032   3.205  13.729  1.00  0.00    -0.550 OA
ENDBRANCH  13  14
ENDBRANCH  12  13
ENDBRANCH  11  12
ENDBRANCH  10  11
ENDBRANCH   9  10
ENDBRANCH   8   9
ENDBRANCH   7   8
ENDBRANCH   6   7
ENDBRANCH   5   6
ENDBRANCH   4   5
ENDBRANCH   3   4
ENDBRANCH   2   3
ENDBRANCH   1   2
BRANCH   1  17
ATOM     17  C   UNL     1      26.531  -1.985   6.727  1.00  0.00     0.000 C 
BRANCH  17  18
ATOM     18  C   UNL     1      27.877  -2.657   6.410  1.00  0.00     0.000 C 
BRANCH  18  19
ATOM     19  C   UNL     1      28.695  -1.879   5.363  1.00  0.00     0.000 C 
BRANCH  19  20
ATOM     20  C   UNL     1      30.201  -1.746   5.675  1.00  0.00     0.000 C 
BRANCH  20  21
ATOM     21  C   UNL     1      30.846  -2.981   6.327  1.00  0.00     0.000 C 
BRANCH  21  22
ATOM     22  C   UNL     1      32.379  -2.971   6.235  1.00  0.00    -0.000 C 
BRANCH  22  23
ATOM     23  C   UNL     1      32.998  -2.198   7.408  1.00  0.00    -0.000 C 
BRANCH  23  24
ATOM     24  C   UNL     1      32.444  -2.643   8.773  1.00  0.00    -0.000 C 
BRANCH  24  25
ATOM     25  C   UNL     1      32.017  -1.492   9.704  1.00  0.00    -0.000 C 
BRANCH  25  26
ATOM     26  C   UNL     1      32.126  -0.083   9.088  1.00  0.00    -0.000 C 
BRANCH  26  27
ATOM     27  C   UNL     1      30.800   0.434   8.488  1.00  0.00    -0.000 C 
BRANCH  27  28
ATOM     28  C   UNL     1      29.590  -0.407   8.923  1.00  0.00    -0.000 C 
BRANCH  28  29
ATOM     29  C   UNL     1      28.375   0.484   9.206  1.00  0.00    -0.003 C 
ATOM     30  C   UNL     1      28.692   1.519  10.282  1.00  0.00     0.004 C 
ENDBRANCH  28  29
ENDBRANCH  27  28
ENDBRANCH  26  27
ENDBRANCH  25  26
ENDBRANCH  24  25
ENDBRANCH  23  24
ENDBRANCH  22  23
ENDBRANCH  21  22
ENDBRANCH  20  21
ENDBRANCH  19  20
ENDBRANCH  18  19
ENDBRANCH  17  18
ENDBRANCH   1  17
TORSDOF 26
ENDMDL
MODEL 8
REMARK VINA RESULT:    -5.993      2.064      5.313
REMARK INTER + INTRA:         -17.787
REMARK INTER:                 -16.123
REMARK INTRA:                  -1.664
REMARK UNBOUND:                -2.685
REMARK SMILES CCCCCCCCCCCCCCCCCCCCCCCCCCCC(=O)[O-]
REMARK SMILES IDX 15 1 16 2 17 3 18 4 19 5 20 6 21 7 22 8 23 9 24 10 25 11
REMARK SMILES IDX 26 12 27 13 28 14 29 15 30 16 14 17 13 18 12 19 11 20 10 21
REMARK SMILES IDX 9 22 8 23 7 24 6 25 5 26 4 27 3 28 2 29 1 30
REMARK H PARENT
REMARK Flexibility Score: inf
ROOT
ATOM      1  C   UNL     1      17.045   0.868  11.909  1.00  0.00     0.000 C 
ENDROOT
BRANCH   1   2
ATOM      2  C   UNL     1      15.809   1.725  11.573  1.00  0.00     0.000 C 
BRANCH   2   3
ATOM      3  C   UNL     1      15.511   2.796  12.633  1.00  0.00     0.000 C 
BRANCH   3   4
ATOM      4  C   UNL     1      14.694   2.209  13.795  1.00  0.00     0.000 C 
BRANCH   4   5
ATOM      5  C   UNL     1      15.230   2.633  15.178  1.00  0.00     0.000 C 
BRANCH   5   6
ATOM      6  C   UNL     1      14.215   2.471  16.323  1.00  0.00     0.000 C 
BRANCH   6   7
ATOM      7  C   UNL     1      14.825   2.731  17.712  1.00  0.00     0.000 C 
BRANCH   7   8
ATOM      8  C   UNL     1      14.005   2.097  18.846  1.00  0.00     0.000 C 
BRANCH   8   9
ATOM      9  C   UNL     1      14.125   0.563  18.871  1.00  0.00     0.000 C 
BRANCH   9  10
ATOM     10  C   UNL     1      15.073   0.065  19.983  1.00  0.00     0.000 C 
BRANCH  10  11
ATOM     11  C   UNL     1      16.568   0.302  19.686  1.00  0.00     0.000 C 
BRANCH  11  12
ATOM     12  C   UNL     1      17.182  -0.626  18.624  1.00  0.00     0.006 C 
BRANCH  12  13
ATOM     13  C   UNL     1      17.064  -0.063  17.199  1.00  0.00     0.053 C 
BRANCH  13  14
ATOM     14  C   UNL     1      16.375  -1.036  16.292  1.00  0.00     0.041 C 
ATOM     15  O   UNL     1      15.874  -2.094  16.762  1.00  0.00    -0.550 OA
ATOM     16  O   UNL     1      16.307  -0.788  14.926  1.00  0.00    -0.550 OA
ENDBRANCH  13  14
ENDBRANCH  12  13
ENDBRANCH  11  12
ENDBRANCH  10  11
ENDBRANCH   9  10
ENDBRANCH   8   9
ENDBRANCH   7   8
ENDBRANCH   6   7
ENDBRANCH   5   6
ENDBRANCH   4   5
ENDBRANCH   3   4
ENDBRANCH   2   3
ENDBRANCH   1   2
BRANCH   1  17
ATOM     17  C   UNL     1      17.705   0.165  10.707  1.00  0.00     0.000 C 
BRANCH  17  18
ATOM     18  C   UNL     1      18.042   1.127   9.556  1.00  0.00     0.000 C 
BRANCH  18  19
ATOM     19  C   UNL     1      18.468   0.389   8.273  1.00  0.00     0.000 C 
BRANCH  19  20
ATOM     20  C   UNL     1      19.215   1.254   7.237  1.00  0.00     0.000 C 
BRANCH  20  21
ATOM     21  C   UNL     1      20.677   0.849   6.978  1.00  0.00     0.000 C 
BRANCH  21  22
ATOM     22  C   UNL     1      20.804  -0.336   6.010  1.00  0.00    -0.000 C 
BRANCH  22  23
ATOM     23  C   UNL     1      21.873  -1.329   6.488  1.00  0.00    -0.000 C 
BRANCH  23  24
ATOM     24  C   UNL     1      22.827  -1.765   5.361  1.00  0.00    -0.000 C 
BRANCH  24  25
ATOM     25  C   UNL     1      24.186  -1.040   5.349  1.00  0.00    -0.000 C 
BRANCH  25  26
ATOM     26  C   UNL     1      25.320  -1.771   6.095  1.00  0.00    -0.000 C 
BRANCH  26  27
ATOM     27  C   UNL     1      26.692  -1.070   5.975  1.00  0.00    -0.000 C 
BRANCH  27  28
ATOM     28  C   UNL     1      27.551  -1.242   7.236  1.00  0.00    -0.000 C 
BRANCH  28  29
ATOM     29  C   UNL     1      28.244   0.073   7.611  1.00  0.00    -0.003 C 
ATOM     30  C   UNL     1      28.365   0.219   9.126  1.00  0.00     0.004 C 
ENDBRANCH  28  29
ENDBRANCH  27  28
ENDBRANCH  26  27
ENDBRANCH  25  26
ENDBRANCH  24  25
ENDBRANCH  23  24
ENDBRANCH  22  23
ENDBRANCH  21  22
ENDBRANCH  20  21
ENDBRANCH  19  20
ENDBRANCH  18  19
ENDBRANCH  17  18
ENDBRANCH   1  17
TORSDOF 26
ENDMDL
MODEL 9
REMARK VINA RESULT:    -5.947      4.290     10.162
REMARK INTER + INTRA:         -17.672
REMARK INTER:                 -16.001
REMARK INTRA:                  -1.671
REMARK UNBOUND:                -2.685
REMARK SMILES CCCCCCCCCCCCCCCCCCCCCCCCCCCC(=O)[O-]
REMARK SMILES IDX 15 1 16 2 17 3 18 4 19 5 20 6 21 7 22 8 23 9 24 10 25 11
REMARK SMILES IDX 26 12 27 13 28 14 29 15 30 16 14 17 13 18 12 19 11 20 10 21
REMARK SMILES IDX 9 22 8 23 7 24 6 25 5 26 4 27 3 28 2 29 1 30
REMARK H PARENT
REMARK Flexibility Score: inf
ROOT
ATOM      1  C   UNL     1      21.093  -0.265   6.029  1.00  0.00     0.000 C 
ENDROOT
BRANCH   1   2
ATOM      2  C   UNL     1      20.534   0.495   7.248  1.00  0.00     0.000 C 
BRANCH   2   3
ATOM      3  C   UNL     1      18.999   0.473   7.320  1.00  0.00     0.000 C 
BRANCH   3   4
ATOM      4  C   UNL     1      18.504   1.005   8.675  1.00  0.00     0.000 C 
BRANCH   4   5
ATOM      5  C   UNL     1      17.650  -0.023   9.445  1.00  0.00     0.000 C 
BRANCH   5   6
ATOM      6  C   UNL     1      17.379   0.355  10.911  1.00  0.00     0.000 C 
BRANCH   6   7
ATOM      7  C   UNL     1      17.206   1.869  11.122  1.00  0.00     0.000 C 
BRANCH   7   8
ATOM      8  C   UNL     1      15.745   2.268  11.381  1.00  0.00     0.000 C 
BRANCH   8   9
ATOM      9  C   UNL     1      15.501   2.694  12.840  1.00  0.00     0.000 C 
BRANCH   9  10
ATOM     10  C   UNL     1      14.751   1.616  13.651  1.00  0.00     0.000 C 
BRANCH  10  11
ATOM     11  C   UNL     1      13.926   2.176  14.828  1.00  0.00     0.000 C 
BRANCH  11  12
ATOM     12  C   UNL     1      14.702   2.363  16.142  1.00  0.00     0.006 C 
BRANCH  12  13
ATOM     13  C   UNL     1      15.546   1.134  16.517  1.00  0.00     0.053 C 
BRANCH  13  14
ATOM     14  C   UNL     1      16.349   1.392  17.755  1.00  0.00     0.041 C 
ATOM     15  O   UNL     1      17.603   1.500  17.686  1.00  0.00    -0.550 OA
ATOM     16  O   UNL     1      15.715   1.489  18.989  1.00  0.00    -0.550 OA
ENDBRANCH  13  14
ENDBRANCH  12  13
ENDBRANCH  11  12
ENDBRANCH  10  11
ENDBRANCH   9  10
ENDBRANCH   8   9
ENDBRANCH   7   8
ENDBRANCH   6   7
ENDBRANCH   5   6
ENDBRANCH   4   5
ENDBRANCH   3   4
ENDBRANCH   2   3
ENDBRANCH   1   2
BRANCH   1  17
ATOM     17  C   UNL     1      22.016  -1.453   6.362  1.00  0.00     0.000 C 
BRANCH  17  18
ATOM     18  C   UNL     1      22.992  -1.796   5.224  1.00  0.00     0.000 C 
BRANCH  18  19
ATOM     19  C   UNL     1      24.350  -1.085   5.375  1.00  0.00     0.000 C 
BRANCH  19  20
ATOM     20  C   UNL     1      25.428  -1.885   6.135  1.00  0.00     0.000 C 
BRANCH  20  21
ATOM     21  C   UNL     1      26.880  -1.467   5.846  1.00  0.00     0.000 C 
BRANCH  21  22
ATOM     22  C   UNL     1      27.910  -2.398   6.502  1.00  0.00    -0.000 C 
BRANCH  22  23
ATOM     23  C   UNL     1      29.247  -2.364   5.747  1.00  0.00    -0.000 C 
BRANCH  23  24
ATOM     24  C   UNL     1      30.289  -3.330   6.338  1.00  0.00    -0.000 C 
BRANCH  24  25
ATOM     25  C   UNL     1      31.756  -2.907   6.126  1.00  0.00    -0.000 C 
BRANCH  25  26
ATOM     26  C   UNL     1      32.291  -1.882   7.146  1.00  0.00    -0.000 C 
BRANCH  26  27
ATOM     27  C   UNL     1      31.963  -2.239   8.612  1.00  0.00    -0.000 C 
BRANCH  27  28
ATOM     28  C   UNL     1      31.262  -1.090   9.353  1.00  0.00    -0.000 C 
BRANCH  28  29
ATOM     29  C   UNL     1      30.636  -0.099   8.364  1.00  0.00    -0.003 C 
ATOM     30  C   UNL     1      29.181   0.189   8.721  1.00  0.00     0.004 C 
ENDBRANCH  28  29
ENDBRANCH  27  28
ENDBRANCH  26  27
ENDBRANCH  25  26
ENDBRANCH  24  25
ENDBRANCH  23  24
ENDBRANCH  22  23
ENDBRANCH  21  22
ENDBRANCH  20  21
ENDBRANCH  19  20
ENDBRANCH  18  19
ENDBRANCH  17  18
ENDBRANCH   1  17
TORSDOF 26
ENDMDL
