MODEL 1
REMARK VINA RESULT:   108.348      0.000      0.000
REMARK INTER + INTRA:         117.581
REMARK INTER:                 117.849
REMARK INTRA:                  -0.268
REMARK UNBOUND:                -0.268
REMARK SMILES CC1(C)CC[C@]2(C(=O)[O-])CC[C@]3(C)C(=CC[C@@H]4[C@@]5(C)CC[C@@H](O)C(C)(C)[C@@H]5CC[C@@]43C)[C@@H]2C1
REMARK SMILES IDX 6 1 5 2 10 3 32 4 4 5 11 6 14 7 33 8 2 9 12 10 15 11 1 12
REMARK SMILES IDX 3 13 13 14 30 15 16 16 17 17 29 18 31 19 18 20 28 21 27 22
REMARK SMILES IDX 20 23 19 24 24 25 21 26 22 27 25 28 26 29 7 30 8 31 9 32
REMARK SMILES IDX 23 33
REMARK H PARENT 23 34
REMARK Flexibility Score: inf
ROOT
ATOM      1  C   UNL     1       5.766  -1.765   1.404  1.00  0.00     0.017 C 
ATOM      2  C   UNL     1       7.311  -1.826   1.595  1.00  0.00     0.014 C 
ATOM      3  C   UNL     1       5.307  -0.305   1.047  1.00  0.00     0.014 C 
ATOM      4  C   UNL     1       5.044  -2.312   2.679  1.00  0.00     0.028 C 
ATOM      5  C   UNL     1       7.804  -1.237   2.923  1.00  0.00     0.007 C 
ATOM      6  C   UNL     1       4.142   0.296   1.873  1.00  0.00     0.013 C 
ATOM      7  C   UNL     1       3.540  -2.068   2.588  1.00  0.00    -0.064 C 
ATOM      8  C   UNL     1       5.601  -1.770   4.020  1.00  0.00     0.015 C 
ATOM      9  C   UNL     1       7.137  -1.890   4.155  1.00  0.00    -0.035 C 
ATOM     10  C   UNL     1       2.970  -0.668   2.319  1.00  0.00    -0.006 C 
ATOM     11  C   UNL     1       2.703  -3.102   2.763  1.00  0.00    -0.027 C 
ATOM     12  C   UNL     1       7.571  -3.367   4.318  1.00  0.00     0.011 C 
ATOM     13  C   UNL     1       7.587  -1.127   5.419  1.00  0.00     0.011 C 
ATOM     14  C   UNL     1       2.452  -0.094   3.679  1.00  0.00     0.017 C 
ATOM     15  C   UNL     1       1.751  -0.759   1.251  1.00  0.00    -0.020 C 
ATOM     16  C   UNL     1       1.223  -2.910   2.740  1.00  0.00     0.032 C 
ATOM     17  C   UNL     1       0.762  -2.003   1.561  1.00  0.00     0.006 C 
ATOM     18  C   UNL     1       2.322  -0.868  -0.194  1.00  0.00     0.008 C 
ATOM     19  C   UNL     1       0.931   0.579   1.297  1.00  0.00     0.012 C 
ATOM     20  C   UNL     1       0.256  -2.858   0.306  1.00  0.00    -0.025 C 
ATOM     21  C   UNL     1       1.315  -1.158  -1.325  1.00  0.00     0.005 C 
ATOM     22  C   UNL     1       0.008  -1.864  -0.884  1.00  0.00     0.003 C 
ATOM     23  C   UNL     1      -1.103  -3.542   0.681  1.00  0.00     0.010 C 
ATOM     24  C   UNL     1       1.282  -3.976  -0.052  1.00  0.00     0.012 C 
ATOM     25  C   UNL     1      -0.912  -2.339  -2.094  1.00  0.00    -0.006 C 
ATOM     26  C   UNL     1      -1.856  -4.125  -0.516  1.00  0.00     0.033 C 
ATOM     27  C   UNL     1      -2.196  -3.039  -1.542  1.00  0.00     0.120 C 
ATOM     28  C   UNL     1      -1.355  -1.090  -2.910  1.00  0.00     0.014 C 
ATOM     29  C   UNL     1      -0.227  -3.285  -3.123  1.00  0.00     0.014 C 
ENDROOT
BRANCH   1  30
ATOM     30  C   UNL     1       5.480  -2.667   0.202  1.00  0.00     0.048 C 
ATOM     31  O   UNL     1       5.439  -3.921   0.312  1.00  0.00    -0.550 OA
ATOM     32  O   UNL     1       5.330  -2.107  -1.062  1.00  0.00    -0.550 OA
ENDBRANCH   1  30
BRANCH  27  33
ATOM     33  O   UNL     1      -3.058  -2.106  -0.934  1.00  0.00    -0.393 OA
ATOM     34  H   UNL     1      -2.830  -1.208  -1.293  1.00  0.00     0.210 HD
ENDBRANCH  27  33
TORSDOF 2
ENDMDL
