MODEL 1
REMARK VINA RESULT:   121.134      0.000      0.000
REMARK INTER + INTRA:         131.600
REMARK INTER:                 131.757
REMARK INTRA:                  -0.157
REMARK UNBOUND:                -0.157
REMARK SMILES C[C@@H]1[C@@H](C)CC[C@@]2(C(=O)[O-])CC[C@]3(C)C(=CC[C@@H]4[C@@]5(C)CC[C@H](O)C(C)(C)[C@@H]5CC[C@@]43C)[C@@H]12
REMARK SMILES IDX 7 1 6 2 11 3 33 4 5 5 12 6 15 7 2 8 3 9 13 10 16 11 1 12
REMARK SMILES IDX 4 13 14 14 31 15 17 16 18 17 30 18 32 19 19 20 29 21 28 22
REMARK SMILES IDX 21 23 20 24 25 25 22 26 23 27 26 28 27 29 8 30 9 31 10 32
REMARK SMILES IDX 24 33
REMARK H PARENT 24 34
REMARK Flexibility Score: inf
ROOT
ATOM      1  C   UNL     1      10.567  64.100  24.196  1.00  0.00     0.017 C 
ATOM      2  C   UNL     1      10.406  65.539  23.624  1.00  0.00     0.014 C 
ATOM      3  C   UNL     1       9.170  63.387  23.961  1.00  0.00     0.014 C 
ATOM      4  C   UNL     1      11.761  63.273  23.534  1.00  0.00     0.030 C 
ATOM      5  C   UNL     1      11.717  66.239  23.289  1.00  0.00     0.004 C 
ATOM      6  C   UNL     1       9.117  61.846  24.180  1.00  0.00     0.013 C 
ATOM      7  C   UNL     1      11.206  62.019  22.846  1.00  0.00    -0.063 C 
ATOM      8  C   UNL     1      12.897  64.045  22.744  1.00  0.00    -0.003 C 
ATOM      9  C   UNL     1      12.517  65.464  22.239  1.00  0.00    -0.011 C 
ATOM     10  C   UNL     1      10.405  61.059  23.742  1.00  0.00    -0.006 C 
ATOM     11  C   UNL     1      10.917  62.054  21.526  1.00  0.00    -0.027 C 
ATOM     12  C   UNL     1      14.199  64.128  23.577  1.00  0.00     0.008 C 
ATOM     13  C   UNL     1      11.829  65.452  20.866  1.00  0.00     0.008 C 
ATOM     14  C   UNL     1      11.205  60.754  25.053  1.00  0.00     0.017 C 
ATOM     15  C   UNL     1      10.118  59.676  22.954  1.00  0.00    -0.020 C 
ATOM     16  C   UNL     1       9.695  61.380  20.984  1.00  0.00     0.032 C 
ATOM     17  C   UNL     1       9.560  59.922  21.473  1.00  0.00     0.006 C 
ATOM     18  C   UNL     1       9.175  58.743  23.787  1.00  0.00     0.008 C 
ATOM     19  C   UNL     1      11.468  58.896  22.806  1.00  0.00     0.012 C 
ATOM     20  C   UNL     1       8.176  59.230  21.100  1.00  0.00    -0.025 C 
ATOM     21  C   UNL     1       8.603  57.525  23.041  1.00  0.00     0.005 C 
ATOM     22  C   UNL     1       8.304  57.724  21.526  1.00  0.00     0.003 C 
ATOM     23  C   UNL     1       7.997  59.307  19.546  1.00  0.00     0.010 C 
ATOM     24  C   UNL     1       6.958  59.943  21.759  1.00  0.00     0.012 C 
ATOM     25  C   UNL     1       7.241  56.707  20.928  1.00  0.00    -0.006 C 
ATOM     26  C   UNL     1       6.911  58.381  18.989  1.00  0.00     0.033 C 
ATOM     27  C   UNL     1       7.171  56.915  19.381  1.00  0.00     0.120 C 
ATOM     28  C   UNL     1       5.821  56.804  21.559  1.00  0.00     0.014 C 
ATOM     29  C   UNL     1       7.749  55.261  21.181  1.00  0.00     0.014 C 
ENDROOT
BRANCH   1  30
ATOM     30  C   UNL     1      10.815  64.240  25.698  1.00  0.00     0.048 C 
ATOM     31  O   UNL     1      11.727  63.587  26.276  1.00  0.00    -0.550 OA
ATOM     32  O   UNL     1      10.007  65.064  26.467  1.00  0.00    -0.550 OA
ENDBRANCH   1  30
BRANCH  27  33
ATOM     33  O   UNL     1       6.225  56.058  18.778  1.00  0.00    -0.393 OA
ATOM     34  H   UNL     1       6.372  55.140  19.124  1.00  0.00     0.210 HD
ENDBRANCH  27  33
TORSDOF 2
ENDMDL
