MODEL 1
REMARK VINA RESULT:    -3.766      0.000      0.000
REMARK INTER + INTRA:         -13.442
REMARK INTER:                  -8.609
REMARK INTRA:                  -4.833
REMARK UNBOUND:                -4.833
REMARK SMILES CCCCCCCCCCCCCCCCCCCCCCCC(=O)[O-]
REMARK SMILES IDX 13 1 14 2 15 3 16 4 17 5 18 6 19 7 20 8 21 9 22 10 23 11
REMARK SMILES IDX 24 12 25 13 26 14 12 15 11 16 10 17 9 18 8 19 7 20 6 21 5 22
REMARK SMILES IDX 4 23 3 24 2 25 1 26
REMARK H PARENT
REMARK Flexibility Score: inf
ROOT
ATOM      1  C   UNL     1      48.586  -8.571  72.785  1.00  0.00     0.000 C 
ENDROOT
BRANCH   1   2
ATOM      2  C   UNL     1      48.541  -8.131  74.259  1.00  0.00     0.000 C 
BRANCH   2   3
ATOM      3  C   UNL     1      48.723  -9.318  75.228  1.00  0.00     0.000 C 
BRANCH   3   4
ATOM      4  C   UNL     1      49.921  -9.168  76.181  1.00  0.00     0.000 C 
BRANCH   4   5
ATOM      5  C   UNL     1      49.518  -9.236  77.663  1.00  0.00     0.000 C 
BRANCH   5   6
ATOM      6  C   UNL     1      47.999  -9.385  77.867  1.00  0.00     0.000 C 
BRANCH   6   7
ATOM      7  C   UNL     1      47.301  -8.195  78.557  1.00  0.00     0.000 C 
BRANCH   7   8
ATOM      8  C   UNL     1      47.449  -6.837  77.845  1.00  0.00     0.000 C 
BRANCH   8   9
ATOM      9  C   UNL     1      48.383  -5.871  78.592  1.00  0.00     0.000 C 
BRANCH   9  10
ATOM     10  C   UNL     1      49.625  -5.488  77.764  1.00  0.00     0.006 C 
BRANCH  10  11
ATOM     11  C   UNL     1      50.965  -5.819  78.441  1.00  0.00     0.053 C 
BRANCH  11  12
ATOM     12  C   UNL     1      51.981  -6.319  77.460  1.00  0.00     0.041 C 
ATOM     13  O   UNL     1      52.019  -5.847  76.294  1.00  0.00    -0.550 OA
ATOM     14  O   UNL     1      52.866  -7.326  77.824  1.00  0.00    -0.550 OA
ENDBRANCH  11  12
ENDBRANCH  10  11
ENDBRANCH   9  10
ENDBRANCH   8   9
ENDBRANCH   7   8
ENDBRANCH   6   7
ENDBRANCH   5   6
ENDBRANCH   4   5
ENDBRANCH   3   4
ENDBRANCH   2   3
ENDBRANCH   1   2
BRANCH   1  15
ATOM     15  C   UNL     1      47.495  -7.900  71.935  1.00  0.00     0.000 C 
BRANCH  15  16
ATOM     16  C   UNL     1      46.261  -8.796  71.754  1.00  0.00     0.000 C 
BRANCH  16  17
ATOM     17  C   UNL     1      46.595 -10.267  72.047  1.00  0.00     0.000 C 
BRANCH  17  18
ATOM     18  C   UNL     1      45.854 -10.805  73.280  1.00  0.00    -0.000 C 
BRANCH  18  19
ATOM     19  C   UNL     1      44.799  -9.821  73.813  1.00  0.00    -0.000 C 
BRANCH  19  20
ATOM     20  C   UNL     1      45.049  -9.419  75.275  1.00  0.00    -0.000 C 
BRANCH  20  21
ATOM     21  C   UNL     1      45.001  -7.894  75.482  1.00  0.00    -0.000 C 
BRANCH  21  22
ATOM     22  C   UNL     1      44.210  -7.165  74.383  1.00  0.00    -0.000 C 
BRANCH  22  23
ATOM     23  C   UNL     1      44.854  -5.863  73.871  1.00  0.00    -0.000 C 
BRANCH  23  24
ATOM     24  C   UNL     1      46.077  -5.405  74.696  1.00  0.00    -0.000 C 
BRANCH  24  25
ATOM     25  C   UNL     1      47.128  -4.692  73.833  1.00  0.00    -0.003 C 
ATOM     26  C   UNL     1      48.019  -3.792  74.683  1.00  0.00     0.004 C 
ENDBRANCH  24  25
ENDBRANCH  23  24
ENDBRANCH  22  23
ENDBRANCH  21  22
ENDBRANCH  20  21
ENDBRANCH  19  20
ENDBRANCH  18  19
ENDBRANCH  17  18
ENDBRANCH  16  17
ENDBRANCH  15  16
ENDBRANCH   1  15
TORSDOF 22
ENDMDL
MODEL 2
REMARK VINA RESULT:    -3.759      3.526      6.171
REMARK INTER + INTRA:         -13.426
REMARK INTER:                  -9.195
REMARK INTRA:                  -4.231
REMARK UNBOUND:                -4.833
REMARK SMILES CCCCCCCCCCCCCCCCCCCCCCCC(=O)[O-]
REMARK SMILES IDX 13 1 14 2 15 3 16 4 17 5 18 6 19 7 20 8 21 9 22 10 23 11
REMARK SMILES IDX 24 12 25 13 26 14 12 15 11 16 10 17 9 18 8 19 7 20 6 21 5 22
REMARK SMILES IDX 4 23 3 24 2 25 1 26
REMARK H PARENT
REMARK Flexibility Score: inf
ROOT
ATOM      1  C   UNL     1      47.054  -4.698  74.038  1.00  0.00     0.000 C 
ENDROOT
BRANCH   1   2
ATOM      2  C   UNL     1      47.937  -5.591  74.929  1.00  0.00     0.000 C 
BRANCH   2   3
ATOM      3  C   UNL     1      48.325  -4.895  76.250  1.00  0.00     0.000 C 
BRANCH   3   4
ATOM      4  C   UNL     1      48.137  -5.776  77.497  1.00  0.00     0.000 C 
BRANCH   4   5
ATOM      5  C   UNL     1      49.398  -6.581  77.854  1.00  0.00     0.000 C 
BRANCH   5   6
ATOM      6  C   UNL     1      50.602  -5.689  78.207  1.00  0.00     0.000 C 
BRANCH   6   7
ATOM      7  C   UNL     1      51.886  -5.952  77.392  1.00  0.00     0.000 C 
BRANCH   7   8
ATOM      8  C   UNL     1      51.743  -6.966  76.242  1.00  0.00     0.000 C 
BRANCH   8   9
ATOM      9  C   UNL     1      51.609  -6.292  74.866  1.00  0.00     0.000 C 
BRANCH   9  10
ATOM     10  C   UNL     1      52.284  -4.909  74.815  1.00  0.00     0.006 C 
BRANCH  10  11
ATOM     11  C   UNL     1      53.510  -4.836  73.891  1.00  0.00     0.053 C 
BRANCH  11  12
ATOM     12  C   UNL     1      53.650  -3.489  73.248  1.00  0.00     0.041 C 
ATOM     13  O   UNL     1      53.367  -2.448  73.896  1.00  0.00    -0.550 OA
ATOM     14  O   UNL     1      54.065  -3.387  71.927  1.00  0.00    -0.550 OA
ENDBRANCH  11  12
ENDBRANCH  10  11
ENDBRANCH   9  10
ENDBRANCH   8   9
ENDBRANCH   7   8
ENDBRANCH   6   7
ENDBRANCH   5   6
ENDBRANCH   4   5
ENDBRANCH   3   4
ENDBRANCH   2   3
ENDBRANCH   1   2
BRANCH   1  15
ATOM     15  C   UNL     1      47.848  -4.027  72.905  1.00  0.00     0.000 C 
BRANCH  15  16
ATOM     16  C   UNL     1      49.061  -4.862  72.467  1.00  0.00     0.000 C 
BRANCH  16  17
ATOM     17  C   UNL     1      50.218  -3.961  72.009  1.00  0.00     0.000 C 
BRANCH  17  18
ATOM     18  C   UNL     1      49.748  -2.553  71.615  1.00  0.00    -0.000 C 
BRANCH  18  19
ATOM     19  C   UNL     1      50.697  -1.450  72.115  1.00  0.00    -0.000 C 
BRANCH  19  20
ATOM     20  C   UNL     1      50.070  -0.049  72.040  1.00  0.00    -0.000 C 
BRANCH  20  21
ATOM     21  C   UNL     1      48.536  -0.085  72.163  1.00  0.00    -0.000 C 
BRANCH  21  22
ATOM     22  C   UNL     1      47.982   1.028  73.069  1.00  0.00    -0.000 C 
BRANCH  22  23
ATOM     23  C   UNL     1      47.898   0.670  74.565  1.00  0.00    -0.000 C 
BRANCH  23  24
ATOM     24  C   UNL     1      47.957  -0.847  74.847  1.00  0.00    -0.000 C 
BRANCH  24  25
ATOM     25  C   UNL     1      48.900  -1.187  76.010  1.00  0.00    -0.003 C 
ATOM     26  C   UNL     1      50.059  -2.062  75.542  1.00  0.00     0.004 C 
ENDBRANCH  24  25
ENDBRANCH  23  24
ENDBRANCH  22  23
ENDBRANCH  21  22
ENDBRANCH  20  21
ENDBRANCH  19  20
ENDBRANCH  18  19
ENDBRANCH  17  18
ENDBRANCH  16  17
ENDBRANCH  15  16
ENDBRANCH   1  15
TORSDOF 22
ENDMDL
MODEL 3
REMARK VINA RESULT:    -3.746      3.497      6.827
REMARK INTER + INTRA:         -13.397
REMARK INTER:                  -9.005
REMARK INTRA:                  -4.392
REMARK UNBOUND:                -4.833
REMARK SMILES CCCCCCCCCCCCCCCCCCCCCCCC(=O)[O-]
REMARK SMILES IDX 13 1 14 2 15 3 16 4 17 5 18 6 19 7 20 8 21 9 22 10 23 11
REMARK SMILES IDX 24 12 25 13 26 14 12 15 11 16 10 17 9 18 8 19 7 20 6 21 5 22
REMARK SMILES IDX 4 23 3 24 2 25 1 26
REMARK H PARENT
REMARK Flexibility Score: inf
ROOT
ATOM      1  C   UNL     1      51.258  -1.442  72.091  1.00  0.00     0.000 C 
ENDROOT
BRANCH   1   2
ATOM      2  C   UNL     1      51.278  -2.234  73.412  1.00  0.00     0.000 C 
BRANCH   2   3
ATOM      3  C   UNL     1      50.885  -3.712  73.211  1.00  0.00     0.000 C 
BRANCH   3   4
ATOM      4  C   UNL     1      49.941  -3.950  72.020  1.00  0.00     0.000 C 
BRANCH   4   5
ATOM      5  C   UNL     1      48.645  -4.673  72.421  1.00  0.00     0.000 C 
BRANCH   5   6
ATOM      6  C   UNL     1      47.846  -3.922  73.503  1.00  0.00     0.000 C 
BRANCH   6   7
ATOM      7  C   UNL     1      47.518  -4.735  74.772  1.00  0.00     0.000 C 
BRANCH   7   8
ATOM      8  C   UNL     1      48.436  -4.475  75.981  1.00  0.00     0.000 C 
BRANCH   8   9
ATOM      9  C   UNL     1      49.308  -5.690  76.341  1.00  0.00     0.000 C 
BRANCH   9  10
ATOM     10  C   UNL     1      49.315  -5.988  77.852  1.00  0.00     0.006 C 
BRANCH  10  11
ATOM     11  C   UNL     1      47.938  -6.347  78.433  1.00  0.00     0.053 C 
BRANCH  11  12
ATOM     12  C   UNL     1      47.495  -7.718  78.022  1.00  0.00     0.041 C 
ATOM     13  O   UNL     1      46.427  -7.870  77.375  1.00  0.00    -0.550 OA
ATOM     14  O   UNL     1      48.248  -8.830  78.380  1.00  0.00    -0.550 OA
ENDBRANCH  11  12
ENDBRANCH  10  11
ENDBRANCH   9  10
ENDBRANCH   8   9
ENDBRANCH   7   8
ENDBRANCH   6   7
ENDBRANCH   5   6
ENDBRANCH   4   5
ENDBRANCH   3   4
ENDBRANCH   2   3
ENDBRANCH   1   2
BRANCH   1  15
ATOM     15  C   UNL     1      50.350  -0.203  72.161  1.00  0.00     0.000 C 
BRANCH  15  16
ATOM     16  C   UNL     1      48.913  -0.504  71.711  1.00  0.00     0.000 C 
BRANCH  16  17
ATOM     17  C   UNL     1      47.900  -0.134  72.805  1.00  0.00     0.000 C 
BRANCH  17  18
ATOM     18  C   UNL     1      48.576   0.252  74.129  1.00  0.00    -0.000 C 
BRANCH  18  19
ATOM     19  C   UNL     1      48.374  -0.805  75.228  1.00  0.00    -0.000 C 
BRANCH  19  20
ATOM     20  C   UNL     1      47.243  -0.439  76.202  1.00  0.00    -0.000 C 
BRANCH  20  21
ATOM     21  C   UNL     1      46.325  -1.635  76.513  1.00  0.00    -0.000 C 
BRANCH  21  22
ATOM     22  C   UNL     1      46.153  -1.881  78.022  1.00  0.00    -0.000 C 
BRANCH  22  23
ATOM     23  C   UNL     1      47.401  -1.585  78.877  1.00  0.00    -0.000 C 
BRANCH  23  24
ATOM     24  C   UNL     1      48.106  -2.850  79.410  1.00  0.00    -0.000 C 
BRANCH  24  25
ATOM     25  C   UNL     1      49.631  -2.685  79.471  1.00  0.00    -0.003 C 
ATOM     26  C   UNL     1      50.169  -2.053  78.192  1.00  0.00     0.004 C 
ENDBRANCH  24  25
ENDBRANCH  23  24
ENDBRANCH  22  23
ENDBRANCH  21  22
ENDBRANCH  20  21
ENDBRANCH  19  20
ENDBRANCH  18  19
ENDBRANCH  17  18
ENDBRANCH  16  17
ENDBRANCH  15  16
ENDBRANCH   1  15
TORSDOF 22
ENDMDL
MODEL 4
REMARK VINA RESULT:    -3.726      2.951      5.815
REMARK INTER + INTRA:         -13.350
REMARK INTER:                  -9.656
REMARK INTRA:                  -3.694
REMARK UNBOUND:                -4.833
REMARK SMILES CCCCCCCCCCCCCCCCCCCCCCCC(=O)[O-]
REMARK SMILES IDX 13 1 14 2 15 3 16 4 17 5 18 6 19 7 20 8 21 9 22 10 23 11
REMARK SMILES IDX 24 12 25 13 26 14 12 15 11 16 10 17 9 18 8 19 7 20 6 21 5 22
REMARK SMILES IDX 4 23 3 24 2 25 1 26
REMARK H PARENT
REMARK Flexibility Score: inf
ROOT
ATOM      1  C   UNL     1      49.676  -4.203  76.028  1.00  0.00     0.000 C 
ENDROOT
BRANCH   1   2
ATOM      2  C   UNL     1      50.405  -4.208  77.384  1.00  0.00     0.000 C 
BRANCH   2   3
ATOM      3  C   UNL     1      49.926  -5.354  78.300  1.00  0.00     0.000 C 
BRANCH   3   4
ATOM      4  C   UNL     1      48.483  -5.187  78.804  1.00  0.00     0.000 C 
BRANCH   4   5
ATOM      5  C   UNL     1      47.546  -6.303  78.313  1.00  0.00     0.000 C 
BRANCH   5   6
ATOM      6  C   UNL     1      48.249  -7.667  78.187  1.00  0.00     0.000 C 
BRANCH   6   7
ATOM      7  C   UNL     1      47.325  -8.901  78.261  1.00  0.00     0.000 C 
BRANCH   7   8
ATOM      8  C   UNL     1      46.869  -9.468  76.904  1.00  0.00     0.000 C 
BRANCH   8   9
ATOM      9  C   UNL     1      45.730  -8.652  76.269  1.00  0.00     0.000 C 
BRANCH   9  10
ATOM     10  C   UNL     1      45.952  -8.393  74.767  1.00  0.00     0.006 C 
BRANCH  10  11
ATOM     11  C   UNL     1      47.429  -8.310  74.350  1.00  0.00     0.053 C 
BRANCH  11  12
ATOM     12  C   UNL     1      47.731  -9.190  73.175  1.00  0.00     0.041 C 
ATOM     13  O   UNL     1      47.926  -8.683  72.040  1.00  0.00    -0.550 OA
ATOM     14  O   UNL     1      47.768 -10.570  73.329  1.00  0.00    -0.550 OA
ENDBRANCH  11  12
ENDBRANCH  10  11
ENDBRANCH   9  10
ENDBRANCH   8   9
ENDBRANCH   7   8
ENDBRANCH   6   7
ENDBRANCH   5   6
ENDBRANCH   4   5
ENDBRANCH   3   4
ENDBRANCH   2   3
ENDBRANCH   1   2
BRANCH   1  15
ATOM     15  C   UNL     1      48.946  -2.878  75.756  1.00  0.00     0.000 C 
BRANCH  15  16
ATOM     16  C   UNL     1      47.517  -3.093  75.236  1.00  0.00     0.000 C 
BRANCH  16  17
ATOM     17  C   UNL     1      47.213  -4.588  75.050  1.00  0.00     0.000 C 
BRANCH  17  18
ATOM     18  C   UNL     1      46.840  -4.938  73.601  1.00  0.00    -0.000 C 
BRANCH  18  19
ATOM     19  C   UNL     1      47.702  -4.191  72.570  1.00  0.00    -0.000 C 
BRANCH  19  20
ATOM     20  C   UNL     1      49.089  -4.827  72.384  1.00  0.00    -0.000 C 
BRANCH  20  21
ATOM     21  C   UNL     1      50.087  -3.874  71.703  1.00  0.00    -0.000 C 
BRANCH  21  22
ATOM     22  C   UNL     1      50.788  -2.932  72.697  1.00  0.00    -0.000 C 
BRANCH  22  23
ATOM     23  C   UNL     1      50.656  -1.431  72.376  1.00  0.00    -0.000 C 
BRANCH  23  24
ATOM     24  C   UNL     1      49.345  -1.061  71.649  1.00  0.00    -0.000 C 
BRANCH  24  25
ATOM     25  C   UNL     1      48.257  -0.577  72.618  1.00  0.00    -0.003 C 
ATOM     26  C   UNL     1      48.367   0.925  72.863  1.00  0.00     0.004 C 
ENDBRANCH  24  25
ENDBRANCH  23  24
ENDBRANCH  22  23
ENDBRANCH  21  22
ENDBRANCH  20  21
ENDBRANCH  19  20
ENDBRANCH  18  19
ENDBRANCH  17  18
ENDBRANCH  16  17
ENDBRANCH  15  16
ENDBRANCH   1  15
TORSDOF 22
ENDMDL
MODEL 5
REMARK VINA RESULT:    -3.685      3.492      6.709
REMARK INTER + INTRA:         -13.258
REMARK INTER:                 -10.170
REMARK INTRA:                  -3.088
REMARK UNBOUND:                -4.833
REMARK SMILES CCCCCCCCCCCCCCCCCCCCCCCC(=O)[O-]
REMARK SMILES IDX 13 1 14 2 15 3 16 4 17 5 18 6 19 7 20 8 21 9 22 10 23 11
REMARK SMILES IDX 24 12 25 13 26 14 12 15 11 16 10 17 9 18 8 19 7 20 6 21 5 22
REMARK SMILES IDX 4 23 3 24 2 25 1 26
REMARK H PARENT
REMARK Flexibility Score: inf
ROOT
ATOM      1  C   UNL     1      49.892  -3.312  74.172  1.00  0.00     0.000 C 
ENDROOT
BRANCH   1   2
ATOM      2  C   UNL     1      48.818  -2.483  74.900  1.00  0.00     0.000 C 
BRANCH   2   3
ATOM      3  C   UNL     1      49.024  -0.966  74.708  1.00  0.00     0.000 C 
BRANCH   3   4
ATOM      4  C   UNL     1      47.837  -0.257  74.034  1.00  0.00     0.000 C 
BRANCH   4   5
ATOM      5  C   UNL     1      48.191   0.314  72.650  1.00  0.00     0.000 C 
BRANCH   5   6
ATOM      6  C   UNL     1      49.471  -0.301  72.055  1.00  0.00     0.000 C 
BRANCH   6   7
ATOM      7  C   UNL     1      50.711   0.618  72.052  1.00  0.00     0.000 C 
BRANCH   7   8
ATOM      8  C   UNL     1      52.051  -0.079  71.753  1.00  0.00     0.000 C 
BRANCH   8   9
ATOM      9  C   UNL     1      52.041  -1.573  72.119  1.00  0.00     0.000 C 
BRANCH   9  10
ATOM     10  C   UNL     1      53.459  -2.159  72.258  1.00  0.00     0.006 C 
BRANCH  10  11
ATOM     11  C   UNL     1      53.772  -2.736  73.648  1.00  0.00     0.053 C 
BRANCH  11  12
ATOM     12  C   UNL     1      54.038  -4.210  73.597  1.00  0.00     0.041 C 
ATOM     13  O   UNL     1      53.136  -5.026  73.918  1.00  0.00    -0.550 OA
ATOM     14  O   UNL     1      55.290  -4.680  73.222  1.00  0.00    -0.550 OA
ENDBRANCH  11  12
ENDBRANCH  10  11
ENDBRANCH   9  10
ENDBRANCH   8   9
ENDBRANCH   7   8
ENDBRANCH   6   7
ENDBRANCH   5   6
ENDBRANCH   4   5
ENDBRANCH   3   4
ENDBRANCH   2   3
ENDBRANCH   1   2
BRANCH   1  15
ATOM     15  C   UNL     1      49.354  -3.983  72.897  1.00  0.00     0.000 C 
BRANCH  15  16
ATOM     16  C   UNL     1      47.822  -3.917  72.804  1.00  0.00     0.000 C 
BRANCH  16  17
ATOM     17  C   UNL     1      47.213  -5.323  72.681  1.00  0.00     0.000 C 
BRANCH  17  18
ATOM     18  C   UNL     1      48.280  -6.428  72.667  1.00  0.00    -0.000 C 
BRANCH  18  19
ATOM     19  C   UNL     1      48.153  -7.389  73.862  1.00  0.00    -0.000 C 
BRANCH  19  20
ATOM     20  C   UNL     1      47.853  -6.659  75.180  1.00  0.00    -0.000 C 
BRANCH  20  21
ATOM     21  C   UNL     1      46.613  -7.225  75.897  1.00  0.00    -0.000 C 
BRANCH  21  22
ATOM     22  C   UNL     1      46.916  -7.705  77.327  1.00  0.00    -0.000 C 
BRANCH  22  23
ATOM     23  C   UNL     1      48.168  -7.081  77.973  1.00  0.00    -0.000 C 
BRANCH  23  24
ATOM     24  C   UNL     1      47.888  -5.768  78.735  1.00  0.00    -0.000 C 
BRANCH  24  25
ATOM     25  C   UNL     1      48.712  -4.592  78.192  1.00  0.00    -0.003 C 
ATOM     26  C   UNL     1      50.196  -4.774  78.491  1.00  0.00     0.004 C 
ENDBRANCH  24  25
ENDBRANCH  23  24
ENDBRANCH  22  23
ENDBRANCH  21  22
ENDBRANCH  20  21
ENDBRANCH  19  20
ENDBRANCH  18  19
ENDBRANCH  17  18
ENDBRANCH  16  17
ENDBRANCH  15  16
ENDBRANCH   1  15
TORSDOF 22
ENDMDL
MODEL 6
REMARK VINA RESULT:    -3.678      3.392      7.355
REMARK INTER + INTRA:         -13.241
REMARK INTER:                  -8.985
REMARK INTRA:                  -4.256
REMARK UNBOUND:                -4.833
REMARK SMILES CCCCCCCCCCCCCCCCCCCCCCCC(=O)[O-]
REMARK SMILES IDX 13 1 14 2 15 3 16 4 17 5 18 6 19 7 20 8 21 9 22 10 23 11
REMARK SMILES IDX 24 12 25 13 26 14 12 15 11 16 10 17 9 18 8 19 7 20 6 21 5 22
REMARK SMILES IDX 4 23 3 24 2 25 1 26
REMARK H PARENT
REMARK Flexibility Score: inf
ROOT
ATOM      1  C   UNL     1      47.476  -1.751  75.499  1.00  0.00     0.000 C 
ENDROOT
BRANCH   1   2
ATOM      2  C   UNL     1      48.631  -0.834  75.939  1.00  0.00     0.000 C 
BRANCH   2   3
ATOM      3  C   UNL     1      48.530   0.573  75.313  1.00  0.00     0.000 C 
BRANCH   3   4
ATOM      4  C   UNL     1      47.659   0.630  74.046  1.00  0.00     0.000 C 
BRANCH   4   5
ATOM      5  C   UNL     1      48.488   0.595  72.751  1.00  0.00     0.000 C 
BRANCH   5   6
ATOM      6  C   UNL     1      48.225  -0.662  71.901  1.00  0.00     0.000 C 
BRANCH   6   7
ATOM      7  C   UNL     1      49.454  -1.561  71.648  1.00  0.00     0.000 C 
BRANCH   7   8
ATOM      8  C   UNL     1      50.562  -1.484  72.714  1.00  0.00     0.000 C 
BRANCH   8   9
ATOM      9  C   UNL     1      50.570  -2.699  73.656  1.00  0.00     0.000 C 
BRANCH   9  10
ATOM     10  C   UNL     1      51.361  -3.889  73.082  1.00  0.00     0.006 C 
BRANCH  10  11
ATOM     11  C   UNL     1      52.628  -4.250  73.875  1.00  0.00     0.053 C 
BRANCH  11  12
ATOM     12  C   UNL     1      53.877  -3.859  73.145  1.00  0.00     0.041 C 
ATOM     13  O   UNL     1      54.995  -4.293  73.528  1.00  0.00    -0.550 OA
ATOM     14  O   UNL     1      53.809  -2.992  72.061  1.00  0.00    -0.550 OA
ENDBRANCH  11  12
ENDBRANCH  10  11
ENDBRANCH   9  10
ENDBRANCH   8   9
ENDBRANCH   7   8
ENDBRANCH   6   7
ENDBRANCH   5   6
ENDBRANCH   4   5
ENDBRANCH   3   4
ENDBRANCH   2   3
ENDBRANCH   1   2
BRANCH   1  15
ATOM     15  C   UNL     1      46.585  -2.182  76.675  1.00  0.00     0.000 C 
BRANCH  15  16
ATOM     16  C   UNL     1      47.220  -1.864  78.037  1.00  0.00     0.000 C 
BRANCH  16  17
ATOM     17  C   UNL     1      47.152  -3.078  78.977  1.00  0.00     0.000 C 
BRANCH  17  18
ATOM     18  C   UNL     1      48.512  -3.773  79.142  1.00  0.00    -0.000 C 
BRANCH  18  19
ATOM     19  C   UNL     1      48.636  -5.042  78.280  1.00  0.00    -0.000 C 
BRANCH  19  20
ATOM     20  C   UNL     1      49.613  -4.868  77.107  1.00  0.00    -0.000 C 
BRANCH  20  21
ATOM     21  C   UNL     1      48.948  -5.131  75.744  1.00  0.00    -0.000 C 
BRANCH  21  22
ATOM     22  C   UNL     1      47.494  -5.618  75.872  1.00  0.00    -0.000 C 
BRANCH  22  23
ATOM     23  C   UNL     1      46.609  -5.360  74.637  1.00  0.00    -0.000 C 
BRANCH  23  24
ATOM     24  C   UNL     1      47.346  -4.654  73.479  1.00  0.00    -0.000 C 
BRANCH  24  25
ATOM     25  C   UNL     1      47.658  -5.609  72.318  1.00  0.00    -0.003 C 
ATOM     26  C   UNL     1      46.445  -6.464  71.967  1.00  0.00     0.004 C 
ENDBRANCH  24  25
ENDBRANCH  23  24
ENDBRANCH  22  23
ENDBRANCH  21  22
ENDBRANCH  20  21
ENDBRANCH  19  20
ENDBRANCH  18  19
ENDBRANCH  17  18
ENDBRANCH  16  17
ENDBRANCH  15  16
ENDBRANCH   1  15
TORSDOF 22
ENDMDL
MODEL 7
REMARK VINA RESULT:    -3.672      2.829      5.790
REMARK INTER + INTRA:         -13.228
REMARK INTER:                  -9.882
REMARK INTRA:                  -3.346
REMARK UNBOUND:                -4.833
REMARK SMILES CCCCCCCCCCCCCCCCCCCCCCCC(=O)[O-]
REMARK SMILES IDX 13 1 14 2 15 3 16 4 17 5 18 6 19 7 20 8 21 9 22 10 23 11
REMARK SMILES IDX 24 12 25 13 26 14 12 15 11 16 10 17 9 18 8 19 7 20 6 21 5 22
REMARK SMILES IDX 4 23 3 24 2 25 1 26
REMARK H PARENT
REMARK Flexibility Score: inf
ROOT
ATOM      1  C   UNL     1      46.801  -5.707  72.619  1.00  0.00     0.000 C 
ENDROOT
BRANCH   1   2
ATOM      2  C   UNL     1      47.971  -4.754  72.925  1.00  0.00     0.000 C 
BRANCH   2   3
ATOM      3  C   UNL     1      48.024  -4.357  74.415  1.00  0.00     0.000 C 
BRANCH   3   4
ATOM      4  C   UNL     1      49.402  -3.853  74.877  1.00  0.00     0.000 C 
BRANCH   4   5
ATOM      5  C   UNL     1      49.338  -2.472  75.550  1.00  0.00     0.000 C 
BRANCH   5   6
ATOM      6  C   UNL     1      48.158  -1.615  75.054  1.00  0.00     0.000 C 
BRANCH   6   7
ATOM      7  C   UNL     1      48.517  -0.525  74.022  1.00  0.00     0.000 C 
BRANCH   7   8
ATOM      8  C   UNL     1      48.125  -0.838  72.566  1.00  0.00     0.000 C 
BRANCH   8   9
ATOM      9  C   UNL     1      49.333  -0.852  71.613  1.00  0.00     0.000 C 
BRANCH   9  10
ATOM     10  C   UNL     1      50.347  -1.959  71.958  1.00  0.00     0.006 C 
BRANCH  10  11
ATOM     11  C   UNL     1      51.733  -1.441  72.373  1.00  0.00     0.053 C 
BRANCH  11  12
ATOM     12  C   UNL     1      52.603  -2.536  72.911  1.00  0.00     0.041 C 
ATOM     13  O   UNL     1      52.265  -3.740  72.770  1.00  0.00    -0.550 OA
ATOM     14  O   UNL     1      53.773  -2.225  73.594  1.00  0.00    -0.550 OA
ENDBRANCH  11  12
ENDBRANCH  10  11
ENDBRANCH   9  10
ENDBRANCH   8   9
ENDBRANCH   7   8
ENDBRANCH   6   7
ENDBRANCH   5   6
ENDBRANCH   4   5
ENDBRANCH   3   4
ENDBRANCH   2   3
ENDBRANCH   1   2
BRANCH   1  15
ATOM     15  C   UNL     1      45.732  -5.701  73.723  1.00  0.00     0.000 C 
BRANCH  15  16
ATOM     16  C   UNL     1      45.095  -7.084  73.929  1.00  0.00     0.000 C 
BRANCH  16  17
ATOM     17  C   UNL     1      44.846  -7.364  75.419  1.00  0.00     0.000 C 
BRANCH  17  18
ATOM     18  C   UNL     1      45.310  -8.767  75.840  1.00  0.00    -0.000 C 
BRANCH  18  19
ATOM     19  C   UNL     1      46.478  -8.728  76.841  1.00  0.00    -0.000 C 
BRANCH  19  20
ATOM     20  C   UNL     1      47.192  -7.368  76.867  1.00  0.00    -0.000 C 
BRANCH  20  21
ATOM     21  C   UNL     1      47.456  -6.869  78.299  1.00  0.00    -0.000 C 
BRANCH  21  22
ATOM     22  C   UNL     1      48.772  -6.083  78.426  1.00  0.00    -0.000 C 
BRANCH  22  23
ATOM     23  C   UNL     1      48.611  -4.597  78.798  1.00  0.00    -0.000 C 
BRANCH  23  24
ATOM     24  C   UNL     1      47.422  -3.904  78.097  1.00  0.00    -0.000 C 
BRANCH  24  25
ATOM     25  C   UNL     1      46.836  -2.760  78.936  1.00  0.00    -0.003 C 
ATOM     26  C   UNL     1      46.400  -3.254  80.312  1.00  0.00     0.004 C 
ENDBRANCH  24  25
ENDBRANCH  23  24
ENDBRANCH  22  23
ENDBRANCH  21  22
ENDBRANCH  20  21
ENDBRANCH  19  20
ENDBRANCH  18  19
ENDBRANCH  17  18
ENDBRANCH  16  17
ENDBRANCH  15  16
ENDBRANCH   1  15
TORSDOF 22
ENDMDL
MODEL 8
REMARK VINA RESULT:    -3.654      3.832      8.013
REMARK INTER + INTRA:         -13.186
REMARK INTER:                  -9.919
REMARK INTRA:                  -3.267
REMARK UNBOUND:                -4.833
REMARK SMILES CCCCCCCCCCCCCCCCCCCCCCCC(=O)[O-]
REMARK SMILES IDX 13 1 14 2 15 3 16 4 17 5 18 6 19 7 20 8 21 9 22 10 23 11
REMARK SMILES IDX 24 12 25 13 26 14 12 15 11 16 10 17 9 18 8 19 7 20 6 21 5 22
REMARK SMILES IDX 4 23 3 24 2 25 1 26
REMARK H PARENT
REMARK Flexibility Score: inf
ROOT
ATOM      1  C   UNL     1      48.613   0.020  74.436  1.00  0.00     0.000 C 
ENDROOT
BRANCH   1   2
ATOM      2  C   UNL     1      47.922  -0.153  73.071  1.00  0.00     0.000 C 
BRANCH   2   3
ATOM      3  C   UNL     1      48.936  -0.278  71.915  1.00  0.00     0.000 C 
BRANCH   3   4
ATOM      4  C   UNL     1      50.406  -0.230  72.368  1.00  0.00     0.000 C 
BRANCH   4   5
ATOM      5  C   UNL     1      51.174  -1.520  72.036  1.00  0.00     0.000 C 
BRANCH   5   6
ATOM      6  C   UNL     1      51.365  -2.438  73.258  1.00  0.00     0.000 C 
BRANCH   6   7
ATOM      7  C   UNL     1      50.713  -3.833  73.150  1.00  0.00     0.000 C 
BRANCH   7   8
ATOM      8  C   UNL     1      49.709  -4.006  71.994  1.00  0.00     0.000 C 
BRANCH   8   9
ATOM      9  C   UNL     1      48.253  -3.770  72.429  1.00  0.00     0.000 C 
BRANCH   9  10
ATOM     10  C   UNL     1      47.692  -4.926  73.278  1.00  0.00     0.006 C 
BRANCH  10  11
ATOM     11  C   UNL     1      46.699  -5.834  72.536  1.00  0.00     0.053 C 
BRANCH  11  12
ATOM     12  C   UNL     1      45.735  -6.496  73.473  1.00  0.00     0.041 C 
ATOM     13  O   UNL     1      45.315  -7.658  73.231  1.00  0.00    -0.550 OA
ATOM     14  O   UNL     1      45.278  -5.819  74.596  1.00  0.00    -0.550 OA
ENDBRANCH  11  12
ENDBRANCH  10  11
ENDBRANCH   9  10
ENDBRANCH   8   9
ENDBRANCH   7   8
ENDBRANCH   6   7
ENDBRANCH   5   6
ENDBRANCH   4   5
ENDBRANCH   3   4
ENDBRANCH   2   3
ENDBRANCH   1   2
BRANCH   1  15
ATOM     15  C   UNL     1      47.950  -0.816  75.542  1.00  0.00     0.000 C 
BRANCH  15  16
ATOM     16  C   UNL     1      48.580  -2.210  75.679  1.00  0.00     0.000 C 
BRANCH  16  17
ATOM     17  C   UNL     1      49.874  -2.156  76.506  1.00  0.00     0.000 C 
BRANCH  17  18
ATOM     18  C   UNL     1      50.377  -3.551  76.906  1.00  0.00    -0.000 C 
BRANCH  18  19
ATOM     19  C   UNL     1      49.963  -3.944  78.335  1.00  0.00    -0.000 C 
BRANCH  19  20
ATOM     20  C   UNL     1      49.341  -5.347  78.407  1.00  0.00    -0.000 C 
BRANCH  20  21
ATOM     21  C   UNL     1      47.844  -5.310  78.763  1.00  0.00    -0.000 C 
BRANCH  21  22
ATOM     22  C   UNL     1      47.271  -3.882  78.792  1.00  0.00    -0.000 C 
BRANCH  22  23
ATOM     23  C   UNL     1      46.726  -3.426  80.159  1.00  0.00    -0.000 C 
BRANCH  23  24
ATOM     24  C   UNL     1      47.595  -2.354  80.850  1.00  0.00    -0.000 C 
BRANCH  24  25
ATOM     25  C   UNL     1      47.007  -1.906  82.196  1.00  0.00    -0.003 C 
ATOM     26  C   UNL     1      48.046  -1.996  83.309  1.00  0.00     0.004 C 
ENDBRANCH  24  25
ENDBRANCH  23  24
ENDBRANCH  22  23
ENDBRANCH  21  22
ENDBRANCH  20  21
ENDBRANCH  19  20
ENDBRANCH  18  19
ENDBRANCH  17  18
ENDBRANCH  16  17
ENDBRANCH  15  16
ENDBRANCH   1  15
TORSDOF 22
ENDMDL
MODEL 9
REMARK VINA RESULT:    -3.639      2.104      4.253
REMARK INTER + INTRA:         -13.152
REMARK INTER:                  -8.028
REMARK INTRA:                  -5.124
REMARK UNBOUND:                -4.833
REMARK SMILES CCCCCCCCCCCCCCCCCCCCCCCC(=O)[O-]
REMARK SMILES IDX 13 1 14 2 15 3 16 4 17 5 18 6 19 7 20 8 21 9 22 10 23 11
REMARK SMILES IDX 24 12 25 13 26 14 12 15 11 16 10 17 9 18 8 19 7 20 6 21 5 22
REMARK SMILES IDX 4 23 3 24 2 25 1 26
REMARK H PARENT
REMARK Flexibility Score: inf
ROOT
ATOM      1  C   UNL     1      49.785  -7.844  74.560  1.00  0.00     0.000 C 
ENDROOT
BRANCH   1   2
ATOM      2  C   UNL     1      49.761  -8.710  75.833  1.00  0.00     0.000 C 
BRANCH   2   3
ATOM      3  C   UNL     1      48.373  -8.720  76.506  1.00  0.00     0.000 C 
BRANCH   3   4
ATOM      4  C   UNL     1      48.395  -8.303  77.987  1.00  0.00     0.000 C 
BRANCH   4   5
ATOM      5  C   UNL     1      47.435  -7.142  78.295  1.00  0.00     0.000 C 
BRANCH   5   6
ATOM      6  C   UNL     1      48.021  -5.764  77.935  1.00  0.00     0.000 C 
BRANCH   6   7
ATOM      7  C   UNL     1      49.497  -5.547  78.329  1.00  0.00     0.000 C 
BRANCH   7   8
ATOM      8  C   UNL     1      50.459  -5.262  77.160  1.00  0.00     0.000 C 
BRANCH   8   9
ATOM      9  C   UNL     1      49.855  -4.319  76.106  1.00  0.00     0.000 C 
BRANCH   9  10
ATOM     10  C   UNL     1      50.815  -4.049  74.932  1.00  0.00     0.006 C 
BRANCH  10  11
ATOM     11  C   UNL     1      50.622  -2.681  74.258  1.00  0.00     0.053 C 
BRANCH  11  12
ATOM     12  C   UNL     1      50.785  -2.761  72.770  1.00  0.00     0.041 C 
ATOM     13  O   UNL     1      50.499  -3.824  72.159  1.00  0.00    -0.550 OA
ATOM     14  O   UNL     1      51.278  -1.672  72.063  1.00  0.00    -0.550 OA
ENDBRANCH  11  12
ENDBRANCH  10  11
ENDBRANCH   9  10
ENDBRANCH   8   9
ENDBRANCH   7   8
ENDBRANCH   6   7
ENDBRANCH   5   6
ENDBRANCH   4   5
ENDBRANCH   3   4
ENDBRANCH   2   3
ENDBRANCH   1   2
BRANCH   1  15
ATOM     15  C   UNL     1      48.506  -7.008  74.393  1.00  0.00     0.000 C 
BRANCH  15  16
ATOM     16  C   UNL     1      48.292  -6.549  72.943  1.00  0.00     0.000 C 
BRANCH  16  17
ATOM     17  C   UNL     1      47.182  -5.490  72.854  1.00  0.00     0.000 C 
BRANCH  17  18
ATOM     18  C   UNL     1      46.776  -4.944  74.231  1.00  0.00    -0.000 C 
BRANCH  18  19
ATOM     19  C   UNL     1      45.263  -5.051  74.489  1.00  0.00    -0.000 C 
BRANCH  19  20
ATOM     20  C   UNL     1      44.697  -6.434  74.128  1.00  0.00    -0.000 C 
BRANCH  20  21
ATOM     21  C   UNL     1      45.008  -7.495  75.199  1.00  0.00    -0.000 C 
BRANCH  21  22
ATOM     22  C   UNL     1      45.177  -8.906  74.611  1.00  0.00    -0.000 C 
BRANCH  22  23
ATOM     23  C   UNL     1      44.852  -9.031  73.110  1.00  0.00    -0.000 C 
BRANCH  23  24
ATOM     24  C   UNL     1      46.071  -9.400  72.237  1.00  0.00    -0.000 C 
BRANCH  24  25
ATOM     25  C   UNL     1      47.167 -10.115  73.039  1.00  0.00    -0.003 C 
ATOM     26  C   UNL     1      48.384 -10.409  72.168  1.00  0.00     0.004 C 
ENDBRANCH  24  25
ENDBRANCH  23  24
ENDBRANCH  22  23
ENDBRANCH  21  22
ENDBRANCH  20  21
ENDBRANCH  19  20
ENDBRANCH  18  19
ENDBRANCH  17  18
ENDBRANCH  16  17
ENDBRANCH  15  16
ENDBRANCH   1  15
TORSDOF 22
ENDMDL
