MODEL 1
REMARK VINA RESULT:    -1.054      0.000      0.000
REMARK INTER + INTRA:          -4.993
REMARK INTER:                  -2.778
REMARK INTRA:                  -2.215
REMARK UNBOUND:                -2.215
REMARK SMILES CCCCCCCCCCCCCCCCCCCCCCCCCCCCCC(=O)[O-]
REMARK SMILES IDX 16 1 17 2 18 3 19 4 20 5 21 6 22 7 23 8 24 9 25 10 26 11
REMARK SMILES IDX 27 12 28 13 29 14 30 15 31 16 32 17 15 18 14 19 13 20 12 21
REMARK SMILES IDX 11 22 10 23 9 24 8 25 7 26 6 27 5 28 4 29 3 30 2 31 1 32
REMARK H PARENT
REMARK Flexibility Score: inf
ROOT
ATOM      1  C   UNL     1    -117.336 -98.555  38.870  1.00  0.00     0.000 C 
ENDROOT
BRANCH   1   2
ATOM      2  C   UNL     1    -117.463 -98.984  40.341  1.00  0.00     0.000 C 
BRANCH   2   3
ATOM      3  C   UNL     1    -118.919 -99.071  40.824  1.00  0.00     0.000 C 
BRANCH   3   4
ATOM      4  C   UNL     1    -119.053 -99.788  42.179  1.00  0.00     0.000 C 
BRANCH   4   5
ATOM      5  C   UNL     1    -117.880 -99.514  43.144  1.00  0.00     0.000 C 
BRANCH   5   6
ATOM      6  C   UNL     1    -118.199 -98.403  44.158  1.00  0.00     0.000 C 
BRANCH   6   7
ATOM      7  C   UNL     1    -119.125 -98.890  45.285  1.00  0.00     0.000 C 
BRANCH   7   8
ATOM      8  C   UNL     1    -118.383 -99.752  46.322  1.00  0.00     0.000 C 
BRANCH   8   9
ATOM      9  C   UNL     1    -116.966 -99.234  46.625  1.00  0.00     0.000 C 
BRANCH   9  10
ATOM     10  C   UNL     1    -116.564 -99.261  48.114  1.00  0.00     0.000 C 
BRANCH  10  11
ATOM     11  C   UNL     1    -117.546 -98.558  49.070  1.00  0.00     0.000 C 
BRANCH  11  12
ATOM     12  C   UNL     1    -117.418 -97.028  49.038  1.00  0.00     0.000 C 
BRANCH  12  13
ATOM     13  C   UNL     1    -118.800 -96.356  49.045  1.00  0.00     0.006 C 
BRANCH  13  14
ATOM     14  C   UNL     1    -118.703 -94.825  48.978  1.00  0.00     0.053 C 
BRANCH  14  15
ATOM     15  C   UNL     1    -118.373 -94.348  47.598  1.00  0.00     0.041 C 
ATOM     16  O   UNL     1    -117.865 -93.207  47.428  1.00  0.00    -0.550 OA
ATOM     17  O   UNL     1    -118.669 -95.141  46.497  1.00  0.00    -0.550 OA
ENDBRANCH  14  15
ENDBRANCH  13  14
ENDBRANCH  12  13
ENDBRANCH  11  12
ENDBRANCH  10  11
ENDBRANCH   9  10
ENDBRANCH   8   9
ENDBRANCH   7   8
ENDBRANCH   6   7
ENDBRANCH   5   6
ENDBRANCH   4   5
ENDBRANCH   3   4
ENDBRANCH   2   3
ENDBRANCH   1   2
BRANCH   1  18
ATOM     18  C   UNL     1    -116.680 -99.582  37.926  1.00  0.00     0.000 C 
BRANCH  18  19
ATOM     19  C   UNL     1    -116.882 -99.292  36.423  1.00  0.00     0.000 C 
BRANCH  19  20
ATOM     20  C   UNL     1    -115.932-100.104  35.522  1.00  0.00     0.000 C 
BRANCH  20  21
ATOM     21  C   UNL     1    -114.642 -99.344  35.180  1.00  0.00     0.000 C 
BRANCH  21  22
ATOM     22  C   UNL     1    -114.771 -97.827  35.394  1.00  0.00     0.000 C 
BRANCH  22  23
ATOM     23  C   UNL     1    -114.678 -97.049  34.068  1.00  0.00     0.000 C 
BRANCH  23  24
ATOM     24  C   UNL     1    -116.016 -96.384  33.692  1.00  0.00    -0.000 C 
BRANCH  24  25
ATOM     25  C   UNL     1    -116.470 -96.710  32.255  1.00  0.00    -0.000 C 
BRANCH  25  26
ATOM     26  C   UNL     1    -117.788 -96.035  31.834  1.00  0.00    -0.000 C 
BRANCH  26  27
ATOM     27  C   UNL     1    -119.023 -96.916  32.076  1.00  0.00    -0.000 C 
BRANCH  27  28
ATOM     28  C   UNL     1    -118.756 -97.947  33.184  1.00  0.00    -0.000 C 
BRANCH  28  29
ATOM     29  C   UNL     1    -119.125 -99.381  32.763  1.00  0.00    -0.000 C 
BRANCH  29  30
ATOM     30  C   UNL     1    -117.978-100.090  32.018  1.00  0.00    -0.000 C 
BRANCH  30  31
ATOM     31  C   UNL     1    -117.839 -99.611  30.563  1.00  0.00    -0.003 C 
ATOM     32  C   UNL     1    -119.051 -99.973  29.704  1.00  0.00     0.004 C 
ENDBRANCH  30  31
ENDBRANCH  29  30
ENDBRANCH  28  29
ENDBRANCH  27  28
ENDBRANCH  26  27
ENDBRANCH  25  26
ENDBRANCH  24  25
ENDBRANCH  23  24
ENDBRANCH  22  23
ENDBRANCH  21  22
ENDBRANCH  20  21
ENDBRANCH  19  20
ENDBRANCH  18  19
ENDBRANCH   1  18
TORSDOF 28
ENDMDL
MODEL 2
REMARK VINA RESULT:     0.021      1.381      2.839
REMARK INTER + INTRA:          -2.160
REMARK INTER:                  -2.101
REMARK INTRA:                  -0.059
REMARK UNBOUND:                -2.215
REMARK SMILES CCCCCCCCCCCCCCCCCCCCCCCCCCCCCC(=O)[O-]
REMARK SMILES IDX 16 1 17 2 18 3 19 4 20 5 21 6 22 7 23 8 24 9 25 10 26 11
REMARK SMILES IDX 27 12 28 13 29 14 30 15 31 16 32 17 15 18 14 19 13 20 12 21
REMARK SMILES IDX 11 22 10 23 9 24 8 25 7 26 6 27 5 28 4 29 3 30 2 31 1 32
REMARK H PARENT
REMARK Flexibility Score: inf
ROOT
ATOM      1  C   UNL     1    -116.743 -98.450  37.669  1.00  0.00     0.000 C 
ENDROOT
BRANCH   1   2
ATOM      2  C   UNL     1    -116.757 -98.588  39.201  1.00  0.00     0.000 C 
BRANCH   2   3
ATOM      3  C   UNL     1    -117.697 -97.587  39.891  1.00  0.00     0.000 C 
BRANCH   3   4
ATOM      4  C   UNL     1    -118.501 -98.222  41.040  1.00  0.00     0.000 C 
BRANCH   4   5
ATOM      5  C   UNL     1    -118.103 -97.699  42.436  1.00  0.00     0.000 C 
BRANCH   5   6
ATOM      6  C   UNL     1    -119.124 -98.081  43.521  1.00  0.00     0.000 C 
BRANCH   6   7
ATOM      7  C   UNL     1    -118.792 -99.429  44.185  1.00  0.00     0.000 C 
BRANCH   7   8
ATOM      8  C   UNL     1    -117.557 -99.344  45.100  1.00  0.00     0.000 C 
BRANCH   8   9
ATOM      9  C   UNL     1    -117.736-100.122  46.416  1.00  0.00     0.000 C 
BRANCH   9  10
ATOM     10  C   UNL     1    -118.994 -99.752  47.229  1.00  0.00     0.000 C 
BRANCH  10  11
ATOM     11  C   UNL     1    -118.764 -99.558  48.739  1.00  0.00     0.000 C 
BRANCH  11  12
ATOM     12  C   UNL     1    -117.445 -98.836  49.054  1.00  0.00     0.000 C 
BRANCH  12  13
ATOM     13  C   UNL     1    -117.438 -97.415  48.469  1.00  0.00     0.006 C 
BRANCH  13  14
ATOM     14  C   UNL     1    -118.790 -97.035  47.848  1.00  0.00     0.053 C 
BRANCH  14  15
ATOM     15  C   UNL     1    -118.732 -95.706  47.160  1.00  0.00     0.041 C 
ATOM     16  O   UNL     1    -118.911 -95.631  45.915  1.00  0.00    -0.550 OA
ATOM     17  O   UNL     1    -118.435 -94.559  47.885  1.00  0.00    -0.550 OA
ENDBRANCH  14  15
ENDBRANCH  13  14
ENDBRANCH  12  13
ENDBRANCH  11  12
ENDBRANCH  10  11
ENDBRANCH   9  10
ENDBRANCH   8   9
ENDBRANCH   7   8
ENDBRANCH   6   7
ENDBRANCH   5   6
ENDBRANCH   4   5
ENDBRANCH   3   4
ENDBRANCH   2   3
ENDBRANCH   1   2
BRANCH   1  18
ATOM     18  C   UNL     1    -116.086 -99.611  36.898  1.00  0.00     0.000 C 
BRANCH  18  19
ATOM     19  C   UNL     1    -116.901-100.119  35.688  1.00  0.00     0.000 C 
BRANCH  19  20
ATOM     20  C   UNL     1    -118.397 -99.762  35.780  1.00  0.00     0.000 C 
BRANCH  20  21
ATOM     21  C   UNL     1    -119.081 -99.711  34.406  1.00  0.00     0.000 C 
BRANCH  21  22
ATOM     22  C   UNL     1    -118.089 -99.863  33.241  1.00  0.00     0.000 C 
BRANCH  22  23
ATOM     23  C   UNL     1    -118.799 -99.840  31.874  1.00  0.00     0.000 C 
BRANCH  23  24
ATOM     24  C   UNL     1    -118.402 -98.610  31.036  1.00  0.00    -0.000 C 
BRANCH  24  25
ATOM     25  C   UNL     1    -119.051 -97.304  31.533  1.00  0.00    -0.000 C 
BRANCH  25  26
ATOM     26  C   UNL     1    -118.062 -96.286  32.129  1.00  0.00    -0.000 C 
BRANCH  26  27
ATOM     27  C   UNL     1    -116.611 -96.789  32.145  1.00  0.00    -0.000 C 
BRANCH  27  28
ATOM     28  C   UNL     1    -115.982 -96.615  33.537  1.00  0.00    -0.000 C 
BRANCH  28  29
ATOM     29  C   UNL     1    -115.450 -97.937  34.119  1.00  0.00    -0.000 C 
BRANCH  29  30
ATOM     30  C   UNL     1    -115.581 -99.111  33.131  1.00  0.00    -0.000 C 
BRANCH  30  31
ATOM     31  C   UNL     1    -114.382-100.072  33.200  1.00  0.00    -0.003 C 
ATOM     32  C   UNL     1    -113.581-100.112  31.899  1.00  0.00     0.004 C 
ENDBRANCH  30  31
ENDBRANCH  29  30
ENDBRANCH  28  29
ENDBRANCH  27  28
ENDBRANCH  26  27
ENDBRANCH  25  26
ENDBRANCH  24  25
ENDBRANCH  23  24
ENDBRANCH  22  23
ENDBRANCH  21  22
ENDBRANCH  20  21
ENDBRANCH  19  20
ENDBRANCH  18  19
ENDBRANCH   1  18
TORSDOF 28
ENDMDL
