MODEL 1
REMARK VINA RESULT:    -5.469      0.000      0.000
REMARK INTER + INTRA:          -6.555
REMARK INTER:                  -6.428
REMARK INTRA:                  -0.127
REMARK UNBOUND:                -0.127
REMARK SMILES O=C([O-])C=Cc1ccc(O)c(O)c1
REMARK SMILES IDX 6 1 13 2 7 3 11 4 8 5 9 6 5 7 4 8 2 9 1 10 3 11 12 12 10 14
REMARK H PARENT 12 13 10 15
REMARK Flexibility Score: inf
ROOT
ATOM      1  C   UNL     1      -3.049   7.991  -0.484  1.00  0.00    -0.022 A 
ATOM      2  C   UNL     1      -3.918   8.367   0.555  1.00  0.00     0.058 A 
ATOM      3  C   UNL     1      -3.422   8.265  -1.814  1.00  0.00     0.012 A 
ATOM      4  C   UNL     1      -5.121   9.027   0.282  1.00  0.00     0.157 A 
ATOM      5  C   UNL     1      -4.625   8.923  -2.089  1.00  0.00     0.051 A 
ATOM      6  C   UNL     1      -5.476   9.309  -1.047  1.00  0.00     0.157 A 
ENDROOT
BRANCH   1   7
ATOM      7  C   UNL     1      -1.791   7.285  -0.136  1.00  0.00     0.010 C 
ATOM      8  C   UNL     1      -0.780   7.852   0.538  1.00  0.00     0.025 C 
BRANCH   8   9
ATOM      9  C   UNL     1       0.450   7.118   0.875  1.00  0.00     0.064 C 
ATOM     10  O   UNL     1       0.405   5.939   1.319  1.00  0.00    -0.545 OA
ATOM     11  O   UNL     1       1.683   7.733   0.699  1.00  0.00    -0.545 OA
ENDBRANCH   8   9
ENDBRANCH   1   7
BRANCH   4  12
ATOM     12  O   UNL     1      -5.950   9.392   1.342  1.00  0.00    -0.504 OA
ATOM     13  H   UNL     1      -6.394   8.705   1.939  1.00  0.00     0.293 HD
ENDBRANCH   4  12
BRANCH   6  14
ATOM     14  O   UNL     1      -6.673   9.966  -1.327  1.00  0.00    -0.504 OA
ATOM     15  H   UNL     1      -6.783  10.960  -1.163  1.00  0.00     0.293 HD
ENDBRANCH   6  14
TORSDOF 4
ENDMDL
MODEL 2
REMARK VINA RESULT:    -5.468      1.913      2.879
REMARK INTER + INTRA:          -6.554
REMARK INTER:                  -6.420
REMARK INTRA:                  -0.134
REMARK UNBOUND:                -0.127
REMARK SMILES O=C([O-])C=Cc1ccc(O)c(O)c1
REMARK SMILES IDX 6 1 13 2 7 3 11 4 8 5 9 6 5 7 4 8 2 9 1 10 3 11 12 12 10 14
REMARK H PARENT 12 13 10 15
REMARK Flexibility Score: inf
ROOT
ATOM      1  C   UNL     1      -0.859   7.748   0.708  1.00  0.00    -0.022 A 
ATOM      2  C   UNL     1      -1.981   7.248   0.026  1.00  0.00     0.058 A 
ATOM      3  C   UNL     1      -0.926   9.036   1.275  1.00  0.00     0.012 A 
ATOM      4  C   UNL     1      -3.157   8.001  -0.070  1.00  0.00     0.157 A 
ATOM      5  C   UNL     1      -2.099   9.790   1.179  1.00  0.00     0.051 A 
ATOM      6  C   UNL     1      -3.219   9.278   0.511  1.00  0.00     0.157 A 
ENDROOT
BRANCH   1   7
ATOM      7  C   UNL     1       0.365   6.911   0.770  1.00  0.00     0.010 C 
ATOM      8  C   UNL     1       1.566   7.313   0.332  1.00  0.00     0.025 C 
BRANCH   8   9
ATOM      9  C   UNL     1       2.762   6.459   0.421  1.00  0.00     0.064 C 
ATOM     10  O   UNL     1       2.784   5.443   1.166  1.00  0.00    -0.545 OA
ATOM     11  O   UNL     1       3.885   6.777  -0.332  1.00  0.00    -0.545 OA
ENDBRANCH   8   9
ENDBRANCH   1   7
BRANCH   4  12
ATOM     12  O   UNL     1      -4.252   7.464  -0.747  1.00  0.00    -0.504 OA
ATOM     13  H   UNL     1      -4.193   7.165  -1.713  1.00  0.00     0.293 HD
ENDBRANCH   4  12
BRANCH   6  14
ATOM     14  O   UNL     1      -4.387  10.032   0.421  1.00  0.00    -0.504 OA
ATOM     15  H   UNL     1      -4.731  10.574   1.205  1.00  0.00     0.293 HD
ENDBRANCH   6  14
TORSDOF 4
ENDMDL
MODEL 3
REMARK VINA RESULT:    -5.362      1.138      1.945
REMARK INTER + INTRA:          -6.429
REMARK INTER:                  -6.298
REMARK INTRA:                  -0.132
REMARK UNBOUND:                -0.127
REMARK SMILES O=C([O-])C=Cc1ccc(O)c(O)c1
REMARK SMILES IDX 6 1 13 2 7 3 11 4 8 5 9 6 5 7 4 8 2 9 1 10 3 11 12 12 10 14
REMARK H PARENT 12 13 10 15
REMARK Flexibility Score: inf
ROOT
ATOM      1  C   UNL     1      -2.576   8.712   0.247  1.00  0.00    -0.022 A 
ATOM      2  C   UNL     1      -3.029   8.230  -0.993  1.00  0.00     0.058 A 
ATOM      3  C   UNL     1      -3.377   9.630   0.953  1.00  0.00     0.012 A 
ATOM      4  C   UNL     1      -4.265   8.631  -1.511  1.00  0.00     0.157 A 
ATOM      5  C   UNL     1      -4.612  10.034   0.437  1.00  0.00     0.051 A 
ATOM      6  C   UNL     1      -5.063   9.536  -0.792  1.00  0.00     0.157 A 
ENDROOT
BRANCH   1   7
ATOM      7  C   UNL     1      -1.253   8.259   0.744  1.00  0.00     0.010 C 
ATOM      8  C   UNL     1      -0.660   7.121   0.356  1.00  0.00     0.025 C 
BRANCH   8   9
ATOM      9  C   UNL     1       0.660   6.710   0.862  1.00  0.00     0.064 C 
ATOM     10  O   UNL     1       0.825   5.591   1.419  1.00  0.00    -0.545 OA
ATOM     11  O   UNL     1       1.742   7.568   0.721  1.00  0.00    -0.545 OA
ENDBRANCH   8   9
ENDBRANCH   1   7
BRANCH   4  12
ATOM     12  O   UNL     1      -4.682   8.122  -2.740  1.00  0.00    -0.504 OA
ATOM     13  H   UNL     1      -4.678   8.683  -3.584  1.00  0.00     0.293 HD
ENDBRANCH   4  12
BRANCH   6  14
ATOM     14  O   UNL     1      -6.296   9.940  -1.302  1.00  0.00    -0.504 OA
ATOM     15  H   UNL     1      -7.168   9.599  -0.913  1.00  0.00     0.293 HD
ENDBRANCH   6  14
TORSDOF 4
ENDMDL
MODEL 4
REMARK VINA RESULT:    -5.157     11.338     13.297
REMARK INTER + INTRA:          -6.188
REMARK INTER:                  -6.062
REMARK INTRA:                  -0.127
REMARK UNBOUND:                -0.127
REMARK SMILES O=C([O-])C=Cc1ccc(O)c(O)c1
REMARK SMILES IDX 6 1 13 2 7 3 11 4 8 5 9 6 5 7 4 8 2 9 1 10 3 11 12 12 10 14
REMARK H PARENT 12 13 10 15
REMARK Flexibility Score: inf
ROOT
ATOM      1  C   UNL     1      -3.728   0.221  -9.186  1.00  0.00    -0.022 A 
ATOM      2  C   UNL     1      -3.436  -1.133  -8.953  1.00  0.00     0.058 A 
ATOM      3  C   UNL     1      -2.666   1.144  -9.249  1.00  0.00     0.012 A 
ATOM      4  C   UNL     1      -2.113  -1.569  -8.812  1.00  0.00     0.157 A 
ATOM      5  C   UNL     1      -1.344   0.712  -9.107  1.00  0.00     0.051 A 
ATOM      6  C   UNL     1      -1.061  -0.642  -8.891  1.00  0.00     0.157 A 
ENDROOT
BRANCH   1   7
ATOM      7  C   UNL     1      -5.149   0.628  -9.319  1.00  0.00     0.010 C 
ATOM      8  C   UNL     1      -5.832   1.274  -8.362  1.00  0.00     0.025 C 
BRANCH   8   9
ATOM      9  C   UNL     1      -7.239   1.673  -8.534  1.00  0.00     0.064 C 
ATOM     10  O   UNL     1      -7.577   2.887  -8.533  1.00  0.00    -0.545 OA
ATOM     11  O   UNL     1      -8.210   0.694  -8.700  1.00  0.00    -0.545 OA
ENDBRANCH   8   9
ENDBRANCH   1   7
BRANCH   4  12
ATOM     12  O   UNL     1      -1.866  -2.923  -8.593  1.00  0.00    -0.504 OA
ATOM     13  H   UNL     1      -2.583  -3.628  -8.714  1.00  0.00     0.293 HD
ENDBRANCH   4  12
BRANCH   6  14
ATOM     14  O   UNL     1       0.259  -1.069  -8.752  1.00  0.00    -0.504 OA
ATOM     15  H   UNL     1       0.999  -0.428  -8.491  1.00  0.00     0.293 HD
ENDBRANCH   6  14
TORSDOF 4
ENDMDL
MODEL 5
REMARK VINA RESULT:    -5.009     11.350     13.172
REMARK INTER + INTRA:          -6.014
REMARK INTER:                  -5.888
REMARK INTRA:                  -0.127
REMARK UNBOUND:                -0.127
REMARK SMILES O=C([O-])C=Cc1ccc(O)c(O)c1
REMARK SMILES IDX 6 1 13 2 7 3 11 4 8 5 9 6 5 7 4 8 2 9 1 10 3 11 12 12 10 14
REMARK H PARENT 12 13 10 15
REMARK Flexibility Score: inf
ROOT
ATOM      1  C   UNL     1      -3.696   0.252  -9.170  1.00  0.00    -0.022 A 
ATOM      2  C   UNL     1      -2.596   1.121  -9.265  1.00  0.00     0.058 A 
ATOM      3  C   UNL     1      -3.461  -1.119  -8.945  1.00  0.00     0.012 A 
ATOM      4  C   UNL     1      -1.289   0.645  -9.114  1.00  0.00     0.157 A 
ATOM      5  C   UNL     1      -2.156  -1.597  -8.795  1.00  0.00     0.051 A 
ATOM      6  C   UNL     1      -1.067  -0.721  -8.875  1.00  0.00     0.157 A 
ENDROOT
BRANCH   1   7
ATOM      7  C   UNL     1      -5.060   0.810  -9.347  1.00  0.00     0.010 C 
ATOM      8  C   UNL     1      -6.005   0.785  -8.397  1.00  0.00     0.025 C 
BRANCH   8   9
ATOM      9  C   UNL     1      -7.345   1.359  -8.605  1.00  0.00     0.064 C 
ATOM     10  O   UNL     1      -8.332   0.626  -8.882  1.00  0.00    -0.545 OA
ATOM     11  O   UNL     1      -7.524   2.731  -8.493  1.00  0.00    -0.545 OA
ENDBRANCH   8   9
ENDBRANCH   1   7
BRANCH   4  12
ATOM     12  O   UNL     1      -0.226   1.542  -9.205  1.00  0.00    -0.504 OA
ATOM     13  H   UNL     1      -0.358   2.543  -9.118  1.00  0.00     0.293 HD
ENDBRANCH   4  12
BRANCH   6  14
ATOM     14  O   UNL     1       0.233  -1.202  -8.723  1.00  0.00    -0.504 OA
ATOM     15  H   UNL     1       0.985  -0.900  -9.331  1.00  0.00     0.293 HD
ENDBRANCH   6  14
TORSDOF 4
ENDMDL
MODEL 6
REMARK VINA RESULT:    -4.992      2.170      2.858
REMARK INTER + INTRA:          -5.994
REMARK INTER:                  -5.863
REMARK INTRA:                  -0.131
REMARK UNBOUND:                -0.127
REMARK SMILES O=C([O-])C=Cc1ccc(O)c(O)c1
REMARK SMILES IDX 6 1 13 2 7 3 11 4 8 5 9 6 5 7 4 8 2 9 1 10 3 11 12 12 10 14
REMARK H PARENT 12 13 10 15
REMARK Flexibility Score: inf
ROOT
ATOM      1  C   UNL     1      -2.589   9.529   0.216  1.00  0.00    -0.022 A 
ATOM      2  C   UNL     1      -2.464   8.922  -1.046  1.00  0.00     0.058 A 
ATOM      3  C   UNL     1      -3.877   9.716   0.755  1.00  0.00     0.012 A 
ATOM      4  C   UNL     1      -3.594   8.485  -1.747  1.00  0.00     0.157 A 
ATOM      5  C   UNL     1      -5.006   9.281   0.056  1.00  0.00     0.051 A 
ATOM      6  C   UNL     1      -4.872   8.663  -1.193  1.00  0.00     0.157 A 
ENDROOT
BRANCH   1   7
ATOM      7  C   UNL     1      -1.359   9.982   0.910  1.00  0.00     0.010 C 
ATOM      8  C   UNL     1      -0.154   9.420   0.734  1.00  0.00     0.025 C 
BRANCH   8   9
ATOM      9  C   UNL     1       1.048   9.904   1.433  1.00  0.00     0.064 C 
ATOM     10  O   UNL     1       1.038  10.124   2.673  1.00  0.00    -0.545 OA
ATOM     11  O   UNL     1       2.216  10.119   0.712  1.00  0.00    -0.545 OA
ENDBRANCH   8   9
ENDBRANCH   1   7
BRANCH   4  12
ATOM     12  O   UNL     1      -3.426   7.878  -2.991  1.00  0.00    -0.504 OA
ATOM     13  H   UNL     1      -4.208   7.517  -3.524  1.00  0.00     0.293 HD
ENDBRANCH   4  12
BRANCH   6  14
ATOM     14  O   UNL     1      -6.001   8.229  -1.886  1.00  0.00    -0.504 OA
ATOM     15  H   UNL     1      -6.830   7.907  -1.400  1.00  0.00     0.293 HD
ENDBRANCH   6  14
TORSDOF 4
ENDMDL
MODEL 7
REMARK VINA RESULT:    -4.871      1.367      6.004
REMARK INTER + INTRA:          -5.852
REMARK INTER:                  -5.714
REMARK INTRA:                  -0.138
REMARK UNBOUND:                -0.127
REMARK SMILES O=C([O-])C=Cc1ccc(O)c(O)c1
REMARK SMILES IDX 6 1 13 2 7 3 11 4 8 5 9 6 5 7 4 8 2 9 1 10 3 11 12 12 10 14
REMARK H PARENT 12 13 10 15
REMARK Flexibility Score: inf
ROOT
ATOM      1  C   UNL     1      -1.682   8.618   0.731  1.00  0.00    -0.022 A 
ATOM      2  C   UNL     1      -0.568   9.414   1.049  1.00  0.00     0.058 A 
ATOM      3  C   UNL     1      -1.477   7.265   0.398  1.00  0.00     0.012 A 
ATOM      4  C   UNL     1       0.722   8.872   1.061  1.00  0.00     0.157 A 
ATOM      5  C   UNL     1      -0.189   6.722   0.408  1.00  0.00     0.051 A 
ATOM      6  C   UNL     1       0.913   7.518   0.742  1.00  0.00     0.157 A 
ENDROOT
BRANCH   1   7
ATOM      7  C   UNL     1      -3.026   9.248   0.725  1.00  0.00     0.010 C 
ATOM      8  C   UNL     1      -4.147   8.607   0.365  1.00  0.00     0.025 C 
BRANCH   8   9
ATOM      9  C   UNL     1      -5.466   9.261   0.382  1.00  0.00     0.064 C 
ATOM     10  O   UNL     1      -6.103   9.417   1.458  1.00  0.00    -0.545 OA
ATOM     11  O   UNL     1      -6.017   9.717  -0.808  1.00  0.00    -0.545 OA
ENDBRANCH   8   9
ENDBRANCH   1   7
BRANCH   4  12
ATOM     12  O   UNL     1       1.799   9.693   1.391  1.00  0.00    -0.504 OA
ATOM     13  H   UNL     1       2.390   9.510   2.194  1.00  0.00     0.293 HD
ENDBRANCH   4  12
BRANCH   6  14
ATOM     14  O   UNL     1       2.196   6.971   0.753  1.00  0.00    -0.504 OA
ATOM     15  H   UNL     1       2.787   6.988  -0.070  1.00  0.00     0.293 HD
ENDBRANCH   6  14
TORSDOF 4
ENDMDL
MODEL 8
REMARK VINA RESULT:    -4.739     12.129     12.595
REMARK INTER + INTRA:          -5.697
REMARK INTER:                  -5.569
REMARK INTRA:                  -0.128
REMARK UNBOUND:                -0.127
REMARK SMILES O=C([O-])C=Cc1ccc(O)c(O)c1
REMARK SMILES IDX 6 1 13 2 7 3 11 4 8 5 9 6 5 7 4 8 2 9 1 10 3 11 12 12 10 14
REMARK H PARENT 12 13 10 15
REMARK Flexibility Score: inf
ROOT
ATOM      1  C   UNL     1      -4.208   0.061  -9.021  1.00  0.00    -0.022 A 
ATOM      2  C   UNL     1      -5.327  -0.257  -8.233  1.00  0.00     0.058 A 
ATOM      3  C   UNL     1      -4.302   1.128  -9.935  1.00  0.00     0.012 A 
ATOM      4  C   UNL     1      -6.508   0.486  -8.330  1.00  0.00     0.157 A 
ATOM      5  C   UNL     1      -5.482   1.871 -10.035  1.00  0.00     0.051 A 
ATOM      6  C   UNL     1      -6.587   1.558  -9.235  1.00  0.00     0.157 A 
ENDROOT
BRANCH   1   7
ATOM      7  C   UNL     1      -2.984  -0.767  -8.883  1.00  0.00     0.010 C 
ATOM      8  C   UNL     1      -2.893  -2.038  -9.299  1.00  0.00     0.025 C 
BRANCH   8   9
ATOM      9  C   UNL     1      -1.658  -2.826  -9.156  1.00  0.00     0.064 C 
ATOM     10  O   UNL     1      -0.524  -2.287  -9.267  1.00  0.00    -0.545 OA
ATOM     11  O   UNL     1      -1.742  -4.186  -8.892  1.00  0.00    -0.545 OA
ENDBRANCH   8   9
ENDBRANCH   1   7
BRANCH   4  12
ATOM     12  O   UNL     1      -7.592   0.144  -7.523  1.00  0.00    -0.504 OA
ATOM     13  H   UNL     1      -7.707  -0.788  -7.142  1.00  0.00     0.293 HD
ENDBRANCH   4  12
BRANCH   6  14
ATOM     14  O   UNL     1      -7.761   2.303  -9.336  1.00  0.00    -0.504 OA
ATOM     15  H   UNL     1      -7.746   3.316  -9.349  1.00  0.00     0.293 HD
ENDBRANCH   6  14
TORSDOF 4
ENDMDL
MODEL 9
REMARK VINA RESULT:    -4.548      1.896      2.557
REMARK INTER + INTRA:          -5.473
REMARK INTER:                  -5.335
REMARK INTRA:                  -0.137
REMARK UNBOUND:                -0.127
REMARK SMILES O=C([O-])C=Cc1ccc(O)c(O)c1
REMARK SMILES IDX 6 1 13 2 7 3 11 4 8 5 9 6 5 7 4 8 2 9 1 10 3 11 12 12 10 14
REMARK H PARENT 12 13 10 15
REMARK Flexibility Score: inf
ROOT
ATOM      1  C   UNL     1      -0.918   7.684   0.377  1.00  0.00    -0.022 A 
ATOM      2  C   UNL     1      -1.556   8.819   0.907  1.00  0.00     0.058 A 
ATOM      3  C   UNL     1      -1.702   6.692  -0.244  1.00  0.00     0.012 A 
ATOM      4  C   UNL     1      -2.942   8.979   0.799  1.00  0.00     0.157 A 
ATOM      5  C   UNL     1      -3.086   6.849  -0.351  1.00  0.00     0.051 A 
ATOM      6  C   UNL     1      -3.712   7.991   0.165  1.00  0.00     0.157 A 
ENDROOT
BRANCH   1   7
ATOM      7  C   UNL     1       0.553   7.561   0.528  1.00  0.00     0.010 C 
ATOM      8  C   UNL     1       1.225   6.411   0.378  1.00  0.00     0.025 C 
BRANCH   8   9
ATOM      9  C   UNL     1       2.687   6.329   0.524  1.00  0.00     0.064 C 
ATOM     10  O   UNL     1       3.214   5.605   1.411  1.00  0.00    -0.545 OA
ATOM     11  O   UNL     1       3.501   7.060  -0.331  1.00  0.00    -0.545 OA
ENDBRANCH   8   9
ENDBRANCH   1   7
BRANCH   4  12
ATOM     12  O   UNL     1      -3.534  10.125   1.328  1.00  0.00    -0.504 OA
ATOM     13  H   UNL     1      -2.986  10.903   1.675  1.00  0.00     0.293 HD
ENDBRANCH   4  12
BRANCH   6  14
ATOM     14  O   UNL     1      -5.093   8.145   0.053  1.00  0.00    -0.504 OA
ATOM     15  H   UNL     1      -5.665   8.393   0.851  1.00  0.00     0.293 HD
ENDBRANCH   6  14
TORSDOF 4
ENDMDL
