MODEL 1
REMARK VINA RESULT:    -4.544      0.000      0.000
REMARK INTER + INTRA:         -16.512
REMARK INTER:                 -11.983
REMARK INTRA:                  -4.529
REMARK UNBOUND:                -4.529
REMARK SMILES CCCCCCCCCCCCCCCCCCCCCCCCCCCCCC(=O)[O-]
REMARK SMILES IDX 16 1 17 2 18 3 19 4 20 5 21 6 22 7 23 8 24 9 25 10 26 11
REMARK SMILES IDX 27 12 28 13 29 14 30 15 31 16 32 17 15 18 14 19 13 20 12 21
REMARK SMILES IDX 11 22 10 23 9 24 8 25 7 26 6 27 5 28 4 29 3 30 2 31 1 32
REMARK H PARENT
REMARK Flexibility Score: inf
ROOT
ATOM      1  C   UNL     1      11.255  18.747  63.630  1.00  0.00     0.000 C 
ENDROOT
BRANCH   1   2
ATOM      2  C   UNL     1      10.866  17.288  63.917  1.00  0.00     0.000 C 
BRANCH   2   3
ATOM      3  C   UNL     1      11.975  16.291  63.536  1.00  0.00     0.000 C 
BRANCH   3   4
ATOM      4  C   UNL     1      12.657  15.589  64.729  1.00  0.00     0.000 C 
BRANCH   4   5
ATOM      5  C   UNL     1      13.843  14.673  64.364  1.00  0.00     0.000 C 
BRANCH   5   6
ATOM      6  C   UNL     1      13.758  14.030  62.968  1.00  0.00     0.000 C 
BRANCH   6   7
ATOM      7  C   UNL     1      14.899  14.477  62.038  1.00  0.00     0.000 C 
BRANCH   7   8
ATOM      8  C   UNL     1      15.477  15.850  62.426  1.00  0.00     0.000 C 
BRANCH   8   9
ATOM      9  C   UNL     1      15.155  16.992  61.439  1.00  0.00     0.000 C 
BRANCH   9  10
ATOM     10  C   UNL     1      15.388  16.664  59.949  1.00  0.00     0.000 C 
BRANCH  10  11
ATOM     11  C   UNL     1      16.756  17.099  59.391  1.00  0.00     0.000 C 
BRANCH  11  12
ATOM     12  C   UNL     1      17.749  15.931  59.281  1.00  0.00     0.000 C 
BRANCH  12  13
ATOM     13  C   UNL     1      18.693  15.836  60.490  1.00  0.00     0.006 C 
BRANCH  13  14
ATOM     14  C   UNL     1      18.927  17.190  61.175  1.00  0.00     0.053 C 
BRANCH  14  15
ATOM     15  C   UNL     1      20.224  17.188  61.922  1.00  0.00     0.041 C 
ATOM     16  O   UNL     1      20.237  17.059  63.175  1.00  0.00    -0.550 OA
ATOM     17  O   UNL     1      21.425  17.333  61.231  1.00  0.00    -0.550 OA
ENDBRANCH  14  15
ENDBRANCH  13  14
ENDBRANCH  12  13
ENDBRANCH  11  12
ENDBRANCH  10  11
ENDBRANCH   9  10
ENDBRANCH   8   9
ENDBRANCH   7   8
ENDBRANCH   6   7
ENDBRANCH   5   6
ENDBRANCH   4   5
ENDBRANCH   3   4
ENDBRANCH   2   3
ENDBRANCH   1   2
BRANCH   1  18
ATOM     18  C   UNL     1      10.304  19.752  64.299  1.00  0.00     0.000 C 
BRANCH  18  19
ATOM     19  C   UNL     1       9.853  20.865  63.334  1.00  0.00     0.000 C 
BRANCH  19  20
ATOM     20  C   UNL     1      10.154  20.533  61.865  1.00  0.00     0.000 C 
BRANCH  20  21
ATOM     21  C   UNL     1       9.757  21.670  60.909  1.00  0.00     0.000 C 
BRANCH  21  22
ATOM     22  C   UNL     1       9.151  22.875  61.645  1.00  0.00     0.000 C 
BRANCH  22  23
ATOM     23  C   UNL     1       9.969  24.165  61.449  1.00  0.00     0.000 C 
BRANCH  23  24
ATOM     24  C   UNL     1      10.917  24.093  60.240  1.00  0.00    -0.000 C 
BRANCH  24  25
ATOM     25  C   UNL     1      12.364  24.470  60.598  1.00  0.00    -0.000 C 
BRANCH  25  26
ATOM     26  C   UNL     1      12.453  25.363  61.848  1.00  0.00    -0.000 C 
BRANCH  26  27
ATOM     27  C   UNL     1      13.371  24.788  62.950  1.00  0.00    -0.000 C 
BRANCH  27  28
ATOM     28  C   UNL     1      12.613  23.849  63.905  1.00  0.00    -0.000 C 
BRANCH  28  29
ATOM     29  C   UNL     1      13.156  22.403  63.857  1.00  0.00    -0.000 C 
BRANCH  29  30
ATOM     30  C   UNL     1      14.072  22.124  62.650  1.00  0.00    -0.000 C 
BRANCH  30  31
ATOM     31  C   UNL     1      13.775  20.810  61.908  1.00  0.00    -0.003 C 
ATOM     32  C   UNL     1      13.578  21.007  60.405  1.00  0.00     0.004 C 
ENDBRANCH  30  31
ENDBRANCH  29  30
ENDBRANCH  28  29
ENDBRANCH  27  28
ENDBRANCH  26  27
ENDBRANCH  25  26
ENDBRANCH  24  25
ENDBRANCH  23  24
ENDBRANCH  22  23
ENDBRANCH  21  22
ENDBRANCH  20  21
ENDBRANCH  19  20
ENDBRANCH  18  19
ENDBRANCH   1  18
TORSDOF 28
ENDMDL
MODEL 2
REMARK VINA RESULT:    -4.433      1.916      3.933
REMARK INTER + INTRA:         -16.217
REMARK INTER:                 -12.677
REMARK INTRA:                  -3.539
REMARK UNBOUND:                -4.529
REMARK SMILES CCCCCCCCCCCCCCCCCCCCCCCCCCCCCC(=O)[O-]
REMARK SMILES IDX 16 1 17 2 18 3 19 4 20 5 21 6 22 7 23 8 24 9 25 10 26 11
REMARK SMILES IDX 27 12 28 13 29 14 30 15 31 16 32 17 15 18 14 19 13 20 12 21
REMARK SMILES IDX 11 22 10 23 9 24 8 25 7 26 6 27 5 28 4 29 3 30 2 31 1 32
REMARK H PARENT
REMARK Flexibility Score: inf
ROOT
ATOM      1  C   UNL     1      12.912  16.734  63.789  1.00  0.00     0.000 C 
ENDROOT
BRANCH   1   2
ATOM      2  C   UNL     1      13.979  15.877  64.490  1.00  0.00     0.000 C 
BRANCH   2   3
ATOM      3  C   UNL     1      13.393  14.610  65.138  1.00  0.00     0.000 C 
BRANCH   3   4
ATOM      4  C   UNL     1      13.871  13.281  64.517  1.00  0.00     0.000 C 
BRANCH   4   5
ATOM      5  C   UNL     1      13.386  13.015  63.077  1.00  0.00     0.000 C 
BRANCH   5   6
ATOM      6  C   UNL     1      14.454  13.218  61.987  1.00  0.00     0.000 C 
BRANCH   6   7
ATOM      7  C   UNL     1      15.376  11.998  61.824  1.00  0.00     0.000 C 
BRANCH   7   8
ATOM      8  C   UNL     1      16.023  11.926  60.429  1.00  0.00     0.000 C 
BRANCH   8   9
ATOM      9  C   UNL     1      15.465  12.933  59.401  1.00  0.00     0.000 C 
BRANCH   9  10
ATOM     10  C   UNL     1      16.411  14.097  59.036  1.00  0.00     0.000 C 
BRANCH  10  11
ATOM     11  C   UNL     1      15.847  15.505  59.301  1.00  0.00     0.000 C 
BRANCH  11  12
ATOM     12  C   UNL     1      16.344  16.103  60.626  1.00  0.00     0.000 C 
BRANCH  12  13
ATOM     13  C   UNL     1      17.820  15.785  60.908  1.00  0.00     0.006 C 
BRANCH  13  14
ATOM     14  C   UNL     1      18.779  16.837  60.332  1.00  0.00     0.053 C 
BRANCH  14  15
ATOM     15  C   UNL     1      19.670  17.384  61.404  1.00  0.00     0.041 C 
ATOM     16  O   UNL     1      19.180  18.011  62.381  1.00  0.00    -0.550 OA
ATOM     17  O   UNL     1      21.048  17.203  61.321  1.00  0.00    -0.550 OA
ENDBRANCH  14  15
ENDBRANCH  13  14
ENDBRANCH  12  13
ENDBRANCH  11  12
ENDBRANCH  10  11
ENDBRANCH   9  10
ENDBRANCH   8   9
ENDBRANCH   7   8
ENDBRANCH   6   7
ENDBRANCH   5   6
ENDBRANCH   4   5
ENDBRANCH   3   4
ENDBRANCH   2   3
ENDBRANCH   1   2
BRANCH   1  18
ATOM     18  C   UNL     1      11.522  16.080  63.813  1.00  0.00     0.000 C 
BRANCH  18  19
ATOM     19  C   UNL     1      10.480  16.942  64.550  1.00  0.00     0.000 C 
BRANCH  19  20
ATOM     20  C   UNL     1       9.841  16.211  65.740  1.00  0.00     0.000 C 
BRANCH  20  21
ATOM     21  C   UNL     1       9.309  17.177  66.811  1.00  0.00     0.000 C 
BRANCH  21  22
ATOM     22  C   UNL     1       8.796  18.496  66.213  1.00  0.00     0.000 C 
BRANCH  22  23
ATOM     23  C   UNL     1       8.928  19.682  67.186  1.00  0.00     0.000 C 
BRANCH  23  24
ATOM     24  C   UNL     1       9.193  21.016  66.468  1.00  0.00    -0.000 C 
BRANCH  24  25
ATOM     25  C   UNL     1       8.627  21.042  65.038  1.00  0.00    -0.000 C 
BRANCH  25  26
ATOM     26  C   UNL     1       9.298  22.105  64.153  1.00  0.00    -0.000 C 
BRANCH  26  27
ATOM     27  C   UNL     1       9.961  21.521  62.885  1.00  0.00    -0.000 C 
BRANCH  27  28
ATOM     28  C   UNL     1      10.579  20.135  63.140  1.00  0.00    -0.000 C 
BRANCH  28  29
ATOM     29  C   UNL     1      12.033  20.228  63.654  1.00  0.00    -0.000 C 
BRANCH  29  30
ATOM     30  C   UNL     1      12.878  21.299  62.938  1.00  0.00    -0.000 C 
BRANCH  30  31
ATOM     31  C   UNL     1      13.819  20.754  61.850  1.00  0.00    -0.003 C 
ATOM     32  C   UNL     1      13.470  21.266  60.452  1.00  0.00     0.004 C 
ENDBRANCH  30  31
ENDBRANCH  29  30
ENDBRANCH  28  29
ENDBRANCH  27  28
ENDBRANCH  26  27
ENDBRANCH  25  26
ENDBRANCH  24  25
ENDBRANCH  23  24
ENDBRANCH  22  23
ENDBRANCH  21  22
ENDBRANCH  20  21
ENDBRANCH  19  20
ENDBRANCH  18  19
ENDBRANCH   1  18
TORSDOF 28
ENDMDL
MODEL 3
REMARK VINA RESULT:    -4.404      1.656      3.610
REMARK INTER + INTRA:         -16.140
REMARK INTER:                 -13.132
REMARK INTRA:                  -3.009
REMARK UNBOUND:                -4.529
REMARK SMILES CCCCCCCCCCCCCCCCCCCCCCCCCCCCCC(=O)[O-]
REMARK SMILES IDX 16 1 17 2 18 3 19 4 20 5 21 6 22 7 23 8 24 9 25 10 26 11
REMARK SMILES IDX 27 12 28 13 29 14 30 15 31 16 32 17 15 18 14 19 13 20 12 21
REMARK SMILES IDX 11 22 10 23 9 24 8 25 7 26 6 27 5 28 4 29 3 30 2 31 1 32
REMARK H PARENT
REMARK Flexibility Score: inf
ROOT
ATOM      1  C   UNL     1      10.509  16.977  64.295  1.00  0.00     0.000 C 
ENDROOT
BRANCH   1   2
ATOM      2  C   UNL     1      11.661  16.198  63.639  1.00  0.00     0.000 C 
BRANCH   2   3
ATOM      3  C   UNL     1      13.031  16.863  63.860  1.00  0.00     0.000 C 
BRANCH   3   4
ATOM      4  C   UNL     1      14.189  15.885  64.152  1.00  0.00     0.000 C 
BRANCH   4   5
ATOM      5  C   UNL     1      13.853  14.738  65.128  1.00  0.00     0.000 C 
BRANCH   5   6
ATOM      6  C   UNL     1      13.789  13.341  64.486  1.00  0.00     0.000 C 
BRANCH   6   7
ATOM      7  C   UNL     1      13.525  13.394  62.972  1.00  0.00     0.000 C 
BRANCH   7   8
ATOM      8  C   UNL     1      14.613  12.675  62.154  1.00  0.00     0.000 C 
BRANCH   8   9
ATOM      9  C   UNL     1      15.157  13.475  60.951  1.00  0.00     0.000 C 
BRANCH   9  10
ATOM     10  C   UNL     1      15.394  14.978  61.210  1.00  0.00     0.000 C 
BRANCH  10  11
ATOM     11  C   UNL     1      15.462  15.856  59.948  1.00  0.00     0.000 C 
BRANCH  11  12
ATOM     12  C   UNL     1      16.817  16.563  59.789  1.00  0.00     0.000 C 
BRANCH  12  13
ATOM     13  C   UNL     1      17.908  15.972  60.695  1.00  0.00     0.006 C 
BRANCH  13  14
ATOM     14  C   UNL     1      19.281  16.623  60.482  1.00  0.00     0.053 C 
BRANCH  14  15
ATOM     15  C   UNL     1      19.724  17.343  61.718  1.00  0.00     0.041 C 
ATOM     16  O   UNL     1      20.941  17.356  62.045  1.00  0.00    -0.550 OA
ATOM     17  O   UNL     1      18.787  17.997  62.514  1.00  0.00    -0.550 OA
ENDBRANCH  14  15
ENDBRANCH  13  14
ENDBRANCH  12  13
ENDBRANCH  11  12
ENDBRANCH  10  11
ENDBRANCH   9  10
ENDBRANCH   8   9
ENDBRANCH   7   8
ENDBRANCH   6   7
ENDBRANCH   5   6
ENDBRANCH   4   5
ENDBRANCH   3   4
ENDBRANCH   2   3
ENDBRANCH   1   2
BRANCH   1  18
ATOM     18  C   UNL     1      10.060  16.353  65.625  1.00  0.00     0.000 C 
BRANCH  18  19
ATOM     19  C   UNL     1       8.784  17.013  66.181  1.00  0.00     0.000 C 
BRANCH  19  20
ATOM     20  C   UNL     1       8.994  17.631  67.572  1.00  0.00     0.000 C 
BRANCH  20  21
ATOM     21  C   UNL     1       9.323  19.131  67.509  1.00  0.00     0.000 C 
BRANCH  21  22
ATOM     22  C   UNL     1       8.602  19.845  66.354  1.00  0.00     0.000 C 
BRANCH  22  23
ATOM     23  C   UNL     1       9.486  20.897  65.659  1.00  0.00     0.000 C 
BRANCH  23  24
ATOM     24  C   UNL     1       9.980  20.442  64.276  1.00  0.00    -0.000 C 
BRANCH  24  25
ATOM     25  C   UNL     1      11.472  20.737  64.052  1.00  0.00    -0.000 C 
BRANCH  25  26
ATOM     26  C   UNL     1      11.968  20.280  62.670  1.00  0.00    -0.000 C 
BRANCH  26  27
ATOM     27  C   UNL     1      13.432  20.678  62.380  1.00  0.00    -0.000 C 
BRANCH  27  28
ATOM     28  C   UNL     1      13.561  21.523  61.100  1.00  0.00    -0.000 C 
BRANCH  28  29
ATOM     29  C   UNL     1      13.967  22.984  61.401  1.00  0.00    -0.000 C 
BRANCH  29  30
ATOM     30  C   UNL     1      12.777  23.962  61.442  1.00  0.00    -0.000 C 
BRANCH  30  31
ATOM     31  C   UNL     1      11.679  23.684  60.402  1.00  0.00    -0.003 C 
ATOM     32  C   UNL     1      11.543  24.801  59.367  1.00  0.00     0.004 C 
ENDBRANCH  30  31
ENDBRANCH  29  30
ENDBRANCH  28  29
ENDBRANCH  27  28
ENDBRANCH  26  27
ENDBRANCH  25  26
ENDBRANCH  24  25
ENDBRANCH  23  24
ENDBRANCH  22  23
ENDBRANCH  21  22
ENDBRANCH  20  21
ENDBRANCH  19  20
ENDBRANCH  18  19
ENDBRANCH   1  18
TORSDOF 28
ENDMDL
MODEL 4
REMARK VINA RESULT:    -4.398      3.035      8.585
REMARK INTER + INTRA:         -16.126
REMARK INTER:                 -12.657
REMARK INTRA:                  -3.469
REMARK UNBOUND:                -4.529
REMARK SMILES CCCCCCCCCCCCCCCCCCCCCCCCCCCCCC(=O)[O-]
REMARK SMILES IDX 16 1 17 2 18 3 19 4 20 5 21 6 22 7 23 8 24 9 25 10 26 11
REMARK SMILES IDX 27 12 28 13 29 14 30 15 31 16 32 17 15 18 14 19 13 20 12 21
REMARK SMILES IDX 11 22 10 23 9 24 8 25 7 26 6 27 5 28 4 29 3 30 2 31 1 32
REMARK H PARENT
REMARK Flexibility Score: inf
ROOT
ATOM      1  C   UNL     1      13.292  17.787  63.329  1.00  0.00     0.000 C 
ENDROOT
BRANCH   1   2
ATOM      2  C   UNL     1      11.803  17.491  63.576  1.00  0.00     0.000 C 
BRANCH   2   3
ATOM      3  C   UNL     1      10.949  18.768  63.669  1.00  0.00     0.000 C 
BRANCH   3   4
ATOM      4  C   UNL     1      11.739  20.058  63.975  1.00  0.00     0.000 C 
BRANCH   4   5
ATOM      5  C   UNL     1      10.968  21.128  64.773  1.00  0.00     0.000 C 
BRANCH   5   6
ATOM      6  C   UNL     1       9.650  21.592  64.127  1.00  0.00     0.000 C 
BRANCH   6   7
ATOM      7  C   UNL     1       9.759  22.990  63.494  1.00  0.00     0.000 C 
BRANCH   7   8
ATOM      8  C   UNL     1       9.308  23.011  62.022  1.00  0.00     0.000 C 
BRANCH   8   9
ATOM      9  C   UNL     1      10.330  22.428  61.022  1.00  0.00     0.000 C 
BRANCH   9  10
ATOM     10  C   UNL     1      11.748  23.032  61.098  1.00  0.00     0.000 C 
BRANCH  10  11
ATOM     11  C   UNL     1      12.898  22.022  60.938  1.00  0.00     0.000 C 
BRANCH  11  12
ATOM     12  C   UNL     1      13.842  22.001  62.150  1.00  0.00     0.000 C 
BRANCH  12  13
ATOM     13  C   UNL     1      13.781  23.295  62.976  1.00  0.00     0.006 C 
BRANCH  13  14
ATOM     14  C   UNL     1      14.605  24.435  62.363  1.00  0.00     0.053 C 
BRANCH  14  15
ATOM     15  C   UNL     1      14.362  25.718  63.097  1.00  0.00     0.041 C 
ATOM     16  O   UNL     1      15.210  26.649  63.050  1.00  0.00    -0.550 OA
ATOM     17  O   UNL     1      13.196  25.883  63.840  1.00  0.00    -0.550 OA
ENDBRANCH  14  15
ENDBRANCH  13  14
ENDBRANCH  12  13
ENDBRANCH  11  12
ENDBRANCH  10  11
ENDBRANCH   9  10
ENDBRANCH   8   9
ENDBRANCH   7   8
ENDBRANCH   6   7
ENDBRANCH   5   6
ENDBRANCH   4   5
ENDBRANCH   3   4
ENDBRANCH   2   3
ENDBRANCH   1   2
BRANCH   1  18
ATOM     18  C   UNL     1      14.210  16.679  63.868  1.00  0.00     0.000 C 
BRANCH  18  19
ATOM     19  C   UNL     1      13.433  15.603  64.650  1.00  0.00     0.000 C 
BRANCH  19  20
ATOM     20  C   UNL     1      14.295  14.378  64.987  1.00  0.00     0.000 C 
BRANCH  20  21
ATOM     21  C   UNL     1      13.730  13.076  64.396  1.00  0.00     0.000 C 
BRANCH  21  22
ATOM     22  C   UNL     1      13.403  13.202  62.899  1.00  0.00     0.000 C 
BRANCH  22  23
ATOM     23  C   UNL     1      14.582  12.798  61.995  1.00  0.00     0.000 C 
BRANCH  23  24
ATOM     24  C   UNL     1      15.225  13.998  61.281  1.00  0.00    -0.000 C 
BRANCH  24  25
ATOM     25  C   UNL     1      15.278  13.820  59.754  1.00  0.00    -0.000 C 
BRANCH  25  26
ATOM     26  C   UNL     1      15.329  15.159  59.001  1.00  0.00    -0.000 C 
BRANCH  26  27
ATOM     27  C   UNL     1      15.312  16.391  59.934  1.00  0.00    -0.000 C 
BRANCH  27  28
ATOM     28  C   UNL     1      16.583  17.247  59.789  1.00  0.00    -0.000 C 
BRANCH  28  29
ATOM     29  C   UNL     1      17.728  16.482  59.089  1.00  0.00    -0.000 C 
BRANCH  29  30
ATOM     30  C   UNL     1      18.885  16.099  60.031  1.00  0.00    -0.000 C 
BRANCH  30  31
ATOM     31  C   UNL     1      18.640  16.422  61.515  1.00  0.00    -0.003 C 
ATOM     32  C   UNL     1      19.764  17.250  62.137  1.00  0.00     0.004 C 
ENDBRANCH  30  31
ENDBRANCH  29  30
ENDBRANCH  28  29
ENDBRANCH  27  28
ENDBRANCH  26  27
ENDBRANCH  25  26
ENDBRANCH  24  25
ENDBRANCH  23  24
ENDBRANCH  22  23
ENDBRANCH  21  22
ENDBRANCH  20  21
ENDBRANCH  19  20
ENDBRANCH  18  19
ENDBRANCH   1  18
TORSDOF 28
ENDMDL
MODEL 5
REMARK VINA RESULT:    -4.393      1.509      3.147
REMARK INTER + INTRA:         -16.112
REMARK INTER:                 -12.328
REMARK INTRA:                  -3.784
REMARK UNBOUND:                -4.529
REMARK SMILES CCCCCCCCCCCCCCCCCCCCCCCCCCCCCC(=O)[O-]
REMARK SMILES IDX 16 1 17 2 18 3 19 4 20 5 21 6 22 7 23 8 24 9 25 10 26 11
REMARK SMILES IDX 27 12 28 13 29 14 30 15 31 16 32 17 15 18 14 19 13 20 12 21
REMARK SMILES IDX 11 22 10 23 9 24 8 25 7 26 6 27 5 28 4 29 3 30 2 31 1 32
REMARK H PARENT
REMARK Flexibility Score: inf
ROOT
ATOM      1  C   UNL     1      15.135  17.268  63.137  1.00  0.00     0.000 C 
ENDROOT
BRANCH   1   2
ATOM      2  C   UNL     1      14.721  15.788  63.189  1.00  0.00     0.000 C 
BRANCH   2   3
ATOM      3  C   UNL     1      14.319  15.331  64.603  1.00  0.00     0.000 C 
BRANCH   3   4
ATOM      4  C   UNL     1      13.644  13.945  64.671  1.00  0.00     0.000 C 
BRANCH   4   5
ATOM      5  C   UNL     1      13.604  13.166  63.340  1.00  0.00     0.000 C 
BRANCH   5   6
ATOM      6  C   UNL     1      14.566  11.966  63.265  1.00  0.00     0.000 C 
BRANCH   6   7
ATOM      7  C   UNL     1      15.326  11.898  61.930  1.00  0.00     0.000 C 
BRANCH   7   8
ATOM      8  C   UNL     1      14.933  13.031  60.964  1.00  0.00     0.000 C 
BRANCH   8   9
ATOM      9  C   UNL     1      15.598  12.959  59.574  1.00  0.00     0.000 C 
BRANCH   9  10
ATOM     10  C   UNL     1      16.360  14.229  59.139  1.00  0.00     0.000 C 
BRANCH  10  11
ATOM     11  C   UNL     1      15.719  15.558  59.578  1.00  0.00     0.000 C 
BRANCH  11  12
ATOM     12  C   UNL     1      16.635  16.767  59.332  1.00  0.00     0.000 C 
BRANCH  12  13
ATOM     13  C   UNL     1      18.070  16.540  59.831  1.00  0.00     0.006 C 
BRANCH  13  14
ATOM     14  C   UNL     1      18.181  16.561  61.362  1.00  0.00     0.053 C 
BRANCH  14  15
ATOM     15  C   UNL     1      19.374  17.356  61.795  1.00  0.00     0.041 C 
ATOM     16  O   UNL     1      20.465  17.258  61.172  1.00  0.00    -0.550 OA
ATOM     17  O   UNL     1      19.282  18.205  62.896  1.00  0.00    -0.550 OA
ENDBRANCH  14  15
ENDBRANCH  13  14
ENDBRANCH  12  13
ENDBRANCH  11  12
ENDBRANCH  10  11
ENDBRANCH   9  10
ENDBRANCH   8   9
ENDBRANCH   7   8
ENDBRANCH   6   7
ENDBRANCH   5   6
ENDBRANCH   4   5
ENDBRANCH   3   4
ENDBRANCH   2   3
ENDBRANCH   1   2
BRANCH   1  18
ATOM     18  C   UNL     1      14.084  18.148  62.444  1.00  0.00     0.000 C 
BRANCH  18  19
ATOM     19  C   UNL     1      13.078  18.756  63.441  1.00  0.00     0.000 C 
BRANCH  19  20
ATOM     20  C   UNL     1      12.710  20.208  63.101  1.00  0.00     0.000 C 
BRANCH  20  21
ATOM     21  C   UNL     1      12.020  20.932  64.268  1.00  0.00     0.000 C 
BRANCH  21  22
ATOM     22  C   UNL     1      10.845  21.808  63.806  1.00  0.00     0.000 C 
BRANCH  22  23
ATOM     23  C   UNL     1       9.924  21.089  62.802  1.00  0.00     0.000 C 
BRANCH  23  24
ATOM     24  C   UNL     1      10.109  21.588  61.360  1.00  0.00    -0.000 C 
BRANCH  24  25
ATOM     25  C   UNL     1      10.068  23.121  61.253  1.00  0.00    -0.000 C 
BRANCH  25  26
ATOM     26  C   UNL     1      11.290  23.699  60.518  1.00  0.00    -0.000 C 
BRANCH  26  27
ATOM     27  C   UNL     1      12.494  22.732  60.473  1.00  0.00    -0.000 C 
BRANCH  27  28
ATOM     28  C   UNL     1      13.820  23.440  60.801  1.00  0.00    -0.000 C 
BRANCH  28  29
ATOM     29  C   UNL     1      14.051  23.576  62.323  1.00  0.00    -0.000 C 
BRANCH  29  30
ATOM     30  C   UNL     1      14.410  25.006  62.770  1.00  0.00    -0.000 C 
BRANCH  30  31
ATOM     31  C   UNL     1      13.202  25.921  63.033  1.00  0.00    -0.003 C 
ATOM     32  C   UNL     1      12.105  25.237  63.850  1.00  0.00     0.004 C 
ENDBRANCH  30  31
ENDBRANCH  29  30
ENDBRANCH  28  29
ENDBRANCH  27  28
ENDBRANCH  26  27
ENDBRANCH  25  26
ENDBRANCH  24  25
ENDBRANCH  23  24
ENDBRANCH  22  23
ENDBRANCH  21  22
ENDBRANCH  20  21
ENDBRANCH  19  20
ENDBRANCH  18  19
ENDBRANCH   1  18
TORSDOF 28
ENDMDL
MODEL 6
REMARK VINA RESULT:    -4.391      3.022      8.875
REMARK INTER + INTRA:         -16.107
REMARK INTER:                 -12.259
REMARK INTRA:                  -3.848
REMARK UNBOUND:                -4.529
REMARK SMILES CCCCCCCCCCCCCCCCCCCCCCCCCCCCCC(=O)[O-]
REMARK SMILES IDX 16 1 17 2 18 3 19 4 20 5 21 6 22 7 23 8 24 9 25 10 26 11
REMARK SMILES IDX 27 12 28 13 29 14 30 15 31 16 32 17 15 18 14 19 13 20 12 21
REMARK SMILES IDX 11 22 10 23 9 24 8 25 7 26 6 27 5 28 4 29 3 30 2 31 1 32
REMARK H PARENT
REMARK Flexibility Score: inf
ROOT
ATOM      1  C   UNL     1      10.603  20.475  62.266  1.00  0.00     0.000 C 
ENDROOT
BRANCH   1   2
ATOM      2  C   UNL     1       9.450  21.491  62.304  1.00  0.00     0.000 C 
BRANCH   2   3
ATOM      3  C   UNL     1       9.534  22.531  61.173  1.00  0.00     0.000 C 
BRANCH   3   4
ATOM      4  C   UNL     1       9.816  23.975  61.636  1.00  0.00     0.000 C 
BRANCH   4   5
ATOM      5  C   UNL     1      10.905  24.722  60.838  1.00  0.00     0.000 C 
BRANCH   5   6
ATOM      6  C   UNL     1      11.780  23.825  59.944  1.00  0.00     0.000 C 
BRANCH   6   7
ATOM      7  C   UNL     1      13.208  23.655  60.489  1.00  0.00     0.000 C 
BRANCH   7   8
ATOM      8  C   UNL     1      13.580  22.181  60.729  1.00  0.00     0.000 C 
BRANCH   8   9
ATOM      9  C   UNL     1      13.784  21.795  62.209  1.00  0.00     0.000 C 
BRANCH   9  10
ATOM     10  C   UNL     1      13.931  22.980  63.187  1.00  0.00     0.000 C 
BRANCH  10  11
ATOM     11  C   UNL     1      12.627  23.430  63.869  1.00  0.00     0.000 C 
BRANCH  11  12
ATOM     12  C   UNL     1      12.813  24.685  64.735  1.00  0.00     0.000 C 
BRANCH  12  13
ATOM     13  C   UNL     1      12.185  25.940  64.110  1.00  0.00     0.006 C 
BRANCH  13  14
ATOM     14  C   UNL     1      13.062  26.568  63.018  1.00  0.00     0.053 C 
BRANCH  14  15
ATOM     15  C   UNL     1      14.452  26.801  63.525  1.00  0.00     0.041 C 
ATOM     16  O   UNL     1      15.436  26.254  62.959  1.00  0.00    -0.550 OA
ATOM     17  O   UNL     1      14.660  27.623  64.630  1.00  0.00    -0.550 OA
ENDBRANCH  14  15
ENDBRANCH  13  14
ENDBRANCH  12  13
ENDBRANCH  11  12
ENDBRANCH  10  11
ENDBRANCH   9  10
ENDBRANCH   8   9
ENDBRANCH   7   8
ENDBRANCH   6   7
ENDBRANCH   5   6
ENDBRANCH   4   5
ENDBRANCH   3   4
ENDBRANCH   2   3
ENDBRANCH   1   2
BRANCH   1  18
ATOM     18  C   UNL     1      10.814  19.773  63.616  1.00  0.00     0.000 C 
BRANCH  18  19
ATOM     19  C   UNL     1      11.985  18.773  63.580  1.00  0.00     0.000 C 
BRANCH  19  20
ATOM     20  C   UNL     1      11.531  17.321  63.795  1.00  0.00     0.000 C 
BRANCH  20  21
ATOM     21  C   UNL     1      12.647  16.304  63.509  1.00  0.00     0.000 C 
BRANCH  21  22
ATOM     22  C   UNL     1      14.023  16.968  63.346  1.00  0.00     0.000 C 
BRANCH  22  23
ATOM     23  C   UNL     1      15.125  15.968  62.949  1.00  0.00     0.000 C 
BRANCH  23  24
ATOM     24  C   UNL     1      14.594  14.805  62.094  1.00  0.00    -0.000 C 
BRANCH  24  25
ATOM     25  C   UNL     1      15.485  14.511  60.876  1.00  0.00    -0.000 C 
BRANCH  25  26
ATOM     26  C   UNL     1      15.315  15.547  59.752  1.00  0.00    -0.000 C 
BRANCH  26  27
ATOM     27  C   UNL     1      16.199  15.265  58.517  1.00  0.00    -0.000 C 
BRANCH  27  28
ATOM     28  C   UNL     1      17.670  15.653  58.755  1.00  0.00    -0.000 C 
BRANCH  28  29
ATOM     29  C   UNL     1      17.810  17.056  59.386  1.00  0.00    -0.000 C 
BRANCH  29  30
ATOM     30  C   UNL     1      19.090  17.234  60.225  1.00  0.00    -0.000 C 
BRANCH  30  31
ATOM     31  C   UNL     1      19.036  16.596  61.624  1.00  0.00    -0.003 C 
ATOM     32  C   UNL     1      20.124  17.122  62.561  1.00  0.00     0.004 C 
ENDBRANCH  30  31
ENDBRANCH  29  30
ENDBRANCH  28  29
ENDBRANCH  27  28
ENDBRANCH  26  27
ENDBRANCH  25  26
ENDBRANCH  24  25
ENDBRANCH  23  24
ENDBRANCH  22  23
ENDBRANCH  21  22
ENDBRANCH  20  21
ENDBRANCH  19  20
ENDBRANCH  18  19
ENDBRANCH   1  18
TORSDOF 28
ENDMDL
MODEL 7
REMARK VINA RESULT:    -4.388      3.093      8.340
REMARK INTER + INTRA:         -16.099
REMARK INTER:                 -12.616
REMARK INTRA:                  -3.483
REMARK UNBOUND:                -4.529
REMARK SMILES CCCCCCCCCCCCCCCCCCCCCCCCCCCCCC(=O)[O-]
REMARK SMILES IDX 16 1 17 2 18 3 19 4 20 5 21 6 22 7 23 8 24 9 25 10 26 11
REMARK SMILES IDX 27 12 28 13 29 14 30 15 31 16 32 17 15 18 14 19 13 20 12 21
REMARK SMILES IDX 11 22 10 23 9 24 8 25 7 26 6 27 5 28 4 29 3 30 2 31 1 32
REMARK H PARENT
REMARK Flexibility Score: inf
ROOT
ATOM      1  C   UNL     1      10.648  17.122  64.254  1.00  0.00     0.000 C 
ENDROOT
BRANCH   1   2
ATOM      2  C   UNL     1       9.563  16.299  64.968  1.00  0.00     0.000 C 
BRANCH   2   3
ATOM      3  C   UNL     1       9.770  16.238  66.492  1.00  0.00     0.000 C 
BRANCH   3   4
ATOM      4  C   UNL     1       9.262  17.471  67.268  1.00  0.00     0.000 C 
BRANCH   4   5
ATOM      5  C   UNL     1       7.901  18.027  66.801  1.00  0.00     0.000 C 
BRANCH   5   6
ATOM      6  C   UNL     1       7.917  19.509  66.386  1.00  0.00     0.000 C 
BRANCH   6   7
ATOM      7  C   UNL     1       9.341  20.075  66.258  1.00  0.00     0.000 C 
BRANCH   7   8
ATOM      8  C   UNL     1       9.662  20.560  64.833  1.00  0.00     0.000 C 
BRANCH   8   9
ATOM      9  C   UNL     1      11.160  20.798  64.549  1.00  0.00     0.000 C 
BRANCH   9  10
ATOM     10  C   UNL     1      11.549  20.861  63.057  1.00  0.00     0.000 C 
BRANCH  10  11
ATOM     11  C   UNL     1      12.928  20.269  62.715  1.00  0.00     0.000 C 
BRANCH  11  12
ATOM     12  C   UNL     1      13.770  21.201  61.829  1.00  0.00     0.000 C 
BRANCH  12  13
ATOM     13  C   UNL     1      12.913  22.178  61.009  1.00  0.00     0.006 C 
BRANCH  13  14
ATOM     14  C   UNL     1      13.615  23.520  60.755  1.00  0.00     0.053 C 
BRANCH  14  15
ATOM     15  C   UNL     1      13.740  24.301  62.026  1.00  0.00     0.041 C 
ATOM     16  O   UNL     1      14.852  24.786  62.368  1.00  0.00    -0.550 OA
ATOM     17  O   UNL     1      12.625  24.489  62.839  1.00  0.00    -0.550 OA
ENDBRANCH  14  15
ENDBRANCH  13  14
ENDBRANCH  12  13
ENDBRANCH  11  12
ENDBRANCH  10  11
ENDBRANCH   9  10
ENDBRANCH   8   9
ENDBRANCH   7   8
ENDBRANCH   6   7
ENDBRANCH   5   6
ENDBRANCH   4   5
ENDBRANCH   3   4
ENDBRANCH   2   3
ENDBRANCH   1   2
BRANCH   1  18
ATOM     18  C   UNL     1      11.665  16.238  63.514  1.00  0.00     0.000 C 
BRANCH  18  19
ATOM     19  C   UNL     1      13.103  16.777  63.629  1.00  0.00     0.000 C 
BRANCH  19  20
ATOM     20  C   UNL     1      13.969  15.957  64.597  1.00  0.00     0.000 C 
BRANCH  20  21
ATOM     21  C   UNL     1      13.274  14.667  65.063  1.00  0.00     0.000 C 
BRANCH  21  22
ATOM     22  C   UNL     1      13.953  13.401  64.519  1.00  0.00     0.000 C 
BRANCH  22  23
ATOM     23  C   UNL     1      13.556  13.090  63.064  1.00  0.00     0.000 C 
BRANCH  23  24
ATOM     24  C   UNL     1      14.580  13.611  62.042  1.00  0.00    -0.000 C 
BRANCH  24  25
ATOM     25  C   UNL     1      15.073  12.513  61.085  1.00  0.00    -0.000 C 
BRANCH  25  26
ATOM     26  C   UNL     1      15.907  13.070  59.919  1.00  0.00    -0.000 C 
BRANCH  26  27
ATOM     27  C   UNL     1      15.353  14.392  59.344  1.00  0.00    -0.000 C 
BRANCH  27  28
ATOM     28  C   UNL     1      16.436  15.482  59.245  1.00  0.00    -0.000 C 
BRANCH  28  29
ATOM     29  C   UNL     1      16.257  16.584  60.312  1.00  0.00    -0.000 C 
BRANCH  29  30
ATOM     30  C   UNL     1      17.055  16.331  61.606  1.00  0.00    -0.000 C 
BRANCH  30  31
ATOM     31  C   UNL     1      18.559  16.083  61.396  1.00  0.00    -0.003 C 
ATOM     32  C   UNL     1      19.234  17.181  60.574  1.00  0.00     0.004 C 
ENDBRANCH  30  31
ENDBRANCH  29  30
ENDBRANCH  28  29
ENDBRANCH  27  28
ENDBRANCH  26  27
ENDBRANCH  25  26
ENDBRANCH  24  25
ENDBRANCH  23  24
ENDBRANCH  22  23
ENDBRANCH  21  22
ENDBRANCH  20  21
ENDBRANCH  19  20
ENDBRANCH  18  19
ENDBRANCH   1  18
TORSDOF 28
ENDMDL
MODEL 8
REMARK VINA RESULT:    -4.376      2.079      3.620
REMARK INTER + INTRA:         -16.067
REMARK INTER:                 -12.752
REMARK INTRA:                  -3.315
REMARK UNBOUND:                -4.529
REMARK SMILES CCCCCCCCCCCCCCCCCCCCCCCCCCCCCC(=O)[O-]
REMARK SMILES IDX 16 1 17 2 18 3 19 4 20 5 21 6 22 7 23 8 24 9 25 10 26 11
REMARK SMILES IDX 27 12 28 13 29 14 30 15 31 16 32 17 15 18 14 19 13 20 12 21
REMARK SMILES IDX 11 22 10 23 9 24 8 25 7 26 6 27 5 28 4 29 3 30 2 31 1 32
REMARK H PARENT
REMARK Flexibility Score: inf
ROOT
ATOM      1  C   UNL     1      14.387  15.830  63.447  1.00  0.00     0.000 C 
ENDROOT
BRANCH   1   2
ATOM      2  C   UNL     1      14.141  14.712  64.474  1.00  0.00     0.000 C 
BRANCH   2   3
ATOM      3  C   UNL     1      13.490  13.464  63.852  1.00  0.00     0.000 C 
BRANCH   3   4
ATOM      4  C   UNL     1      14.445  12.270  63.639  1.00  0.00     0.000 C 
BRANCH   4   5
ATOM      5  C   UNL     1      15.037  12.146  62.220  1.00  0.00     0.000 C 
BRANCH   5   6
ATOM      6  C   UNL     1      15.829  10.852  61.961  1.00  0.00     0.000 C 
BRANCH   6   7
ATOM      7  C   UNL     1      17.113  11.094  61.149  1.00  0.00     0.000 C 
BRANCH   7   8
ATOM      8  C   UNL     1      16.947  10.744  59.659  1.00  0.00     0.000 C 
BRANCH   8   9
ATOM      9  C   UNL     1      16.303  11.853  58.799  1.00  0.00     0.000 C 
BRANCH   9  10
ATOM     10  C   UNL     1      16.749  13.292  59.134  1.00  0.00     0.000 C 
BRANCH  10  11
ATOM     11  C   UNL     1      15.626  14.345  59.118  1.00  0.00     0.000 C 
BRANCH  11  12
ATOM     12  C   UNL     1      15.628  15.234  60.371  1.00  0.00     0.000 C 
BRANCH  12  13
ATOM     13  C   UNL     1      15.939  16.706  60.058  1.00  0.00     0.006 C 
BRANCH  13  14
ATOM     14  C   UNL     1      17.181  16.880  59.174  1.00  0.00     0.053 C 
BRANCH  14  15
ATOM     15  C   UNL     1      18.432  16.754  59.987  1.00  0.00     0.041 C 
ATOM     16  O   UNL     1      19.177  15.746  59.856  1.00  0.00    -0.550 OA
ATOM     17  O   UNL     1      18.773  17.751  60.897  1.00  0.00    -0.550 OA
ENDBRANCH  14  15
ENDBRANCH  13  14
ENDBRANCH  12  13
ENDBRANCH  11  12
ENDBRANCH  10  11
ENDBRANCH   9  10
ENDBRANCH   8   9
ENDBRANCH   7   8
ENDBRANCH   6   7
ENDBRANCH   5   6
ENDBRANCH   4   5
ENDBRANCH   3   4
ENDBRANCH   2   3
ENDBRANCH   1   2
BRANCH   1  18
ATOM     18  C   UNL     1      13.341  16.952  63.538  1.00  0.00     0.000 C 
BRANCH  18  19
ATOM     19  C   UNL     1      11.927  16.415  63.827  1.00  0.00     0.000 C 
BRANCH  19  20
ATOM     20  C   UNL     1      10.867  17.525  63.860  1.00  0.00     0.000 C 
BRANCH  20  21
ATOM     21  C   UNL     1      11.454  18.913  63.556  1.00  0.00     0.000 C 
BRANCH  21  22
ATOM     22  C   UNL     1      10.372  20.000  63.446  1.00  0.00     0.000 C 
BRANCH  22  23
ATOM     23  C   UNL     1      10.802  21.334  64.084  1.00  0.00     0.000 C 
BRANCH  23  24
ATOM     24  C   UNL     1      10.329  22.558  63.281  1.00  0.00    -0.000 C 
BRANCH  24  25
ATOM     25  C   UNL     1       9.934  22.203  61.838  1.00  0.00    -0.000 C 
BRANCH  25  26
ATOM     26  C   UNL     1      10.337  23.290  60.828  1.00  0.00    -0.000 C 
BRANCH  26  27
ATOM     27  C   UNL     1      11.468  24.212  61.335  1.00  0.00    -0.000 C 
BRANCH  27  28
ATOM     28  C   UNL     1      12.598  24.367  60.302  1.00  0.00    -0.000 C 
BRANCH  28  29
ATOM     29  C   UNL     1      13.931  23.762  60.797  1.00  0.00    -0.000 C 
BRANCH  29  30
ATOM     30  C   UNL     1      13.800  22.961  62.106  1.00  0.00    -0.000 C 
BRANCH  30  31
ATOM     31  C   UNL     1      13.794  21.433  61.928  1.00  0.00    -0.003 C 
ATOM     32  C   UNL     1      13.633  21.005  60.469  1.00  0.00     0.004 C 
ENDBRANCH  30  31
ENDBRANCH  29  30
ENDBRANCH  28  29
ENDBRANCH  27  28
ENDBRANCH  26  27
ENDBRANCH  25  26
ENDBRANCH  24  25
ENDBRANCH  23  24
ENDBRANCH  22  23
ENDBRANCH  21  22
ENDBRANCH  20  21
ENDBRANCH  19  20
ENDBRANCH  18  19
ENDBRANCH   1  18
TORSDOF 28
ENDMDL
MODEL 9
REMARK VINA RESULT:    -4.349      1.489      3.159
REMARK INTER + INTRA:         -15.996
REMARK INTER:                 -12.252
REMARK INTRA:                  -3.744
REMARK UNBOUND:                -4.529
REMARK SMILES CCCCCCCCCCCCCCCCCCCCCCCCCCCCCC(=O)[O-]
REMARK SMILES IDX 16 1 17 2 18 3 19 4 20 5 21 6 22 7 23 8 24 9 25 10 26 11
REMARK SMILES IDX 27 12 28 13 29 14 30 15 31 16 32 17 15 18 14 19 13 20 12 21
REMARK SMILES IDX 11 22 10 23 9 24 8 25 7 26 6 27 5 28 4 29 3 30 2 31 1 32
REMARK H PARENT
REMARK Flexibility Score: inf
ROOT
ATOM      1  C   UNL     1      14.275  18.134  62.962  1.00  0.00     0.000 C 
ENDROOT
BRANCH   1   2
ATOM      2  C   UNL     1      14.320  16.601  63.074  1.00  0.00     0.000 C 
BRANCH   2   3
ATOM      3  C   UNL     1      12.994  16.002  63.576  1.00  0.00     0.000 C 
BRANCH   3   4
ATOM      4  C   UNL     1      13.111  15.139  64.850  1.00  0.00     0.000 C 
BRANCH   4   5
ATOM      5  C   UNL     1      13.911  13.830  64.687  1.00  0.00     0.000 C 
BRANCH   5   6
ATOM      6  C   UNL     1      13.519  12.980  63.465  1.00  0.00     0.000 C 
BRANCH   6   7
ATOM      7  C   UNL     1      14.722  12.263  62.829  1.00  0.00     0.000 C 
BRANCH   7   8
ATOM      8  C   UNL     1      14.795  12.465  61.305  1.00  0.00     0.000 C 
BRANCH   8   9
ATOM      9  C   UNL     1      15.430  13.797  60.855  1.00  0.00     0.000 C 
BRANCH   9  10
ATOM     10  C   UNL     1      16.624  13.666  59.886  1.00  0.00     0.000 C 
BRANCH  10  11
ATOM     11  C   UNL     1      16.742  14.788  58.839  1.00  0.00     0.000 C 
BRANCH  11  12
ATOM     12  C   UNL     1      16.224  16.140  59.356  1.00  0.00     0.000 C 
BRANCH  12  13
ATOM     13  C   UNL     1      17.309  17.227  59.373  1.00  0.00     0.006 C 
BRANCH  13  14
ATOM     14  C   UNL     1      18.684  16.694  59.797  1.00  0.00     0.053 C 
BRANCH  14  15
ATOM     15  C   UNL     1      18.834  16.741  61.286  1.00  0.00     0.041 C 
ATOM     16  O   UNL     1      18.712  15.691  61.971  1.00  0.00    -0.550 OA
ATOM     17  O   UNL     1      19.106  17.952  61.919  1.00  0.00    -0.550 OA
ENDBRANCH  14  15
ENDBRANCH  13  14
ENDBRANCH  12  13
ENDBRANCH  11  12
ENDBRANCH  10  11
ENDBRANCH   9  10
ENDBRANCH   8   9
ENDBRANCH   7   8
ENDBRANCH   6   7
ENDBRANCH   5   6
ENDBRANCH   4   5
ENDBRANCH   3   4
ENDBRANCH   2   3
ENDBRANCH   1   2
BRANCH   1  18
ATOM     18  C   UNL     1      12.955  18.723  63.483  1.00  0.00     0.000 C 
BRANCH  18  19
ATOM     19  C   UNL     1      12.683  20.133  62.926  1.00  0.00     0.000 C 
BRANCH  19  20
ATOM     20  C   UNL     1      13.906  20.740  62.223  1.00  0.00     0.000 C 
BRANCH  20  21
ATOM     21  C   UNL     1      13.675  20.962  60.720  1.00  0.00     0.000 C 
BRANCH  21  22
ATOM     22  C   UNL     1      12.994  22.307  60.421  1.00  0.00     0.000 C 
BRANCH  22  23
ATOM     23  C   UNL     1      13.669  23.490  61.141  1.00  0.00     0.000 C 
BRANCH  23  24
ATOM     24  C   UNL     1      12.796  24.755  61.156  1.00  0.00    -0.000 C 
BRANCH  24  25
ATOM     25  C   UNL     1      11.715  24.743  60.063  1.00  0.00    -0.000 C 
BRANCH  25  26
ATOM     26  C   UNL     1      10.428  25.467  60.491  1.00  0.00    -0.000 C 
BRANCH  26  27
ATOM     27  C   UNL     1       9.474  24.585  61.327  1.00  0.00    -0.000 C 
BRANCH  27  28
ATOM     28  C   UNL     1       9.455  23.126  60.838  1.00  0.00    -0.000 C 
BRANCH  28  29
ATOM     29  C   UNL     1       9.752  22.123  61.976  1.00  0.00    -0.000 C 
BRANCH  29  30
ATOM     30  C   UNL     1      10.366  22.772  63.231  1.00  0.00    -0.000 C 
BRANCH  30  31
ATOM     31  C   UNL     1       9.648  22.433  64.548  1.00  0.00    -0.003 C 
ATOM     32  C   UNL     1       8.875  21.116  64.482  1.00  0.00     0.004 C 
ENDBRANCH  30  31
ENDBRANCH  29  30
ENDBRANCH  28  29
ENDBRANCH  27  28
ENDBRANCH  26  27
ENDBRANCH  25  26
ENDBRANCH  24  25
ENDBRANCH  23  24
ENDBRANCH  22  23
ENDBRANCH  21  22
ENDBRANCH  20  21
ENDBRANCH  19  20
ENDBRANCH  18  19
ENDBRANCH   1  18
TORSDOF 28
ENDMDL
