MODEL 1
REMARK VINA RESULT:    -7.473      0.000      0.000
REMARK INTER + INTRA:         -12.252
REMARK INTER:                 -10.968
REMARK INTRA:                  -1.284
REMARK UNBOUND:                -1.284
REMARK SMILES O=c1c(O[C@@H]2O[C@H](CO)[C@H](O)[C@@H](O)[C@H]2O)c(-c2ccc(O)c(O)c2)oc2cc(O)cc(O)c12
REMARK SMILES IDX 4 1 3 2 16 3 25 4 2 5 26 6 1 7 33 8 27 9 31 10 28 11 30 12
REMARK SMILES IDX 17 13 18 14 19 15 20 16 24 17 22 18 21 19 23 21 32 23 29 25
REMARK SMILES IDX 5 27 14 28 6 29 12 30 7 31 10 32 15 33 13 35 8 37 9 38 11 40
REMARK H PARENT 21 20 23 22 32 24 29 26 15 34 13 36 9 39 11 41
REMARK Flexibility Score: inf
ROOT
ATOM      1  O   UNL     1     -37.500   5.568  82.023  1.00  0.00    -0.454 OA
ENDROOT
BRANCH   1   2
ATOM      2  C   UNL     1     -38.231   5.039  80.952  1.00  0.00     0.214 A 
ATOM      3  C   UNL     1     -37.719   5.044  79.641  1.00  0.00     0.180 A 
ATOM      4  O   UNL     1     -38.482   4.631  78.637  1.00  0.00    -0.452 OA
ATOM      5  C   UNL     1     -39.508   4.512  81.182  1.00  0.00     0.239 A 
ATOM      6  C   UNL     1     -39.710   4.148  78.802  1.00  0.00     0.146 A 
ATOM      7  O   UNL     1     -39.965   4.537  82.355  1.00  0.00    -0.285 OA
ATOM      8  C   UNL     1     -40.270   4.016  80.099  1.00  0.00     0.111 A 
ATOM      9  C   UNL     1     -40.438   3.772  77.672  1.00  0.00     0.094 A 
ATOM     10  C   UNL     1     -41.568   3.438  80.223  1.00  0.00     0.134 A 
ATOM     11  C   UNL     1     -41.730   3.269  77.799  1.00  0.00     0.123 A 
ATOM     12  C   UNL     1     -42.290   3.106  79.070  1.00  0.00     0.093 A 
BRANCH   3  13
ATOM     13  C   UNL     1     -36.345   5.501  79.336  1.00  0.00     0.025 A 
ATOM     14  C   UNL     1     -35.241   4.647  79.501  1.00  0.00     0.016 A 
ATOM     15  C   UNL     1     -33.951   5.095  79.206  1.00  0.00     0.051 A 
ATOM     16  C   UNL     1     -33.745   6.392  78.728  1.00  0.00     0.157 A 
ATOM     17  C   UNL     1     -36.138   6.795  78.834  1.00  0.00     0.062 A 
ATOM     18  C   UNL     1     -34.844   7.248  78.540  1.00  0.00     0.158 A 
BRANCH  16  19
ATOM     19  O   UNL     1     -32.446   6.813  78.447  1.00  0.00    -0.504 OA
ATOM     20  H   UNL     1     -32.192   7.793  78.425  1.00  0.00     0.293 HD
ENDBRANCH  16  19
BRANCH  18  21
ATOM     21  O   UNL     1     -34.648   8.543  78.064  1.00  0.00    -0.504 OA
ATOM     22  H   UNL     1     -34.961   8.824  77.143  1.00  0.00     0.293 HD
ENDBRANCH  18  21
ENDBRANCH   3  13
BRANCH  10  23
ATOM     23  O   UNL     1     -42.175   3.147  81.446  1.00  0.00    -0.507 OA
ATOM     24  H   UNL     1     -42.543   3.837  82.081  1.00  0.00     0.293 HD
ENDBRANCH  10  23
BRANCH  11  25
ATOM     25  O   UNL     1     -42.447   2.921  76.657  1.00  0.00    -0.508 OA
ATOM     26  H   UNL     1     -42.139   2.174  76.045  1.00  0.00     0.293 HD
ENDBRANCH  11  25
ENDBRANCH   1   2
BRANCH   1  27
ATOM     27  C   UNL     1     -37.264   4.837  83.228  1.00  0.00     0.339 C 
ATOM     28  C   UNL     1     -36.115   3.831  83.053  1.00  0.00     0.214 C 
ATOM     29  O   UNL     1     -37.055   5.718  84.323  1.00  0.00    -0.332 OA
ATOM     30  C   UNL     1     -34.787   4.575  82.867  1.00  0.00     0.180 C 
ATOM     31  C   UNL     1     -35.837   6.454  84.261  1.00  0.00     0.179 C 
ATOM     32  C   UNL     1     -34.582   5.569  84.019  1.00  0.00     0.177 C 
BRANCH  28  33
ATOM     33  O   UNL     1     -36.062   2.992  84.179  1.00  0.00    -0.384 OA
ATOM     34  H   UNL     1     -35.627   3.508  84.907  1.00  0.00     0.211 HD
ENDBRANCH  28  33
BRANCH  30  35
ATOM     35  O   UNL     1     -33.733   3.648  82.836  1.00  0.00    -0.387 OA
ATOM     36  H   UNL     1     -33.946   2.986  82.128  1.00  0.00     0.211 HD
ENDBRANCH  30  35
BRANCH  31  37
ATOM     37  C   UNL     1     -35.955   7.720  83.380  1.00  0.00     0.191 C 
BRANCH  37  38
ATOM     38  O   UNL     1     -35.347   7.553  82.131  1.00  0.00    -0.394 OA
ATOM     39  H   UNL     1     -35.747   8.235  81.533  1.00  0.00     0.210 HD
ENDBRANCH  37  38
ENDBRANCH  31  37
BRANCH  32  40
ATOM     40  O   UNL     1     -33.451   6.363  83.764  1.00  0.00    -0.387 OA
ATOM     41  H   UNL     1     -33.312   6.353  82.781  1.00  0.00     0.211 HD
ENDBRANCH  32  40
ENDBRANCH   1  27
TORSDOF 12
ENDMDL
MODEL 2
REMARK VINA RESULT:    -7.013      1.009      1.292
REMARK INTER + INTRA:         -11.577
REMARK INTER:                 -10.008
REMARK INTRA:                  -1.569
REMARK UNBOUND:                -1.284
REMARK SMILES O=c1c(O[C@@H]2O[C@H](CO)[C@H](O)[C@@H](O)[C@H]2O)c(-c2ccc(O)c(O)c2)oc2cc(O)cc(O)c12
REMARK SMILES IDX 4 1 3 2 16 3 25 4 2 5 26 6 1 7 33 8 27 9 31 10 28 11 30 12
REMARK SMILES IDX 17 13 18 14 19 15 20 16 24 17 22 18 21 19 23 21 32 23 29 25
REMARK SMILES IDX 5 27 14 28 6 29 12 30 7 31 10 32 15 33 13 35 8 37 9 38 11 40
REMARK H PARENT 21 20 23 22 32 24 29 26 15 34 13 36 9 39 11 41
REMARK Flexibility Score: inf
ROOT
ATOM      1  O   UNL     1     -37.689   5.759  81.999  1.00  0.00    -0.454 OA
ENDROOT
BRANCH   1   2
ATOM      2  C   UNL     1     -38.382   5.172  80.933  1.00  0.00     0.214 A 
ATOM      3  C   UNL     1     -37.818   5.098  79.645  1.00  0.00     0.180 A 
ATOM      4  O   UNL     1     -38.545   4.631  78.637  1.00  0.00    -0.452 OA
ATOM      5  C   UNL     1     -39.670   4.667  81.143  1.00  0.00     0.239 A 
ATOM      6  C   UNL     1     -39.782   4.166  78.782  1.00  0.00     0.146 A 
ATOM      7  O   UNL     1     -40.172   4.763  82.293  1.00  0.00    -0.285 OA
ATOM      8  C   UNL     1     -40.394   4.113  80.062  1.00  0.00     0.111 A 
ATOM      9  C   UNL     1     -40.469   3.729  77.648  1.00  0.00     0.094 A 
ATOM     10  C   UNL     1     -41.700   3.551  80.168  1.00  0.00     0.134 A 
ATOM     11  C   UNL     1     -41.769   3.242  77.753  1.00  0.00     0.123 A 
ATOM     12  C   UNL     1     -42.379   3.157  79.008  1.00  0.00     0.093 A 
BRANCH   3  13
ATOM     13  C   UNL     1     -36.430   5.528  79.368  1.00  0.00     0.025 A 
ATOM     14  C   UNL     1     -35.362   4.616  79.419  1.00  0.00     0.016 A 
ATOM     15  C   UNL     1     -34.057   5.040  79.152  1.00  0.00     0.051 A 
ATOM     16  C   UNL     1     -33.802   6.373  78.818  1.00  0.00     0.157 A 
ATOM     17  C   UNL     1     -36.173   6.861  79.010  1.00  0.00     0.062 A 
ATOM     18  C   UNL     1     -34.865   7.289  78.745  1.00  0.00     0.158 A 
BRANCH  16  19
ATOM     19  O   UNL     1     -32.490   6.768  78.562  1.00  0.00    -0.504 OA
ATOM     20  H   UNL     1     -32.027   6.559  77.686  1.00  0.00     0.293 HD
ENDBRANCH  16  19
BRANCH  18  21
ATOM     21  O   UNL     1     -34.619   8.620  78.412  1.00  0.00    -0.504 OA
ATOM     22  H   UNL     1     -34.017   8.872  77.637  1.00  0.00     0.293 HD
ENDBRANCH  18  21
ENDBRANCH   3  13
BRANCH  10  23
ATOM     23  O   UNL     1     -42.357   3.335  81.381  1.00  0.00    -0.507 OA
ATOM     24  H   UNL     1     -42.548   4.052  82.062  1.00  0.00     0.293 HD
ENDBRANCH  10  23
BRANCH  11  25
ATOM     25  O   UNL     1     -42.444   2.832  76.606  1.00  0.00    -0.508 OA
ATOM     26  H   UNL     1     -43.141   2.096  76.636  1.00  0.00     0.293 HD
ENDBRANCH  11  25
ENDBRANCH   1   2
BRANCH   1  27
ATOM     27  C   UNL     1     -37.018   4.987  82.999  1.00  0.00     0.339 C 
ATOM     28  C   UNL     1     -35.503   5.243  82.976  1.00  0.00     0.214 C 
ATOM     29  O   UNL     1     -37.590   5.210  84.280  1.00  0.00    -0.332 OA
ATOM     30  C   UNL     1     -35.204   6.677  83.429  1.00  0.00     0.180 C 
ATOM     31  C   UNL     1     -37.361   6.513  84.807  1.00  0.00     0.179 C 
ATOM     32  C   UNL     1     -35.866   6.943  84.789  1.00  0.00     0.177 C 
BRANCH  28  33
ATOM     33  O   UNL     1     -34.866   4.314  83.815  1.00  0.00    -0.384 OA
ATOM     34  H   UNL     1     -34.934   3.427  83.374  1.00  0.00     0.211 HD
ENDBRANCH  28  33
BRANCH  30  35
ATOM     35  O   UNL     1     -33.814   6.857  83.525  1.00  0.00    -0.387 OA
ATOM     36  H   UNL     1     -33.653   7.828  83.650  1.00  0.00     0.211 HD
ENDBRANCH  30  35
BRANCH  31  37
ATOM     37  C   UNL     1     -38.373   7.554  84.274  1.00  0.00     0.191 C 
BRANCH  37  38
ATOM     38  O   UNL     1     -37.818   8.367  83.279  1.00  0.00    -0.394 OA
ATOM     39  H   UNL     1     -37.267   7.772  82.708  1.00  0.00     0.210 HD
ENDBRANCH  37  38
ENDBRANCH  31  37
BRANCH  32  40
ATOM     40  O   UNL     1     -35.731   8.299  85.125  1.00  0.00    -0.387 OA
ATOM     41  H   UNL     1     -35.910   8.817  84.297  1.00  0.00     0.211 HD
ENDBRANCH  32  40
ENDBRANCH   1  27
TORSDOF 12
ENDMDL
MODEL 3
REMARK VINA RESULT:    -6.817      1.944      6.155
REMARK INTER + INTRA:         -11.290
REMARK INTER:                  -9.518
REMARK INTRA:                  -1.772
REMARK UNBOUND:                -1.284
REMARK SMILES O=c1c(O[C@@H]2O[C@H](CO)[C@H](O)[C@@H](O)[C@H]2O)c(-c2ccc(O)c(O)c2)oc2cc(O)cc(O)c12
REMARK SMILES IDX 4 1 3 2 16 3 25 4 2 5 26 6 1 7 33 8 27 9 31 10 28 11 30 12
REMARK SMILES IDX 17 13 18 14 19 15 20 16 24 17 22 18 21 19 23 21 32 23 29 25
REMARK SMILES IDX 5 27 14 28 6 29 12 30 7 31 10 32 15 33 13 35 8 37 9 38 11 40
REMARK H PARENT 21 20 23 22 32 24 29 26 15 34 13 36 9 39 11 41
REMARK Flexibility Score: inf
ROOT
ATOM      1  O   UNL     1     -37.090   5.103  81.611  1.00  0.00    -0.454 OA
ENDROOT
BRANCH   1   2
ATOM      2  C   UNL     1     -36.639   6.007  80.641  1.00  0.00     0.214 A 
ATOM      3  C   UNL     1     -37.132   5.973  79.323  1.00  0.00     0.180 A 
ATOM      4  O   UNL     1     -36.606   6.776  78.406  1.00  0.00    -0.452 OA
ATOM      5  C   UNL     1     -35.663   6.952  80.980  1.00  0.00     0.239 A 
ATOM      6  C   UNL     1     -35.658   7.669  78.673  1.00  0.00     0.146 A 
ATOM      7  O   UNL     1     -35.212   6.953  82.155  1.00  0.00    -0.285 OA
ATOM      8  C   UNL     1     -35.171   7.839  79.995  1.00  0.00     0.111 A 
ATOM      9  C   UNL     1     -35.152   8.440  77.625  1.00  0.00     0.094 A 
ATOM     10  C   UNL     1     -34.196   8.852  80.235  1.00  0.00     0.134 A 
ATOM     11  C   UNL     1     -34.154   9.382  77.859  1.00  0.00     0.123 A 
ATOM     12  C   UNL     1     -33.680   9.583  79.158  1.00  0.00     0.093 A 
BRANCH   3  13
ATOM     13  C   UNL     1     -38.226   5.065  78.916  1.00  0.00     0.025 A 
ATOM     14  C   UNL     1     -39.543   5.534  78.762  1.00  0.00     0.016 A 
ATOM     15  C   UNL     1     -40.563   4.662  78.375  1.00  0.00     0.051 A 
ATOM     16  C   UNL     1     -40.284   3.316  78.121  1.00  0.00     0.157 A 
ATOM     17  C   UNL     1     -37.945   3.718  78.638  1.00  0.00     0.062 A 
ATOM     18  C   UNL     1     -38.968   2.840  78.251  1.00  0.00     0.158 A 
BRANCH  16  19
ATOM     19  O   UNL     1     -41.323   2.468  77.741  1.00  0.00    -0.504 OA
ATOM     20  H   UNL     1     -42.266   2.582  78.094  1.00  0.00     0.293 HD
ENDBRANCH  16  19
BRANCH  18  21
ATOM     21  O   UNL     1     -38.681   1.500  78.000  1.00  0.00    -0.504 OA
ATOM     22  H   UNL     1     -37.762   1.201  77.696  1.00  0.00     0.293 HD
ENDBRANCH  18  21
ENDBRANCH   3  13
BRANCH  10  23
ATOM     23  O   UNL     1     -33.729   9.195  81.506  1.00  0.00    -0.507 OA
ATOM     24  H   UNL     1     -33.235   8.568  82.121  1.00  0.00     0.293 HD
ENDBRANCH  10  23
BRANCH  11  25
ATOM     25  O   UNL     1     -33.648  10.125  76.795  1.00  0.00    -0.508 OA
ATOM     26  H   UNL     1     -33.841  11.116  76.701  1.00  0.00     0.293 HD
ENDBRANCH  11  25
ENDBRANCH   1   2
BRANCH   1  27
ATOM     27  C   UNL     1     -38.194   5.386  82.473  1.00  0.00     0.339 C 
ATOM     28  C   UNL     1     -39.367   4.428  82.208  1.00  0.00     0.214 C 
ATOM     29  O   UNL     1     -37.789   5.388  83.834  1.00  0.00    -0.332 OA
ATOM     30  C   UNL     1     -38.989   3.004  82.633  1.00  0.00     0.180 C 
ATOM     31  C   UNL     1     -37.427   4.107  84.341  1.00  0.00     0.179 C 
ATOM     32  C   UNL     1     -38.497   3.007  84.088  1.00  0.00     0.177 C 
BRANCH  28  33
ATOM     33  O   UNL     1     -40.496   4.875  82.915  1.00  0.00    -0.384 OA
ATOM     34  H   UNL     1     -41.263   4.318  82.622  1.00  0.00     0.211 HD
ENDBRANCH  28  33
BRANCH  30  35
ATOM     35  O   UNL     1     -40.110   2.166  82.505  1.00  0.00    -0.387 OA
ATOM     36  H   UNL     1     -40.195   1.660  83.353  1.00  0.00     0.211 HD
ENDBRANCH  30  35
BRANCH  31  37
ATOM     37  C   UNL     1     -35.967   3.725  84.000  1.00  0.00     0.191 C 
BRANCH  37  38
ATOM     38  O   UNL     1     -35.108   4.828  84.053  1.00  0.00    -0.394 OA
ATOM     39  H   UNL     1     -34.825   5.005  83.119  1.00  0.00     0.210 HD
ENDBRANCH  37  38
ENDBRANCH  31  37
BRANCH  32  40
ATOM     40  O   UNL     1     -38.000   1.738  84.422  1.00  0.00    -0.387 OA
ATOM     41  H   UNL     1     -38.611   1.074  84.009  1.00  0.00     0.211 HD
ENDBRANCH  32  40
ENDBRANCH   1  27
TORSDOF 12
ENDMDL
MODEL 4
REMARK VINA RESULT:    -6.582      2.225      6.741
REMARK INTER + INTRA:         -10.945
REMARK INTER:                  -9.600
REMARK INTRA:                  -1.345
REMARK UNBOUND:                -1.284
REMARK SMILES O=c1c(O[C@@H]2O[C@H](CO)[C@H](O)[C@@H](O)[C@H]2O)c(-c2ccc(O)c(O)c2)oc2cc(O)cc(O)c12
REMARK SMILES IDX 4 1 3 2 16 3 25 4 2 5 26 6 1 7 33 8 27 9 31 10 28 11 30 12
REMARK SMILES IDX 17 13 18 14 19 15 20 16 24 17 22 18 21 19 23 21 32 23 29 25
REMARK SMILES IDX 5 27 14 28 6 29 12 30 7 31 10 32 15 33 13 35 8 37 9 38 11 40
REMARK H PARENT 21 20 23 22 32 24 29 26 15 34 13 36 9 39 11 41
REMARK Flexibility Score: inf
ROOT
ATOM      1  O   UNL     1     -37.624   4.083  82.668  1.00  0.00    -0.454 OA
ENDROOT
BRANCH   1   2
ATOM      2  C   UNL     1     -36.708   4.970  82.088  1.00  0.00     0.214 A 
ATOM      3  C   UNL     1     -36.716   5.231  80.704  1.00  0.00     0.180 A 
ATOM      4  O   UNL     1     -35.768   5.994  80.176  1.00  0.00    -0.452 OA
ATOM      5  C   UNL     1     -35.750   5.596  82.893  1.00  0.00     0.239 A 
ATOM      6  C   UNL     1     -34.820   6.587  80.896  1.00  0.00     0.146 A 
ATOM      7  O   UNL     1     -35.737   5.333  84.124  1.00  0.00    -0.285 OA
ATOM      8  C   UNL     1     -34.794   6.458  82.309  1.00  0.00     0.111 A 
ATOM      9  C   UNL     1     -33.851   7.342  80.233  1.00  0.00     0.094 A 
ATOM     10  C   UNL     1     -33.790   7.163  83.037  1.00  0.00     0.134 A 
ATOM     11  C   UNL     1     -32.837   7.974  80.947  1.00  0.00     0.123 A 
ATOM     12  C   UNL     1     -32.809   7.881  82.342  1.00  0.00     0.093 A 
BRANCH   3  13
ATOM     13  C   UNL     1     -37.753   4.677  79.806  1.00  0.00     0.025 A 
ATOM     14  C   UNL     1     -38.886   5.431  79.451  1.00  0.00     0.016 A 
ATOM     15  C   UNL     1     -39.854   4.893  78.599  1.00  0.00     0.051 A 
ATOM     16  C   UNL     1     -39.700   3.604  78.079  1.00  0.00     0.157 A 
ATOM     17  C   UNL     1     -37.591   3.393  79.264  1.00  0.00     0.062 A 
ATOM     18  C   UNL     1     -38.562   2.849  78.412  1.00  0.00     0.158 A 
BRANCH  16  19
ATOM     19  O   UNL     1     -40.685   3.092  77.236  1.00  0.00    -0.504 OA
ATOM     20  H   UNL     1     -40.716   3.314  76.249  1.00  0.00     0.293 HD
ENDBRANCH  16  19
BRANCH  18  21
ATOM     21  O   UNL     1     -38.402   1.564  77.898  1.00  0.00    -0.504 OA
ATOM     22  H   UNL     1     -37.486   1.144  77.795  1.00  0.00     0.293 HD
ENDBRANCH  18  21
ENDBRANCH   3  13
BRANCH  10  23
ATOM     23  O   UNL     1     -33.731   7.212  84.431  1.00  0.00    -0.507 OA
ATOM     24  H   UNL     1     -33.099   6.668  84.996  1.00  0.00     0.293 HD
ENDBRANCH  10  23
BRANCH  11  25
ATOM     25  O   UNL     1     -31.868   8.704  80.264  1.00  0.00    -0.508 OA
ATOM     26  H   UNL     1     -31.192   8.251  79.659  1.00  0.00     0.293 HD
ENDBRANCH  11  25
ENDBRANCH   1   2
BRANCH   1  27
ATOM     27  C   UNL     1     -38.562   4.490  83.667  1.00  0.00     0.339 C 
ATOM     28  C   UNL     1     -39.834   5.073  83.031  1.00  0.00     0.214 C 
ATOM     29  O   UNL     1     -38.840   3.426  84.566  1.00  0.00    -0.332 OA
ATOM     30  C   UNL     1     -40.609   3.972  82.298  1.00  0.00     0.180 C 
ATOM     31  C   UNL     1     -39.573   2.348  83.991  1.00  0.00     0.179 C 
ATOM     32  C   UNL     1     -40.865   2.794  83.249  1.00  0.00     0.177 C 
BRANCH  28  33
ATOM     33  O   UNL     1     -40.626   5.654  84.036  1.00  0.00    -0.384 OA
ATOM     34  H   UNL     1     -41.397   6.087  83.585  1.00  0.00     0.211 HD
ENDBRANCH  28  33
BRANCH  30  35
ATOM     35  O   UNL     1     -41.829   4.490  81.832  1.00  0.00    -0.387 OA
ATOM     36  H   UNL     1     -41.742   4.603  80.851  1.00  0.00     0.211 HD
ENDBRANCH  30  35
BRANCH  31  37
ATOM     37  C   UNL     1     -38.664   1.352  83.233  1.00  0.00     0.191 C 
BRANCH  37  38
ATOM     38  O   UNL     1     -39.203   0.060  83.209  1.00  0.00    -0.394 OA
ATOM     39  H   UNL     1     -39.812   0.028  82.427  1.00  0.00     0.210 HD
ENDBRANCH  37  38
ENDBRANCH  31  37
BRANCH  32  40
ATOM     40  O   UNL     1     -41.428   1.723  82.537  1.00  0.00    -0.387 OA
ATOM     41  H   UNL     1     -41.873   2.114  81.740  1.00  0.00     0.211 HD
ENDBRANCH  32  40
ENDBRANCH   1  27
TORSDOF 12
ENDMDL
MODEL 5
REMARK VINA RESULT:    -6.426     10.017     13.110
REMARK INTER + INTRA:         -10.716
REMARK INTER:                  -9.581
REMARK INTRA:                  -1.135
REMARK UNBOUND:                -1.284
REMARK SMILES O=c1c(O[C@@H]2O[C@H](CO)[C@H](O)[C@@H](O)[C@H]2O)c(-c2ccc(O)c(O)c2)oc2cc(O)cc(O)c12
REMARK SMILES IDX 4 1 3 2 16 3 25 4 2 5 26 6 1 7 33 8 27 9 31 10 28 11 30 12
REMARK SMILES IDX 17 13 18 14 19 15 20 16 24 17 22 18 21 19 23 21 32 23 29 25
REMARK SMILES IDX 5 27 14 28 6 29 12 30 7 31 10 32 15 33 13 35 8 37 9 38 11 40
REMARK H PARENT 21 20 23 22 32 24 29 26 15 34 13 36 9 39 11 41
REMARK Flexibility Score: inf
ROOT
ATOM      1  O   UNL     1     -39.143  -6.601  81.386  1.00  0.00    -0.454 OA
ENDROOT
BRANCH   1   2
ATOM      2  C   UNL     1     -39.503  -5.363  81.931  1.00  0.00     0.214 A 
ATOM      3  C   UNL     1     -40.814  -4.862  81.811  1.00  0.00     0.180 A 
ATOM      4  O   UNL     1     -41.091  -3.640  82.248  1.00  0.00    -0.452 OA
ATOM      5  C   UNL     1     -38.539  -4.593  82.593  1.00  0.00     0.239 A 
ATOM      6  C   UNL     1     -40.203  -2.862  82.857  1.00  0.00     0.146 A 
ATOM      7  O   UNL     1     -37.365  -5.041  82.670  1.00  0.00    -0.285 OA
ATOM      8  C   UNL     1     -38.884  -3.323  83.108  1.00  0.00     0.111 A 
ATOM      9  C   UNL     1     -40.593  -1.580  83.247  1.00  0.00     0.094 A 
ATOM     10  C   UNL     1     -37.988  -2.468  83.816  1.00  0.00     0.134 A 
ATOM     11  C   UNL     1     -39.692  -0.729  83.881  1.00  0.00     0.123 A 
ATOM     12  C   UNL     1     -38.397  -1.174  84.161  1.00  0.00     0.093 A 
BRANCH   3  13
ATOM     13  C   UNL     1     -41.906  -5.656  81.206  1.00  0.00     0.025 A 
ATOM     14  C   UNL     1     -42.799  -6.392  82.004  1.00  0.00     0.016 A 
ATOM     15  C   UNL     1     -43.826  -7.134  81.415  1.00  0.00     0.051 A 
ATOM     16  C   UNL     1     -43.986  -7.142  80.027  1.00  0.00     0.157 A 
ATOM     17  C   UNL     1     -42.083  -5.648  79.814  1.00  0.00     0.062 A 
ATOM     18  C   UNL     1     -43.111  -6.394  79.220  1.00  0.00     0.158 A 
BRANCH  16  19
ATOM     19  O   UNL     1     -45.016  -7.896  79.467  1.00  0.00    -0.504 OA
ATOM     20  H   UNL     1     -45.859  -8.119  79.982  1.00  0.00     0.293 HD
ENDBRANCH  16  19
BRANCH  18  21
ATOM     21  O   UNL     1     -43.263  -6.397  77.835  1.00  0.00    -0.504 OA
ATOM     22  H   UNL     1     -43.908  -5.768  77.370  1.00  0.00     0.293 HD
ENDBRANCH  18  21
ENDBRANCH   3  13
BRANCH  10  23
ATOM     23  O   UNL     1     -36.710  -2.851  84.226  1.00  0.00    -0.507 OA
ATOM     24  H   UNL     1     -36.079  -3.415  83.679  1.00  0.00     0.293 HD
ENDBRANCH  10  23
BRANCH  11  25
ATOM     25  O   UNL     1     -40.096   0.554  84.242  1.00  0.00    -0.508 OA
ATOM     26  H   UNL     1     -41.013   0.910  83.994  1.00  0.00     0.293 HD
ENDBRANCH  11  25
ENDBRANCH   1   2
BRANCH   1  27
ATOM     27  C   UNL     1     -39.612  -7.842  81.917  1.00  0.00     0.339 C 
ATOM     28  C   UNL     1     -40.193  -8.737  80.811  1.00  0.00     0.214 C 
ATOM     29  O   UNL     1     -38.594  -8.491  82.665  1.00  0.00    -0.332 OA
ATOM     30  C   UNL     1     -39.076  -9.198  79.866  1.00  0.00     0.180 C 
ATOM     31  C   UNL     1     -37.507  -8.975  81.882  1.00  0.00     0.179 C 
ATOM     32  C   UNL     1     -37.946  -9.852  80.675  1.00  0.00     0.177 C 
BRANCH  28  33
ATOM     33  O   UNL     1     -40.833  -9.840  81.400  1.00  0.00    -0.384 OA
ATOM     34  H   UNL     1     -40.832  -9.689  82.380  1.00  0.00     0.211 HD
ENDBRANCH  28  33
BRANCH  30  35
ATOM     35  O   UNL     1     -39.599 -10.115  78.938  1.00  0.00    -0.387 OA
ATOM     36  H   UNL     1     -38.829 -10.595  78.537  1.00  0.00     0.211 HD
ENDBRANCH  30  35
BRANCH  31  37
ATOM     37  C   UNL     1     -36.460  -7.878  81.579  1.00  0.00     0.191 C 
BRANCH  37  38
ATOM     38  O   UNL     1     -35.152  -8.322  81.800  1.00  0.00    -0.394 OA
ATOM     39  H   UNL     1     -35.139  -8.706  82.715  1.00  0.00     0.210 HD
ENDBRANCH  37  38
ENDBRANCH  31  37
BRANCH  32  40
ATOM     40  O   UNL     1     -36.857 -10.125  79.831  1.00  0.00    -0.387 OA
ATOM     41  H   UNL     1     -36.115 -10.433  80.415  1.00  0.00     0.211 HD
ENDBRANCH  32  40
ENDBRANCH   1  27
TORSDOF 12
ENDMDL
MODEL 6
REMARK VINA RESULT:    -6.344      2.176      7.505
REMARK INTER + INTRA:         -10.595
REMARK INTER:                  -8.851
REMARK INTRA:                  -1.744
REMARK UNBOUND:                -1.284
REMARK SMILES O=c1c(O[C@@H]2O[C@H](CO)[C@H](O)[C@@H](O)[C@H]2O)c(-c2ccc(O)c(O)c2)oc2cc(O)cc(O)c12
REMARK SMILES IDX 4 1 3 2 16 3 25 4 2 5 26 6 1 7 33 8 27 9 31 10 28 11 30 12
REMARK SMILES IDX 17 13 18 14 19 15 20 16 24 17 22 18 21 19 23 21 32 23 29 25
REMARK SMILES IDX 5 27 14 28 6 29 12 30 7 31 10 32 15 33 13 35 8 37 9 38 11 40
REMARK H PARENT 21 20 23 22 32 24 29 26 15 34 13 36 9 39 11 41
REMARK Flexibility Score: inf
ROOT
ATOM      1  O   UNL     1     -37.623   5.928  80.008  1.00  0.00    -0.454 OA
ENDROOT
BRANCH   1   2
ATOM      2  C   UNL     1     -36.412   6.375  80.554  1.00  0.00     0.214 A 
ATOM      3  C   UNL     1     -36.038   6.052  81.872  1.00  0.00     0.180 A 
ATOM      4  O   UNL     1     -34.936   6.579  82.388  1.00  0.00    -0.452 OA
ATOM      5  C   UNL     1     -35.564   7.178  79.782  1.00  0.00     0.239 A 
ATOM      6  C   UNL     1     -34.113   7.369  81.705  1.00  0.00     0.146 A 
ATOM      7  O   UNL     1     -35.923   7.482  78.615  1.00  0.00    -0.285 OA
ATOM      8  C   UNL     1     -34.361   7.669  80.340  1.00  0.00     0.111 A 
ATOM      9  C   UNL     1     -32.998   7.897  82.358  1.00  0.00     0.094 A 
ATOM     10  C   UNL     1     -33.415   8.475  79.639  1.00  0.00     0.134 A 
ATOM     11  C   UNL     1     -32.114   8.734  81.681  1.00  0.00     0.123 A 
ATOM     12  C   UNL     1     -32.327   9.021  80.330  1.00  0.00     0.093 A 
BRANCH   3  13
ATOM     13  C   UNL     1     -36.839   5.136  82.714  1.00  0.00     0.025 A 
ATOM     14  C   UNL     1     -36.395   3.832  82.998  1.00  0.00     0.016 A 
ATOM     15  C   UNL     1     -37.163   2.982  83.796  1.00  0.00     0.051 A 
ATOM     16  C   UNL     1     -38.376   3.423  84.335  1.00  0.00     0.157 A 
ATOM     17  C   UNL     1     -38.046   5.582  83.275  1.00  0.00     0.062 A 
ATOM     18  C   UNL     1     -38.820   4.730  84.075  1.00  0.00     0.158 A 
BRANCH  16  19
ATOM     19  O   UNL     1     -39.124   2.550  85.124  1.00  0.00    -0.504 OA
ATOM     20  H   UNL     1     -40.118   2.676  85.269  1.00  0.00     0.293 HD
ENDBRANCH  16  19
BRANCH  18  21
ATOM     21  O   UNL     1     -40.027   5.177  84.608  1.00  0.00    -0.504 OA
ATOM     22  H   UNL     1     -40.063   5.925  85.290  1.00  0.00     0.293 HD
ENDBRANCH  18  21
ENDBRANCH   3  13
BRANCH  10  23
ATOM     23  O   UNL     1     -33.485   8.740  78.270  1.00  0.00    -0.507 OA
ATOM     24  H   UNL     1     -34.026   8.203  77.611  1.00  0.00     0.293 HD
ENDBRANCH  10  23
BRANCH  11  25
ATOM     25  O   UNL     1     -31.020   9.268  82.357  1.00  0.00    -0.508 OA
ATOM     26  H   UNL     1     -30.898   9.135  83.355  1.00  0.00     0.293 HD
ENDBRANCH  11  25
ENDBRANCH   1   2
BRANCH   1  27
ATOM     27  C   UNL     1     -37.730   4.710  79.268  1.00  0.00     0.339 C 
ATOM     28  C   UNL     1     -38.500   3.643  80.061  1.00  0.00     0.214 C 
ATOM     29  O   UNL     1     -38.289   4.945  77.984  1.00  0.00    -0.332 OA
ATOM     30  C   UNL     1     -39.970   4.054  80.209  1.00  0.00     0.180 C 
ATOM     31  C   UNL     1     -39.663   5.322  78.001  1.00  0.00     0.179 C 
ATOM     32  C   UNL     1     -40.566   4.363  78.828  1.00  0.00     0.177 C 
BRANCH  28  33
ATOM     33  O   UNL     1     -38.394   2.409  79.396  1.00  0.00    -0.384 OA
ATOM     34  H   UNL     1     -37.538   1.997  79.682  1.00  0.00     0.211 HD
ENDBRANCH  28  33
BRANCH  30  35
ATOM     35  O   UNL     1     -40.687   3.014  80.822  1.00  0.00    -0.387 OA
ATOM     36  H   UNL     1     -40.266   2.850  81.705  1.00  0.00     0.211 HD
ENDBRANCH  30  35
BRANCH  31  37
ATOM     37  C   UNL     1     -39.858   6.834  78.264  1.00  0.00     0.191 C 
BRANCH  37  38
ATOM     38  O   UNL     1     -38.786   7.595  77.785  1.00  0.00    -0.394 OA
ATOM     39  H   UNL     1     -38.168   6.958  77.343  1.00  0.00     0.210 HD
ENDBRANCH  37  38
ENDBRANCH  31  37
BRANCH  32  40
ATOM     40  O   UNL     1     -41.856   4.895  78.977  1.00  0.00    -0.387 OA
ATOM     41  H   UNL     1     -42.217   4.533  79.828  1.00  0.00     0.211 HD
ENDBRANCH  32  40
ENDBRANCH   1  27
TORSDOF 12
ENDMDL
MODEL 7
REMARK VINA RESULT:    -6.296      2.523      4.938
REMARK INTER + INTRA:         -10.525
REMARK INTER:                  -9.030
REMARK INTRA:                  -1.495
REMARK UNBOUND:                -1.284
REMARK SMILES O=c1c(O[C@@H]2O[C@H](CO)[C@H](O)[C@@H](O)[C@H]2O)c(-c2ccc(O)c(O)c2)oc2cc(O)cc(O)c12
REMARK SMILES IDX 4 1 3 2 16 3 25 4 2 5 26 6 1 7 33 8 27 9 31 10 28 11 30 12
REMARK SMILES IDX 17 13 18 14 19 15 20 16 24 17 22 18 21 19 23 21 32 23 29 25
REMARK SMILES IDX 5 27 14 28 6 29 12 30 7 31 10 32 15 33 13 35 8 37 9 38 11 40
REMARK H PARENT 21 20 23 22 32 24 29 26 15 34 13 36 9 39 11 41
REMARK Flexibility Score: inf
ROOT
ATOM      1  O   UNL     1     -38.638   6.259  79.533  1.00  0.00    -0.454 OA
ENDROOT
BRANCH   1   2
ATOM      2  C   UNL     1     -38.596   5.221  80.473  1.00  0.00     0.214 A 
ATOM      3  C   UNL     1     -37.376   4.649  80.880  1.00  0.00     0.180 A 
ATOM      4  O   UNL     1     -37.383   3.599  81.691  1.00  0.00    -0.452 OA
ATOM      5  C   UNL     1     -39.792   4.725  81.005  1.00  0.00     0.239 A 
ATOM      6  C   UNL     1     -38.494   3.076  82.201  1.00  0.00     0.146 A 
ATOM      7  O   UNL     1     -40.878   5.228  80.613  1.00  0.00    -0.285 OA
ATOM      8  C   UNL     1     -39.762   3.649  81.921  1.00  0.00     0.111 A 
ATOM      9  C   UNL     1     -38.388   1.949  83.019  1.00  0.00     0.094 A 
ATOM     10  C   UNL     1     -40.915   3.082  82.540  1.00  0.00     0.134 A 
ATOM     11  C   UNL     1     -39.527   1.365  83.567  1.00  0.00     0.123 A 
ATOM     12  C   UNL     1     -40.782   1.930  83.325  1.00  0.00     0.093 A 
BRANCH   3  13
ATOM     13  C   UNL     1     -36.070   5.180  80.430  1.00  0.00     0.025 A 
ATOM     14  C   UNL     1     -35.571   4.893  79.148  1.00  0.00     0.016 A 
ATOM     15  C   UNL     1     -34.337   5.404  78.739  1.00  0.00     0.051 A 
ATOM     16  C   UNL     1     -33.592   6.220  79.596  1.00  0.00     0.157 A 
ATOM     17  C   UNL     1     -35.330   6.017  81.279  1.00  0.00     0.062 A 
ATOM     18  C   UNL     1     -34.090   6.530  80.872  1.00  0.00     0.158 A 
BRANCH  16  19
ATOM     19  O   UNL     1     -32.361   6.712  79.163  1.00  0.00    -0.504 OA
ATOM     20  H   UNL     1     -32.096   6.711  78.185  1.00  0.00     0.293 HD
ENDBRANCH  16  19
BRANCH  18  21
ATOM     21  O   UNL     1     -33.354   7.342  81.732  1.00  0.00    -0.504 OA
ATOM     22  H   UNL     1     -32.684   8.017  81.383  1.00  0.00     0.293 HD
ENDBRANCH  18  21
ENDBRANCH   3  13
BRANCH  10  23
ATOM     23  O   UNL     1     -42.197   3.626  82.440  1.00  0.00    -0.507 OA
ATOM     24  H   UNL     1     -42.801   3.813  83.224  1.00  0.00     0.293 HD
ENDBRANCH  10  23
BRANCH  11  25
ATOM     25  O   UNL     1     -39.400   0.228  84.362  1.00  0.00    -0.508 OA
ATOM     26  H   UNL     1     -38.492  -0.165  84.582  1.00  0.00     0.293 HD
ENDBRANCH  11  25
ENDBRANCH   1   2
BRANCH   1  27
ATOM     27  C   UNL     1     -38.920   7.613  79.893  1.00  0.00     0.339 C 
ATOM     28  C   UNL     1     -37.628   8.387  80.200  1.00  0.00     0.214 C 
ATOM     29  O   UNL     1     -39.713   8.248  78.901  1.00  0.00    -0.332 OA
ATOM     30  C   UNL     1     -36.804   8.565  78.919  1.00  0.00     0.180 C 
ATOM     31  C   UNL     1     -39.039   8.476  77.667  1.00  0.00     0.179 C 
ATOM     32  C   UNL     1     -37.672   9.200  77.824  1.00  0.00     0.177 C 
BRANCH  28  33
ATOM     33  O   UNL     1     -37.959   9.635  80.755  1.00  0.00    -0.384 OA
ATOM     34  H   UNL     1     -38.840   9.531  81.200  1.00  0.00     0.211 HD
ENDBRANCH  28  33
BRANCH  30  35
ATOM     35  O   UNL     1     -35.692   9.381  79.189  1.00  0.00    -0.387 OA
ATOM     36  H   UNL     1     -35.195   8.960  79.936  1.00  0.00     0.211 HD
ENDBRANCH  30  35
BRANCH  31  37
ATOM     37  C   UNL     1     -39.047   7.231  76.749  1.00  0.00     0.191 C 
BRANCH  37  38
ATOM     38  O   UNL     1     -39.056   7.577  75.393  1.00  0.00    -0.394 OA
ATOM     39  H   UNL     1     -40.010   7.681  75.139  1.00  0.00     0.210 HD
ENDBRANCH  37  38
ENDBRANCH  31  37
BRANCH  32  40
ATOM     40  O   UNL     1     -36.969   9.212  76.609  1.00  0.00    -0.387 OA
ATOM     41  H   UNL     1     -36.039   8.933  76.815  1.00  0.00     0.211 HD
ENDBRANCH  32  40
ENDBRANCH   1  27
TORSDOF 12
ENDMDL
MODEL 8
REMARK VINA RESULT:    -6.294      1.765      6.374
REMARK INTER + INTRA:         -10.522
REMARK INTER:                  -9.886
REMARK INTRA:                  -0.636
REMARK UNBOUND:                -1.284
REMARK SMILES O=c1c(O[C@@H]2O[C@H](CO)[C@H](O)[C@@H](O)[C@H]2O)c(-c2ccc(O)c(O)c2)oc2cc(O)cc(O)c12
REMARK SMILES IDX 4 1 3 2 16 3 25 4 2 5 26 6 1 7 33 8 27 9 31 10 28 11 30 12
REMARK SMILES IDX 17 13 18 14 19 15 20 16 24 17 22 18 21 19 23 21 32 23 29 25
REMARK SMILES IDX 5 27 14 28 6 29 12 30 7 31 10 32 15 33 13 35 8 37 9 38 11 40
REMARK H PARENT 21 20 23 22 32 24 29 26 15 34 13 36 9 39 11 41
REMARK Flexibility Score: inf
ROOT
ATOM      1  O   UNL     1     -37.289   3.745  81.826  1.00  0.00    -0.454 OA
ENDROOT
BRANCH   1   2
ATOM      2  C   UNL     1     -36.854   4.608  80.812  1.00  0.00     0.214 A 
ATOM      3  C   UNL     1     -37.644   4.859  79.675  1.00  0.00     0.180 A 
ATOM      4  O   UNL     1     -37.155   5.598  78.687  1.00  0.00    -0.452 OA
ATOM      5  C   UNL     1     -35.598   5.218  80.918  1.00  0.00     0.239 A 
ATOM      6  C   UNL     1     -35.958   6.175  78.729  1.00  0.00     0.146 A 
ATOM      7  O   UNL     1     -34.891   4.964  81.928  1.00  0.00    -0.285 OA
ATOM      8  C   UNL     1     -35.133   6.055  79.878  1.00  0.00     0.111 A 
ATOM      9  C   UNL     1     -35.528   6.904  77.619  1.00  0.00     0.094 A 
ATOM     10  C   UNL     1     -33.884   6.743  79.892  1.00  0.00     0.134 A 
ATOM     11  C   UNL     1     -34.278   7.519  77.618  1.00  0.00     0.123 A 
ATOM     12  C   UNL     1     -33.463   7.434  78.750  1.00  0.00     0.093 A 
BRANCH   3  13
ATOM     13  C   UNL     1     -39.016   4.322  79.536  1.00  0.00     0.025 A 
ATOM     14  C   UNL     1     -39.403   3.598  78.396  1.00  0.00     0.016 A 
ATOM     15  C   UNL     1     -40.702   3.097  78.283  1.00  0.00     0.051 A 
ATOM     16  C   UNL     1     -41.628   3.298  79.311  1.00  0.00     0.157 A 
ATOM     17  C   UNL     1     -39.941   4.503  80.576  1.00  0.00     0.062 A 
ATOM     18  C   UNL     1     -41.247   4.003  80.465  1.00  0.00     0.158 A 
BRANCH  16  19
ATOM     19  O   UNL     1     -42.919   2.791  79.169  1.00  0.00    -0.504 OA
ATOM     20  H   UNL     1     -43.459   2.926  78.323  1.00  0.00     0.293 HD
ENDBRANCH  16  19
BRANCH  18  21
ATOM     21  O   UNL     1     -42.164   4.208  81.494  1.00  0.00    -0.504 OA
ATOM     22  H   UNL     1     -42.805   3.481  81.786  1.00  0.00     0.293 HD
ENDBRANCH  18  21
ENDBRANCH   3  13
BRANCH  10  23
ATOM     23  O   UNL     1     -33.041   6.800  81.004  1.00  0.00    -0.507 OA
ATOM     24  H   UNL     1     -32.211   7.367  81.063  1.00  0.00     0.293 HD
ENDBRANCH  10  23
BRANCH  11  25
ATOM     25  O   UNL     1     -33.860   8.222  76.491  1.00  0.00    -0.508 OA
ATOM     26  H   UNL     1     -32.882   8.269  76.229  1.00  0.00     0.293 HD
ENDBRANCH  11  25
ENDBRANCH   1   2
BRANCH   1  27
ATOM     27  C   UNL     1     -37.049   4.004  83.212  1.00  0.00     0.339 C 
ATOM     28  C   UNL     1     -37.773   5.278  83.673  1.00  0.00     0.214 C 
ATOM     29  O   UNL     1     -37.379   2.872  84.004  1.00  0.00    -0.332 OA
ATOM     30  C   UNL     1     -39.291   5.059  83.650  1.00  0.00     0.180 C 
ATOM     31  C   UNL     1     -38.772   2.583  84.064  1.00  0.00     0.179 C 
ATOM     32  C   UNL     1     -39.649   3.805  84.459  1.00  0.00     0.177 C 
BRANCH  28  33
ATOM     33  O   UNL     1     -37.339   5.612  84.967  1.00  0.00    -0.384 OA
ATOM     34  H   UNL     1     -36.598   4.993  85.195  1.00  0.00     0.211 HD
ENDBRANCH  28  33
BRANCH  30  35
ATOM     35  O   UNL     1     -39.934   6.184  84.193  1.00  0.00    -0.387 OA
ATOM     36  H   UNL     1     -40.819   5.884  84.524  1.00  0.00     0.211 HD
ENDBRANCH  30  35
BRANCH  31  37
ATOM     37  C   UNL     1     -39.260   1.761  82.848  1.00  0.00     0.191 C 
BRANCH  37  38
ATOM     38  O   UNL     1     -40.211   0.800  83.208  1.00  0.00    -0.394 OA
ATOM     39  H   UNL     1     -40.078   0.033  82.592  1.00  0.00     0.210 HD
ENDBRANCH  37  38
ENDBRANCH  31  37
BRANCH  32  40
ATOM     40  O   UNL     1     -41.014   3.513  84.302  1.00  0.00    -0.387 OA
ATOM     41  H   UNL     1     -41.132   3.198  83.368  1.00  0.00     0.211 HD
ENDBRANCH  32  40
ENDBRANCH   1  27
TORSDOF 12
ENDMDL
MODEL 9
REMARK VINA RESULT:    -6.278      2.346      6.609
REMARK INTER + INTRA:         -10.498
REMARK INTER:                  -9.146
REMARK INTRA:                  -1.352
REMARK UNBOUND:                -1.284
REMARK SMILES O=c1c(O[C@@H]2O[C@H](CO)[C@H](O)[C@@H](O)[C@H]2O)c(-c2ccc(O)c(O)c2)oc2cc(O)cc(O)c12
REMARK SMILES IDX 4 1 3 2 16 3 25 4 2 5 26 6 1 7 33 8 27 9 31 10 28 11 30 12
REMARK SMILES IDX 17 13 18 14 19 15 20 16 24 17 22 18 21 19 23 21 32 23 29 25
REMARK SMILES IDX 5 27 14 28 6 29 12 30 7 31 10 32 15 33 13 35 8 37 9 38 11 40
REMARK H PARENT 21 20 23 22 32 24 29 26 15 34 13 36 9 39 11 41
REMARK Flexibility Score: inf
ROOT
ATOM      1  O   UNL     1     -38.471   5.355  81.092  1.00  0.00    -0.454 OA
ENDROOT
BRANCH   1   2
ATOM      2  C   UNL     1     -37.289   6.071  81.322  1.00  0.00     0.214 A 
ATOM      3  C   UNL     1     -36.755   6.937  80.349  1.00  0.00     0.180 A 
ATOM      4  O   UNL     1     -35.580   7.516  80.561  1.00  0.00    -0.452 OA
ATOM      5  C   UNL     1     -36.610   5.909  82.535  1.00  0.00     0.239 A 
ATOM      6  C   UNL     1     -34.885   7.371  81.685  1.00  0.00     0.146 A 
ATOM      7  O   UNL     1     -37.084   5.111  83.386  1.00  0.00    -0.285 OA
ATOM      8  C   UNL     1     -35.394   6.594  82.758  1.00  0.00     0.111 A 
ATOM      9  C   UNL     1     -33.643   8.000  81.789  1.00  0.00     0.094 A 
ATOM     10  C   UNL     1     -34.633   6.519  83.963  1.00  0.00     0.134 A 
ATOM     11  C   UNL     1     -32.880   7.868  82.946  1.00  0.00     0.123 A 
ATOM     12  C   UNL     1     -33.374   7.129  84.024  1.00  0.00     0.093 A 
BRANCH   3  13
ATOM     13  C   UNL     1     -37.462   7.227  79.082  1.00  0.00     0.025 A 
ATOM     14  C   UNL     1     -37.235   6.457  77.928  1.00  0.00     0.016 A 
ATOM     15  C   UNL     1     -37.914   6.745  76.742  1.00  0.00     0.051 A 
ATOM     16  C   UNL     1     -38.837   7.793  76.692  1.00  0.00     0.157 A 
ATOM     17  C   UNL     1     -38.407   8.264  79.035  1.00  0.00     0.062 A 
ATOM     18  C   UNL     1     -39.087   8.557  77.844  1.00  0.00     0.158 A 
BRANCH  16  19
ATOM     19  O   UNL     1     -39.495   8.060  75.492  1.00  0.00    -0.504 OA
ATOM     20  H   UNL     1     -39.020   8.474  74.699  1.00  0.00     0.293 HD
ENDBRANCH  16  19
BRANCH  18  21
ATOM     21  O   UNL     1     -40.006   9.604  77.803  1.00  0.00    -0.504 OA
ATOM     22  H   UNL     1     -40.664   9.763  78.557  1.00  0.00     0.293 HD
ENDBRANCH  18  21
ENDBRANCH   3  13
BRANCH  10  23
ATOM     23  O   UNL     1     -35.080   5.887  85.125  1.00  0.00    -0.507 OA
ATOM     24  H   UNL     1     -35.939   6.111  85.603  1.00  0.00     0.293 HD
ENDBRANCH  10  23
BRANCH  11  25
ATOM     25  O   UNL     1     -31.634   8.486  83.020  1.00  0.00    -0.508 OA
ATOM     26  H   UNL     1     -30.792   8.020  82.700  1.00  0.00     0.293 HD
ENDBRANCH  11  25
ENDBRANCH   1   2
BRANCH   1  27
ATOM     27  C   UNL     1     -38.500   3.929  80.999  1.00  0.00     0.339 C 
ATOM     28  C   UNL     1     -39.345   3.316  82.128  1.00  0.00     0.214 C 
ATOM     29  O   UNL     1     -38.928   3.512  79.711  1.00  0.00    -0.332 OA
ATOM     30  C   UNL     1     -40.823   3.677  81.936  1.00  0.00     0.180 C 
ATOM     31  C   UNL     1     -40.297   3.787  79.428  1.00  0.00     0.179 C 
ATOM     32  C   UNL     1     -41.277   3.280  80.524  1.00  0.00     0.177 C 
BRANCH  28  33
ATOM     33  O   UNL     1     -39.170   1.922  82.129  1.00  0.00    -0.384 OA
ATOM     34  H   UNL     1     -39.829   1.546  82.769  1.00  0.00     0.211 HD
ENDBRANCH  28  33
BRANCH  30  35
ATOM     35  O   UNL     1     -41.596   3.008  82.898  1.00  0.00    -0.387 OA
ATOM     36  H   UNL     1     -42.524   2.966  82.550  1.00  0.00     0.211 HD
ENDBRANCH  30  35
BRANCH  31  37
ATOM     37  C   UNL     1     -40.520   5.236  78.936  1.00  0.00     0.191 C 
BRANCH  37  38
ATOM     38  O   UNL     1     -41.000   6.070  79.952  1.00  0.00    -0.394 OA
ATOM     39  H   UNL     1     -41.569   5.502  80.533  1.00  0.00     0.210 HD
ENDBRANCH  37  38
ENDBRANCH  31  37
BRANCH  32  40
ATOM     40  O   UNL     1     -42.577   3.757  80.292  1.00  0.00    -0.387 OA
ATOM     41  H   UNL     1     -42.499   4.483  79.620  1.00  0.00     0.211 HD
ENDBRANCH  32  40
ENDBRANCH   1  27
TORSDOF 12
ENDMDL
