MODEL 1
REMARK VINA RESULT:    -6.986      0.000      0.000
REMARK INTER + INTRA:          -8.549
REMARK INTER:                  -8.415
REMARK INTRA:                  -0.134
REMARK UNBOUND:                -0.134
REMARK SMILES O=c1c(O)c(-c2ccc(O)cc2O)oc2cc(O)cc(O)c12
REMARK SMILES IDX 5 1 3 2 2 3 1 4 22 5 20 6 19 7 17 8 16 9 15 10 14 11 6 12
REMARK SMILES IDX 8 13 7 14 9 15 11 16 12 17 10 18 13 20 4 22 21 24 18 26
REMARK H PARENT 10 19 13 21 4 23 21 25 18 27
REMARK Flexibility Score: inf
ROOT
ATOM      1  C   UNL     1      16.912  -1.659  10.140  1.00  0.00     0.184 A 
ATOM      2  C   UNL     1      15.631  -1.445  10.670  1.00  0.00     0.208 A 
ATOM      3  C   UNL     1      14.511  -1.645   9.849  1.00  0.00     0.238 A 
ATOM      4  O   UNL     1      13.368  -1.400  10.315  1.00  0.00    -0.285 OA
ATOM      5  C   UNL     1      14.688  -2.075   8.512  1.00  0.00     0.111 A 
ATOM      6  C   UNL     1      13.623  -2.349   7.601  1.00  0.00     0.134 A 
ATOM      7  C   UNL     1      13.916  -2.643   6.263  1.00  0.00     0.093 A 
ATOM      8  C   UNL     1      15.235  -2.737   5.819  1.00  0.00     0.123 A 
ATOM      9  C   UNL     1      16.284  -2.529   6.715  1.00  0.00     0.094 A 
ATOM     10  C   UNL     1      16.023  -2.198   8.046  1.00  0.00     0.146 A 
ATOM     11  O   UNL     1      17.051  -1.997   8.864  1.00  0.00    -0.451 OA
ENDROOT
BRANCH   1  12
ATOM     12  C   UNL     1      18.131  -1.481  10.956  1.00  0.00     0.063 A 
ATOM     13  C   UNL     1      20.303  -0.427  11.241  1.00  0.00     0.047 A 
ATOM     14  C   UNL     1      19.136  -0.615  10.497  1.00  0.00     0.020 A 
ATOM     15  C   UNL     1      20.488  -1.116  12.447  1.00  0.00     0.119 A 
ATOM     16  C   UNL     1      19.502  -1.998  12.898  1.00  0.00     0.093 A 
ATOM     17  C   UNL     1      18.330  -2.196  12.155  1.00  0.00     0.130 A 
BRANCH  15  18
ATOM     18  O   UNL     1      21.646  -0.935  13.198  1.00  0.00    -0.508 OA
ATOM     19  H   UNL     1      22.280  -0.164  13.018  1.00  0.00     0.293 HD
ENDBRANCH  15  18
BRANCH  17  20
ATOM     20  O   UNL     1      17.377  -3.116  12.593  1.00  0.00    -0.507 OA
ATOM     21  H   UNL     1      16.726  -3.553  11.951  1.00  0.00     0.293 HD
ENDBRANCH  17  20
ENDBRANCH   1  12
BRANCH   2  22
ATOM     22  O   UNL     1      15.485  -1.002  11.989  1.00  0.00    -0.502 OA
ATOM     23  H   UNL     1      16.102  -0.314  12.402  1.00  0.00     0.293 HD
ENDBRANCH   2  22
BRANCH   6  24
ATOM     24  O   UNL     1      12.273  -2.374   7.963  1.00  0.00    -0.507 OA
ATOM     25  H   UNL     1      11.563  -2.921   7.497  1.00  0.00     0.293 HD
ENDBRANCH   6  24
BRANCH   8  26
ATOM     26  O   UNL     1      15.489  -3.047   4.485  1.00  0.00    -0.508 OA
ATOM     27  H   UNL     1      14.910  -3.703   3.973  1.00  0.00     0.293 HD
ENDBRANCH   8  26
TORSDOF 6
ENDMDL
MODEL 2
REMARK VINA RESULT:    -6.809      1.632      6.777
REMARK INTER + INTRA:          -8.336
REMARK INTER:                  -8.000
REMARK INTRA:                  -0.335
REMARK UNBOUND:                -0.134
REMARK SMILES O=c1c(O)c(-c2ccc(O)cc2O)oc2cc(O)cc(O)c12
REMARK SMILES IDX 5 1 3 2 2 3 1 4 22 5 20 6 19 7 17 8 16 9 15 10 14 11 6 12
REMARK SMILES IDX 8 13 7 14 9 15 11 16 12 17 10 18 13 20 4 22 21 24 18 26
REMARK H PARENT 10 19 13 21 4 23 21 25 18 27
REMARK Flexibility Score: inf
ROOT
ATOM      1  C   UNL     1      17.522  -1.478  10.671  1.00  0.00     0.184 A 
ATOM      2  C   UNL     1      17.495  -2.022  11.964  1.00  0.00     0.208 A 
ATOM      3  C   UNL     1      18.440  -1.586  12.906  1.00  0.00     0.238 A 
ATOM      4  O   UNL     1      18.444  -2.117  14.048  1.00  0.00    -0.285 OA
ATOM      5  C   UNL     1      19.388  -0.599  12.546  1.00  0.00     0.111 A 
ATOM      6  C   UNL     1      20.367  -0.054  13.432  1.00  0.00     0.134 A 
ATOM      7  C   UNL     1      21.338   0.823  12.933  1.00  0.00     0.093 A 
ATOM      8  C   UNL     1      21.327   1.225  11.598  1.00  0.00     0.123 A 
ATOM      9  C   UNL     1      20.340   0.744  10.737  1.00  0.00     0.094 A 
ATOM     10  C   UNL     1      19.380  -0.160  11.196  1.00  0.00     0.146 A 
ATOM     11  O   UNL     1      18.464  -0.602  10.342  1.00  0.00    -0.451 OA
ENDROOT
BRANCH   1  12
ATOM     12  C   UNL     1      16.546  -1.881   9.637  1.00  0.00     0.063 A 
ATOM     13  C   UNL     1      16.069  -3.125   7.604  1.00  0.00     0.047 A 
ATOM     14  C   UNL     1      16.965  -2.729   8.600  1.00  0.00     0.020 A 
ATOM     15  C   UNL     1      14.746  -2.666   7.624  1.00  0.00     0.119 A 
ATOM     16  C   UNL     1      14.328  -1.803   8.640  1.00  0.00     0.093 A 
ATOM     17  C   UNL     1      15.222  -1.396   9.641  1.00  0.00     0.130 A 
BRANCH  15  18
ATOM     18  O   UNL     1      13.844  -3.057   6.638  1.00  0.00    -0.508 OA
ATOM     19  H   UNL     1      14.114  -3.109   5.663  1.00  0.00     0.293 HD
ENDBRANCH  15  18
BRANCH  17  20
ATOM     20  O   UNL     1      14.804  -0.495  10.622  1.00  0.00    -0.507 OA
ATOM     21  H   UNL     1      15.377   0.294  10.897  1.00  0.00     0.293 HD
ENDBRANCH  17  20
ENDBRANCH   1  12
BRANCH   2  22
ATOM     22  O   UNL     1      16.560  -3.010  12.288  1.00  0.00    -0.502 OA
ATOM     23  H   UNL     1      15.734  -3.180  11.727  1.00  0.00     0.293 HD
ENDBRANCH   2  22
BRANCH   6  24
ATOM     24  O   UNL     1      20.411  -0.317  14.804  1.00  0.00    -0.507 OA
ATOM     25  H   UNL     1      20.557  -1.230  15.210  1.00  0.00     0.293 HD
ENDBRANCH   6  24
BRANCH   8  26
ATOM     26  O   UNL     1      22.299   2.112  11.140  1.00  0.00    -0.508 OA
ATOM     27  H   UNL     1      23.050   2.433  11.741  1.00  0.00     0.293 HD
ENDBRANCH   8  26
TORSDOF 6
ENDMDL
MODEL 3
REMARK VINA RESULT:    -6.498      4.542      7.741
REMARK INTER + INTRA:          -7.961
REMARK INTER:                  -7.553
REMARK INTRA:                  -0.408
REMARK UNBOUND:                -0.134
REMARK SMILES O=c1c(O)c(-c2ccc(O)cc2O)oc2cc(O)cc(O)c12
REMARK SMILES IDX 5 1 3 2 2 3 1 4 22 5 20 6 19 7 17 8 16 9 15 10 14 11 6 12
REMARK SMILES IDX 8 13 7 14 9 15 11 16 12 17 10 18 13 20 4 22 21 24 18 26
REMARK H PARENT 10 19 13 21 4 23 21 25 18 27
REMARK Flexibility Score: inf
ROOT
ATOM      1  C   UNL     1      17.109  -1.150  14.082  1.00  0.00     0.184 A 
ATOM      2  C   UNL     1      17.698  -2.039  13.171  1.00  0.00     0.208 A 
ATOM      3  C   UNL     1      19.012  -1.800  12.738  1.00  0.00     0.238 A 
ATOM      4  O   UNL     1      19.515  -2.571  11.880  1.00  0.00    -0.285 OA
ATOM      5  C   UNL     1      19.724  -0.683  13.237  1.00  0.00     0.111 A 
ATOM      6  C   UNL     1      21.074  -0.366  12.898  1.00  0.00     0.134 A 
ATOM      7  C   UNL     1      21.635   0.835  13.350  1.00  0.00     0.093 A 
ATOM      8  C   UNL     1      20.920   1.697  14.180  1.00  0.00     0.123 A 
ATOM      9  C   UNL     1      19.619   1.369  14.565  1.00  0.00     0.094 A 
ATOM     10  C   UNL     1      19.019   0.196  14.101  1.00  0.00     0.146 A 
ATOM     11  O   UNL     1      17.776  -0.075  14.482  1.00  0.00    -0.451 OA
ENDROOT
BRANCH   1  12
ATOM     12  C   UNL     1      15.736  -1.354  14.590  1.00  0.00     0.063 A 
ATOM     13  C   UNL     1      14.263  -2.320  16.265  1.00  0.00     0.047 A 
ATOM     14  C   UNL     1      15.548  -2.105  15.761  1.00  0.00     0.020 A 
ATOM     15  C   UNL     1      13.148  -1.800  15.596  1.00  0.00     0.119 A 
ATOM     16  C   UNL     1      13.325  -1.071  14.417  1.00  0.00     0.093 A 
ATOM     17  C   UNL     1      14.611  -0.854  13.901  1.00  0.00     0.130 A 
BRANCH  15  18
ATOM     18  O   UNL     1      11.863  -2.006  16.092  1.00  0.00    -0.508 OA
ATOM     19  H   UNL     1      11.041  -1.828  15.526  1.00  0.00     0.293 HD
ENDBRANCH  15  18
BRANCH  17  20
ATOM     20  O   UNL     1      14.769  -0.167  12.697  1.00  0.00    -0.507 OA
ATOM     21  H   UNL     1      13.977   0.065  12.109  1.00  0.00     0.293 HD
ENDBRANCH  17  20
ENDBRANCH   1  12
BRANCH   2  22
ATOM     22  O   UNL     1      16.965  -3.125  12.679  1.00  0.00    -0.502 OA
ATOM     23  H   UNL     1      17.402  -3.906  12.208  1.00  0.00     0.293 HD
ENDBRANCH   2  22
BRANCH   6  24
ATOM     24  O   UNL     1      21.909  -1.202  12.152  1.00  0.00    -0.507 OA
ATOM     25  H   UNL     1      21.588  -1.876  11.471  1.00  0.00     0.293 HD
ENDBRANCH   6  24
BRANCH   8  26
ATOM     26  O   UNL     1      21.516   2.876  14.623  1.00  0.00    -0.508 OA
ATOM     27  H   UNL     1      21.730   3.634  13.985  1.00  0.00     0.293 HD
ENDBRANCH   8  26
TORSDOF 6
ENDMDL
MODEL 4
REMARK VINA RESULT:    -6.407      1.679      2.486
REMARK INTER + INTRA:          -7.851
REMARK INTER:                  -7.446
REMARK INTRA:                  -0.406
REMARK UNBOUND:                -0.134
REMARK SMILES O=c1c(O)c(-c2ccc(O)cc2O)oc2cc(O)cc(O)c12
REMARK SMILES IDX 5 1 3 2 2 3 1 4 22 5 20 6 19 7 17 8 16 9 15 10 14 11 6 12
REMARK SMILES IDX 8 13 7 14 9 15 11 16 12 17 10 18 13 20 4 22 21 24 18 26
REMARK H PARENT 10 19 13 21 4 23 21 25 18 27
REMARK Flexibility Score: inf
ROOT
ATOM      1  C   UNL     1      18.336  -1.044  11.445  1.00  0.00     0.184 A 
ATOM      2  C   UNL     1      17.300  -1.151  12.384  1.00  0.00     0.208 A 
ATOM      3  C   UNL     1      16.071  -1.699  11.984  1.00  0.00     0.238 A 
ATOM      4  O   UNL     1      15.129  -1.743  12.817  1.00  0.00    -0.285 OA
ATOM      5  C   UNL     1      15.903  -2.150  10.653  1.00  0.00     0.111 A 
ATOM      6  C   UNL     1      14.715  -2.760  10.147  1.00  0.00     0.134 A 
ATOM      7  C   UNL     1      14.614  -3.048   8.781  1.00  0.00     0.093 A 
ATOM      8  C   UNL     1      15.680  -2.810   7.914  1.00  0.00     0.123 A 
ATOM      9  C   UNL     1      16.867  -2.269   8.408  1.00  0.00     0.094 A 
ATOM     10  C   UNL     1      16.985  -1.937   9.759  1.00  0.00     0.146 A 
ATOM     11  O   UNL     1      18.129  -1.413  10.187  1.00  0.00    -0.451 OA
ENDROOT
BRANCH   1  12
ATOM     12  C   UNL     1      19.659  -0.491  11.805  1.00  0.00     0.063 A 
ATOM     13  C   UNL     1      21.113   1.445  12.011  1.00  0.00     0.047 A 
ATOM     14  C   UNL     1      19.874   0.891  11.684  1.00  0.00     0.020 A 
ATOM     15  C   UNL     1      22.159   0.623  12.450  1.00  0.00     0.119 A 
ATOM     16  C   UNL     1      21.960  -0.757  12.551  1.00  0.00     0.093 A 
ATOM     17  C   UNL     1      20.720  -1.322  12.219  1.00  0.00     0.130 A 
BRANCH  15  18
ATOM     18  O   UNL     1      23.397   1.166  12.782  1.00  0.00    -0.508 OA
ATOM     19  H   UNL     1      24.117   0.610  13.231  1.00  0.00     0.293 HD
ENDBRANCH  15  18
BRANCH  17  20
ATOM     20  O   UNL     1      20.550  -2.706  12.278  1.00  0.00    -0.507 OA
ATOM     21  H   UNL     1      21.342  -3.338  12.312  1.00  0.00     0.293 HD
ENDBRANCH  17  20
ENDBRANCH   1  12
BRANCH   2  22
ATOM     22  O   UNL     1      17.487  -0.681  13.688  1.00  0.00    -0.502 OA
ATOM     23  H   UNL     1      17.240  -1.228  14.503  1.00  0.00     0.293 HD
ENDBRANCH   2  22
BRANCH   6  24
ATOM     24  O   UNL     1      13.625  -3.125  10.944  1.00  0.00    -0.507 OA
ATOM     25  H   UNL     1      13.146  -2.505  11.581  1.00  0.00     0.293 HD
ENDBRANCH   6  24
BRANCH   8  26
ATOM     26  O   UNL     1      15.549  -3.124   6.563  1.00  0.00    -0.508 OA
ATOM     27  H   UNL     1      15.878  -4.007   6.190  1.00  0.00     0.293 HD
ENDBRANCH   8  26
TORSDOF 6
ENDMDL
MODEL 5
REMARK VINA RESULT:    -6.387      2.587      3.355
REMARK INTER + INTRA:          -7.828
REMARK INTER:                  -7.587
REMARK INTRA:                  -0.241
REMARK UNBOUND:                -0.134
REMARK SMILES O=c1c(O)c(-c2ccc(O)cc2O)oc2cc(O)cc(O)c12
REMARK SMILES IDX 5 1 3 2 2 3 1 4 22 5 20 6 19 7 17 8 16 9 15 10 14 11 6 12
REMARK SMILES IDX 8 13 7 14 9 15 11 16 12 17 10 18 13 20 4 22 21 24 18 26
REMARK H PARENT 10 19 13 21 4 23 21 25 18 27
REMARK Flexibility Score: inf
ROOT
ATOM      1  C   UNL     1      15.633  -1.422  12.664  1.00  0.00     0.184 A 
ATOM      2  C   UNL     1      14.251  -1.206  12.549  1.00  0.00     0.208 A 
ATOM      3  C   UNL     1      13.641  -1.359  11.294  1.00  0.00     0.238 A 
ATOM      4  O   UNL     1      12.411  -1.111  11.187  1.00  0.00    -0.285 OA
ATOM      5  C   UNL     1      14.418  -1.743  10.176  1.00  0.00     0.111 A 
ATOM      6  C   UNL     1      13.898  -1.967   8.865  1.00  0.00     0.134 A 
ATOM      7  C   UNL     1      14.779  -2.218   7.806  1.00  0.00     0.093 A 
ATOM      8  C   UNL     1      16.153  -2.317   8.020  1.00  0.00     0.123 A 
ATOM      9  C   UNL     1      16.667  -2.158   9.307  1.00  0.00     0.094 A 
ATOM     10  C   UNL     1      15.818  -1.871  10.378  1.00  0.00     0.146 A 
ATOM     11  O   UNL     1      16.348  -1.716  11.585  1.00  0.00    -0.451 OA
ENDROOT
BRANCH   1  12
ATOM     12  C   UNL     1      16.335  -1.293  13.959  1.00  0.00     0.063 A 
ATOM     13  C   UNL     1      17.567  -2.352  15.767  1.00  0.00     0.047 A 
ATOM     14  C   UNL     1      16.901  -2.438  14.542  1.00  0.00     0.020 A 
ATOM     15  C   UNL     1      17.661  -1.123  16.432  1.00  0.00     0.119 A 
ATOM     16  C   UNL     1      17.080   0.016  15.870  1.00  0.00     0.093 A 
ATOM     17  C   UNL     1      16.405  -0.062  14.643  1.00  0.00     0.130 A 
BRANCH  15  18
ATOM     18  O   UNL     1      18.326  -1.026  17.652  1.00  0.00    -0.508 OA
ATOM     19  H   UNL     1      19.247  -1.426  17.788  1.00  0.00     0.293 HD
ENDBRANCH  15  18
BRANCH  17  20
ATOM     20  O   UNL     1      15.787   1.073  14.117  1.00  0.00    -0.507 OA
ATOM     21  H   UNL     1      16.261   1.968  14.081  1.00  0.00     0.293 HD
ENDBRANCH  17  20
ENDBRANCH   1  12
BRANCH   2  22
ATOM     22  O   UNL     1      13.510  -0.809  13.666  1.00  0.00    -0.502 OA
ATOM     23  H   UNL     1      13.904  -0.783  14.598  1.00  0.00     0.293 HD
ENDBRANCH   2  22
BRANCH   6  24
ATOM     24  O   UNL     1      12.534  -1.982   8.559  1.00  0.00    -0.507 OA
ATOM     25  H   UNL     1      11.951  -1.160   8.491  1.00  0.00     0.293 HD
ENDBRANCH   6  24
BRANCH   8  26
ATOM     26  O   UNL     1      16.998  -2.583   6.945  1.00  0.00    -0.508 OA
ATOM     27  H   UNL     1      17.761  -1.961   6.704  1.00  0.00     0.293 HD
ENDBRANCH   8  26
TORSDOF 6
ENDMDL
MODEL 6
REMARK VINA RESULT:    -6.324      2.768      4.724
REMARK INTER + INTRA:          -7.751
REMARK INTER:                  -7.521
REMARK INTRA:                  -0.230
REMARK UNBOUND:                -0.134
REMARK SMILES O=c1c(O)c(-c2ccc(O)cc2O)oc2cc(O)cc(O)c12
REMARK SMILES IDX 5 1 3 2 2 3 1 4 22 5 20 6 19 7 17 8 16 9 15 10 14 11 6 12
REMARK SMILES IDX 8 13 7 14 9 15 11 16 12 17 10 18 13 20 4 22 21 24 18 26
REMARK H PARENT 10 19 13 21 4 23 21 25 18 27
REMARK Flexibility Score: inf
ROOT
ATOM      1  C   UNL     1      14.401  -2.151  11.301  1.00  0.00     0.184 A 
ATOM      2  C   UNL     1      15.734  -1.974  10.901  1.00  0.00     0.208 A 
ATOM      3  C   UNL     1      16.045  -2.012   9.533  1.00  0.00     0.238 A 
ATOM      4  O   UNL     1      17.250  -1.906   9.184  1.00  0.00    -0.285 OA
ATOM      5  C   UNL     1      15.014  -2.209   8.583  1.00  0.00     0.111 A 
ATOM      6  C   UNL     1      15.208  -2.225   7.168  1.00  0.00     0.134 A 
ATOM      7  C   UNL     1      14.139  -2.559   6.328  1.00  0.00     0.093 A 
ATOM      8  C   UNL     1      12.869  -2.812   6.845  1.00  0.00     0.123 A 
ATOM      9  C   UNL     1      12.654  -2.741   8.222  1.00  0.00     0.094 A 
ATOM     10  C   UNL     1      13.709  -2.447   9.088  1.00  0.00     0.146 A 
ATOM     11  O   UNL     1      13.465  -2.401  10.393  1.00  0.00    -0.451 OA
ENDROOT
BRANCH   1  12
ATOM     12  C   UNL     1      14.003  -2.106  12.724  1.00  0.00     0.063 A 
ATOM     13  C   UNL     1      14.304  -2.931  14.991  1.00  0.00     0.047 A 
ATOM     14  C   UNL     1      14.659  -2.945  13.640  1.00  0.00     0.020 A 
ATOM     15  C   UNL     1      13.279  -2.089  15.441  1.00  0.00     0.119 A 
ATOM     16  C   UNL     1      12.607  -1.269  14.532  1.00  0.00     0.093 A 
ATOM     17  C   UNL     1      12.952  -1.280  13.173  1.00  0.00     0.130 A 
BRANCH  15  18
ATOM     18  O   UNL     1      12.920  -2.065  16.787  1.00  0.00    -0.508 OA
ATOM     19  H   UNL     1      12.398  -2.824  17.210  1.00  0.00     0.293 HD
ENDBRANCH  15  18
BRANCH  17  20
ATOM     20  O   UNL     1      12.239  -0.493  12.268  1.00  0.00    -0.507 OA
ATOM     21  H   UNL     1      12.069  -0.798  11.317  1.00  0.00     0.293 HD
ENDBRANCH  17  20
ENDBRANCH   1  12
BRANCH   2  22
ATOM     22  O   UNL     1      16.735  -1.799  11.862  1.00  0.00    -0.502 OA
ATOM     23  H   UNL     1      17.181  -2.578  12.329  1.00  0.00     0.293 HD
ENDBRANCH   2  22
BRANCH   6  24
ATOM     24  O   UNL     1      16.414  -1.897   6.542  1.00  0.00    -0.507 OA
ATOM     25  H   UNL     1      16.878  -2.470   5.851  1.00  0.00     0.293 HD
ENDBRANCH   6  24
BRANCH   8  26
ATOM     26  O   UNL     1      11.825  -3.125   5.978  1.00  0.00    -0.508 OA
ATOM     27  H   UNL     1      11.264  -2.403   5.540  1.00  0.00     0.293 HD
ENDBRANCH   8  26
TORSDOF 6
ENDMDL
MODEL 7
REMARK VINA RESULT:    -6.322      3.647      7.745
REMARK INTER + INTRA:          -7.750
REMARK INTER:                  -7.375
REMARK INTRA:                  -0.375
REMARK UNBOUND:                -0.134
REMARK SMILES O=c1c(O)c(-c2ccc(O)cc2O)oc2cc(O)cc(O)c12
REMARK SMILES IDX 5 1 3 2 2 3 1 4 22 5 20 6 19 7 17 8 16 9 15 10 14 11 6 12
REMARK SMILES IDX 8 13 7 14 9 15 11 16 12 17 10 18 13 20 4 22 21 24 18 26
REMARK H PARENT 10 19 13 21 4 23 21 25 18 27
REMARK Flexibility Score: inf
ROOT
ATOM      1  C   UNL     1      15.925  -1.484  13.163  1.00  0.00     0.184 A 
ATOM      2  C   UNL     1      16.773  -2.259  12.356  1.00  0.00     0.208 A 
ATOM      3  C   UNL     1      18.162  -2.121  12.500  1.00  0.00     0.238 A 
ATOM      4  O   UNL     1      18.916  -2.780  11.736  1.00  0.00    -0.285 OA
ATOM      5  C   UNL     1      18.685  -1.223  13.461  1.00  0.00     0.111 A 
ATOM      6  C   UNL     1      20.076  -1.032  13.720  1.00  0.00     0.134 A 
ATOM      7  C   UNL     1      20.482  -0.023  14.602  1.00  0.00     0.093 A 
ATOM      8  C   UNL     1      19.548   0.758  15.282  1.00  0.00     0.123 A 
ATOM      9  C   UNL     1      18.185   0.541  15.080  1.00  0.00     0.094 A 
ATOM     10  C   UNL     1      17.749  -0.434  14.180  1.00  0.00     0.146 A 
ATOM     11  O   UNL     1      16.443  -0.601  14.008  1.00  0.00    -0.451 OA
ENDROOT
BRANCH   1  12
ATOM     12  C   UNL     1      14.454  -1.592  13.073  1.00  0.00     0.063 A 
ATOM     13  C   UNL     1      12.389  -2.562  13.910  1.00  0.00     0.047 A 
ATOM     14  C   UNL     1      13.778  -2.433  13.971  1.00  0.00     0.020 A 
ATOM     15  C   UNL     1      11.658  -1.863  12.941  1.00  0.00     0.119 A 
ATOM     16  C   UNL     1      12.326  -1.042  12.029  1.00  0.00     0.093 A 
ATOM     17  C   UNL     1      13.721  -0.910  12.079  1.00  0.00     0.130 A 
BRANCH  15  18
ATOM     18  O   UNL     1      10.272  -1.982  12.874  1.00  0.00    -0.508 OA
ATOM     19  H   UNL     1       9.826  -2.651  12.257  1.00  0.00     0.293 HD
ENDBRANCH  15  18
BRANCH  17  20
ATOM     20  O   UNL     1      14.380  -0.126  11.132  1.00  0.00    -0.507 OA
ATOM     21  H   UNL     1      14.736   0.795  11.360  1.00  0.00     0.293 HD
ENDBRANCH  17  20
ENDBRANCH   1  12
BRANCH   2  22
ATOM     22  O   UNL     1      16.230  -3.125  11.402  1.00  0.00    -0.502 OA
ATOM     23  H   UNL     1      15.924  -4.062  11.631  1.00  0.00     0.293 HD
ENDBRANCH   2  22
BRANCH   6  24
ATOM     24  O   UNL     1      21.089  -1.819  13.164  1.00  0.00    -0.507 OA
ATOM     25  H   UNL     1      21.131  -2.827  13.222  1.00  0.00     0.293 HD
ENDBRANCH   6  24
BRANCH   8  26
ATOM     26  O   UNL     1      19.988   1.742  16.164  1.00  0.00    -0.508 OA
ATOM     27  H   UNL     1      20.753   2.364  15.926  1.00  0.00     0.293 HD
ENDBRANCH   8  26
TORSDOF 6
ENDMDL
MODEL 8
REMARK VINA RESULT:    -6.280      5.074      7.717
REMARK INTER + INTRA:          -7.699
REMARK INTER:                  -7.287
REMARK INTRA:                  -0.412
REMARK UNBOUND:                -0.134
REMARK SMILES O=c1c(O)c(-c2ccc(O)cc2O)oc2cc(O)cc(O)c12
REMARK SMILES IDX 5 1 3 2 2 3 1 4 22 5 20 6 19 7 17 8 16 9 15 10 14 11 6 12
REMARK SMILES IDX 8 13 7 14 9 15 11 16 12 17 10 18 13 20 4 22 21 24 18 26
REMARK H PARENT 10 19 13 21 4 23 21 25 18 27
REMARK Flexibility Score: inf
ROOT
ATOM      1  C   UNL     1      17.454  -0.680  14.872  1.00  0.00     0.184 A 
ATOM      2  C   UNL     1      18.050   0.406  15.529  1.00  0.00     0.208 A 
ATOM      3  C   UNL     1      19.354   0.785  15.175  1.00  0.00     0.238 A 
ATOM      4  O   UNL     1      19.902   1.727  15.805  1.00  0.00    -0.285 OA
ATOM      5  C   UNL     1      20.037   0.082  14.154  1.00  0.00     0.111 A 
ATOM      6  C   UNL     1      21.346   0.404  13.684  1.00  0.00     0.134 A 
ATOM      7  C   UNL     1      21.976  -0.440  12.761  1.00  0.00     0.093 A 
ATOM      8  C   UNL     1      21.321  -1.556  12.242  1.00  0.00     0.123 A 
ATOM      9  C   UNL     1      20.019  -1.847  12.649  1.00  0.00     0.094 A 
ATOM     10  C   UNL     1      19.378  -1.045  13.596  1.00  0.00     0.146 A 
ATOM     11  O   UNL     1      18.142  -1.363  13.966  1.00  0.00    -0.451 OA
ENDROOT
BRANCH   1  12
ATOM     12  C   UNL     1      16.078  -1.120  15.187  1.00  0.00     0.063 A 
ATOM     13  C   UNL     1      14.579  -2.375  16.631  1.00  0.00     0.047 A 
ATOM     14  C   UNL     1      15.865  -1.937  16.308  1.00  0.00     0.020 A 
ATOM     15  C   UNL     1      13.490  -2.013  15.828  1.00  0.00     0.119 A 
ATOM     16  C   UNL     1      13.697  -1.220  14.696  1.00  0.00     0.093 A 
ATOM     17  C   UNL     1      14.986  -0.781  14.362  1.00  0.00     0.130 A 
BRANCH  15  18
ATOM     18  O   UNL     1      12.202  -2.441  16.142  1.00  0.00    -0.508 OA
ATOM     19  H   UNL     1      11.994  -3.419  16.307  1.00  0.00     0.293 HD
ENDBRANCH  15  18
BRANCH  17  20
ATOM     20  O   UNL     1      15.185  -0.030  13.202  1.00  0.00    -0.507 OA
ATOM     21  H   UNL     1      14.574   0.740  12.956  1.00  0.00     0.293 HD
ENDBRANCH  17  20
ENDBRANCH   1  12
BRANCH   2  22
ATOM     22  O   UNL     1      17.359   1.072  16.547  1.00  0.00    -0.502 OA
ATOM     23  H   UNL     1      17.612   2.002  16.856  1.00  0.00     0.293 HD
ENDBRANCH   2  22
BRANCH   6  24
ATOM     24  O   UNL     1      22.054   1.546  14.069  1.00  0.00    -0.507 OA
ATOM     25  H   UNL     1      22.028   1.956  14.991  1.00  0.00     0.293 HD
ENDBRANCH   6  24
BRANCH   8  26
ATOM     26  O   UNL     1      21.973  -2.364  11.313  1.00  0.00    -0.508 OA
ATOM     27  H   UNL     1      22.982  -2.459  11.308  1.00  0.00     0.293 HD
ENDBRANCH   8  26
TORSDOF 6
ENDMDL
MODEL 9
REMARK VINA RESULT:    -6.207      2.058      6.859
REMARK INTER + INTRA:          -7.610
REMARK INTER:                  -7.500
REMARK INTRA:                  -0.110
REMARK UNBOUND:                -0.134
REMARK SMILES O=c1c(O)c(-c2ccc(O)cc2O)oc2cc(O)cc(O)c12
REMARK SMILES IDX 5 1 3 2 2 3 1 4 22 5 20 6 19 7 17 8 16 9 15 10 14 11 6 12
REMARK SMILES IDX 8 13 7 14 9 15 11 16 12 17 10 18 13 20 4 22 21 24 18 26
REMARK H PARENT 10 19 13 21 4 23 21 25 18 27
REMARK Flexibility Score: inf
ROOT
ATOM      1  C   UNL     1      15.928  -1.697  11.755  1.00  0.00     0.184 A 
ATOM      2  C   UNL     1      15.635  -1.211  13.038  1.00  0.00     0.208 A 
ATOM      3  C   UNL     1      16.686  -1.000  13.943  1.00  0.00     0.238 A 
ATOM      4  O   UNL     1      16.410  -0.615  15.110  1.00  0.00    -0.285 OA
ATOM      5  C   UNL     1      18.019  -1.261  13.546  1.00  0.00     0.111 A 
ATOM      6  C   UNL     1      19.167  -1.045  14.368  1.00  0.00     0.134 A 
ATOM      7  C   UNL     1      20.426  -1.461  13.918  1.00  0.00     0.093 A 
ATOM      8  C   UNL     1      20.590  -2.024  12.654  1.00  0.00     0.123 A 
ATOM      9  C   UNL     1      19.483  -2.186  11.819  1.00  0.00     0.094 A 
ATOM     10  C   UNL     1      18.209  -1.815  12.253  1.00  0.00     0.146 A 
ATOM     11  O   UNL     1      17.181  -1.996  11.432  1.00  0.00    -0.451 OA
ENDROOT
BRANCH   1  12
ATOM     12  C   UNL     1      14.870  -1.925  10.749  1.00  0.00     0.063 A 
ATOM     13  C   UNL     1      12.687  -2.845  10.204  1.00  0.00     0.047 A 
ATOM     14  C   UNL     1      13.704  -2.607  11.131  1.00  0.00     0.020 A 
ATOM     15  C   UNL     1      12.829  -2.416   8.878  1.00  0.00     0.119 A 
ATOM     16  C   UNL     1      13.996  -1.757   8.484  1.00  0.00     0.093 A 
ATOM     17  C   UNL     1      15.025  -1.520   9.407  1.00  0.00     0.130 A 
BRANCH  15  18
ATOM     18  O   UNL     1      11.819  -2.645   7.946  1.00  0.00    -0.508 OA
ATOM     19  H   UNL     1      11.138  -1.930   7.717  1.00  0.00     0.293 HD
ENDBRANCH  15  18
BRANCH  17  20
ATOM     20  O   UNL     1      16.205  -0.905   8.988  1.00  0.00    -0.507 OA
ATOM     21  H   UNL     1      16.244  -0.349   8.142  1.00  0.00     0.293 HD
ENDBRANCH  17  20
ENDBRANCH   1  12
BRANCH   2  22
ATOM     22  O   UNL     1      14.307  -0.978  13.410  1.00  0.00    -0.502 OA
ATOM     23  H   UNL     1      13.847  -1.507  14.140  1.00  0.00     0.293 HD
ENDBRANCH   2  22
BRANCH   6  24
ATOM     24  O   UNL     1      19.128  -0.406  15.610  1.00  0.00    -0.507 OA
ATOM     25  H   UNL     1      19.718  -0.640  16.396  1.00  0.00     0.293 HD
ENDBRANCH   6  24
BRANCH   8  26
ATOM     26  O   UNL     1      21.860  -2.412  12.234  1.00  0.00    -0.508 OA
ATOM     27  H   UNL     1      22.383  -1.869  11.556  1.00  0.00     0.293 HD
ENDBRANCH   8  26
TORSDOF 6
ENDMDL
