MODEL 1
REMARK VINA RESULT:    -6.159      0.000      0.000
REMARK INTER + INTRA:          -7.701
REMARK INTER:                  -7.419
REMARK INTRA:                  -0.282
REMARK UNBOUND:                -0.282
REMARK SMILES O=c1c(O)c(-c2ccc(O)c(O)c2)oc2cc(O)cc(O)c12
REMARK SMILES IDX 5 1 3 2 2 3 1 4 22 5 20 6 19 7 17 8 16 9 15 10 14 11 6 12
REMARK SMILES IDX 7 13 8 14 9 15 13 16 11 17 10 18 12 20 4 22 21 24 18 26
REMARK H PARENT 10 19 12 21 4 23 21 25 18 27
REMARK Flexibility Score: inf
ROOT
ATOM      1  C   UNL     1      88.832  47.188  32.467  1.00  0.00     0.180 A 
ATOM      2  C   UNL     1      90.196  46.917  32.678  1.00  0.00     0.208 A 
ATOM      3  C   UNL     1      90.787  45.836  32.005  1.00  0.00     0.238 A 
ATOM      4  O   UNL     1      92.020  45.631  32.155  1.00  0.00    -0.285 OA
ATOM      5  C   UNL     1      90.004  45.029  31.143  1.00  0.00     0.111 A 
ATOM      6  C   UNL     1      90.490  43.885  30.441  1.00  0.00     0.134 A 
ATOM      7  C   UNL     1      89.662  43.240  29.515  1.00  0.00     0.093 A 
ATOM      8  C   UNL     1      88.344  43.658  29.313  1.00  0.00     0.123 A 
ATOM      9  C   UNL     1      87.842  44.737  30.037  1.00  0.00     0.094 A 
ATOM     10  C   UNL     1      88.656  45.424  30.941  1.00  0.00     0.146 A 
ATOM     11  O   UNL     1      88.142  46.453  31.603  1.00  0.00    -0.452 OA
ENDROOT
BRANCH   1  12
ATOM     12  C   UNL     1      88.133  48.294  33.159  1.00  0.00     0.025 A 
ATOM     13  C   UNL     1      87.769  48.196  34.514  1.00  0.00     0.016 A 
ATOM     14  C   UNL     1      87.088  49.244  35.139  1.00  0.00     0.051 A 
ATOM     15  C   UNL     1      86.748  50.395  34.419  1.00  0.00     0.157 A 
ATOM     16  C   UNL     1      87.771  49.443  32.437  1.00  0.00     0.062 A 
ATOM     17  C   UNL     1      87.087  50.495  33.064  1.00  0.00     0.158 A 
BRANCH  15  18
ATOM     18  O   UNL     1      86.069  51.443  35.040  1.00  0.00    -0.504 OA
ATOM     19  H   UNL     1      86.550  52.106  35.637  1.00  0.00     0.293 HD
ENDBRANCH  15  18
BRANCH  17  20
ATOM     20  O   UNL     1      86.742  51.639  32.347  1.00  0.00    -0.504 OA
ATOM     21  H   UNL     1      87.448  52.255  31.960  1.00  0.00     0.293 HD
ENDBRANCH  17  20
ENDBRANCH   1  12
BRANCH   2  22
ATOM     22  O   UNL     1      90.954  47.738  33.515  1.00  0.00    -0.502 OA
ATOM     23  H   UNL     1      90.538  48.458  34.094  1.00  0.00     0.293 HD
ENDBRANCH   2  22
BRANCH   6  24
ATOM     24  O   UNL     1      91.758  43.329  30.637  1.00  0.00    -0.507 OA
ATOM     25  H   UNL     1      92.490  43.747  31.193  1.00  0.00     0.293 HD
ENDBRANCH   6  24
BRANCH   8  26
ATOM     26  O   UNL     1      87.521  43.001  28.401  1.00  0.00    -0.508 OA
ATOM     27  H   UNL     1      87.899  42.556  27.572  1.00  0.00     0.293 HD
ENDBRANCH   8  26
TORSDOF 6
ENDMDL
MODEL 2
REMARK VINA RESULT:    -5.989      2.292      2.959
REMARK INTER + INTRA:          -7.496
REMARK INTER:                  -7.249
REMARK INTRA:                  -0.247
REMARK UNBOUND:                -0.282
REMARK SMILES O=c1c(O)c(-c2ccc(O)c(O)c2)oc2cc(O)cc(O)c12
REMARK SMILES IDX 5 1 3 2 2 3 1 4 22 5 20 6 19 7 17 8 16 9 15 10 14 11 6 12
REMARK SMILES IDX 7 13 8 14 9 15 13 16 11 17 10 18 12 20 4 22 21 24 18 26
REMARK H PARENT 10 19 12 21 4 23 21 25 18 27
REMARK Flexibility Score: inf
ROOT
ATOM      1  C   UNL     1      88.749  47.093  33.100  1.00  0.00     0.180 A 
ATOM      2  C   UNL     1      88.968  45.713  33.261  1.00  0.00     0.208 A 
ATOM      3  C   UNL     1      88.968  44.887  32.126  1.00  0.00     0.238 A 
ATOM      4  O   UNL     1      89.218  43.662  32.270  1.00  0.00    -0.285 OA
ATOM      5  C   UNL     1      88.734  45.447  30.846  1.00  0.00     0.111 A 
ATOM      6  C   UNL     1      88.673  44.698  29.632  1.00  0.00     0.134 A 
ATOM      7  C   UNL     1      88.566  45.371  28.409  1.00  0.00     0.093 A 
ATOM      8  C   UNL     1      88.452  46.763  28.362  1.00  0.00     0.123 A 
ATOM      9  C   UNL     1      88.451  47.498  29.545  1.00  0.00     0.094 A 
ATOM     10  C   UNL     1      88.593  46.858  30.778  1.00  0.00     0.146 A 
ATOM     11  O   UNL     1      88.598  47.597  31.880  1.00  0.00    -0.452 OA
ENDROOT
BRANCH   1  12
ATOM     12  C   UNL     1      88.710  48.024  34.250  1.00  0.00     0.025 A 
ATOM     13  C   UNL     1      87.502  48.596  34.687  1.00  0.00     0.016 A 
ATOM     14  C   UNL     1      87.493  49.491  35.760  1.00  0.00     0.051 A 
ATOM     15  C   UNL     1      88.689  49.839  36.401  1.00  0.00     0.157 A 
ATOM     16  C   UNL     1      89.908  48.393  34.883  1.00  0.00     0.062 A 
ATOM     17  C   UNL     1      89.900  49.291  35.960  1.00  0.00     0.158 A 
BRANCH  15  18
ATOM     18  O   UNL     1      88.683  50.731  37.472  1.00  0.00    -0.504 OA
ATOM     19  H   UNL     1      89.473  50.808  38.102  1.00  0.00     0.293 HD
ENDBRANCH  15  18
BRANCH  17  20
ATOM     20  O   UNL     1      91.090  49.643  36.595  1.00  0.00    -0.504 OA
ATOM     21  H   UNL     1      91.613  48.975  37.147  1.00  0.00     0.293 HD
ENDBRANCH  17  20
ENDBRANCH   1  12
BRANCH   2  22
ATOM     22  O   UNL     1      89.219  45.185  34.530  1.00  0.00    -0.502 OA
ATOM     23  H   UNL     1      88.476  44.906  35.159  1.00  0.00     0.293 HD
ENDBRANCH   2  22
BRANCH   6  24
ATOM     24  O   UNL     1      88.685  43.301  29.576  1.00  0.00    -0.507 OA
ATOM     25  H   UNL     1      89.144  42.758  28.861  1.00  0.00     0.293 HD
ENDBRANCH   6  24
BRANCH   8  26
ATOM     26  O   UNL     1      88.330  47.425  27.142  1.00  0.00    -0.508 OA
ATOM     27  H   UNL     1      88.082  46.930  26.293  1.00  0.00     0.293 HD
ENDBRANCH   8  26
TORSDOF 6
ENDMDL
MODEL 3
REMARK VINA RESULT:    -5.911      2.139      7.163
REMARK INTER + INTRA:          -7.402
REMARK INTER:                  -7.228
REMARK INTRA:                  -0.174
REMARK UNBOUND:                -0.282
REMARK SMILES O=c1c(O)c(-c2ccc(O)c(O)c2)oc2cc(O)cc(O)c12
REMARK SMILES IDX 5 1 3 2 2 3 1 4 22 5 20 6 19 7 17 8 16 9 15 10 14 11 6 12
REMARK SMILES IDX 7 13 8 14 9 15 13 16 11 17 10 18 12 20 4 22 21 24 18 26
REMARK H PARENT 10 19 12 21 4 23 21 25 18 27
REMARK Flexibility Score: inf
ROOT
ATOM      1  C   UNL     1      88.658  47.886  33.852  1.00  0.00     0.180 A 
ATOM      2  C   UNL     1      89.837  48.305  34.494  1.00  0.00     0.208 A 
ATOM      3  C   UNL     1      89.749  49.253  35.526  1.00  0.00     0.238 A 
ATOM      4  O   UNL     1      90.801  49.584  36.134  1.00  0.00    -0.285 OA
ATOM      5  C   UNL     1      88.488  49.782  35.893  1.00  0.00     0.111 A 
ATOM      6  C   UNL     1      88.287  50.776  36.897  1.00  0.00     0.134 A 
ATOM      7  C   UNL     1      86.984  51.130  37.268  1.00  0.00     0.093 A 
ATOM      8  C   UNL     1      85.875  50.573  36.624  1.00  0.00     0.123 A 
ATOM      9  C   UNL     1      86.063  49.646  35.601  1.00  0.00     0.094 A 
ATOM     10  C   UNL     1      87.350  49.246  35.235  1.00  0.00     0.146 A 
ATOM     11  O   UNL     1      87.484  48.352  34.263  1.00  0.00    -0.452 OA
ENDROOT
BRANCH   1  12
ATOM     12  C   UNL     1      88.672  46.909  32.740  1.00  0.00     0.025 A 
ATOM     13  C   UNL     1      88.274  47.274  31.441  1.00  0.00     0.016 A 
ATOM     14  C   UNL     1      88.272  46.328  30.412  1.00  0.00     0.051 A 
ATOM     15  C   UNL     1      88.651  45.005  30.668  1.00  0.00     0.157 A 
ATOM     16  C   UNL     1      89.031  45.576  32.994  1.00  0.00     0.062 A 
ATOM     17  C   UNL     1      89.029  44.626  31.962  1.00  0.00     0.158 A 
BRANCH  15  18
ATOM     18  O   UNL     1      88.651  44.059  29.643  1.00  0.00    -0.504 OA
ATOM     19  H   UNL     1      89.352  44.070  28.912  1.00  0.00     0.293 HD
ENDBRANCH  15  18
BRANCH  17  20
ATOM     20  O   UNL     1      89.401  43.307  32.216  1.00  0.00    -0.504 OA
ATOM     21  H   UNL     1      90.361  43.056  32.417  1.00  0.00     0.293 HD
ENDBRANCH  17  20
ENDBRANCH   1  12
BRANCH   2  22
ATOM     22  O   UNL     1      91.068  47.754  34.132  1.00  0.00    -0.502 OA
ATOM     23  H   UNL     1      91.830  47.643  34.791  1.00  0.00     0.293 HD
ENDBRANCH   2  22
BRANCH   6  24
ATOM     24  O   UNL     1      89.325  51.461  37.536  1.00  0.00    -0.507 OA
ATOM     25  H   UNL     1      89.533  51.401  38.522  1.00  0.00     0.293 HD
ENDBRANCH   6  24
BRANCH   8  26
ATOM     26  O   UNL     1      84.582  50.942  36.987  1.00  0.00    -0.508 OA
ATOM     27  H   UNL     1      83.861  50.250  37.156  1.00  0.00     0.293 HD
ENDBRANCH   8  26
TORSDOF 6
ENDMDL
MODEL 4
REMARK VINA RESULT:    -5.693      2.619      4.002
REMARK INTER + INTRA:          -7.140
REMARK INTER:                  -6.985
REMARK INTRA:                  -0.154
REMARK UNBOUND:                -0.282
REMARK SMILES O=c1c(O)c(-c2ccc(O)c(O)c2)oc2cc(O)cc(O)c12
REMARK SMILES IDX 5 1 3 2 2 3 1 4 22 5 20 6 19 7 17 8 16 9 15 10 14 11 6 12
REMARK SMILES IDX 7 13 8 14 9 15 13 16 11 17 10 18 12 20 4 22 21 24 18 26
REMARK H PARENT 10 19 12 21 4 23 21 25 18 27
REMARK Flexibility Score: inf
ROOT
ATOM      1  C   UNL     1      88.690  49.089  35.116  1.00  0.00     0.180 A 
ATOM      2  C   UNL     1      89.836  49.744  34.632  1.00  0.00     0.208 A 
ATOM      3  C   UNL     1      90.686  49.063  33.746  1.00  0.00     0.238 A 
ATOM      4  O   UNL     1      91.681  49.672  33.274  1.00  0.00    -0.285 OA
ATOM      5  C   UNL     1      90.388  47.731  33.367  1.00  0.00     0.111 A 
ATOM      6  C   UNL     1      91.200  46.933  32.506  1.00  0.00     0.134 A 
ATOM      7  C   UNL     1      90.741  45.676  32.094  1.00  0.00     0.093 A 
ATOM      8  C   UNL     1      89.530  45.161  32.565  1.00  0.00     0.123 A 
ATOM      9  C   UNL     1      88.760  45.908  33.452  1.00  0.00     0.094 A 
ATOM     10  C   UNL     1      89.173  47.181  33.852  1.00  0.00     0.146 A 
ATOM     11  O   UNL     1      88.403  47.864  34.691  1.00  0.00    -0.452 OA
ENDROOT
BRANCH   1  12
ATOM     12  C   UNL     1      87.760  49.732  36.071  1.00  0.00     0.025 A 
ATOM     13  C   UNL     1      86.440  50.053  35.704  1.00  0.00     0.016 A 
ATOM     14  C   UNL     1      85.587  50.682  36.615  1.00  0.00     0.051 A 
ATOM     15  C   UNL     1      86.043  51.013  37.898  1.00  0.00     0.157 A 
ATOM     16  C   UNL     1      88.216  50.085  37.352  1.00  0.00     0.062 A 
ATOM     17  C   UNL     1      87.361  50.717  38.266  1.00  0.00     0.158 A 
BRANCH  15  18
ATOM     18  O   UNL     1      85.194  51.640  38.809  1.00  0.00    -0.504 OA
ATOM     19  H   UNL     1      84.427  51.143  39.247  1.00  0.00     0.293 HD
ENDBRANCH  15  18
BRANCH  17  20
ATOM     20  O   UNL     1      87.814  51.053  39.541  1.00  0.00    -0.504 OA
ATOM     21  H   UNL     1      87.430  50.617  40.371  1.00  0.00     0.293 HD
ENDBRANCH  17  20
ENDBRANCH   1  12
BRANCH   2  22
ATOM     22  O   UNL     1      90.099  51.065  35.002  1.00  0.00    -0.502 OA
ATOM     23  H   UNL     1      90.319  51.786  34.326  1.00  0.00     0.293 HD
ENDBRANCH   2  22
BRANCH   6  24
ATOM     24  O   UNL     1      92.467  47.314  32.053  1.00  0.00    -0.507 OA
ATOM     25  H   UNL     1      93.231  47.593  32.650  1.00  0.00     0.293 HD
ENDBRANCH   6  24
BRANCH   8  26
ATOM     26  O   UNL     1      89.089  43.903  32.163  1.00  0.00    -0.508 OA
ATOM     27  H   UNL     1      88.551  43.306  32.783  1.00  0.00     0.293 HD
ENDBRANCH   8  26
TORSDOF 6
ENDMDL
MODEL 5
REMARK VINA RESULT:    -5.690      2.243      3.534
REMARK INTER + INTRA:          -7.136
REMARK INTER:                  -7.190
REMARK INTRA:                   0.053
REMARK UNBOUND:                -0.282
REMARK SMILES O=c1c(O)c(-c2ccc(O)c(O)c2)oc2cc(O)cc(O)c12
REMARK SMILES IDX 5 1 3 2 2 3 1 4 22 5 20 6 19 7 17 8 16 9 15 10 14 11 6 12
REMARK SMILES IDX 7 13 8 14 9 15 13 16 11 17 10 18 12 20 4 22 21 24 18 26
REMARK H PARENT 10 19 12 21 4 23 21 25 18 27
REMARK Flexibility Score: inf
ROOT
ATOM      1  C   UNL     1      89.371  48.008  33.143  1.00  0.00     0.180 A 
ATOM      2  C   UNL     1      88.538  48.176  32.023  1.00  0.00     0.208 A 
ATOM      3  C   UNL     1      88.818  47.453  30.852  1.00  0.00     0.238 A 
ATOM      4  O   UNL     1      88.038  47.567  29.871  1.00  0.00    -0.285 OA
ATOM      5  C   UNL     1      89.935  46.584  30.810  1.00  0.00     0.111 A 
ATOM      6  C   UNL     1      90.335  45.833  29.664  1.00  0.00     0.134 A 
ATOM      7  C   UNL     1      91.378  44.905  29.775  1.00  0.00     0.093 A 
ATOM      8  C   UNL     1      92.078  44.750  30.975  1.00  0.00     0.123 A 
ATOM      9  C   UNL     1      91.734  45.522  32.082  1.00  0.00     0.094 A 
ATOM     10  C   UNL     1      90.674  46.428  32.012  1.00  0.00     0.146 A 
ATOM     11  O   UNL     1      90.372  47.136  33.093  1.00  0.00    -0.452 OA
ENDROOT
BRANCH   1  12
ATOM     12  C   UNL     1      89.155  48.753  34.404  1.00  0.00     0.025 A 
ATOM     13  C   UNL     1      87.881  48.838  34.994  1.00  0.00     0.016 A 
ATOM     14  C   UNL     1      87.696  49.567  36.172  1.00  0.00     0.051 A 
ATOM     15  C   UNL     1      88.775  50.232  36.768  1.00  0.00     0.157 A 
ATOM     16  C   UNL     1      90.228  49.439  34.996  1.00  0.00     0.062 A 
ATOM     17  C   UNL     1      90.043  50.171  36.178  1.00  0.00     0.158 A 
BRANCH  15  18
ATOM     18  O   UNL     1      88.593  50.959  37.944  1.00  0.00    -0.504 OA
ATOM     19  H   UNL     1      88.674  50.523  38.855  1.00  0.00     0.293 HD
ENDBRANCH  15  18
BRANCH  17  20
ATOM     20  O   UNL     1      91.113  50.839  36.769  1.00  0.00    -0.504 OA
ATOM     21  H   UNL     1      91.989  50.975  36.279  1.00  0.00     0.293 HD
ENDBRANCH  17  20
ENDBRANCH   1  12
BRANCH   2  22
ATOM     22  O   UNL     1      87.429  49.022  32.093  1.00  0.00    -0.502 OA
ATOM     23  H   UNL     1      86.521  48.705  32.411  1.00  0.00     0.293 HD
ENDBRANCH   2  22
BRANCH   6  24
ATOM     24  O   UNL     1      89.763  45.980  28.396  1.00  0.00    -0.507 OA
ATOM     25  H   UNL     1      89.417  45.220  27.830  1.00  0.00     0.293 HD
ENDBRANCH   6  24
BRANCH   8  26
ATOM     26  O   UNL     1      93.125  43.836  31.073  1.00  0.00    -0.508 OA
ATOM     27  H   UNL     1      93.502  43.557  31.972  1.00  0.00     0.293 HD
ENDBRANCH   8  26
TORSDOF 6
ENDMDL
MODEL 6
REMARK VINA RESULT:    -5.664      3.717      7.113
REMARK INTER + INTRA:          -7.104
REMARK INTER:                  -6.785
REMARK INTRA:                  -0.319
REMARK UNBOUND:                -0.282
REMARK SMILES O=c1c(O)c(-c2ccc(O)c(O)c2)oc2cc(O)cc(O)c12
REMARK SMILES IDX 5 1 3 2 2 3 1 4 22 5 20 6 19 7 17 8 16 9 15 10 14 11 6 12
REMARK SMILES IDX 7 13 8 14 9 15 13 16 11 17 10 18 12 20 4 22 21 24 18 26
REMARK H PARENT 10 19 12 21 4 23 21 25 18 27
REMARK Flexibility Score: inf
ROOT
ATOM      1  C   UNL     1      87.442  43.591  28.208  1.00  0.00     0.180 A 
ATOM      2  C   UNL     1      87.624  43.866  26.841  1.00  0.00     0.208 A 
ATOM      3  C   UNL     1      86.733  43.310  25.910  1.00  0.00     0.238 A 
ATOM      4  O   UNL     1      86.869  43.602  24.693  1.00  0.00    -0.285 OA
ATOM      5  C   UNL     1      85.681  42.472  26.354  1.00  0.00     0.111 A 
ATOM      6  C   UNL     1      84.744  41.823  25.495  1.00  0.00     0.134 A 
ATOM      7  C   UNL     1      83.665  41.125  26.052  1.00  0.00     0.093 A 
ATOM      8  C   UNL     1      83.528  40.997  27.437  1.00  0.00     0.123 A 
ATOM      9  C   UNL     1      84.471  41.577  28.282  1.00  0.00     0.094 A 
ATOM     10  C   UNL     1      85.537  42.311  27.757  1.00  0.00     0.146 A 
ATOM     11  O   UNL     1      86.407  42.856  28.598  1.00  0.00    -0.452 OA
ENDROOT
BRANCH   1  12
ATOM     12  C   UNL     1      88.353  44.122  29.246  1.00  0.00     0.025 A 
ATOM     13  C   UNL     1      88.087  45.337  29.902  1.00  0.00     0.016 A 
ATOM     14  C   UNL     1      88.974  45.831  30.862  1.00  0.00     0.051 A 
ATOM     15  C   UNL     1      90.146  45.128  31.169  1.00  0.00     0.157 A 
ATOM     16  C   UNL     1      89.540  43.432  29.544  1.00  0.00     0.062 A 
ATOM     17  C   UNL     1      90.431  43.927  30.507  1.00  0.00     0.158 A 
BRANCH  15  18
ATOM     18  O   UNL     1      91.033  45.617  32.127  1.00  0.00    -0.504 OA
ATOM     19  H   UNL     1      90.750  45.752  33.092  1.00  0.00     0.293 HD
ENDBRANCH  15  18
BRANCH  17  20
ATOM     20  O   UNL     1      91.601  43.232  30.811  1.00  0.00    -0.504 OA
ATOM     21  H   UNL     1      91.664  42.632  31.624  1.00  0.00     0.293 HD
ENDBRANCH  17  20
ENDBRANCH   1  12
BRANCH   2  22
ATOM     22  O   UNL     1      88.656  44.712  26.426  1.00  0.00    -0.502 OA
ATOM     23  H   UNL     1      89.534  44.785  26.925  1.00  0.00     0.293 HD
ENDBRANCH   2  22
BRANCH   6  24
ATOM     24  O   UNL     1      84.842  41.811  24.100  1.00  0.00    -0.507 OA
ATOM     25  H   UNL     1      84.267  42.359  23.478  1.00  0.00     0.293 HD
ENDBRANCH   6  24
BRANCH   8  26
ATOM     26  O   UNL     1      82.461  40.287  27.982  1.00  0.00    -0.508 OA
ATOM     27  H   UNL     1      82.578  39.700  28.801  1.00  0.00     0.293 HD
ENDBRANCH   8  26
TORSDOF 6
ENDMDL
MODEL 7
REMARK VINA RESULT:    -5.661      2.345      4.268
REMARK INTER + INTRA:          -7.101
REMARK INTER:                  -6.904
REMARK INTRA:                  -0.197
REMARK UNBOUND:                -0.282
REMARK SMILES O=c1c(O)c(-c2ccc(O)c(O)c2)oc2cc(O)cc(O)c12
REMARK SMILES IDX 5 1 3 2 2 3 1 4 22 5 20 6 19 7 17 8 16 9 15 10 14 11 6 12
REMARK SMILES IDX 7 13 8 14 9 15 13 16 11 17 10 18 12 20 4 22 21 24 18 26
REMARK H PARENT 10 19 12 21 4 23 21 25 18 27
REMARK Flexibility Score: inf
ROOT
ATOM      1  C   UNL     1      87.247  49.234  34.393  1.00  0.00     0.180 A 
ATOM      2  C   UNL     1      87.242  49.903  33.157  1.00  0.00     0.208 A 
ATOM      3  C   UNL     1      87.735  49.239  32.022  1.00  0.00     0.238 A 
ATOM      4  O   UNL     1      87.678  49.823  30.908  1.00  0.00    -0.285 OA
ATOM      5  C   UNL     1      88.242  47.922  32.140  1.00  0.00     0.111 A 
ATOM      6  C   UNL     1      88.803  47.170  31.064  1.00  0.00     0.134 A 
ATOM      7  C   UNL     1      89.153  45.830  31.267  1.00  0.00     0.093 A 
ATOM      8  C   UNL     1      89.024  45.234  32.525  1.00  0.00     0.123 A 
ATOM      9  C   UNL     1      88.533  45.978  33.595  1.00  0.00     0.094 A 
ATOM     10  C   UNL     1      88.141  47.306  33.415  1.00  0.00     0.146 A 
ATOM     11  O   UNL     1      87.668  47.976  34.459  1.00  0.00    -0.452 OA
ENDROOT
BRANCH   1  12
ATOM     12  C   UNL     1      86.766  49.875  35.638  1.00  0.00     0.025 A 
ATOM     13  C   UNL     1      85.406  50.181  35.824  1.00  0.00     0.016 A 
ATOM     14  C   UNL     1      84.978  50.809  36.997  1.00  0.00     0.051 A 
ATOM     15  C   UNL     1      85.902  51.153  37.992  1.00  0.00     0.157 A 
ATOM     16  C   UNL     1      87.690  50.242  36.630  1.00  0.00     0.062 A 
ATOM     17  C   UNL     1      87.261  50.872  37.807  1.00  0.00     0.158 A 
BRANCH  15  18
ATOM     18  O   UNL     1      85.478  51.779  39.164  1.00  0.00    -0.504 OA
ATOM     19  H   UNL     1      85.780  52.716  39.403  1.00  0.00     0.293 HD
ENDBRANCH  15  18
BRANCH  17  20
ATOM     20  O   UNL     1      88.180  51.222  38.795  1.00  0.00    -0.504 OA
ATOM     21  H   UNL     1      87.975  51.092  39.779  1.00  0.00     0.293 HD
ENDBRANCH  17  20
ENDBRANCH   1  12
BRANCH   2  22
ATOM     22  O   UNL     1      86.717  51.194  33.058  1.00  0.00    -0.502 OA
ATOM     23  H   UNL     1      86.097  51.584  33.758  1.00  0.00     0.293 HD
ENDBRANCH   2  22
BRANCH   6  24
ATOM     24  O   UNL     1      89.061  47.697  29.795  1.00  0.00    -0.507 OA
ATOM     25  H   UNL     1      88.667  48.554  29.437  1.00  0.00     0.293 HD
ENDBRANCH   6  24
BRANCH   8  26
ATOM     26  O   UNL     1      89.389  43.905  32.722  1.00  0.00    -0.508 OA
ATOM     27  H   UNL     1      89.616  43.549  33.644  1.00  0.00     0.293 HD
ENDBRANCH   8  26
TORSDOF 6
ENDMDL
MODEL 8
REMARK VINA RESULT:    -5.623      1.805      7.439
REMARK INTER + INTRA:          -7.055
REMARK INTER:                  -6.742
REMARK INTRA:                  -0.313
REMARK UNBOUND:                -0.282
REMARK SMILES O=c1c(O)c(-c2ccc(O)c(O)c2)oc2cc(O)cc(O)c12
REMARK SMILES IDX 5 1 3 2 2 3 1 4 22 5 20 6 19 7 17 8 16 9 15 10 14 11 6 12
REMARK SMILES IDX 7 13 8 14 9 15 13 16 11 17 10 18 12 20 4 22 21 24 18 26
REMARK H PARENT 10 19 12 21 4 23 21 25 18 27
REMARK Flexibility Score: inf
ROOT
ATOM      1  C   UNL     1      88.910  47.984  32.912  1.00  0.00     0.180 A 
ATOM      2  C   UNL     1      88.088  48.775  32.090  1.00  0.00     0.208 A 
ATOM      3  C   UNL     1      87.373  49.839  32.664  1.00  0.00     0.238 A 
ATOM      4  O   UNL     1      86.681  50.577  31.915  1.00  0.00    -0.285 OA
ATOM      5  C   UNL     1      87.477  50.089  34.054  1.00  0.00     0.111 A 
ATOM      6  C   UNL     1      86.767  51.115  34.748  1.00  0.00     0.134 A 
ATOM      7  C   UNL     1      87.047  51.355  36.099  1.00  0.00     0.093 A 
ATOM      8  C   UNL     1      87.962  50.562  36.797  1.00  0.00     0.123 A 
ATOM      9  C   UNL     1      88.615  49.521  36.143  1.00  0.00     0.094 A 
ATOM     10  C   UNL     1      88.386  49.280  34.787  1.00  0.00     0.146 A 
ATOM     11  O   UNL     1      89.037  48.285  34.199  1.00  0.00    -0.452 OA
ENDROOT
BRANCH   1  12
ATOM     12  C   UNL     1      89.674  46.832  32.384  1.00  0.00     0.025 A 
ATOM     13  C   UNL     1      90.934  47.003  31.782  1.00  0.00     0.016 A 
ATOM     14  C   UNL     1      91.627  45.903  31.270  1.00  0.00     0.051 A 
ATOM     15  C   UNL     1      91.067  44.621  31.337  1.00  0.00     0.157 A 
ATOM     16  C   UNL     1      89.110  45.547  32.430  1.00  0.00     0.062 A 
ATOM     17  C   UNL     1      89.805  44.442  31.915  1.00  0.00     0.158 A 
BRANCH  15  18
ATOM     18  O   UNL     1      91.757  43.522  30.827  1.00  0.00    -0.504 OA
ATOM     19  H   UNL     1      92.215  42.855  31.436  1.00  0.00     0.293 HD
ENDBRANCH  15  18
BRANCH  17  20
ATOM     20  O   UNL     1      89.247  43.166  31.975  1.00  0.00    -0.504 OA
ATOM     21  H   UNL     1      89.763  42.348  31.677  1.00  0.00     0.293 HD
ENDBRANCH  17  20
ENDBRANCH   1  12
BRANCH   2  22
ATOM     22  O   UNL     1      88.017  48.525  30.717  1.00  0.00    -0.502 OA
ATOM     23  H   UNL     1      88.195  49.241  30.024  1.00  0.00     0.293 HD
ENDBRANCH   2  22
BRANCH   6  24
ATOM     24  O   UNL     1      85.767  51.901  34.169  1.00  0.00    -0.507 OA
ATOM     25  H   UNL     1      85.934  52.719  33.602  1.00  0.00     0.293 HD
ENDBRANCH   6  24
BRANCH   8  26
ATOM     26  O   UNL     1      88.223  50.798  38.145  1.00  0.00    -0.508 OA
ATOM     27  H   UNL     1      87.957  50.130  38.861  1.00  0.00     0.293 HD
ENDBRANCH   8  26
TORSDOF 6
ENDMDL
MODEL 9
REMARK VINA RESULT:    -5.609      1.750      6.905
REMARK INTER + INTRA:          -7.038
REMARK INTER:                  -6.703
REMARK INTRA:                  -0.335
REMARK UNBOUND:                -0.282
REMARK SMILES O=c1c(O)c(-c2ccc(O)c(O)c2)oc2cc(O)cc(O)c12
REMARK SMILES IDX 5 1 3 2 2 3 1 4 22 5 20 6 19 7 17 8 16 9 15 10 14 11 6 12
REMARK SMILES IDX 7 13 8 14 9 15 13 16 11 17 10 18 12 20 4 22 21 24 18 26
REMARK H PARENT 10 19 12 21 4 23 21 25 18 27
REMARK Flexibility Score: inf
ROOT
ATOM      1  C   UNL     1      88.887  45.369  31.020  1.00  0.00     0.180 A 
ATOM      2  C   UNL     1      89.071  44.960  32.353  1.00  0.00     0.208 A 
ATOM      3  C   UNL     1      88.924  45.904  33.381  1.00  0.00     0.238 A 
ATOM      4  O   UNL     1      89.037  45.521  34.575  1.00  0.00    -0.285 OA
ATOM      5  C   UNL     1      88.609  47.248  33.065  1.00  0.00     0.111 A 
ATOM      6  C   UNL     1      88.475  48.297  34.024  1.00  0.00     0.134 A 
ATOM      7  C   UNL     1      88.033  49.559  33.610  1.00  0.00     0.093 A 
ATOM      8  C   UNL     1      87.783  49.829  32.262  1.00  0.00     0.123 A 
ATOM      9  C   UNL     1      87.969  48.828  31.311  1.00  0.00     0.094 A 
ATOM     10  C   UNL     1      88.373  47.548  31.697  1.00  0.00     0.146 A 
ATOM     11  O   UNL     1      88.528  46.621  30.761  1.00  0.00    -0.452 OA
ENDROOT
BRANCH   1  12
ATOM     12  C   UNL     1      89.049  44.438  29.881  1.00  0.00     0.025 A 
ATOM     13  C   UNL     1      90.300  44.243  29.268  1.00  0.00     0.016 A 
ATOM     14  C   UNL     1      90.425  43.377  28.178  1.00  0.00     0.051 A 
ATOM     15  C   UNL     1      89.302  42.708  27.676  1.00  0.00     0.157 A 
ATOM     16  C   UNL     1      87.924  43.780  29.359  1.00  0.00     0.062 A 
ATOM     17  C   UNL     1      88.048  42.911  28.265  1.00  0.00     0.158 A 
BRANCH  15  18
ATOM     18  O   UNL     1      89.423  41.843  26.589  1.00  0.00    -0.504 OA
ATOM     19  H   UNL     1      88.613  41.533  26.065  1.00  0.00     0.293 HD
ENDBRANCH  15  18
BRANCH  17  20
ATOM     20  O   UNL     1      86.931  42.249  27.759  1.00  0.00    -0.504 OA
ATOM     21  H   UNL     1      87.023  41.445  27.149  1.00  0.00     0.293 HD
ENDBRANCH  17  20
ENDBRANCH   1  12
BRANCH   2  22
ATOM     22  O   UNL     1      89.360  43.625  32.644  1.00  0.00    -0.502 OA
ATOM     23  H   UNL     1      89.435  43.279  33.593  1.00  0.00     0.293 HD
ENDBRANCH   2  22
BRANCH   6  24
ATOM     24  O   UNL     1      88.788  48.159  35.380  1.00  0.00    -0.507 OA
ATOM     25  H   UNL     1      88.197  48.461  36.140  1.00  0.00     0.293 HD
ENDBRANCH   6  24
BRANCH   8  26
ATOM     26  O   UNL     1      87.359  51.092  31.856  1.00  0.00    -0.508 OA
ATOM     27  H   UNL     1      87.187  51.834  32.526  1.00  0.00     0.293 HD
ENDBRANCH   8  26
TORSDOF 6
ENDMDL
