MODEL 1
REMARK VINA RESULT:    -7.039      0.000      0.000
REMARK INTER + INTRA:         -11.453
REMARK INTER:                 -10.126
REMARK INTRA:                  -1.327
REMARK UNBOUND:                -1.327
REMARK SMILES O=c1c(O[C@H]2O[C@H](CO)[C@H](O)[C@H](O)[C@H]2O)c(-c2ccc(O)cc2)oc2cc(O)cc(O)c12
REMARK SMILES IDX 4 1 3 2 16 3 24 4 2 5 25 6 1 7 32 8 26 9 30 10 27 11 29 12
REMARK SMILES IDX 17 13 18 14 19 15 20 16 23 17 22 18 21 19 31 21 28 23 5 25
REMARK SMILES IDX 14 26 6 27 12 28 7 29 10 30 15 31 13 33 8 35 9 36 11 38
REMARK H PARENT 21 20 31 22 28 24 15 32 13 34 9 37 11 39
REMARK Flexibility Score: inf
ROOT
ATOM      1  O   UNL     1      -6.045   6.220  13.335  1.00  0.00    -0.454 OA
ENDROOT
BRANCH   1   2
ATOM      2  C   UNL     1      -4.831   6.924  13.262  1.00  0.00     0.214 A 
ATOM      3  C   UNL     1      -4.015   6.887  14.398  1.00  0.00     0.180 A 
ATOM      4  O   UNL     1      -2.940   7.674  14.496  1.00  0.00    -0.452 OA
ATOM      5  C   UNL     1      -4.335   7.597  12.128  1.00  0.00     0.239 A 
ATOM      6  C   UNL     1      -2.529   8.441  13.500  1.00  0.00     0.146 A 
ATOM      7  O   UNL     1      -4.873   7.442  11.003  1.00  0.00    -0.285 OA
ATOM      8  C   UNL     1      -3.169   8.383  12.241  1.00  0.00     0.111 A 
ATOM      9  C   UNL     1      -1.396   9.236  13.689  1.00  0.00     0.094 A 
ATOM     10  C   UNL     1      -2.589   9.074  11.149  1.00  0.00     0.134 A 
ATOM     11  C   UNL     1      -0.841   9.930  12.610  1.00  0.00     0.123 A 
ATOM     12  C   UNL     1      -1.435   9.844  11.348  1.00  0.00     0.093 A 
BRANCH   3  13
ATOM     13  C   UNL     1      -4.228   5.805  15.368  1.00  0.00     0.021 A 
ATOM     14  C   UNL     1      -5.192   5.905  16.381  1.00  0.00     0.016 A 
ATOM     15  C   UNL     1      -5.609   4.759  17.061  1.00  0.00     0.047 A 
ATOM     16  C   UNL     1      -5.093   3.500  16.708  1.00  0.00     0.115 A 
ATOM     17  C   UNL     1      -3.685   4.547  15.051  1.00  0.00     0.016 A 
ATOM     18  C   UNL     1      -4.126   3.390  15.703  1.00  0.00     0.047 A 
BRANCH  16  19
ATOM     19  O   UNL     1      -5.554   2.345  17.329  1.00  0.00    -0.508 OA
ATOM     20  H   UNL     1      -5.258   2.084  18.254  1.00  0.00     0.293 HD
ENDBRANCH  16  19
ENDBRANCH   3  13
BRANCH  10  21
ATOM     21  O   UNL     1      -3.135   8.986   9.875  1.00  0.00    -0.507 OA
ATOM     22  H   UNL     1      -4.112   8.771   9.723  1.00  0.00     0.293 HD
ENDBRANCH  10  21
BRANCH  11  23
ATOM     23  O   UNL     1       0.315  10.683  12.813  1.00  0.00    -0.508 OA
ATOM     24  H   UNL     1       0.323  11.682  12.634  1.00  0.00     0.293 HD
ENDBRANCH  11  23
ENDBRANCH   1   2
BRANCH   1  25
ATOM     25  C   UNL     1      -7.382   6.687  13.503  1.00  0.00     0.339 C 
ATOM     26  C   UNL     1      -8.204   5.691  14.363  1.00  0.00     0.214 C 
ATOM     27  O   UNL     1      -7.923   6.786  12.195  1.00  0.00    -0.332 OA
ATOM     28  C   UNL     1      -9.720   6.059  14.401  1.00  0.00     0.180 C 
ATOM     29  C   UNL     1      -9.320   7.064  12.138  1.00  0.00     0.179 C 
ATOM     30  C   UNL     1     -10.039   7.264  13.504  1.00  0.00     0.177 C 
BRANCH  26  31
ATOM     31  O   UNL     1      -8.019   4.370  13.933  1.00  0.00    -0.384 OA
ATOM     32  H   UNL     1      -8.766   4.129  13.329  1.00  0.00     0.211 HD
ENDBRANCH  26  31
BRANCH  28  33
ATOM     33  O   UNL     1     -10.124   6.345  15.715  1.00  0.00    -0.387 OA
ATOM     34  H   UNL     1     -10.821   5.678  15.946  1.00  0.00     0.211 HD
ENDBRANCH  28  33
BRANCH  29  35
ATOM     35  C   UNL     1      -9.531   8.249  11.189  1.00  0.00     0.191 C 
BRANCH  35  36
ATOM     36  O   UNL     1      -8.879   9.370  11.721  1.00  0.00    -0.394 OA
ATOM     37  H   UNL     1      -9.559   9.895  12.208  1.00  0.00     0.210 HD
ENDBRANCH  35  36
ENDBRANCH  29  35
BRANCH  30  38
ATOM     38  O   UNL     1      -9.651   8.449  14.143  1.00  0.00    -0.387 OA
ATOM     39  H   UNL     1      -9.387   8.220  15.071  1.00  0.00     0.211 HD
ENDBRANCH  30  38
ENDBRANCH   1  25
TORSDOF 11
ENDMDL
MODEL 2
REMARK VINA RESULT:    -6.789      1.844      6.678
REMARK INTER + INTRA:         -11.094
REMARK INTER:                  -9.771
REMARK INTRA:                  -1.322
REMARK UNBOUND:                -1.327
REMARK SMILES O=c1c(O[C@H]2O[C@H](CO)[C@H](O)[C@H](O)[C@H]2O)c(-c2ccc(O)cc2)oc2cc(O)cc(O)c12
REMARK SMILES IDX 4 1 3 2 16 3 24 4 2 5 25 6 1 7 32 8 26 9 30 10 27 11 29 12
REMARK SMILES IDX 17 13 18 14 19 15 20 16 23 17 22 18 21 19 31 21 28 23 5 25
REMARK SMILES IDX 14 26 6 27 12 28 7 29 10 30 15 31 13 33 8 35 9 36 11 38
REMARK H PARENT 21 20 31 22 28 24 15 32 13 34 9 37 11 39
REMARK Flexibility Score: inf
ROOT
ATOM      1  O   UNL     1      -5.505   6.970  15.616  1.00  0.00    -0.454 OA
ENDROOT
BRANCH   1   2
ATOM      2  C   UNL     1      -6.247   7.476  14.535  1.00  0.00     0.214 A 
ATOM      3  C   UNL     1      -5.702   8.573  13.859  1.00  0.00     0.180 A 
ATOM      4  O   UNL     1      -6.415   9.240  12.947  1.00  0.00    -0.452 OA
ATOM      5  C   UNL     1      -7.445   6.932  14.031  1.00  0.00     0.239 A 
ATOM      6  C   UNL     1      -7.616   8.845  12.557  1.00  0.00     0.146 A 
ATOM      7  O   UNL     1      -7.844   5.801  14.405  1.00  0.00    -0.285 OA
ATOM      8  C   UNL     1      -8.157   7.628  13.032  1.00  0.00     0.111 A 
ATOM      9  C   UNL     1      -8.294   9.603  11.600  1.00  0.00     0.094 A 
ATOM     10  C   UNL     1      -9.357   7.145  12.454  1.00  0.00     0.134 A 
ATOM     11  C   UNL     1      -9.488   9.128  11.049  1.00  0.00     0.123 A 
ATOM     12  C   UNL     1     -10.010   7.903  11.474  1.00  0.00     0.093 A 
BRANCH   3  13
ATOM     13  C   UNL     1      -4.262   8.826  13.998  1.00  0.00     0.021 A 
ATOM     14  C   UNL     1      -3.309   8.034  13.344  1.00  0.00     0.016 A 
ATOM     15  C   UNL     1      -1.995   8.489  13.213  1.00  0.00     0.047 A 
ATOM     16  C   UNL     1      -1.635   9.756  13.703  1.00  0.00     0.115 A 
ATOM     17  C   UNL     1      -3.881  10.074  14.524  1.00  0.00     0.016 A 
ATOM     18  C   UNL     1      -2.576  10.553  14.363  1.00  0.00     0.047 A 
BRANCH  16  19
ATOM     19  O   UNL     1      -0.349  10.249  13.514  1.00  0.00    -0.508 OA
ATOM     20  H   UNL     1       0.161  10.096  12.661  1.00  0.00     0.293 HD
ENDBRANCH  16  19
ENDBRANCH   3  13
BRANCH  10  21
ATOM     21  O   UNL     1      -9.889   5.918  12.830  1.00  0.00    -0.507 OA
ATOM     22  H   UNL     1      -9.945   5.630  13.798  1.00  0.00     0.293 HD
ENDBRANCH  10  21
BRANCH  11  23
ATOM     23  O   UNL     1     -10.125   9.881  10.064  1.00  0.00    -0.508 OA
ATOM     24  H   UNL     1      -9.723  10.754   9.736  1.00  0.00     0.293 HD
ENDBRANCH  11  23
ENDBRANCH   1   2
BRANCH   1  25
ATOM     25  C   UNL     1      -4.831   5.725  15.780  1.00  0.00     0.339 C 
ATOM     26  C   UNL     1      -5.631   4.791  16.727  1.00  0.00     0.214 C 
ATOM     27  O   UNL     1      -3.566   6.042  16.339  1.00  0.00    -0.332 OA
ATOM     28  C   UNL     1      -4.832   3.502  17.095  1.00  0.00     0.180 C 
ATOM     29  C   UNL     1      -2.791   4.920  16.757  1.00  0.00     0.179 C 
ATOM     30  C   UNL     1      -3.415   3.518  16.501  1.00  0.00     0.177 C 
BRANCH  26  31
ATOM     31  O   UNL     1      -6.047   5.469  17.881  1.00  0.00    -0.384 OA
ATOM     32  H   UNL     1      -5.854   4.900  18.667  1.00  0.00     0.211 HD
ENDBRANCH  26  31
BRANCH  28  33
ATOM     33  O   UNL     1      -5.507   2.358  16.640  1.00  0.00    -0.387 OA
ATOM     34  H   UNL     1      -4.969   1.579  16.934  1.00  0.00     0.211 HD
ENDBRANCH  28  33
BRANCH  29  35
ATOM     35  C   UNL     1      -1.391   5.056  16.147  1.00  0.00     0.191 C 
BRANCH  35  36
ATOM     36  O   UNL     1      -1.511   5.067  14.750  1.00  0.00    -0.394 OA
ATOM     37  H   UNL     1      -2.305   4.525  14.524  1.00  0.00     0.210 HD
ENDBRANCH  35  36
ENDBRANCH  29  35
BRANCH  30  38
ATOM     38  O   UNL     1      -3.466   3.196  15.138  1.00  0.00    -0.387 OA
ATOM     39  H   UNL     1      -3.777   4.002  14.649  1.00  0.00     0.211 HD
ENDBRANCH  30  38
ENDBRANCH   1  25
TORSDOF 11
ENDMDL
MODEL 3
REMARK VINA RESULT:    -6.481      1.607      5.766
REMARK INTER + INTRA:         -10.650
REMARK INTER:                  -9.417
REMARK INTRA:                  -1.233
REMARK UNBOUND:                -1.327
REMARK SMILES O=c1c(O[C@H]2O[C@H](CO)[C@H](O)[C@H](O)[C@H]2O)c(-c2ccc(O)cc2)oc2cc(O)cc(O)c12
REMARK SMILES IDX 4 1 3 2 16 3 24 4 2 5 25 6 1 7 32 8 26 9 30 10 27 11 29 12
REMARK SMILES IDX 17 13 18 14 19 15 20 16 23 17 22 18 21 19 31 21 28 23 5 25
REMARK SMILES IDX 14 26 6 27 12 28 7 29 10 30 15 31 13 33 8 35 9 36 11 38
REMARK H PARENT 21 20 31 22 28 24 15 32 13 34 9 37 11 39
REMARK Flexibility Score: inf
ROOT
ATOM      1  O   UNL     1      -5.870   7.609  13.901  1.00  0.00    -0.454 OA
ENDROOT
BRANCH   1   2
ATOM      2  C   UNL     1      -4.950   6.710  14.468  1.00  0.00     0.214 A 
ATOM      3  C   UNL     1      -3.617   6.837  14.061  1.00  0.00     0.180 A 
ATOM      4  O   UNL     1      -2.708   5.916  14.394  1.00  0.00    -0.452 OA
ATOM      5  C   UNL     1      -5.239   5.748  15.456  1.00  0.00     0.239 A 
ATOM      6  C   UNL     1      -2.985   4.905  15.203  1.00  0.00     0.146 A 
ATOM      7  O   UNL     1      -6.339   5.762  16.063  1.00  0.00    -0.285 OA
ATOM      8  C   UNL     1      -4.248   4.816  15.830  1.00  0.00     0.111 A 
ATOM      9  C   UNL     1      -1.975   3.985  15.496  1.00  0.00     0.094 A 
ATOM     10  C   UNL     1      -4.445   3.831  16.829  1.00  0.00     0.134 A 
ATOM     11  C   UNL     1      -2.185   3.005  16.470  1.00  0.00     0.123 A 
ATOM     12  C   UNL     1      -3.413   2.934  17.133  1.00  0.00     0.093 A 
BRANCH   3  13
ATOM     13  C   UNL     1      -3.193   8.111  13.470  1.00  0.00     0.021 A 
ATOM     14  C   UNL     1      -2.380   9.013  14.171  1.00  0.00     0.016 A 
ATOM     15  C   UNL     1      -1.718  10.034  13.485  1.00  0.00     0.047 A 
ATOM     16  C   UNL     1      -1.834  10.137  12.089  1.00  0.00     0.115 A 
ATOM     17  C   UNL     1      -3.338   8.250  12.078  1.00  0.00     0.016 A 
ATOM     18  C   UNL     1      -2.647   9.247  11.379  1.00  0.00     0.047 A 
BRANCH  16  19
ATOM     19  O   UNL     1      -1.123  11.105  11.388  1.00  0.00    -0.508 OA
ATOM     20  H   UNL     1      -0.634  10.893  10.535  1.00  0.00     0.293 HD
ENDBRANCH  16  19
ENDBRANCH   3  13
BRANCH  10  21
ATOM     21  O   UNL     1      -5.642   3.752  17.529  1.00  0.00    -0.507 OA
ATOM     22  H   UNL     1      -5.731   3.214  18.381  1.00  0.00     0.293 HD
ENDBRANCH  10  21
BRANCH  11  23
ATOM     23  O   UNL     1      -1.148   2.124  16.777  1.00  0.00    -0.508 OA
ATOM     24  H   UNL     1      -1.344   1.168  17.056  1.00  0.00     0.293 HD
ENDBRANCH  11  23
ENDBRANCH   1   2
BRANCH   1  25
ATOM     25  C   UNL     1      -6.977   7.381  13.032  1.00  0.00     0.339 C 
ATOM     26  C   UNL     1      -7.181   8.589  12.079  1.00  0.00     0.214 C 
ATOM     27  O   UNL     1      -8.103   7.214  13.878  1.00  0.00    -0.332 OA
ATOM     28  C   UNL     1      -8.500   8.471  11.254  1.00  0.00     0.180 C 
ATOM     29  C   UNL     1      -9.360   7.155  13.208  1.00  0.00     0.179 C 
ATOM     30  C   UNL     1      -9.317   7.234  11.655  1.00  0.00     0.177 C 
BRANCH  26  31
ATOM     31  O   UNL     1      -7.132   9.803  12.776  1.00  0.00    -0.384 OA
ATOM     32  H   UNL     1      -7.684   9.720  13.593  1.00  0.00     0.211 HD
ENDBRANCH  26  31
BRANCH  28  33
ATOM     33  O   UNL     1      -8.217   8.410   9.880  1.00  0.00    -0.387 OA
ATOM     34  H   UNL     1      -8.792   7.693   9.508  1.00  0.00     0.211 HD
ENDBRANCH  28  33
BRANCH  29  35
ATOM     35  C   UNL     1     -10.108   5.913  13.709  1.00  0.00     0.191 C 
BRANCH  35  36
ATOM     36  O   UNL     1      -9.208   4.839  13.759  1.00  0.00    -0.394 OA
ATOM     37  H   UNL     1      -9.745   4.017  13.857  1.00  0.00     0.210 HD
ENDBRANCH  35  36
ENDBRANCH  29  35
BRANCH  30  38
ATOM     38  O   UNL     1      -8.757   6.086  11.077  1.00  0.00    -0.387 OA
ATOM     39  H   UNL     1      -8.992   6.087  10.113  1.00  0.00     0.211 HD
ENDBRANCH  30  38
ENDBRANCH   1  25
TORSDOF 11
ENDMDL
MODEL 4
REMARK VINA RESULT:    -6.271      2.119      4.891
REMARK INTER + INTRA:         -10.348
REMARK INTER:                  -9.195
REMARK INTRA:                  -1.152
REMARK UNBOUND:                -1.327
REMARK SMILES O=c1c(O[C@H]2O[C@H](CO)[C@H](O)[C@H](O)[C@H]2O)c(-c2ccc(O)cc2)oc2cc(O)cc(O)c12
REMARK SMILES IDX 4 1 3 2 16 3 24 4 2 5 25 6 1 7 32 8 26 9 30 10 27 11 29 12
REMARK SMILES IDX 17 13 18 14 19 15 20 16 23 17 22 18 21 19 31 21 28 23 5 25
REMARK SMILES IDX 14 26 6 27 12 28 7 29 10 30 15 31 13 33 8 35 9 36 11 38
REMARK H PARENT 21 20 31 22 28 24 15 32 13 34 9 37 11 39
REMARK Flexibility Score: inf
ROOT
ATOM      1  O   UNL     1      -6.179   5.713  12.796  1.00  0.00    -0.454 OA
ENDROOT
BRANCH   1   2
ATOM      2  C   UNL     1      -5.086   5.607  13.674  1.00  0.00     0.214 A 
ATOM      3  C   UNL     1      -4.196   6.686  13.701  1.00  0.00     0.180 A 
ATOM      4  O   UNL     1      -3.034   6.600  14.355  1.00  0.00    -0.452 OA
ATOM      5  C   UNL     1      -4.853   4.549  14.575  1.00  0.00     0.239 A 
ATOM      6  C   UNL     1      -2.711   5.550  15.092  1.00  0.00     0.146 A 
ATOM      7  O   UNL     1      -5.743   3.692  14.804  1.00  0.00    -0.285 OA
ATOM      8  C   UNL     1      -3.640   4.505  15.294  1.00  0.00     0.111 A 
ATOM      9  C   UNL     1      -1.473   5.541  15.741  1.00  0.00     0.094 A 
ATOM     10  C   UNL     1      -3.332   3.491  16.236  1.00  0.00     0.134 A 
ATOM     11  C   UNL     1      -1.170   4.527  16.654  1.00  0.00     0.123 A 
ATOM     12  C   UNL     1      -2.100   3.512  16.900  1.00  0.00     0.093 A 
BRANCH   3  13
ATOM     13  C   UNL     1      -4.666   7.984  13.200  1.00  0.00     0.021 A 
ATOM     14  C   UNL     1      -4.585   8.321  11.842  1.00  0.00     0.016 A 
ATOM     15  C   UNL     1      -5.333   9.390  11.344  1.00  0.00     0.047 A 
ATOM     16  C   UNL     1      -6.195  10.105  12.192  1.00  0.00     0.115 A 
ATOM     17  C   UNL     1      -5.498   8.733  14.051  1.00  0.00     0.016 A 
ATOM     18  C   UNL     1      -6.279   9.782  13.550  1.00  0.00     0.047 A 
BRANCH  16  19
ATOM     19  O   UNL     1      -6.997  11.124  11.692  1.00  0.00    -0.508 OA
ATOM     20  H   UNL     1      -7.032  12.034  12.120  1.00  0.00     0.293 HD
ENDBRANCH  16  19
ENDBRANCH   3  13
BRANCH  10  21
ATOM     21  O   UNL     1      -4.245   2.485  16.528  1.00  0.00    -0.507 OA
ATOM     22  H   UNL     1      -4.929   2.579  17.267  1.00  0.00     0.293 HD
ENDBRANCH  10  21
BRANCH  11  23
ATOM     23  O   UNL     1       0.054   4.562  17.321  1.00  0.00    -0.508 OA
ATOM     24  H   UNL     1       0.487   3.708  17.658  1.00  0.00     0.293 HD
ENDBRANCH  11  23
ENDBRANCH   1   2
BRANCH   1  25
ATOM     25  C   UNL     1      -7.481   6.259  12.993  1.00  0.00     0.339 C 
ATOM     26  C   UNL     1      -8.307   5.364  13.955  1.00  0.00     0.214 C 
ATOM     27  O   UNL     1      -8.080   6.301  11.708  1.00  0.00    -0.332 OA
ATOM     28  C   UNL     1      -9.800   5.811  14.037  1.00  0.00     0.180 C 
ATOM     29  C   UNL     1      -9.463   6.647  11.696  1.00  0.00     0.179 C 
ATOM     30  C   UNL     1     -10.103   6.971  13.077  1.00  0.00     0.177 C 
BRANCH  26  31
ATOM     31  O   UNL     1      -8.208   4.011  13.605  1.00  0.00    -0.384 OA
ATOM     32  H   UNL     1      -9.095   3.701  13.293  1.00  0.00     0.211 HD
ENDBRANCH  26  31
BRANCH  28  33
ATOM     33  O   UNL     1     -10.125   6.202  15.346  1.00  0.00    -0.387 OA
ATOM     34  H   UNL     1     -10.773   6.948  15.263  1.00  0.00     0.211 HD
ENDBRANCH  28  33
BRANCH  29  35
ATOM     35  C   UNL     1      -9.662   7.777  10.680  1.00  0.00     0.191 C 
BRANCH  35  36
ATOM     36  O   UNL     1      -8.857   8.862  11.055  1.00  0.00    -0.394 OA
ATOM     37  H   UNL     1      -8.513   9.268  10.223  1.00  0.00     0.210 HD
ENDBRANCH  35  36
ENDBRANCH  29  35
BRANCH  30  38
ATOM     38  O   UNL     1      -9.628   8.174  13.616  1.00  0.00    -0.387 OA
ATOM     39  H   UNL     1      -9.410   8.012  14.571  1.00  0.00     0.211 HD
ENDBRANCH  30  38
ENDBRANCH   1  25
TORSDOF 11
ENDMDL
MODEL 5
REMARK VINA RESULT:    -5.998      2.127      6.673
REMARK INTER + INTRA:          -9.955
REMARK INTER:                  -8.713
REMARK INTRA:                  -1.242
REMARK UNBOUND:                -1.327
REMARK SMILES O=c1c(O[C@H]2O[C@H](CO)[C@H](O)[C@H](O)[C@H]2O)c(-c2ccc(O)cc2)oc2cc(O)cc(O)c12
REMARK SMILES IDX 4 1 3 2 16 3 24 4 2 5 25 6 1 7 32 8 26 9 30 10 27 11 29 12
REMARK SMILES IDX 17 13 18 14 19 15 20 16 23 17 22 18 21 19 31 21 28 23 5 25
REMARK SMILES IDX 14 26 6 27 12 28 7 29 10 30 15 31 13 33 8 35 9 36 11 38
REMARK H PARENT 21 20 31 22 28 24 15 32 13 34 9 37 11 39
REMARK Flexibility Score: inf
ROOT
ATOM      1  O   UNL     1      -4.295   6.583  13.714  1.00  0.00    -0.454 OA
ENDROOT
BRANCH   1   2
ATOM      2  C   UNL     1      -4.391   5.478  14.577  1.00  0.00     0.214 A 
ATOM      3  C   UNL     1      -5.665   4.926  14.749  1.00  0.00     0.180 A 
ATOM      4  O   UNL     1      -5.892   4.003  15.688  1.00  0.00    -0.452 OA
ATOM      5  C   UNL     1      -3.314   4.840  15.222  1.00  0.00     0.239 A 
ATOM      6  C   UNL     1      -4.921   3.487  16.425  1.00  0.00     0.146 A 
ATOM      7  O   UNL     1      -2.127   5.101  14.902  1.00  0.00    -0.285 OA
ATOM      8  C   UNL     1      -3.573   3.831  16.174  1.00  0.00     0.111 A 
ATOM      9  C   UNL     1      -5.247   2.528  17.387  1.00  0.00     0.094 A 
ATOM     10  C   UNL     1      -2.552   3.122  16.853  1.00  0.00     0.134 A 
ATOM     11  C   UNL     1      -4.232   1.846  18.065  1.00  0.00     0.123 A 
ATOM     12  C   UNL     1      -2.893   2.143  17.794  1.00  0.00     0.093 A 
BRANCH   3  13
ATOM     13  C   UNL     1      -6.683   5.204  13.728  1.00  0.00     0.021 A 
ATOM     14  C   UNL     1      -7.712   6.131  13.949  1.00  0.00     0.016 A 
ATOM     15  C   UNL     1      -8.447   6.626  12.870  1.00  0.00     0.047 A 
ATOM     16  C   UNL     1      -8.136   6.226  11.560  1.00  0.00     0.115 A 
ATOM     17  C   UNL     1      -6.408   4.776  12.417  1.00  0.00     0.016 A 
ATOM     18  C   UNL     1      -7.117   5.297  11.328  1.00  0.00     0.047 A 
BRANCH  16  19
ATOM     19  O   UNL     1      -8.814   6.766  10.473  1.00  0.00    -0.508 OA
ATOM     20  H   UNL     1      -9.623   6.320  10.074  1.00  0.00     0.293 HD
ENDBRANCH  16  19
ENDBRANCH   3  13
BRANCH  10  21
ATOM     21  O   UNL     1      -1.211   3.369  16.586  1.00  0.00    -0.507 OA
ATOM     22  H   UNL     1      -0.474   2.777  16.946  1.00  0.00     0.293 HD
ENDBRANCH  10  21
BRANCH  11  23
ATOM     23  O   UNL     1      -4.581   0.863  18.991  1.00  0.00    -0.508 OA
ATOM     24  H   UNL     1      -4.758  -0.091  18.693  1.00  0.00     0.293 HD
ENDBRANCH  11  23
ENDBRANCH   1   2
BRANCH   1  25
ATOM     25  C   UNL     1      -4.234   7.980  13.994  1.00  0.00     0.339 C 
ATOM     26  C   UNL     1      -5.339   8.741  13.216  1.00  0.00     0.214 C 
ATOM     27  O   UNL     1      -2.945   8.401  13.576  1.00  0.00    -0.332 OA
ATOM     28  C   UNL     1      -5.181  10.289  13.333  1.00  0.00     0.180 C 
ATOM     29  C   UNL     1      -2.733   9.811  13.598  1.00  0.00     0.179 C 
ATOM     30  C   UNL     1      -3.917  10.677  14.115  1.00  0.00     0.177 C 
BRANCH  26  31
ATOM     31  O   UNL     1      -5.386   8.343  11.874  1.00  0.00    -0.384 OA
ATOM     32  H   UNL     1      -4.548   8.629  11.431  1.00  0.00     0.211 HD
ENDBRANCH  26  31
BRANCH  28  33
ATOM     33  O   UNL     1      -6.302  10.852  13.964  1.00  0.00    -0.387 OA
ATOM     34  H   UNL     1      -6.342  11.799  13.672  1.00  0.00     0.211 HD
ENDBRANCH  28  33
BRANCH  29  35
ATOM     35  C   UNL     1      -1.432  10.084  14.361  1.00  0.00     0.191 C 
BRANCH  35  36
ATOM     36  O   UNL     1      -0.426   9.259  13.839  1.00  0.00    -0.394 OA
ATOM     37  H   UNL     1       0.217   9.090  14.570  1.00  0.00     0.210 HD
ENDBRANCH  35  36
ENDBRANCH  29  35
BRANCH  30  38
ATOM     38  O   UNL     1      -4.138  10.514  15.490  1.00  0.00    -0.387 OA
ATOM     39  H   UNL     1      -3.260  10.343  15.919  1.00  0.00     0.211 HD
ENDBRANCH  30  38
ENDBRANCH   1  25
TORSDOF 11
ENDMDL
MODEL 6
REMARK VINA RESULT:    -5.903      1.998      5.795
REMARK INTER + INTRA:          -9.818
REMARK INTER:                  -8.366
REMARK INTRA:                  -1.453
REMARK UNBOUND:                -1.327
REMARK SMILES O=c1c(O[C@H]2O[C@H](CO)[C@H](O)[C@H](O)[C@H]2O)c(-c2ccc(O)cc2)oc2cc(O)cc(O)c12
REMARK SMILES IDX 4 1 3 2 16 3 24 4 2 5 25 6 1 7 32 8 26 9 30 10 27 11 29 12
REMARK SMILES IDX 17 13 18 14 19 15 20 16 23 17 22 18 21 19 31 21 28 23 5 25
REMARK SMILES IDX 14 26 6 27 12 28 7 29 10 30 15 31 13 33 8 35 9 36 11 38
REMARK H PARENT 21 20 31 22 28 24 15 32 13 34 9 37 11 39
REMARK Flexibility Score: inf
ROOT
ATOM      1  O   UNL     1      -4.919   7.199  14.584  1.00  0.00    -0.454 OA
ENDROOT
BRANCH   1   2
ATOM      2  C   UNL     1      -4.422   6.030  15.187  1.00  0.00     0.214 A 
ATOM      3  C   UNL     1      -5.369   5.106  15.640  1.00  0.00     0.180 A 
ATOM      4  O   UNL     1      -5.005   4.064  16.392  1.00  0.00    -0.452 OA
ATOM      5  C   UNL     1      -3.062   5.680  15.308  1.00  0.00     0.239 A 
ATOM      6  C   UNL     1      -3.739   3.788  16.658  1.00  0.00     0.146 A 
ATOM      7  O   UNL     1      -2.177   6.318  14.686  1.00  0.00    -0.285 OA
ATOM      8  C   UNL     1      -2.703   4.545  16.065  1.00  0.00     0.111 A 
ATOM      9  C   UNL     1      -3.447   2.679  17.456  1.00  0.00     0.094 A 
ATOM     10  C   UNL     1      -1.364   4.107  16.221  1.00  0.00     0.134 A 
ATOM     11  C   UNL     1      -2.122   2.265  17.619  1.00  0.00     0.123 A 
ATOM     12  C   UNL     1      -1.090   2.976  17.000  1.00  0.00     0.093 A 
BRANCH   3  13
ATOM     13  C   UNL     1      -6.724   5.173  15.079  1.00  0.00     0.021 A 
ATOM     14  C   UNL     1      -7.721   5.972  15.657  1.00  0.00     0.016 A 
ATOM     15  C   UNL     1      -8.872   6.285  14.930  1.00  0.00     0.047 A 
ATOM     16  C   UNL     1      -9.017   5.833  13.608  1.00  0.00     0.115 A 
ATOM     17  C   UNL     1      -6.899   4.688  13.771  1.00  0.00     0.016 A 
ATOM     18  C   UNL     1      -8.032   5.030  13.023  1.00  0.00     0.047 A 
BRANCH  16  19
ATOM     19  O   UNL     1     -10.125   6.198  12.852  1.00  0.00    -0.508 OA
ATOM     20  H   UNL     1     -11.065   6.061  13.182  1.00  0.00     0.293 HD
ENDBRANCH  16  19
ENDBRANCH   3  13
BRANCH  10  21
ATOM     21  O   UNL     1      -0.317   4.772  15.596  1.00  0.00    -0.507 OA
ATOM     22  H   UNL     1      -0.127   5.751  15.762  1.00  0.00     0.293 HD
ENDBRANCH  10  21
BRANCH  11  23
ATOM     23  O   UNL     1      -1.858   1.130  18.385  1.00  0.00    -0.508 OA
ATOM     24  H   UNL     1      -1.869   0.206  17.965  1.00  0.00     0.293 HD
ENDBRANCH  11  23
ENDBRANCH   1   2
BRANCH   1  25
ATOM     25  C   UNL     1      -4.866   7.640  13.229  1.00  0.00     0.339 C 
ATOM     26  C   UNL     1      -3.841   8.794  13.071  1.00  0.00     0.214 C 
ATOM     27  O   UNL     1      -6.177   8.086  12.919  1.00  0.00    -0.332 OA
ATOM     28  C   UNL     1      -3.900   9.442  11.652  1.00  0.00     0.180 C 
ATOM     29  C   UNL     1      -6.309   8.744  11.660  1.00  0.00     0.179 C 
ATOM     30  C   UNL     1      -5.020   8.837  10.793  1.00  0.00     0.177 C 
BRANCH  26  31
ATOM     31  O   UNL     1      -4.002   9.762  14.071  1.00  0.00    -0.384 OA
ATOM     32  H   UNL     1      -4.771   9.504  14.638  1.00  0.00     0.211 HD
ENDBRANCH  26  31
BRANCH  28  33
ATOM     33  O   UNL     1      -2.674   9.282  10.987  1.00  0.00    -0.387 OA
ATOM     34  H   UNL     1      -2.496   8.307  10.958  1.00  0.00     0.211 HD
ENDBRANCH  28  33
BRANCH  29  35
ATOM     35  C   UNL     1      -7.475   8.096  10.906  1.00  0.00     0.191 C 
BRANCH  35  36
ATOM     36  O   UNL     1      -8.677   8.521  11.489  1.00  0.00    -0.394 OA
ATOM     37  H   UNL     1      -8.934   9.362  11.040  1.00  0.00     0.210 HD
ENDBRANCH  35  36
ENDBRANCH  29  35
BRANCH  30  38
ATOM     38  O   UNL     1      -4.620   7.590  10.296  1.00  0.00    -0.387 OA
ATOM     39  H   UNL     1      -5.369   7.223   9.760  1.00  0.00     0.211 HD
ENDBRANCH  30  38
ENDBRANCH   1  25
TORSDOF 11
ENDMDL
MODEL 7
REMARK VINA RESULT:    -5.885      1.915      5.009
REMARK INTER + INTRA:          -9.793
REMARK INTER:                  -9.043
REMARK INTRA:                  -0.750
REMARK UNBOUND:                -1.327
REMARK SMILES O=c1c(O[C@H]2O[C@H](CO)[C@H](O)[C@H](O)[C@H]2O)c(-c2ccc(O)cc2)oc2cc(O)cc(O)c12
REMARK SMILES IDX 4 1 3 2 16 3 24 4 2 5 25 6 1 7 32 8 26 9 30 10 27 11 29 12
REMARK SMILES IDX 17 13 18 14 19 15 20 16 23 17 22 18 21 19 31 21 28 23 5 25
REMARK SMILES IDX 14 26 6 27 12 28 7 29 10 30 15 31 13 33 8 35 9 36 11 38
REMARK H PARENT 21 20 31 22 28 24 15 32 13 34 9 37 11 39
REMARK Flexibility Score: inf
ROOT
ATOM      1  O   UNL     1      -5.157   6.449  13.268  1.00  0.00    -0.454 OA
ENDROOT
BRANCH   1   2
ATOM      2  C   UNL     1      -4.303   7.377  12.648  1.00  0.00     0.214 A 
ATOM      3  C   UNL     1      -4.666   7.805  11.366  1.00  0.00     0.180 A 
ATOM      4  O   UNL     1      -3.828   8.532  10.623  1.00  0.00    -0.452 OA
ATOM      5  C   UNL     1      -3.161   7.963  13.229  1.00  0.00     0.239 A 
ATOM      6  C   UNL     1      -2.669   8.974  11.086  1.00  0.00     0.146 A 
ATOM      7  O   UNL     1      -2.932   7.841  14.459  1.00  0.00    -0.285 OA
ATOM      8  C   UNL     1      -2.316   8.770  12.439  1.00  0.00     0.111 A 
ATOM      9  C   UNL     1      -1.851   9.726  10.239  1.00  0.00     0.094 A 
ATOM     10  C   UNL     1      -1.161   9.415  12.946  1.00  0.00     0.134 A 
ATOM     11  C   UNL     1      -0.704  10.344  10.744  1.00  0.00     0.123 A 
ATOM     12  C   UNL     1      -0.366  10.190  12.091  1.00  0.00     0.093 A 
BRANCH   3  13
ATOM     13  C   UNL     1      -6.065   7.642  10.953  1.00  0.00     0.021 A 
ATOM     14  C   UNL     1      -6.475   6.569  10.149  1.00  0.00     0.016 A 
ATOM     15  C   UNL     1      -7.830   6.246  10.055  1.00  0.00     0.047 A 
ATOM     16  C   UNL     1      -8.782   6.969  10.794  1.00  0.00     0.115 A 
ATOM     17  C   UNL     1      -7.030   8.388  11.655  1.00  0.00     0.016 A 
ATOM     18  C   UNL     1      -8.386   8.046  11.595  1.00  0.00     0.047 A 
BRANCH  16  19
ATOM     19  O   UNL     1     -10.125   6.611  10.764  1.00  0.00    -0.508 OA
ATOM     20  H   UNL     1     -10.482   5.939  10.106  1.00  0.00     0.293 HD
ENDBRANCH  16  19
ENDBRANCH   3  13
BRANCH  10  21
ATOM     21  O   UNL     1      -0.813   9.309  14.287  1.00  0.00    -0.507 OA
ATOM     22  H   UNL     1       0.134   9.109  14.582  1.00  0.00     0.293 HD
ENDBRANCH  10  21
BRANCH  11  23
ATOM     23  O   UNL     1       0.075  11.125   9.890  1.00  0.00    -0.508 OA
ATOM     24  H   UNL     1       0.869  11.648  10.244  1.00  0.00     0.293 HD
ENDBRANCH  11  23
ENDBRANCH   1   2
BRANCH   1  25
ATOM     25  C   UNL     1      -5.144   5.912  14.589  1.00  0.00     0.339 C 
ATOM     26  C   UNL     1      -5.275   4.366  14.550  1.00  0.00     0.214 C 
ATOM     27  O   UNL     1      -6.255   6.493  15.252  1.00  0.00    -0.332 OA
ATOM     28  C   UNL     1      -5.471   3.756  15.973  1.00  0.00     0.180 C 
ATOM     29  C   UNL     1      -6.541   5.953  16.540  1.00  0.00     0.179 C 
ATOM     30  C   UNL     1      -5.575   4.845  17.052  1.00  0.00     0.177 C 
BRANCH  26  31
ATOM     31  O   UNL     1      -6.302   3.961  13.687  1.00  0.00    -0.384 OA
ATOM     32  H   UNL     1      -6.017   3.135  13.222  1.00  0.00     0.211 HD
ENDBRANCH  26  31
BRANCH  28  33
ATOM     33  O   UNL     1      -4.407   2.897  16.290  1.00  0.00    -0.387 OA
ATOM     34  H   UNL     1      -3.791   3.414  16.870  1.00  0.00     0.211 HD
ENDBRANCH  28  33
BRANCH  29  35
ATOM     35  C   UNL     1      -6.667   7.119  17.528  1.00  0.00     0.191 C 
BRANCH  35  36
ATOM     36  O   UNL     1      -6.716   6.599  18.829  1.00  0.00    -0.394 OA
ATOM     37  H   UNL     1      -6.979   7.340  19.426  1.00  0.00     0.210 HD
ENDBRANCH  35  36
ENDBRANCH  29  35
BRANCH  30  38
ATOM     38  O   UNL     1      -4.300   5.344  17.351  1.00  0.00    -0.387 OA
ATOM     39  H   UNL     1      -3.988   4.897  18.180  1.00  0.00     0.211 HD
ENDBRANCH  30  38
ENDBRANCH   1  25
TORSDOF 11
ENDMDL
MODEL 8
REMARK VINA RESULT:    -5.808      2.115      5.118
REMARK INTER + INTRA:          -9.682
REMARK INTER:                  -8.562
REMARK INTRA:                  -1.120
REMARK UNBOUND:                -1.327
REMARK SMILES O=c1c(O[C@H]2O[C@H](CO)[C@H](O)[C@H](O)[C@H]2O)c(-c2ccc(O)cc2)oc2cc(O)cc(O)c12
REMARK SMILES IDX 4 1 3 2 16 3 24 4 2 5 25 6 1 7 32 8 26 9 30 10 27 11 29 12
REMARK SMILES IDX 17 13 18 14 19 15 20 16 23 17 22 18 21 19 31 21 28 23 5 25
REMARK SMILES IDX 14 26 6 27 12 28 7 29 10 30 15 31 13 33 8 35 9 36 11 38
REMARK H PARENT 21 20 31 22 28 24 15 32 13 34 9 37 11 39
REMARK Flexibility Score: inf
ROOT
ATOM      1  O   UNL     1      -5.871   7.911  13.842  1.00  0.00    -0.454 OA
ENDROOT
BRANCH   1   2
ATOM      2  C   UNL     1      -4.840   8.507  13.096  1.00  0.00     0.214 A 
ATOM      3  C   UNL     1      -4.874   8.309  11.711  1.00  0.00     0.180 A 
ATOM      4  O   UNL     1      -3.843   8.670  10.941  1.00  0.00    -0.452 OA
ATOM      5  C   UNL     1      -3.826   9.339  13.609  1.00  0.00     0.239 A 
ATOM      6  C   UNL     1      -2.795   9.322  11.419  1.00  0.00     0.146 A 
ATOM      7  O   UNL     1      -3.891   9.782  14.782  1.00  0.00    -0.285 OA
ATOM      8  C   UNL     1      -2.772   9.751  12.765  1.00  0.00     0.111 A 
ATOM      9  C   UNL     1      -1.759   9.659  10.544  1.00  0.00     0.094 A 
ATOM     10  C   UNL     1      -1.724  10.604  13.191  1.00  0.00     0.134 A 
ATOM     11  C   UNL     1      -0.719  10.486  10.978  1.00  0.00     0.123 A 
ATOM     12  C   UNL     1      -0.708  10.957  12.294  1.00  0.00     0.093 A 
BRANCH   3  13
ATOM     13  C   UNL     1      -6.150   7.919  11.099  1.00  0.00     0.021 A 
ATOM     14  C   UNL     1      -6.334   6.653  10.525  1.00  0.00     0.016 A 
ATOM     15  C   UNL     1      -7.624   6.187  10.264  1.00  0.00     0.047 A 
ATOM     16  C   UNL     1      -8.740   6.967  10.609  1.00  0.00     0.115 A 
ATOM     17  C   UNL     1      -7.272   8.712  11.400  1.00  0.00     0.016 A 
ATOM     18  C   UNL     1      -8.569   8.235  11.176  1.00  0.00     0.047 A 
BRANCH  16  19
ATOM     19  O   UNL     1     -10.030   6.483  10.420  1.00  0.00    -0.508 OA
ATOM     20  H   UNL     1     -10.685   6.938   9.808  1.00  0.00     0.293 HD
ENDBRANCH  16  19
ENDBRANCH   3  13
BRANCH  10  21
ATOM     21  O   UNL     1      -1.698  11.116  14.482  1.00  0.00    -0.507 OA
ATOM     22  H   UNL     1      -1.902  12.087  14.679  1.00  0.00     0.293 HD
ENDBRANCH  10  21
BRANCH  11  23
ATOM     23  O   UNL     1       0.282  10.844  10.075  1.00  0.00    -0.508 OA
ATOM     24  H   UNL     1       0.076  10.949   9.086  1.00  0.00     0.293 HD
ENDBRANCH  11  23
ENDBRANCH   1   2
BRANCH   1  25
ATOM     25  C   UNL     1      -5.822   6.937  14.882  1.00  0.00     0.339 C 
ATOM     26  C   UNL     1      -6.261   7.560  16.234  1.00  0.00     0.214 C 
ATOM     27  O   UNL     1      -4.471   6.507  14.944  1.00  0.00    -0.332 OA
ATOM     28  C   UNL     1      -6.028   6.588  17.433  1.00  0.00     0.180 C 
ATOM     29  C   UNL     1      -4.156   5.658  16.045  1.00  0.00     0.179 C 
ATOM     30  C   UNL     1      -5.337   5.290  16.990  1.00  0.00     0.177 C 
BRANCH  26  31
ATOM     31  O   UNL     1      -5.632   8.792  16.458  1.00  0.00    -0.384 OA
ATOM     32  H   UNL     1      -4.669   8.629  16.616  1.00  0.00     0.211 HD
ENDBRANCH  26  31
BRANCH  28  33
ATOM     33  O   UNL     1      -7.246   6.271  18.054  1.00  0.00    -0.387 OA
ATOM     34  H   UNL     1      -7.018   5.852  18.923  1.00  0.00     0.211 HD
ENDBRANCH  28  33
BRANCH  29  35
ATOM     35  C   UNL     1      -3.436   4.420  15.501  1.00  0.00     0.191 C 
BRANCH  35  36
ATOM     36  O   UNL     1      -4.053   4.035  14.302  1.00  0.00    -0.394 OA
ATOM     37  H   UNL     1      -4.969   4.402  14.318  1.00  0.00     0.210 HD
ENDBRANCH  35  36
ENDBRANCH  29  35
BRANCH  30  38
ATOM     38  O   UNL     1      -6.267   4.440  16.376  1.00  0.00    -0.387 OA
ATOM     39  H   UNL     1      -6.823   4.035  17.091  1.00  0.00     0.211 HD
ENDBRANCH  30  38
ENDBRANCH   1  25
TORSDOF 11
ENDMDL
