MODEL 1
REMARK VINA RESULT:    -6.433      0.000      0.000
REMARK INTER + INTRA:          -7.839
REMARK INTER:                  -7.561
REMARK INTRA:                  -0.278
REMARK UNBOUND:                -0.278
REMARK SMILES O=c1cc(-c2ccc(O)c(O)c2)oc2cc(O)cc(O)c12
REMARK SMILES IDX 4 1 3 2 2 3 1 4 21 5 19 6 18 7 16 8 15 9 14 10 13 11 5 12
REMARK SMILES IDX 6 13 7 14 8 15 12 16 10 17 9 18 11 20 20 22 17 24
REMARK H PARENT 9 19 11 21 20 23 17 25
REMARK Flexibility Score: inf
ROOT
ATOM      1  C   UNL     1      31.235 -91.997  37.457  1.00  0.00     0.138 A 
ATOM      2  C   UNL     1      32.302 -92.799  37.885  1.00  0.00     0.100 A 
ATOM      3  C   UNL     1      32.108 -94.170  38.060  1.00  0.00     0.197 A 
ATOM      4  O   UNL     1      33.070 -94.853  38.498  1.00  0.00    -0.289 OA
ATOM      5  C   UNL     1      30.848 -94.746  37.771  1.00  0.00     0.107 A 
ATOM      6  C   UNL     1      30.543 -96.136  37.880  1.00  0.00     0.134 A 
ATOM      7  C   UNL     1      29.231 -96.575  37.661  1.00  0.00     0.093 A 
ATOM      8  C   UNL     1      28.227 -95.685  37.282  1.00  0.00     0.123 A 
ATOM      9  C   UNL     1      28.525 -94.330  37.123  1.00  0.00     0.094 A 
ATOM     10  C   UNL     1      29.815 -93.856  37.368  1.00  0.00     0.146 A 
ATOM     11  O   UNL     1      30.052 -92.557  37.223  1.00  0.00    -0.456 OA
ENDROOT
BRANCH   1  12
ATOM     12  C   UNL     1      31.386 -90.534  37.251  1.00  0.00     0.021 A 
ATOM     13  C   UNL     1      32.314 -90.007  36.334  1.00  0.00     0.016 A 
ATOM     14  C   UNL     1      32.440 -88.625  36.169  1.00  0.00     0.051 A 
ATOM     15  C   UNL     1      31.653 -87.747  36.918  1.00  0.00     0.157 A 
ATOM     16  C   UNL     1      30.605 -89.645  38.011  1.00  0.00     0.062 A 
ATOM     17  C   UNL     1      30.730 -88.258  37.846  1.00  0.00     0.158 A 
BRANCH  15  18
ATOM     18  O   UNL     1      31.801 -86.373  36.730  1.00  0.00    -0.504 OA
ATOM     19  H   UNL     1      32.063 -85.752  37.487  1.00  0.00     0.293 HD
ENDBRANCH  15  18
BRANCH  17  20
ATOM     20  O   UNL     1      29.943 -87.389  38.600  1.00  0.00    -0.504 OA
ATOM     21  H   UNL     1      29.233 -86.809  38.171  1.00  0.00     0.293 HD
ENDBRANCH  17  20
ENDBRANCH   1  12
BRANCH   6  22
ATOM     22  O   UNL     1      31.487 -97.124  38.176  1.00  0.00    -0.507 OA
ATOM     23  H   UNL     1      32.242 -97.404  37.570  1.00  0.00     0.293 HD
ENDBRANCH   6  22
BRANCH   8  24
ATOM     24  O   UNL     1      26.936 -96.159  37.057  1.00  0.00    -0.508 OA
ATOM     25  H   UNL     1      26.120 -95.627  37.335  1.00  0.00     0.293 HD
ENDBRANCH   8  24
TORSDOF 5
ENDMDL
MODEL 2
REMARK VINA RESULT:    -5.726      9.305     11.151
REMARK INTER + INTRA:          -7.008
REMARK INTER:                  -6.692
REMARK INTRA:                  -0.317
REMARK UNBOUND:                -0.278
REMARK SMILES O=c1cc(-c2ccc(O)c(O)c2)oc2cc(O)cc(O)c12
REMARK SMILES IDX 4 1 3 2 2 3 1 4 21 5 19 6 18 7 16 8 15 9 14 10 13 11 5 12
REMARK SMILES IDX 6 13 7 14 8 15 12 16 10 17 9 18 11 20 20 22 17 24
REMARK H PARENT 9 19 11 21 20 23 17 25
REMARK Flexibility Score: inf
ROOT
ATOM      1  C   UNL     1      40.719 -95.119  35.699  1.00  0.00     0.138 A 
ATOM      2  C   UNL     1      41.835 -95.323  34.877  1.00  0.00     0.100 A 
ATOM      3  C   UNL     1      41.675 -95.357  33.491  1.00  0.00     0.197 A 
ATOM      4  O   UNL     1      42.687 -95.597  32.783  1.00  0.00    -0.289 OA
ATOM      5  C   UNL     1      40.394 -95.151  32.925  1.00  0.00     0.107 A 
ATOM      6  C   UNL     1      40.115 -95.131  31.525  1.00  0.00     0.134 A 
ATOM      7  C   UNL     1      38.791 -95.017  31.086  1.00  0.00     0.093 A 
ATOM      8  C   UNL     1      37.741 -94.864  31.992  1.00  0.00     0.123 A 
ATOM      9  C   UNL     1      38.007 -94.832  33.362  1.00  0.00     0.094 A 
ATOM     10  C   UNL     1      39.314 -94.978  33.832  1.00  0.00     0.146 A 
ATOM     11  O   UNL     1      39.522 -94.961  35.144  1.00  0.00    -0.456 OA
ENDROOT
BRANCH   1  12
ATOM     12  C   UNL     1      40.833 -95.070  37.179  1.00  0.00     0.021 A 
ATOM     13  C   UNL     1      42.008 -95.465  37.845  1.00  0.00     0.016 A 
ATOM     14  C   UNL     1      42.082 -95.417  39.240  1.00  0.00     0.051 A 
ATOM     15  C   UNL     1      40.988 -94.985  39.993  1.00  0.00     0.157 A 
ATOM     16  C   UNL     1      39.730 -94.648  37.943  1.00  0.00     0.062 A 
ATOM     17  C   UNL     1      39.804 -94.599  39.343  1.00  0.00     0.158 A 
BRANCH  15  18
ATOM     18  O   UNL     1      41.093 -94.947  41.383  1.00  0.00    -0.504 OA
ATOM     19  H   UNL     1      41.962 -95.152  41.862  1.00  0.00     0.293 HD
ENDBRANCH  15  18
BRANCH  17  20
ATOM     20  O   UNL     1      38.706 -94.170  40.088  1.00  0.00    -0.504 OA
ATOM     21  H   UNL     1      37.798 -94.608  39.994  1.00  0.00     0.293 HD
ENDBRANCH  17  20
ENDBRANCH   1  12
BRANCH   6  22
ATOM     22  O   UNL     1      41.096 -95.197  30.530  1.00  0.00    -0.507 OA
ATOM     23  H   UNL     1      41.543 -96.043  30.212  1.00  0.00     0.293 HD
ENDBRANCH   6  22
BRANCH   8  24
ATOM     24  O   UNL     1      36.437 -94.737  31.519  1.00  0.00    -0.508 OA
ATOM     25  H   UNL     1      36.010 -95.453  30.944  1.00  0.00     0.293 HD
ENDBRANCH   8  24
TORSDOF 5
ENDMDL
MODEL 3
REMARK VINA RESULT:    -5.599     15.103     17.093
REMARK INTER + INTRA:          -6.859
REMARK INTER:                  -6.568
REMARK INTRA:                  -0.290
REMARK UNBOUND:                -0.278
REMARK SMILES O=c1cc(-c2ccc(O)c(O)c2)oc2cc(O)cc(O)c12
REMARK SMILES IDX 4 1 3 2 2 3 1 4 21 5 19 6 18 7 16 8 15 9 14 10 13 11 5 12
REMARK SMILES IDX 6 13 7 14 8 15 12 16 10 17 9 18 11 20 20 22 17 24
REMARK H PARENT 9 19 11 21 20 23 17 25
REMARK Flexibility Score: inf
ROOT
ATOM      1  C   UNL     1      37.678 -77.329  34.387  1.00  0.00     0.138 A 
ATOM      2  C   UNL     1      37.946 -77.101  35.744  1.00  0.00     0.100 A 
ATOM      3  C   UNL     1      36.906 -77.158  36.672  1.00  0.00     0.197 A 
ATOM      4  O   UNL     1      37.169 -76.894  37.874  1.00  0.00    -0.289 OA
ATOM      5  C   UNL     1      35.596 -77.480  36.243  1.00  0.00     0.107 A 
ATOM      6  C   UNL     1      34.463 -77.600  37.104  1.00  0.00     0.134 A 
ATOM      7  C   UNL     1      33.197 -77.826  36.551  1.00  0.00     0.093 A 
ATOM      8  C   UNL     1      33.029 -77.995  35.177  1.00  0.00     0.123 A 
ATOM      9  C   UNL     1      34.137 -77.929  34.330  1.00  0.00     0.094 A 
ATOM     10  C   UNL     1      35.408 -77.670  34.847  1.00  0.00     0.146 A 
ATOM     11  O   UNL     1      36.433 -77.598  34.006  1.00  0.00    -0.456 OA
ENDROOT
BRANCH   1  12
ATOM     12  C   UNL     1      38.747 -77.284  33.357  1.00  0.00     0.021 A 
ATOM     13  C   UNL     1      38.453 -77.122  31.991  1.00  0.00     0.016 A 
ATOM     14  C   UNL     1      39.480 -77.093  31.043  1.00  0.00     0.051 A 
ATOM     15  C   UNL     1      40.812 -77.233  31.439  1.00  0.00     0.157 A 
ATOM     16  C   UNL     1      40.089 -77.438  33.747  1.00  0.00     0.062 A 
ATOM     17  C   UNL     1      41.120 -77.409  32.798  1.00  0.00     0.158 A 
BRANCH  15  18
ATOM     18  O   UNL     1      41.815 -77.199  30.469  1.00  0.00    -0.504 OA
ATOM     19  H   UNL     1      41.611 -77.297  29.482  1.00  0.00     0.293 HD
ENDBRANCH  15  18
BRANCH  17  20
ATOM     20  O   UNL     1      42.448 -77.554  33.199  1.00  0.00    -0.504 OA
ATOM     21  H   UNL     1      42.706 -78.162  33.967  1.00  0.00     0.293 HD
ENDBRANCH  17  20
ENDBRANCH   1  12
BRANCH   6  22
ATOM     22  O   UNL     1      34.528 -77.528  38.499  1.00  0.00    -0.507 OA
ATOM     23  H   UNL     1      35.192 -78.021  39.074  1.00  0.00     0.293 HD
ENDBRANCH   6  22
BRANCH   8  24
ATOM     24  O   UNL     1      31.756 -78.234  34.663  1.00  0.00    -0.508 OA
ATOM     25  H   UNL     1      31.050 -77.508  34.638  1.00  0.00     0.293 HD
ENDBRANCH   8  24
TORSDOF 5
ENDMDL
MODEL 4
REMARK VINA RESULT:    -5.597      9.385     10.702
REMARK INTER + INTRA:          -6.856
REMARK INTER:                  -6.581
REMARK INTRA:                  -0.275
REMARK UNBOUND:                -0.278
REMARK SMILES O=c1cc(-c2ccc(O)c(O)c2)oc2cc(O)cc(O)c12
REMARK SMILES IDX 4 1 3 2 2 3 1 4 21 5 19 6 18 7 16 8 15 9 14 10 13 11 5 12
REMARK SMILES IDX 6 13 7 14 8 15 12 16 10 17 9 18 11 20 20 22 17 24
REMARK H PARENT 9 19 11 21 20 23 17 25
REMARK Flexibility Score: inf
ROOT
ATOM      1  C   UNL     1      37.541 -95.380  30.935  1.00  0.00     0.138 A 
ATOM      2  C   UNL     1      38.128 -96.124  29.903  1.00  0.00     0.100 A 
ATOM      3  C   UNL     1      37.438 -96.304  28.703  1.00  0.00     0.197 A 
ATOM      4  O   UNL     1      37.968 -97.023  27.817  1.00  0.00    -0.289 OA
ATOM      5  C   UNL     1      36.168 -95.705  28.524  1.00  0.00     0.107 A 
ATOM      6  C   UNL     1      35.388 -95.792  27.332  1.00  0.00     0.134 A 
ATOM      7  C   UNL     1      34.101 -95.239  27.308  1.00  0.00     0.093 A 
ATOM      8  C   UNL     1      33.589 -94.554  28.409  1.00  0.00     0.123 A 
ATOM      9  C   UNL     1      34.364 -94.420  29.563  1.00  0.00     0.094 A 
ATOM     10  C   UNL     1      35.637 -94.990  29.631  1.00  0.00     0.146 A 
ATOM     11  O   UNL     1      36.334 -94.855  30.754  1.00  0.00    -0.456 OA
ENDROOT
BRANCH   1  12
ATOM     12  C   UNL     1      38.231 -95.154  32.231  1.00  0.00     0.021 A 
ATOM     13  C   UNL     1      39.446 -94.448  32.310  1.00  0.00     0.016 A 
ATOM     14  C   UNL     1      40.077 -94.260  33.542  1.00  0.00     0.051 A 
ATOM     15  C   UNL     1      39.515 -94.777  34.712  1.00  0.00     0.157 A 
ATOM     16  C   UNL     1      37.678 -95.684  33.410  1.00  0.00     0.062 A 
ATOM     17  C   UNL     1      38.310 -95.495  34.647  1.00  0.00     0.158 A 
BRANCH  15  18
ATOM     18  O   UNL     1      40.169 -94.572  35.927  1.00  0.00    -0.504 OA
ATOM     19  H   UNL     1      40.719 -93.741  36.108  1.00  0.00     0.293 HD
ENDBRANCH  15  18
BRANCH  17  20
ATOM     20  O   UNL     1      37.745 -96.018  35.810  1.00  0.00    -0.504 OA
ATOM     21  H   UNL     1      38.135 -96.831  36.270  1.00  0.00     0.293 HD
ENDBRANCH  17  20
ENDBRANCH   1  12
BRANCH   6  22
ATOM     22  O   UNL     1      35.831 -96.384  26.146  1.00  0.00    -0.507 OA
ATOM     23  H   UNL     1      36.655 -96.959  26.058  1.00  0.00     0.293 HD
ENDBRANCH   6  22
BRANCH   8  24
ATOM     24  O   UNL     1      32.311 -94.004  28.344  1.00  0.00    -0.508 OA
ATOM     25  H   UNL     1      31.753 -94.058  27.500  1.00  0.00     0.293 HD
ENDBRANCH   8  24
TORSDOF 5
ENDMDL
MODEL 5
REMARK VINA RESULT:    -5.530     15.364     17.902
REMARK INTER + INTRA:          -6.778
REMARK INTER:                  -6.466
REMARK INTRA:                  -0.312
REMARK UNBOUND:                -0.278
REMARK SMILES O=c1cc(-c2ccc(O)c(O)c2)oc2cc(O)cc(O)c12
REMARK SMILES IDX 4 1 3 2 2 3 1 4 21 5 19 6 18 7 16 8 15 9 14 10 13 11 5 12
REMARK SMILES IDX 6 13 7 14 8 15 12 16 10 17 9 18 11 20 20 22 17 24
REMARK H PARENT 9 19 11 21 20 23 17 25
REMARK Flexibility Score: inf
ROOT
ATOM      1  C   UNL     1      36.785 -77.280  33.776  1.00  0.00     0.138 A 
ATOM      2  C   UNL     1      36.374 -77.138  32.443  1.00  0.00     0.100 A 
ATOM      3  C   UNL     1      37.331 -77.057  31.430  1.00  0.00     0.197 A 
ATOM      4  O   UNL     1      36.932 -76.875  30.251  1.00  0.00    -0.289 OA
ATOM      5  C   UNL     1      38.707 -77.154  31.751  1.00  0.00     0.107 A 
ATOM      6  C   UNL     1      39.770 -77.119  30.799  1.00  0.00     0.134 A 
ATOM      7  C   UNL     1      41.097 -77.125  31.246  1.00  0.00     0.093 A 
ATOM      8  C   UNL     1      41.400 -77.223  32.604  1.00  0.00     0.123 A 
ATOM      9  C   UNL     1      40.369 -77.309  33.540  1.00  0.00     0.094 A 
ATOM     10  C   UNL     1      39.035 -77.270  33.129  1.00  0.00     0.146 A 
ATOM     11  O   UNL     1      38.084 -77.336  34.054  1.00  0.00    -0.456 OA
ENDROOT
BRANCH   1  12
ATOM     12  C   UNL     1      35.810 -77.374  34.892  1.00  0.00     0.021 A 
ATOM     13  C   UNL     1      34.499 -76.878  34.774  1.00  0.00     0.016 A 
ATOM     14  C   UNL     1      33.607 -76.972  35.845  1.00  0.00     0.051 A 
ATOM     15  C   UNL     1      34.007 -77.552  37.051  1.00  0.00     0.157 A 
ATOM     16  C   UNL     1      36.211 -77.944  36.113  1.00  0.00     0.062 A 
ATOM     17  C   UNL     1      35.317 -78.039  37.189  1.00  0.00     0.158 A 
BRANCH  15  18
ATOM     18  O   UNL     1      33.093 -77.632  38.102  1.00  0.00    -0.504 OA
ATOM     19  H   UNL     1      33.168 -78.335  38.827  1.00  0.00     0.293 HD
ENDBRANCH  15  18
BRANCH  17  20
ATOM     20  O   UNL     1      35.725 -78.615  38.391  1.00  0.00    -0.504 OA
ATOM     21  H   UNL     1      36.642 -78.436  38.781  1.00  0.00     0.293 HD
ENDBRANCH  17  20
ENDBRANCH   1  12
BRANCH   6  22
ATOM     22  O   UNL     1      39.581 -77.100  29.414  1.00  0.00    -0.507 OA
ATOM     23  H   UNL     1      38.792 -77.501  28.931  1.00  0.00     0.293 HD
ENDBRANCH   6  22
BRANCH   8  24
ATOM     24  O   UNL     1      42.733 -77.241  33.011  1.00  0.00    -0.508 OA
ATOM     25  H   UNL     1      43.463 -76.812  32.455  1.00  0.00     0.293 HD
ENDBRANCH   8  24
TORSDOF 5
ENDMDL
MODEL 6
REMARK VINA RESULT:    -5.496     14.856     16.321
REMARK INTER + INTRA:          -6.738
REMARK INTER:                  -6.423
REMARK INTRA:                  -0.315
REMARK UNBOUND:                -0.278
REMARK SMILES O=c1cc(-c2ccc(O)c(O)c2)oc2cc(O)cc(O)c12
REMARK SMILES IDX 4 1 3 2 2 3 1 4 21 5 19 6 18 7 16 8 15 9 14 10 13 11 5 12
REMARK SMILES IDX 6 13 7 14 8 15 12 16 10 17 9 18 11 20 20 22 17 24
REMARK H PARENT 9 19 11 21 20 23 17 25
REMARK Flexibility Score: inf
ROOT
ATOM      1  C   UNL     1      37.090 -78.081  37.267  1.00  0.00     0.138 A 
ATOM      2  C   UNL     1      38.250 -77.592  36.649  1.00  0.00     0.100 A 
ATOM      3  C   UNL     1      39.478 -77.698  37.303  1.00  0.00     0.197 A 
ATOM      4  O   UNL     1      40.490 -77.200  36.746  1.00  0.00    -0.289 OA
ATOM      5  C   UNL     1      39.550 -78.328  38.568  1.00  0.00     0.107 A 
ATOM      6  C   UNL     1      40.751 -78.522  39.314  1.00  0.00     0.134 A 
ATOM      7  C   UNL     1      40.684 -79.071  40.601  1.00  0.00     0.093 A 
ATOM      8  C   UNL     1      39.469 -79.485  41.146  1.00  0.00     0.123 A 
ATOM      9  C   UNL     1      38.294 -79.346  40.405  1.00  0.00     0.094 A 
ATOM     10  C   UNL     1      38.323 -78.770  39.133  1.00  0.00     0.146 A 
ATOM     11  O   UNL     1      37.180 -78.639  38.470  1.00  0.00    -0.456 OA
ENDROOT
BRANCH   1  12
ATOM     12  C   UNL     1      35.759 -77.997  36.615  1.00  0.00     0.021 A 
ATOM     13  C   UNL     1      35.621 -77.699  35.247  1.00  0.00     0.016 A 
ATOM     14  C   UNL     1      34.354 -77.618  34.663  1.00  0.00     0.051 A 
ATOM     15  C   UNL     1      33.206 -77.824  35.432  1.00  0.00     0.157 A 
ATOM     16  C   UNL     1      34.599 -78.190  37.386  1.00  0.00     0.062 A 
ATOM     17  C   UNL     1      33.327 -78.109  36.802  1.00  0.00     0.158 A 
BRANCH  15  18
ATOM     18  O   UNL     1      31.955 -77.737  34.820  1.00  0.00    -0.504 OA
ATOM     19  H   UNL     1      31.409 -76.883  34.832  1.00  0.00     0.293 HD
ENDBRANCH  15  18
BRANCH  17  20
ATOM     20  O   UNL     1      32.185 -78.311  37.576  1.00  0.00    -0.504 OA
ATOM     21  H   UNL     1      31.272 -78.429  37.155  1.00  0.00     0.293 HD
ENDBRANCH  17  20
ENDBRANCH   1  12
BRANCH   6  22
ATOM     22  O   UNL     1      42.029 -78.218  38.835  1.00  0.00    -0.507 OA
ATOM     23  H   UNL     1      42.604 -78.836  38.284  1.00  0.00     0.293 HD
ENDBRANCH   6  22
BRANCH   8  24
ATOM     24  O   UNL     1      39.442 -80.042  42.423  1.00  0.00    -0.508 OA
ATOM     25  H   UNL     1      40.218 -79.933  43.065  1.00  0.00     0.293 HD
ENDBRANCH   8  24
TORSDOF 5
ENDMDL
MODEL 7
REMARK VINA RESULT:    -5.493     15.727     17.453
REMARK INTER + INTRA:          -6.734
REMARK INTER:                  -6.418
REMARK INTRA:                  -0.317
REMARK UNBOUND:                -0.278
REMARK SMILES O=c1cc(-c2ccc(O)c(O)c2)oc2cc(O)cc(O)c12
REMARK SMILES IDX 4 1 3 2 2 3 1 4 21 5 19 6 18 7 16 8 15 9 14 10 13 11 5 12
REMARK SMILES IDX 6 13 7 14 8 15 12 16 10 17 9 18 11 20 20 22 17 24
REMARK H PARENT 9 19 11 21 20 23 17 25
REMARK Flexibility Score: inf
ROOT
ATOM      1  C   UNL     1      38.137 -77.428  34.747  1.00  0.00     0.138 A 
ATOM      2  C   UNL     1      36.767 -77.163  34.610  1.00  0.00     0.100 A 
ATOM      3  C   UNL     1      35.926 -77.286  35.716  1.00  0.00     0.197 A 
ATOM      4  O   UNL     1      34.694 -77.095  35.547  1.00  0.00    -0.289 OA
ATOM      5  C   UNL     1      36.465 -77.642  36.976  1.00  0.00     0.107 A 
ATOM      6  C   UNL     1      35.710 -77.764  38.180  1.00  0.00     0.134 A 
ATOM      7  C   UNL     1      36.338 -78.219  39.346  1.00  0.00     0.093 A 
ATOM      8  C   UNL     1      37.704 -78.500  39.367  1.00  0.00     0.123 A 
ATOM      9  C   UNL     1      38.463 -78.336  38.207  1.00  0.00     0.094 A 
ATOM     10  C   UNL     1      37.859 -77.918  37.019  1.00  0.00     0.146 A 
ATOM     11  O   UNL     1      38.613 -77.792  35.933  1.00  0.00    -0.456 OA
ENDROOT
BRANCH   1  12
ATOM     12  C   UNL     1      39.078 -77.310  33.604  1.00  0.00     0.021 A 
ATOM     13  C   UNL     1      38.622 -77.151  32.283  1.00  0.00     0.016 A 
ATOM     14  C   UNL     1      39.532 -77.052  31.227  1.00  0.00     0.051 A 
ATOM     15  C   UNL     1      40.906 -77.119  31.467  1.00  0.00     0.157 A 
ATOM     16  C   UNL     1      40.462 -77.390  33.838  1.00  0.00     0.062 A 
ATOM     17  C   UNL     1      41.376 -77.291  32.779  1.00  0.00     0.158 A 
BRANCH  15  18
ATOM     18  O   UNL     1      41.789 -77.017  30.391  1.00  0.00    -0.504 OA
ATOM     19  H   UNL     1      42.700 -77.459  30.400  1.00  0.00     0.293 HD
ENDBRANCH  15  18
BRANCH  17  20
ATOM     20  O   UNL     1      42.746 -77.362  33.027  1.00  0.00    -0.504 OA
ATOM     21  H   UNL     1      43.422 -76.969  32.384  1.00  0.00     0.293 HD
ENDBRANCH  17  20
ENDBRANCH   1  12
BRANCH   6  22
ATOM     22  O   UNL     1      34.356 -77.434  38.293  1.00  0.00    -0.507 OA
ATOM     23  H   UNL     1      33.691 -77.906  38.885  1.00  0.00     0.293 HD
ENDBRANCH   6  22
BRANCH   8  24
ATOM     24  O   UNL     1      38.298 -78.936  40.549  1.00  0.00    -0.508 OA
ATOM     25  H   UNL     1      37.984 -78.607  41.453  1.00  0.00     0.293 HD
ENDBRANCH   8  24
TORSDOF 5
ENDMDL
MODEL 8
REMARK VINA RESULT:    -5.440      9.408     11.113
REMARK INTER + INTRA:          -6.672
REMARK INTER:                  -6.394
REMARK INTRA:                  -0.278
REMARK UNBOUND:                -0.278
REMARK SMILES O=c1cc(-c2ccc(O)c(O)c2)oc2cc(O)cc(O)c12
REMARK SMILES IDX 4 1 3 2 2 3 1 4 21 5 19 6 18 7 16 8 15 9 14 10 13 11 5 12
REMARK SMILES IDX 6 13 7 14 8 15 12 16 10 17 9 18 11 20 20 22 17 24
REMARK H PARENT 9 19 11 21 20 23 17 25
REMARK Flexibility Score: inf
ROOT
ATOM      1  C   UNL     1      36.327 -95.269  29.845  1.00  0.00     0.138 A 
ATOM      2  C   UNL     1      37.392 -95.588  28.992  1.00  0.00     0.100 A 
ATOM      3  C   UNL     1      38.697 -95.582  29.484  1.00  0.00     0.197 A 
ATOM      4  O   UNL     1      39.635 -95.818  28.680  1.00  0.00    -0.289 OA
ATOM      5  C   UNL     1      38.934 -95.289  30.849  1.00  0.00     0.107 A 
ATOM      6  C   UNL     1      40.219 -95.286  31.471  1.00  0.00     0.134 A 
ATOM      7  C   UNL     1      40.338 -94.884  32.807  1.00  0.00     0.093 A 
ATOM      8  C   UNL     1      39.216 -94.541  33.560  1.00  0.00     0.123 A 
ATOM      9  C   UNL     1      37.948 -94.589  32.977  1.00  0.00     0.094 A 
ATOM     10  C   UNL     1      37.800 -94.952  31.637  1.00  0.00     0.146 A 
ATOM     11  O   UNL     1      36.578 -94.966  31.115  1.00  0.00    -0.456 OA
ENDROOT
BRANCH   1  12
ATOM     12  C   UNL     1      34.918 -95.264  29.375  1.00  0.00     0.021 A 
ATOM     13  C   UNL     1      34.486 -94.412  28.342  1.00  0.00     0.016 A 
ATOM     14  C   UNL     1      33.151 -94.422  27.927  1.00  0.00     0.051 A 
ATOM     15  C   UNL     1      32.226 -95.272  28.537  1.00  0.00     0.157 A 
ATOM     16  C   UNL     1      33.979 -96.107  29.995  1.00  0.00     0.062 A 
ATOM     17  C   UNL     1      32.640 -96.119  29.579  1.00  0.00     0.158 A 
BRANCH  15  18
ATOM     18  O   UNL     1      30.901 -95.259  28.100  1.00  0.00    -0.504 OA
ATOM     19  H   UNL     1      30.216 -94.616  28.480  1.00  0.00     0.293 HD
ENDBRANCH  15  18
BRANCH  17  20
ATOM     20  O   UNL     1      31.721 -96.967  30.196  1.00  0.00    -0.504 OA
ATOM     21  H   UNL     1      31.453 -97.850  29.781  1.00  0.00     0.293 HD
ENDBRANCH  17  20
ENDBRANCH   1  12
BRANCH   6  22
ATOM     22  O   UNL     1      41.398 -95.686  30.835  1.00  0.00    -0.507 OA
ATOM     23  H   UNL     1      41.762 -96.626  30.829  1.00  0.00     0.293 HD
ENDBRANCH   6  22
BRANCH   8  24
ATOM     24  O   UNL     1      39.371 -94.161  34.892  1.00  0.00    -0.508 OA
ATOM     25  H   UNL     1      39.153 -94.793  35.652  1.00  0.00     0.293 HD
ENDBRANCH   8  24
TORSDOF 5
ENDMDL
