MODEL 1
REMARK VINA RESULT:    -5.076      0.000      0.000
REMARK INTER + INTRA:         -11.233
REMARK INTER:                  -9.527
REMARK INTRA:                  -1.706
REMARK UNBOUND:                -1.706
REMARK SMILES CCCCCCCCC=CCCCCCCCC(=O)[O-]
REMARK SMILES IDX 10 1 9 2 11 3 12 4 13 5 14 6 15 7 16 8 17 9 18 10 19 11
REMARK SMILES IDX 20 12 8 13 7 14 6 15 5 16 4 17 3 18 2 19 1 20
REMARK H PARENT
REMARK Flexibility Score: inf
ROOT
ATOM      1  C   UNL     1      -0.818 -19.517 -18.107  1.00  0.00    -0.031 C 
ATOM      2  C   UNL     1       0.105 -20.366 -17.616  1.00  0.00    -0.031 C 
ENDROOT
BRANCH   1   3
ATOM      3  C   UNL     1      -0.866 -19.034 -19.536  1.00  0.00     0.027 C 
BRANCH   3   4
ATOM      4  C   UNL     1      -1.671 -17.734 -19.676  1.00  0.00     0.004 C 
BRANCH   4   5
ATOM      5  C   UNL     1      -1.729 -16.946 -18.356  1.00  0.00     0.000 C 
BRANCH   5   6
ATOM      6  C   UNL     1      -3.165 -16.765 -17.831  1.00  0.00     0.000 C 
BRANCH   6   7
ATOM      7  C   UNL     1      -3.862 -15.461 -18.261  1.00  0.00     0.000 C 
BRANCH   7   8
ATOM      8  C   UNL     1      -4.490 -15.479 -19.669  1.00  0.00     0.006 C 
BRANCH   8   9
ATOM      9  C   UNL     1      -5.941 -15.993 -19.699  1.00  0.00     0.053 C 
BRANCH   9  10
ATOM     10  C   UNL     1      -6.019 -17.479 -19.877  1.00  0.00     0.041 C 
ATOM     11  O   UNL     1      -6.985 -18.126 -19.393  1.00  0.00    -0.550 OA
ATOM     12  O   UNL     1      -5.043 -18.146 -20.607  1.00  0.00    -0.550 OA
ENDBRANCH   9  10
ENDBRANCH   8   9
ENDBRANCH   7   8
ENDBRANCH   6   7
ENDBRANCH   5   6
ENDBRANCH   4   5
ENDBRANCH   3   4
ENDBRANCH   1   3
BRANCH   2  13
ATOM     13  C   UNL     1       1.176 -21.033 -18.440  1.00  0.00     0.027 C 
BRANCH  13  14
ATOM     14  C   UNL     1       2.523 -20.318 -18.260  1.00  0.00     0.004 C 
BRANCH  14  15
ATOM     15  C   UNL     1       2.359 -18.841 -17.869  1.00  0.00     0.000 C 
BRANCH  15  16
ATOM     16  C   UNL     1       2.537 -17.890 -19.065  1.00  0.00     0.000 C 
BRANCH  16  17
ATOM     17  C   UNL     1       2.263 -16.423 -18.698  1.00  0.00    -0.000 C 
BRANCH  17  18
ATOM     18  C   UNL     1       1.774 -16.260 -17.248  1.00  0.00    -0.000 C 
BRANCH  18  19
ATOM     19  C   UNL     1       2.395 -15.039 -16.551  1.00  0.00    -0.003 C 
ATOM     20  C   UNL     1       3.907 -14.952 -16.749  1.00  0.00     0.004 C 
ENDBRANCH  18  19
ENDBRANCH  17  18
ENDBRANCH  16  17
ENDBRANCH  15  16
ENDBRANCH  14  15
ENDBRANCH  13  14
ENDBRANCH   2  13
TORSDOF 15
ENDMDL
MODEL 2
REMARK VINA RESULT:    -5.028      1.420      2.155
REMARK INTER + INTRA:         -11.143
REMARK INTER:                  -8.665
REMARK INTRA:                  -2.478
REMARK UNBOUND:                -1.706
REMARK SMILES CCCCCCCCC=CCCCCCCCC(=O)[O-]
REMARK SMILES IDX 10 1 9 2 11 3 12 4 13 5 14 6 15 7 16 8 17 9 18 10 19 11
REMARK SMILES IDX 20 12 8 13 7 14 6 15 5 16 4 17 3 18 2 19 1 20
REMARK H PARENT
REMARK Flexibility Score: inf
ROOT
ATOM      1  C   UNL     1      -0.947 -19.334 -15.846  1.00  0.00    -0.031 C 
ATOM      2  C   UNL     1      -0.893 -20.230 -16.850  1.00  0.00    -0.031 C 
ENDROOT
BRANCH   1   3
ATOM      3  C   UNL     1      -0.139 -18.060 -15.789  1.00  0.00     0.027 C 
BRANCH   3   4
ATOM      4  C   UNL     1      -1.030 -16.823 -15.611  1.00  0.00     0.004 C 
BRANCH   4   5
ATOM      5  C   UNL     1      -1.994 -16.630 -16.794  1.00  0.00     0.000 C 
BRANCH   5   6
ATOM      6  C   UNL     1      -1.267 -16.517 -18.146  1.00  0.00     0.000 C 
BRANCH   6   7
ATOM      7  C   UNL     1      -2.111 -16.890 -19.379  1.00  0.00     0.000 C 
BRANCH   7   8
ATOM      8  C   UNL     1      -3.002 -18.138 -19.218  1.00  0.00     0.006 C 
BRANCH   8   9
ATOM      9  C   UNL     1      -4.334 -18.057 -19.985  1.00  0.00     0.053 C 
BRANCH   9  10
ATOM     10  C   UNL     1      -5.513 -17.907 -19.071  1.00  0.00     0.041 C 
ATOM     11  O   UNL     1      -5.345 -17.584 -17.866  1.00  0.00    -0.550 OA
ATOM     12  O   UNL     1      -6.801 -18.090 -19.559  1.00  0.00    -0.550 OA
ENDBRANCH   9  10
ENDBRANCH   8   9
ENDBRANCH   7   8
ENDBRANCH   6   7
ENDBRANCH   5   6
ENDBRANCH   4   5
ENDBRANCH   3   4
ENDBRANCH   1   3
BRANCH   2  13
ATOM     13  C   UNL     1      -0.087 -20.053 -18.111  1.00  0.00     0.027 C 
BRANCH  13  14
ATOM     14  C   UNL     1       1.235 -20.829 -18.022  1.00  0.00     0.004 C 
BRANCH  14  15
ATOM     15  C   UNL     1       2.446 -19.981 -18.437  1.00  0.00     0.000 C 
BRANCH  15  16
ATOM     16  C   UNL     1       2.320 -18.513 -17.994  1.00  0.00     0.000 C 
BRANCH  16  17
ATOM     17  C   UNL     1       2.380 -17.532 -19.175  1.00  0.00    -0.000 C 
BRANCH  17  18
ATOM     18  C   UNL     1       2.249 -16.065 -18.730  1.00  0.00    -0.000 C 
BRANCH  18  19
ATOM     19  C   UNL     1       2.411 -15.894 -17.212  1.00  0.00    -0.003 C 
ATOM     20  C   UNL     1       3.536 -14.928 -16.843  1.00  0.00     0.004 C 
ENDBRANCH  18  19
ENDBRANCH  17  18
ENDBRANCH  16  17
ENDBRANCH  15  16
ENDBRANCH  14  15
ENDBRANCH  13  14
ENDBRANCH   2  13
TORSDOF 15
ENDMDL
MODEL 3
REMARK VINA RESULT:    -5.020      8.843     11.088
REMARK INTER + INTRA:         -11.128
REMARK INTER:                  -8.782
REMARK INTRA:                  -2.346
REMARK UNBOUND:                -1.706
REMARK SMILES CCCCCCCCC=CCCCCCCCC(=O)[O-]
REMARK SMILES IDX 10 1 9 2 11 3 12 4 13 5 14 6 15 7 16 8 17 9 18 10 19 11
REMARK SMILES IDX 20 12 8 13 7 14 6 15 5 16 4 17 3 18 2 19 1 20
REMARK H PARENT
REMARK Flexibility Score: inf
ROOT
ATOM      1  C   UNL     1      -8.011 -20.388 -10.478  1.00  0.00    -0.031 C 
ATOM      2  C   UNL     1      -7.391 -19.292 -10.002  1.00  0.00    -0.031 C 
ENDROOT
BRANCH   1   3
ATOM      3  C   UNL     1      -8.084 -21.713  -9.759  1.00  0.00     0.027 C 
BRANCH   3   4
ATOM      4  C   UNL     1      -6.978 -22.676 -10.217  1.00  0.00     0.004 C 
BRANCH   4   5
ATOM      5  C   UNL     1      -6.517 -22.384 -11.655  1.00  0.00     0.000 C 
BRANCH   5   6
ATOM      6  C   UNL     1      -4.992 -22.209 -11.770  1.00  0.00     0.000 C 
BRANCH   6   7
ATOM      7  C   UNL     1      -4.351 -21.305 -10.701  1.00  0.00     0.000 C 
BRANCH   7   8
ATOM      8  C   UNL     1      -3.987 -19.882 -11.170  1.00  0.00     0.006 C 
BRANCH   8   9
ATOM      9  C   UNL     1      -2.772 -19.827 -12.113  1.00  0.00     0.053 C 
BRANCH   9  10
ATOM     10  C   UNL     1      -1.824 -18.720 -11.763  1.00  0.00     0.041 C 
ATOM     11  O   UNL     1      -0.936 -18.898 -10.888  1.00  0.00    -0.550 OA
ATOM     12  O   UNL     1      -1.898 -17.502 -12.427  1.00  0.00    -0.550 OA
ENDBRANCH   9  10
ENDBRANCH   8   9
ENDBRANCH   7   8
ENDBRANCH   6   7
ENDBRANCH   5   6
ENDBRANCH   4   5
ENDBRANCH   3   4
ENDBRANCH   1   3
BRANCH   2  13
ATOM     13  C   UNL     1      -6.753 -19.195  -8.639  1.00  0.00     0.027 C 
BRANCH  13  14
ATOM     14  C   UNL     1      -6.772 -17.746  -8.133  1.00  0.00     0.004 C 
BRANCH  14  15
ATOM     15  C   UNL     1      -8.155 -17.092  -8.270  1.00  0.00     0.000 C 
BRANCH  15  16
ATOM     16  C   UNL     1      -8.121 -15.807  -9.115  1.00  0.00     0.000 C 
BRANCH  16  17
ATOM     17  C   UNL     1      -6.786 -15.622  -9.854  1.00  0.00    -0.000 C 
BRANCH  17  18
ATOM     18  C   UNL     1      -6.908 -15.884 -11.366  1.00  0.00    -0.000 C 
BRANCH  18  19
ATOM     19  C   UNL     1      -5.653 -16.550 -11.951  1.00  0.00    -0.003 C 
ATOM     20  C   UNL     1      -4.752 -15.562 -12.691  1.00  0.00     0.004 C 
ENDBRANCH  18  19
ENDBRANCH  17  18
ENDBRANCH  16  17
ENDBRANCH  15  16
ENDBRANCH  14  15
ENDBRANCH  13  14
ENDBRANCH   2  13
TORSDOF 15
ENDMDL
MODEL 4
REMARK VINA RESULT:    -4.989      8.821     11.387
REMARK INTER + INTRA:         -11.070
REMARK INTER:                  -9.010
REMARK INTRA:                  -2.060
REMARK UNBOUND:                -1.706
REMARK SMILES CCCCCCCCC=CCCCCCCCC(=O)[O-]
REMARK SMILES IDX 10 1 9 2 11 3 12 4 13 5 14 6 15 7 16 8 17 9 18 10 19 11
REMARK SMILES IDX 20 12 8 13 7 14 6 15 5 16 4 17 3 18 2 19 1 20
REMARK H PARENT
REMARK Flexibility Score: inf
ROOT
ATOM      1  C   UNL     1      -6.513 -18.518  -8.233  1.00  0.00    -0.031 C 
ATOM      2  C   UNL     1      -7.079 -17.350  -7.875  1.00  0.00    -0.031 C 
ENDROOT
BRANCH   1   3
ATOM      3  C   UNL     1      -7.280 -19.765  -8.602  1.00  0.00     0.027 C 
BRANCH   3   4
ATOM      4  C   UNL     1      -7.284 -20.010 -10.118  1.00  0.00     0.004 C 
BRANCH   4   5
ATOM      5  C   UNL     1      -6.536 -21.299 -10.497  1.00  0.00     0.000 C 
BRANCH   5   6
ATOM      6  C   UNL     1      -5.014 -21.190 -10.293  1.00  0.00     0.000 C 
BRANCH   6   7
ATOM      7  C   UNL     1      -4.364 -19.920 -10.873  1.00  0.00     0.000 C 
BRANCH   7   8
ATOM      8  C   UNL     1      -3.008 -20.133 -11.576  1.00  0.00     0.006 C 
BRANCH   8   9
ATOM      9  C   UNL     1      -2.163 -21.268 -10.971  1.00  0.00     0.053 C 
BRANCH   9  10
ATOM     10  C   UNL     1      -2.085 -22.466 -11.870  1.00  0.00     0.041 C 
ATOM     11  O   UNL     1      -2.014 -23.623 -11.380  1.00  0.00    -0.550 OA
ATOM     12  O   UNL     1      -2.127 -22.306 -13.250  1.00  0.00    -0.550 OA
ENDBRANCH   9  10
ENDBRANCH   8   9
ENDBRANCH   7   8
ENDBRANCH   6   7
ENDBRANCH   5   6
ENDBRANCH   4   5
ENDBRANCH   3   4
ENDBRANCH   1   3
BRANCH   2  13
ATOM     13  C   UNL     1      -8.562 -17.083  -7.875  1.00  0.00     0.027 C 
BRANCH  13  14
ATOM     14  C   UNL     1      -8.927 -16.055  -8.955  1.00  0.00     0.004 C 
BRANCH  14  15
ATOM     15  C   UNL     1      -9.063 -16.686 -10.349  1.00  0.00     0.000 C 
BRANCH  15  16
ATOM     16  C   UNL     1      -8.256 -15.932 -11.420  1.00  0.00     0.000 C 
BRANCH  16  17
ATOM     17  C   UNL     1      -7.154 -15.048 -10.816  1.00  0.00    -0.000 C 
BRANCH  17  18
ATOM     18  C   UNL     1      -5.819 -15.172 -11.572  1.00  0.00    -0.000 C 
BRANCH  18  19
ATOM     19  C   UNL     1      -5.524 -16.614 -12.013  1.00  0.00    -0.003 C 
ATOM     20  C   UNL     1      -4.790 -16.682 -13.352  1.00  0.00     0.004 C 
ENDBRANCH  18  19
ENDBRANCH  17  18
ENDBRANCH  16  17
ENDBRANCH  15  16
ENDBRANCH  14  15
ENDBRANCH  13  14
ENDBRANCH   2  13
TORSDOF 15
ENDMDL
MODEL 5
REMARK VINA RESULT:    -4.982      7.904      9.462
REMARK INTER + INTRA:         -11.057
REMARK INTER:                  -9.095
REMARK INTRA:                  -1.961
REMARK UNBOUND:                -1.706
REMARK SMILES CCCCCCCCC=CCCCCCCCC(=O)[O-]
REMARK SMILES IDX 10 1 9 2 11 3 12 4 13 5 14 6 15 7 16 8 17 9 18 10 19 11
REMARK SMILES IDX 20 12 8 13 7 14 6 15 5 16 4 17 3 18 2 19 1 20
REMARK H PARENT
REMARK Flexibility Score: inf
ROOT
ATOM      1  C   UNL     1      -2.972 -20.993 -10.550  1.00  0.00    -0.031 C 
ATOM      2  C   UNL     1      -1.835 -20.348 -10.871  1.00  0.00    -0.031 C 
ENDROOT
BRANCH   1   3
ATOM      3  C   UNL     1      -4.361 -20.450 -10.782  1.00  0.00     0.027 C 
BRANCH   3   4
ATOM      4  C   UNL     1      -5.388 -21.072  -9.825  1.00  0.00     0.004 C 
BRANCH   4   5
ATOM      5  C   UNL     1      -6.805 -20.520 -10.061  1.00  0.00     0.000 C 
BRANCH   5   6
ATOM      6  C   UNL     1      -7.407 -19.861  -8.807  1.00  0.00     0.000 C 
BRANCH   6   7
ATOM      7  C   UNL     1      -6.544 -18.756  -8.169  1.00  0.00     0.000 C 
BRANCH   7   8
ATOM      8  C   UNL     1      -6.693 -17.355  -8.796  1.00  0.00     0.006 C 
BRANCH   8   9
ATOM      9  C   UNL     1      -8.113 -17.046  -9.303  1.00  0.00     0.053 C 
BRANCH   9  10
ATOM     10  C   UNL     1      -8.151 -15.850 -10.206  1.00  0.00     0.041 C 
ATOM     11  O   UNL     1      -8.944 -15.817 -11.183  1.00  0.00    -0.550 OA
ATOM     12  O   UNL     1      -7.334 -14.756  -9.949  1.00  0.00    -0.550 OA
ENDBRANCH   9  10
ENDBRANCH   8   9
ENDBRANCH   7   8
ENDBRANCH   6   7
ENDBRANCH   5   6
ENDBRANCH   4   5
ENDBRANCH   3   4
ENDBRANCH   1   3
BRANCH   2  13
ATOM     13  C   UNL     1      -1.777 -19.027 -11.594  1.00  0.00     0.027 C 
BRANCH  13  14
ATOM     14  C   UNL     1      -1.057 -19.178 -12.941  1.00  0.00     0.004 C 
BRANCH  14  15
ATOM     15  C   UNL     1      -1.978 -18.894 -14.137  1.00  0.00     0.000 C 
BRANCH  15  16
ATOM     16  C   UNL     1      -3.058 -19.974 -14.321  1.00  0.00     0.000 C 
BRANCH  16  17
ATOM     17  C   UNL     1      -2.471 -21.394 -14.368  1.00  0.00    -0.000 C 
BRANCH  17  18
ATOM     18  C   UNL     1      -3.558 -22.478 -14.467  1.00  0.00    -0.000 C 
BRANCH  18  19
ATOM     19  C   UNL     1      -3.527 -23.453 -13.280  1.00  0.00    -0.003 C 
ATOM     20  C   UNL     1      -2.107 -23.825 -12.859  1.00  0.00     0.004 C 
ENDBRANCH  18  19
ENDBRANCH  17  18
ENDBRANCH  16  17
ENDBRANCH  15  16
ENDBRANCH  14  15
ENDBRANCH  13  14
ENDBRANCH   2  13
TORSDOF 15
ENDMDL
MODEL 6
REMARK VINA RESULT:    -4.977      8.275      9.680
REMARK INTER + INTRA:         -11.047
REMARK INTER:                  -8.977
REMARK INTRA:                  -2.070
REMARK UNBOUND:                -1.706
REMARK SMILES CCCCCCCCC=CCCCCCCCC(=O)[O-]
REMARK SMILES IDX 10 1 9 2 11 3 12 4 13 5 14 6 15 7 16 8 17 9 18 10 19 11
REMARK SMILES IDX 20 12 8 13 7 14 6 15 5 16 4 17 3 18 2 19 1 20
REMARK H PARENT
REMARK Flexibility Score: inf
ROOT
ATOM      1  C   UNL     1      -6.372 -22.648 -12.069  1.00  0.00    -0.031 C 
ATOM      2  C   UNL     1      -5.064 -22.409 -11.859  1.00  0.00    -0.031 C 
ENDROOT
BRANCH   1   3
ATOM      3  C   UNL     1      -7.418 -22.710 -10.983  1.00  0.00     0.027 C 
BRANCH   3   4
ATOM      4  C   UNL     1      -8.128 -21.362 -10.790  1.00  0.00     0.004 C 
BRANCH   4   5
ATOM      5  C   UNL     1      -7.630 -20.622  -9.537  1.00  0.00     0.000 C 
BRANCH   5   6
ATOM      6  C   UNL     1      -7.115 -19.204  -9.845  1.00  0.00     0.000 C 
BRANCH   6   7
ATOM      7  C   UNL     1      -6.945 -18.286  -8.620  1.00  0.00     0.000 C 
BRANCH   7   8
ATOM      8  C   UNL     1      -7.403 -16.827  -8.817  1.00  0.00     0.006 C 
BRANCH   8   9
ATOM      9  C   UNL     1      -8.693 -16.683  -9.645  1.00  0.00     0.053 C 
BRANCH   9  10
ATOM     10  C   UNL     1      -8.525 -15.754 -10.809  1.00  0.00     0.041 C 
ATOM     11  O   UNL     1      -8.476 -14.509 -10.625  1.00  0.00    -0.550 OA
ATOM     12  O   UNL     1      -8.387 -16.263 -12.094  1.00  0.00    -0.550 OA
ENDBRANCH   9  10
ENDBRANCH   8   9
ENDBRANCH   7   8
ENDBRANCH   6   7
ENDBRANCH   5   6
ENDBRANCH   4   5
ENDBRANCH   3   4
ENDBRANCH   1   3
BRANCH   2  13
ATOM     13  C   UNL     1      -4.460 -22.078 -10.518  1.00  0.00     0.027 C 
BRANCH  13  14
ATOM     14  C   UNL     1      -3.748 -20.719 -10.565  1.00  0.00     0.004 C 
BRANCH  14  15
ATOM     15  C   UNL     1      -2.247 -20.850 -10.863  1.00  0.00     0.000 C 
BRANCH  15  16
ATOM     16  C   UNL     1      -1.831 -20.104 -12.143  1.00  0.00     0.000 C 
BRANCH  16  17
ATOM     17  C   UNL     1      -3.027 -19.470 -12.871  1.00  0.00    -0.000 C 
BRANCH  17  18
ATOM     18  C   UNL     1      -3.347 -20.176 -14.201  1.00  0.00    -0.000 C 
BRANCH  18  19
ATOM     19  C   UNL     1      -2.367 -21.317 -14.513  1.00  0.00    -0.003 C 
ATOM     20  C   UNL     1      -3.076 -22.613 -14.903  1.00  0.00     0.004 C 
ENDBRANCH  18  19
ENDBRANCH  17  18
ENDBRANCH  16  17
ENDBRANCH  15  16
ENDBRANCH  14  15
ENDBRANCH  13  14
ENDBRANCH   2  13
TORSDOF 15
ENDMDL
MODEL 7
REMARK VINA RESULT:    -4.970      4.647      6.258
REMARK INTER + INTRA:         -11.034
REMARK INTER:                  -8.262
REMARK INTRA:                  -2.772
REMARK UNBOUND:                -1.706
REMARK SMILES CCCCCCCCC=CCCCCCCCC(=O)[O-]
REMARK SMILES IDX 10 1 9 2 11 3 12 4 13 5 14 6 15 7 16 8 17 9 18 10 19 11
REMARK SMILES IDX 20 12 8 13 7 14 6 15 5 16 4 17 3 18 2 19 1 20
REMARK H PARENT
REMARK Flexibility Score: inf
ROOT
ATOM      1  C   UNL     1      -3.613 -19.627 -11.505  1.00  0.00    -0.031 C 
ATOM      2  C   UNL     1      -3.919 -20.910 -11.235  1.00  0.00    -0.031 C 
ENDROOT
BRANCH   1   3
ATOM      3  C   UNL     1      -2.209 -19.092 -11.648  1.00  0.00     0.027 C 
BRANCH   3   4
ATOM      4  C   UNL     1      -2.178 -17.758 -12.408  1.00  0.00     0.004 C 
BRANCH   4   5
ATOM      5  C   UNL     1      -3.485 -17.502 -13.178  1.00  0.00     0.000 C 
BRANCH   5   6
ATOM      6  C   UNL     1      -3.246 -16.948 -14.595  1.00  0.00     0.000 C 
BRANCH   6   7
ATOM      7  C   UNL     1      -4.337 -17.290 -15.626  1.00  0.00     0.000 C 
BRANCH   7   8
ATOM      8  C   UNL     1      -3.912 -17.172 -17.103  1.00  0.00     0.006 C 
BRANCH   8   9
ATOM      9  C   UNL     1      -4.239 -18.416 -17.949  1.00  0.00     0.053 C 
BRANCH   9  10
ATOM     10  C   UNL     1      -5.398 -18.193 -18.872  1.00  0.00     0.041 C 
ATOM     11  O   UNL     1      -5.299 -18.474 -20.095  1.00  0.00    -0.550 OA
ATOM     12  O   UNL     1      -6.602 -17.708 -18.376  1.00  0.00    -0.550 OA
ENDBRANCH   9  10
ENDBRANCH   8   9
ENDBRANCH   7   8
ENDBRANCH   6   7
ENDBRANCH   5   6
ENDBRANCH   4   5
ENDBRANCH   3   4
ENDBRANCH   1   3
BRANCH   2  13
ATOM     13  C   UNL     1      -2.910 -22.024 -11.125  1.00  0.00     0.027 C 
BRANCH  13  14
ATOM     14  C   UNL     1      -3.194 -23.117 -12.165  1.00  0.00     0.004 C 
BRANCH  14  15
ATOM     15  C   UNL     1      -4.114 -22.632 -13.295  1.00  0.00     0.000 C 
BRANCH  15  16
ATOM     16  C   UNL     1      -3.358 -22.401 -14.615  1.00  0.00     0.000 C 
BRANCH  16  17
ATOM     17  C   UNL     1      -3.237 -20.912 -14.974  1.00  0.00    -0.000 C 
BRANCH  17  18
ATOM     18  C   UNL     1      -1.776 -20.427 -14.996  1.00  0.00    -0.000 C 
BRANCH  18  19
ATOM     19  C   UNL     1      -1.327 -19.974 -16.393  1.00  0.00    -0.003 C 
ATOM     20  C   UNL     1      -0.437 -18.733 -16.353  1.00  0.00     0.004 C 
ENDBRANCH  18  19
ENDBRANCH  17  18
ENDBRANCH  16  17
ENDBRANCH  15  16
ENDBRANCH  14  15
ENDBRANCH  13  14
ENDBRANCH   2  13
TORSDOF 15
ENDMDL
MODEL 8
REMARK VINA RESULT:    -4.961      3.543      5.313
REMARK INTER + INTRA:         -11.017
REMARK INTER:                  -8.255
REMARK INTRA:                  -2.762
REMARK UNBOUND:                -1.706
REMARK SMILES CCCCCCCCC=CCCCCCCCC(=O)[O-]
REMARK SMILES IDX 10 1 9 2 11 3 12 4 13 5 14 6 15 7 16 8 17 9 18 10 19 11
REMARK SMILES IDX 20 12 8 13 7 14 6 15 5 16 4 17 3 18 2 19 1 20
REMARK H PARENT
REMARK Flexibility Score: inf
ROOT
ATOM      1  C   UNL     1      -1.477 -15.013 -17.507  1.00  0.00    -0.031 C 
ATOM      2  C   UNL     1      -1.062 -15.475 -18.701  1.00  0.00    -0.031 C 
ENDROOT
BRANCH   1   3
ATOM      3  C   UNL     1      -0.578 -14.387 -16.469  1.00  0.00     0.027 C 
BRANCH   3   4
ATOM      4  C   UNL     1      -0.157 -15.396 -15.390  1.00  0.00     0.004 C 
BRANCH   4   5
ATOM      5  C   UNL     1      -1.206 -16.504 -15.195  1.00  0.00     0.000 C 
BRANCH   5   6
ATOM      6  C   UNL     1      -0.641 -17.914 -15.445  1.00  0.00     0.000 C 
BRANCH   6   7
ATOM      7  C   UNL     1      -1.281 -18.679 -16.619  1.00  0.00     0.000 C 
BRANCH   7   8
ATOM      8  C   UNL     1      -0.602 -20.013 -16.988  1.00  0.00     0.006 C 
BRANCH   8   9
ATOM      9  C   UNL     1      -0.009 -20.040 -18.408  1.00  0.00     0.053 C 
BRANCH   9  10
ATOM     10  C   UNL     1       1.314 -20.743 -18.463  1.00  0.00     0.041 C 
ATOM     11  O   UNL     1       2.300 -20.292 -17.824  1.00  0.00    -0.550 OA
ATOM     12  O   UNL     1       1.449 -21.918 -19.193  1.00  0.00    -0.550 OA
ENDBRANCH   9  10
ENDBRANCH   8   9
ENDBRANCH   7   8
ENDBRANCH   6   7
ENDBRANCH   5   6
ENDBRANCH   4   5
ENDBRANCH   3   4
ENDBRANCH   1   3
BRANCH   2  13
ATOM     13  C   UNL     1       0.347 -15.354 -19.221  1.00  0.00     0.027 C 
BRANCH  13  14
ATOM     14  C   UNL     1       1.105 -16.678 -19.045  1.00  0.00     0.004 C 
BRANCH  14  15
ATOM     15  C   UNL     1       2.174 -16.605 -17.945  1.00  0.00     0.000 C 
BRANCH  15  16
ATOM     16  C   UNL     1       3.072 -15.362 -18.075  1.00  0.00     0.000 C 
BRANCH  16  17
ATOM     17  C   UNL     1       3.694 -14.941 -16.734  1.00  0.00    -0.000 C 
BRANCH  17  18
ATOM     18  C   UNL     1       3.008 -13.704 -16.129  1.00  0.00    -0.000 C 
BRANCH  18  19
ATOM     19  C   UNL     1       2.783 -12.590 -17.163  1.00  0.00    -0.003 C 
ATOM     20  C   UNL     1       2.450 -11.246 -16.519  1.00  0.00     0.004 C 
ENDBRANCH  18  19
ENDBRANCH  17  18
ENDBRANCH  16  17
ENDBRANCH  15  16
ENDBRANCH  14  15
ENDBRANCH  13  14
ENDBRANCH   2  13
TORSDOF 15
ENDMDL
MODEL 9
REMARK VINA RESULT:    -4.944      8.263     10.448
REMARK INTER + INTRA:         -10.985
REMARK INTER:                  -8.586
REMARK INTRA:                  -2.399
REMARK UNBOUND:                -1.706
REMARK SMILES CCCCCCCCC=CCCCCCCCC(=O)[O-]
REMARK SMILES IDX 10 1 9 2 11 3 12 4 13 5 14 6 15 7 16 8 17 9 18 10 19 11
REMARK SMILES IDX 20 12 8 13 7 14 6 15 5 16 4 17 3 18 2 19 1 20
REMARK H PARENT
REMARK Flexibility Score: inf
ROOT
ATOM      1  C   UNL     1      -7.017 -22.495 -11.160  1.00  0.00    -0.031 C 
ATOM      2  C   UNL     1      -7.928 -21.737 -10.523  1.00  0.00    -0.031 C 
ENDROOT
BRANCH   1   3
ATOM      3  C   UNL     1      -5.679 -21.997 -11.652  1.00  0.00     0.027 C 
BRANCH   3   4
ATOM      4  C   UNL     1      -4.579 -22.167 -10.594  1.00  0.00     0.004 C 
BRANCH   4   5
ATOM      5  C   UNL     1      -3.724 -20.897 -10.442  1.00  0.00     0.000 C 
BRANCH   5   6
ATOM      6  C   UNL     1      -4.277 -19.704 -11.243  1.00  0.00     0.000 C 
BRANCH   6   7
ATOM      7  C   UNL     1      -3.286 -19.062 -12.232  1.00  0.00     0.000 C 
BRANCH   7   8
ATOM      8  C   UNL     1      -2.046 -19.912 -12.573  1.00  0.00     0.006 C 
BRANCH   8   9
ATOM      9  C   UNL     1      -2.111 -20.586 -13.955  1.00  0.00     0.053 C 
BRANCH   9  10
ATOM     10  C   UNL     1      -2.672 -21.975 -13.889  1.00  0.00     0.041 C 
ATOM     11  O   UNL     1      -3.623 -22.311 -14.642  1.00  0.00    -0.550 OA
ATOM     12  O   UNL     1      -2.121 -22.909 -13.021  1.00  0.00    -0.550 OA
ENDBRANCH   9  10
ENDBRANCH   8   9
ENDBRANCH   7   8
ENDBRANCH   6   7
ENDBRANCH   5   6
ENDBRANCH   4   5
ENDBRANCH   3   4
ENDBRANCH   1   3
BRANCH   2  13
ATOM     13  C   UNL     1      -7.715 -20.299 -10.124  1.00  0.00     0.027 C 
BRANCH  13  14
ATOM     14  C   UNL     1      -7.238 -20.206  -8.668  1.00  0.00     0.004 C 
BRANCH  14  15
ATOM     15  C   UNL     1      -7.275 -18.769  -8.126  1.00  0.00     0.000 C 
BRANCH  15  16
ATOM     16  C   UNL     1      -6.430 -17.797  -8.969  1.00  0.00     0.000 C 
BRANCH  16  17
ATOM     17  C   UNL     1      -7.266 -16.654  -9.566  1.00  0.00    -0.000 C 
BRANCH  17  18
ATOM     18  C   UNL     1      -7.460 -16.798 -11.086  1.00  0.00    -0.000 C 
BRANCH  18  19
ATOM     19  C   UNL     1      -6.346 -16.110 -11.890  1.00  0.00    -0.003 C 
ATOM     20  C   UNL     1      -5.877 -14.805 -11.249  1.00  0.00     0.004 C 
ENDBRANCH  18  19
ENDBRANCH  17  18
ENDBRANCH  16  17
ENDBRANCH  15  16
ENDBRANCH  14  15
ENDBRANCH  13  14
ENDBRANCH   2  13
TORSDOF 15
ENDMDL
