MODEL 1
REMARK VINA RESULT:    -3.246      0.000      0.000
REMARK INTER + INTRA:          -8.642
REMARK INTER:                  -6.282
REMARK INTRA:                  -2.360
REMARK UNBOUND:                -2.360
REMARK SMILES CCCCCCCCCCCCCCCCCC(=O)[O-]
REMARK SMILES IDX 10 1 11 2 12 3 13 4 14 5 15 6 16 7 17 8 18 9 19 10 20 11
REMARK SMILES IDX 9 12 8 13 7 14 6 15 5 16 4 17 3 18 2 19 1 20
REMARK H PARENT
REMARK Flexibility Score: inf
ROOT
ATOM      1  C   UNL     1      61.937  26.956  50.437  1.00  0.00     0.000 C 
ENDROOT
BRANCH   1   2
ATOM      2  C   UNL     1      62.563  26.140  49.293  1.00  0.00     0.000 C 
BRANCH   2   3
ATOM      3  C   UNL     1      63.990  26.598  48.954  1.00  0.00     0.000 C 
BRANCH   3   4
ATOM      4  C   UNL     1      64.102  27.217  47.549  1.00  0.00     0.000 C 
BRANCH   4   5
ATOM      5  C   UNL     1      64.143  28.759  47.515  1.00  0.00     0.000 C 
BRANCH   5   6
ATOM      6  C   UNL     1      64.358  29.441  48.880  1.00  0.00     0.000 C 
BRANCH   6   7
ATOM      7  C   UNL     1      64.302  30.978  48.853  1.00  0.00     0.006 C 
BRANCH   7   8
ATOM      8  C   UNL     1      62.869  31.519  48.762  1.00  0.00     0.053 C 
BRANCH   8   9
ATOM      9  C   UNL     1      62.884  32.986  48.465  1.00  0.00     0.041 C 
ATOM     10  O   UNL     1      63.909  33.672  48.714  1.00  0.00    -0.550 OA
ATOM     11  O   UNL     1      61.784  33.584  47.863  1.00  0.00    -0.550 OA
ENDBRANCH   8   9
ENDBRANCH   7   8
ENDBRANCH   6   7
ENDBRANCH   5   6
ENDBRANCH   4   5
ENDBRANCH   3   4
ENDBRANCH   2   3
ENDBRANCH   1   2
BRANCH   1  12
ATOM     12  C   UNL     1      61.048  28.102  49.931  1.00  0.00     0.000 C 
BRANCH  12  13
ATOM     13  C   UNL     1      60.339  27.709  48.626  1.00  0.00    -0.000 C 
BRANCH  13  14
ATOM     14  C   UNL     1      58.880  28.195  48.568  1.00  0.00    -0.000 C 
BRANCH  14  15
ATOM     15  C   UNL     1      58.144  28.212  49.924  1.00  0.00    -0.000 C 
BRANCH  15  16
ATOM     16  C   UNL     1      57.006  27.181  50.060  1.00  0.00    -0.000 C 
BRANCH  16  17
ATOM     17  C   UNL     1      57.342  25.770  49.536  1.00  0.00    -0.000 C 
BRANCH  17  18
ATOM     18  C   UNL     1      58.256  24.934  50.455  1.00  0.00    -0.000 C 
BRANCH  18  19
ATOM     19  C   UNL     1      59.447  24.264  49.747  1.00  0.00    -0.003 C 
ATOM     20  C   UNL     1      60.342  23.475  50.702  1.00  0.00     0.004 C 
ENDBRANCH  18  19
ENDBRANCH  17  18
ENDBRANCH  16  17
ENDBRANCH  15  16
ENDBRANCH  14  15
ENDBRANCH  13  14
ENDBRANCH  12  13
ENDBRANCH   1  12
TORSDOF 16
ENDMDL
MODEL 2
REMARK VINA RESULT:    -3.219     12.195     14.547
REMARK INTER + INTRA:          -8.589
REMARK INTER:                  -6.502
REMARK INTRA:                  -2.087
REMARK UNBOUND:                -2.360
REMARK SMILES CCCCCCCCCCCCCCCCCC(=O)[O-]
REMARK SMILES IDX 10 1 11 2 12 3 13 4 14 5 15 6 16 7 17 8 18 9 19 10 20 11
REMARK SMILES IDX 9 12 8 13 7 14 6 15 5 16 4 17 3 18 2 19 1 20
REMARK H PARENT
REMARK Flexibility Score: inf
ROOT
ATOM      1  C   UNL     1      69.733  28.334  61.138  1.00  0.00     0.000 C 
ENDROOT
BRANCH   1   2
ATOM      2  C   UNL     1      68.223  28.214  60.871  1.00  0.00     0.000 C 
BRANCH   2   3
ATOM      3  C   UNL     1      67.893  28.157  59.371  1.00  0.00     0.000 C 
BRANCH   3   4
ATOM      4  C   UNL     1      66.385  28.013  59.097  1.00  0.00     0.000 C 
BRANCH   4   5
ATOM      5  C   UNL     1      65.462  28.629  60.168  1.00  0.00     0.000 C 
BRANCH   5   6
ATOM      6  C   UNL     1      64.925  30.036  59.841  1.00  0.00     0.000 C 
BRANCH   6   7
ATOM      7  C   UNL     1      63.451  30.270  60.217  1.00  0.00     0.006 C 
BRANCH   7   8
ATOM      8  C   UNL     1      62.861  29.126  61.051  1.00  0.00     0.053 C 
BRANCH   8   9
ATOM      9  C   UNL     1      61.483  28.790  60.574  1.00  0.00     0.041 C 
ATOM     10  O   UNL     1      60.828  29.623  59.896  1.00  0.00    -0.550 OA
ATOM     11  O   UNL     1      60.944  27.536  60.833  1.00  0.00    -0.550 OA
ENDBRANCH   8   9
ENDBRANCH   7   8
ENDBRANCH   6   7
ENDBRANCH   5   6
ENDBRANCH   4   5
ENDBRANCH   3   4
ENDBRANCH   2   3
ENDBRANCH   1   2
BRANCH   1  12
ATOM     12  C   UNL     1      70.574  27.473  60.184  1.00  0.00     0.000 C 
BRANCH  12  13
ATOM     13  C   UNL     1      72.069  27.790  60.334  1.00  0.00    -0.000 C 
BRANCH  13  14
ATOM     14  C   UNL     1      72.381  28.620  61.592  1.00  0.00    -0.000 C 
BRANCH  14  15
ATOM     15  C   UNL     1      73.006  30.003  61.322  1.00  0.00    -0.000 C 
BRANCH  15  16
ATOM     16  C   UNL     1      72.690  30.601  59.936  1.00  0.00    -0.000 C 
BRANCH  16  17
ATOM     17  C   UNL     1      71.353  31.363  59.848  1.00  0.00    -0.000 C 
BRANCH  17  18
ATOM     18  C   UNL     1      70.482  31.013  58.624  1.00  0.00    -0.000 C 
BRANCH  18  19
ATOM     19  C   UNL     1      71.233  30.323  57.472  1.00  0.00    -0.003 C 
ATOM     20  C   UNL     1      70.455  29.154  56.868  1.00  0.00     0.004 C 
ENDBRANCH  18  19
ENDBRANCH  17  18
ENDBRANCH  16  17
ENDBRANCH  15  16
ENDBRANCH  14  15
ENDBRANCH  13  14
ENDBRANCH  12  13
ENDBRANCH   1  12
TORSDOF 16
ENDMDL
MODEL 3
REMARK VINA RESULT:    -3.123      6.172      9.883
REMARK INTER + INTRA:          -8.403
REMARK INTER:                  -7.485
REMARK INTRA:                  -0.918
REMARK UNBOUND:                -2.360
REMARK SMILES CCCCCCCCCCCCCCCCCC(=O)[O-]
REMARK SMILES IDX 10 1 11 2 12 3 13 4 14 5 15 6 16 7 17 8 18 9 19 10 20 11
REMARK SMILES IDX 9 12 8 13 7 14 6 15 5 16 4 17 3 18 2 19 1 20
REMARK H PARENT
REMARK Flexibility Score: inf
ROOT
ATOM      1  C   UNL     1      61.146  22.159  49.879  1.00  0.00     0.000 C 
ENDROOT
BRANCH   1   2
ATOM      2  C   UNL     1      60.539  21.023  49.039  1.00  0.00     0.000 C 
BRANCH   2   3
ATOM      3  C   UNL     1      59.990  19.877  49.904  1.00  0.00     0.000 C 
BRANCH   3   4
ATOM      4  C   UNL     1      59.266  18.798  49.079  1.00  0.00     0.000 C 
BRANCH   4   5
ATOM      5  C   UNL     1      58.957  17.491  49.837  1.00  0.00     0.000 C 
BRANCH   5   6
ATOM      6  C   UNL     1      57.482  17.044  49.800  1.00  0.00     0.000 C 
BRANCH   6   7
ATOM      7  C   UNL     1      56.457  18.170  50.027  1.00  0.00     0.006 C 
BRANCH   7   8
ATOM      8  C   UNL     1      55.897  18.184  51.454  1.00  0.00     0.053 C 
BRANCH   8   9
ATOM      9  C   UNL     1      56.382  19.393  52.192  1.00  0.00     0.041 C 
ATOM     10  O   UNL     1      57.615  19.577  52.364  1.00  0.00    -0.550 OA
ATOM     11  O   UNL     1      55.474  20.343  52.642  1.00  0.00    -0.550 OA
ENDBRANCH   8   9
ENDBRANCH   7   8
ENDBRANCH   6   7
ENDBRANCH   5   6
ENDBRANCH   4   5
ENDBRANCH   3   4
ENDBRANCH   2   3
ENDBRANCH   1   2
BRANCH   1  12
ATOM     12  C   UNL     1      60.771  23.552  49.351  1.00  0.00     0.000 C 
BRANCH  12  13
ATOM     13  C   UNL     1      59.566  24.120  50.115  1.00  0.00    -0.000 C 
BRANCH  13  14
ATOM     14  C   UNL     1      58.937  25.341  49.418  1.00  0.00    -0.000 C 
BRANCH  14  15
ATOM     15  C   UNL     1      59.946  26.386  48.899  1.00  0.00    -0.000 C 
BRANCH  15  16
ATOM     16  C   UNL     1      59.689  27.830  49.374  1.00  0.00    -0.000 C 
BRANCH  16  17
ATOM     17  C   UNL     1      58.328  28.420  48.953  1.00  0.00    -0.000 C 
BRANCH  17  18
ATOM     18  C   UNL     1      57.372  28.749  50.118  1.00  0.00    -0.000 C 
BRANCH  18  19
ATOM     19  C   UNL     1      55.876  28.706  49.758  1.00  0.00    -0.003 C 
ATOM     20  C   UNL     1      55.184  30.059  49.920  1.00  0.00     0.004 C 
ENDBRANCH  18  19
ENDBRANCH  17  18
ENDBRANCH  16  17
ENDBRANCH  15  16
ENDBRANCH  14  15
ENDBRANCH  13  14
ENDBRANCH  12  13
ENDBRANCH   1  12
TORSDOF 16
ENDMDL
MODEL 4
REMARK VINA RESULT:    -3.113      6.553      9.751
REMARK INTER + INTRA:          -8.385
REMARK INTER:                  -6.052
REMARK INTRA:                  -2.334
REMARK UNBOUND:                -2.360
REMARK SMILES CCCCCCCCCCCCCCCCCC(=O)[O-]
REMARK SMILES IDX 10 1 11 2 12 3 13 4 14 5 15 6 16 7 17 8 18 9 19 10 20 11
REMARK SMILES IDX 9 12 8 13 7 14 6 15 5 16 4 17 3 18 2 19 1 20
REMARK H PARENT
REMARK Flexibility Score: inf
ROOT
ATOM      1  C   UNL     1      59.544  16.554  50.830  1.00  0.00     0.000 C 
ENDROOT
BRANCH   1   2
ATOM      2  C   UNL     1      59.729  17.011  52.287  1.00  0.00     0.000 C 
BRANCH   2   3
ATOM      3  C   UNL     1      60.383  18.397  52.392  1.00  0.00     0.000 C 
BRANCH   3   4
ATOM      4  C   UNL     1      60.858  18.938  51.031  1.00  0.00     0.000 C 
BRANCH   4   5
ATOM      5  C   UNL     1      60.272  20.307  50.630  1.00  0.00     0.000 C 
BRANCH   5   6
ATOM      6  C   UNL     1      60.219  20.580  49.114  1.00  0.00     0.000 C 
BRANCH   6   7
ATOM      7  C   UNL     1      61.087  21.757  48.636  1.00  0.00     0.006 C 
BRANCH   7   8
ATOM      8  C   UNL     1      61.366  22.779  49.746  1.00  0.00     0.053 C 
BRANCH   8   9
ATOM      9  C   UNL     1      60.295  23.823  49.774  1.00  0.00     0.041 C 
ATOM     10  O   UNL     1      60.349  24.806  48.990  1.00  0.00    -0.550 OA
ATOM     11  O   UNL     1      59.210  23.684  50.629  1.00  0.00    -0.550 OA
ENDBRANCH   8   9
ENDBRANCH   7   8
ENDBRANCH   6   7
ENDBRANCH   5   6
ENDBRANCH   4   5
ENDBRANCH   3   4
ENDBRANCH   2   3
ENDBRANCH   1   2
BRANCH   1  12
ATOM     12  C   UNL     1      58.067  16.475  50.416  1.00  0.00     0.000 C 
BRANCH  12  13
ATOM     13  C   UNL     1      57.630  17.761  49.700  1.00  0.00    -0.000 C 
BRANCH  13  14
ATOM     14  C   UNL     1      56.136  18.077  49.896  1.00  0.00    -0.000 C 
BRANCH  14  15
ATOM     15  C   UNL     1      55.744  18.513  51.323  1.00  0.00    -0.000 C 
BRANCH  15  16
ATOM     16  C   UNL     1      56.776  19.408  52.037  1.00  0.00    -0.000 C 
BRANCH  16  17
ATOM     17  C   UNL     1      56.993  19.085  53.529  1.00  0.00    -0.000 C 
BRANCH  17  18
ATOM     18  C   UNL     1      56.311  17.793  54.023  1.00  0.00    -0.000 C 
BRANCH  18  19
ATOM     19  C   UNL     1      55.161  18.009  55.023  1.00  0.00    -0.003 C 
ATOM     20  C   UNL     1      53.963  17.097  54.760  1.00  0.00     0.004 C 
ENDBRANCH  18  19
ENDBRANCH  17  18
ENDBRANCH  16  17
ENDBRANCH  15  16
ENDBRANCH  14  15
ENDBRANCH  13  14
ENDBRANCH  12  13
ENDBRANCH   1  12
TORSDOF 16
ENDMDL
MODEL 5
REMARK VINA RESULT:    -3.105     10.505     12.306
REMARK INTER + INTRA:          -8.369
REMARK INTER:                  -6.220
REMARK INTRA:                  -2.149
REMARK UNBOUND:                -2.360
REMARK SMILES CCCCCCCCCCCCCCCCCC(=O)[O-]
REMARK SMILES IDX 10 1 11 2 12 3 13 4 14 5 15 6 16 7 17 8 18 9 19 10 20 11
REMARK SMILES IDX 9 12 8 13 7 14 6 15 5 16 4 17 3 18 2 19 1 20
REMARK H PARENT
REMARK Flexibility Score: inf
ROOT
ATOM      1  C   UNL     1      61.609  29.642  57.482  1.00  0.00     0.000 C 
ENDROOT
BRANCH   1   2
ATOM      2  C   UNL     1      60.327  29.193  58.204  1.00  0.00     0.000 C 
BRANCH   2   3
ATOM      3  C   UNL     1      60.618  28.305  59.424  1.00  0.00     0.000 C 
BRANCH   3   4
ATOM      4  C   UNL     1      61.057  29.112  60.659  1.00  0.00     0.000 C 
BRANCH   4   5
ATOM      5  C   UNL     1      62.537  28.944  61.060  1.00  0.00     0.000 C 
BRANCH   5   6
ATOM      6  C   UNL     1      63.461  30.111  60.662  1.00  0.00     0.000 C 
BRANCH   6   7
ATOM      7  C   UNL     1      64.832  29.691  60.102  1.00  0.00     0.006 C 
BRANCH   7   8
ATOM      8  C   UNL     1      65.166  30.376  58.772  1.00  0.00     0.053 C 
BRANCH   8   9
ATOM      9  C   UNL     1      66.442  29.830  58.210  1.00  0.00     0.041 C 
ATOM     10  O   UNL     1      66.841  30.195  57.074  1.00  0.00    -0.550 OA
ATOM     11  O   UNL     1      67.217  28.959  58.965  1.00  0.00    -0.550 OA
ENDBRANCH   8   9
ENDBRANCH   7   8
ENDBRANCH   6   7
ENDBRANCH   5   6
ENDBRANCH   4   5
ENDBRANCH   3   4
ENDBRANCH   2   3
ENDBRANCH   1   2
BRANCH   1  12
ATOM     12  C   UNL     1      61.782  31.168  57.477  1.00  0.00     0.000 C 
BRANCH  12  13
ATOM     13  C   UNL     1      60.578  31.858  58.133  1.00  0.00    -0.000 C 
BRANCH  13  14
ATOM     14  C   UNL     1      60.633  33.393  58.021  1.00  0.00    -0.000 C 
BRANCH  14  15
ATOM     15  C   UNL     1      62.045  33.982  57.833  1.00  0.00    -0.000 C 
BRANCH  15  16
ATOM     16  C   UNL     1      62.671  34.592  59.103  1.00  0.00    -0.000 C 
BRANCH  16  17
ATOM     17  C   UNL     1      63.795  33.750  59.741  1.00  0.00    -0.000 C 
BRANCH  17  18
ATOM     18  C   UNL     1      64.344  34.299  61.073  1.00  0.00    -0.000 C 
BRANCH  18  19
ATOM     19  C   UNL     1      63.645  35.571  61.586  1.00  0.00    -0.003 C 
ATOM     20  C   UNL     1      63.947  35.867  63.055  1.00  0.00     0.004 C 
ENDBRANCH  18  19
ENDBRANCH  17  18
ENDBRANCH  16  17
ENDBRANCH  15  16
ENDBRANCH  14  15
ENDBRANCH  13  14
ENDBRANCH  12  13
ENDBRANCH   1  12
TORSDOF 16
ENDMDL
MODEL 6
REMARK VINA RESULT:    -3.091      6.850     10.797
REMARK INTER + INTRA:          -8.342
REMARK INTER:                  -6.739
REMARK INTRA:                  -1.603
REMARK UNBOUND:                -2.360
REMARK SMILES CCCCCCCCCCCCCCCCCC(=O)[O-]
REMARK SMILES IDX 10 1 11 2 12 3 13 4 14 5 15 6 16 7 17 8 18 9 19 10 20 11
REMARK SMILES IDX 9 12 8 13 7 14 6 15 5 16 4 17 3 18 2 19 1 20
REMARK H PARENT
REMARK Flexibility Score: inf
ROOT
ATOM      1  C   UNL     1      59.437  20.290  51.855  1.00  0.00     0.000 C 
ENDROOT
BRANCH   1   2
ATOM      2  C   UNL     1      59.544  19.130  52.859  1.00  0.00     0.000 C 
BRANCH   2   3
ATOM      3  C   UNL     1      60.622  18.107  52.467  1.00  0.00     0.000 C 
BRANCH   3   4
ATOM      4  C   UNL     1      60.030  16.793  51.926  1.00  0.00     0.000 C 
BRANCH   4   5
ATOM      5  C   UNL     1      59.388  16.892  50.527  1.00  0.00     0.000 C 
BRANCH   5   6
ATOM      6  C   UNL     1      57.880  16.581  50.473  1.00  0.00     0.000 C 
BRANCH   6   7
ATOM      7  C   UNL     1      56.992  17.755  50.024  1.00  0.00     0.006 C 
BRANCH   7   8
ATOM      8  C   UNL     1      56.251  18.420  51.190  1.00  0.00     0.053 C 
BRANCH   8   9
ATOM      9  C   UNL     1      54.904  18.898  50.747  1.00  0.00     0.041 C 
ATOM     10  O   UNL     1      54.534  18.733  49.556  1.00  0.00    -0.550 OA
ATOM     11  O   UNL     1      54.035  19.477  51.664  1.00  0.00    -0.550 OA
ENDBRANCH   8   9
ENDBRANCH   7   8
ENDBRANCH   6   7
ENDBRANCH   5   6
ENDBRANCH   4   5
ENDBRANCH   3   4
ENDBRANCH   2   3
ENDBRANCH   1   2
BRANCH   1  12
ATOM     12  C   UNL     1      60.677  20.411  50.956  1.00  0.00     0.000 C 
BRANCH  12  13
ATOM     13  C   UNL     1      60.295  20.281  49.475  1.00  0.00    -0.000 C 
BRANCH  13  14
ATOM     14  C   UNL     1      60.824  21.443  48.615  1.00  0.00    -0.000 C 
BRANCH  14  15
ATOM     15  C   UNL     1      61.177  22.724  49.398  1.00  0.00    -0.000 C 
BRANCH  15  16
ATOM     16  C   UNL     1      60.019  23.728  49.561  1.00  0.00    -0.000 C 
BRANCH  16  17
ATOM     17  C   UNL     1      60.401  25.204  49.331  1.00  0.00    -0.000 C 
BRANCH  17  18
ATOM     18  C   UNL     1      59.211  26.180  49.244  1.00  0.00    -0.000 C 
BRANCH  18  19
ATOM     19  C   UNL     1      59.529  27.530  48.576  1.00  0.00    -0.003 C 
ATOM     20  C   UNL     1      59.506  28.701  49.558  1.00  0.00     0.004 C 
ENDBRANCH  18  19
ENDBRANCH  17  18
ENDBRANCH  16  17
ENDBRANCH  15  16
ENDBRANCH  14  15
ENDBRANCH  13  14
ENDBRANCH  12  13
ENDBRANCH   1  12
TORSDOF 16
ENDMDL
MODEL 7
REMARK VINA RESULT:    -3.067      5.992      9.071
REMARK INTER + INTRA:          -8.296
REMARK INTER:                  -6.487
REMARK INTRA:                  -1.809
REMARK UNBOUND:                -2.360
REMARK SMILES CCCCCCCCCCCCCCCCCC(=O)[O-]
REMARK SMILES IDX 10 1 11 2 12 3 13 4 14 5 15 6 16 7 17 8 18 9 19 10 20 11
REMARK SMILES IDX 9 12 8 13 7 14 6 15 5 16 4 17 3 18 2 19 1 20
REMARK H PARENT
REMARK Flexibility Score: inf
ROOT
ATOM      1  C   UNL     1      59.598  24.792  51.514  1.00  0.00     0.000 C 
ENDROOT
BRANCH   1   2
ATOM      2  C   UNL     1      60.794  24.005  50.953  1.00  0.00     0.000 C 
BRANCH   2   3
ATOM      3  C   UNL     1      60.546  23.496  49.524  1.00  0.00     0.000 C 
BRANCH   3   4
ATOM      4  C   UNL     1      61.443  22.302  49.152  1.00  0.00     0.000 C 
BRANCH   4   5
ATOM      5  C   UNL     1      60.699  21.077  48.582  1.00  0.00     0.000 C 
BRANCH   5   6
ATOM      6  C   UNL     1      60.112  20.117  49.636  1.00  0.00     0.000 C 
BRANCH   6   7
ATOM      7  C   UNL     1      59.232  18.990  49.067  1.00  0.00     0.006 C 
BRANCH   7   8
ATOM      8  C   UNL     1      59.337  17.689  49.873  1.00  0.00     0.053 C 
BRANCH   8   9
ATOM      9  C   UNL     1      58.177  17.560  50.809  1.00  0.00     0.041 C 
ATOM     10  O   UNL     1      57.033  17.281  50.364  1.00  0.00    -0.550 OA
ATOM     11  O   UNL     1      58.369  17.695  52.178  1.00  0.00    -0.550 OA
ENDBRANCH   8   9
ENDBRANCH   7   8
ENDBRANCH   6   7
ENDBRANCH   5   6
ENDBRANCH   4   5
ENDBRANCH   3   4
ENDBRANCH   2   3
ENDBRANCH   1   2
BRANCH   1  12
ATOM     12  C   UNL     1      58.274  24.022  51.396  1.00  0.00     0.000 C 
BRANCH  12  13
ATOM     13  C   UNL     1      57.113  24.975  51.076  1.00  0.00    -0.000 C 
BRANCH  13  14
ATOM     14  C   UNL     1      57.310  25.734  49.751  1.00  0.00    -0.000 C 
BRANCH  14  15
ATOM     15  C   UNL     1      57.207  27.269  49.857  1.00  0.00    -0.000 C 
BRANCH  15  16
ATOM     16  C   UNL     1      58.410  28.043  49.283  1.00  0.00    -0.000 C 
BRANCH  16  17
ATOM     17  C   UNL     1      59.494  27.165  48.625  1.00  0.00    -0.000 C 
BRANCH  17  18
ATOM     18  C   UNL     1      60.924  27.388  49.155  1.00  0.00    -0.000 C 
BRANCH  18  19
ATOM     19  C   UNL     1      61.038  28.409  50.301  1.00  0.00    -0.003 C 
ATOM     20  C   UNL     1      61.634  29.744  49.854  1.00  0.00     0.004 C 
ENDBRANCH  18  19
ENDBRANCH  17  18
ENDBRANCH  16  17
ENDBRANCH  15  16
ENDBRANCH  14  15
ENDBRANCH  13  14
ENDBRANCH  12  13
ENDBRANCH   1  12
TORSDOF 16
ENDMDL
MODEL 8
REMARK VINA RESULT:    -3.048      6.163      9.363
REMARK INTER + INTRA:          -8.259
REMARK INTER:                  -7.384
REMARK INTRA:                  -0.875
REMARK UNBOUND:                -2.360
REMARK SMILES CCCCCCCCCCCCCCCCCC(=O)[O-]
REMARK SMILES IDX 10 1 11 2 12 3 13 4 14 5 15 6 16 7 17 8 18 9 19 10 20 11
REMARK SMILES IDX 9 12 8 13 7 14 6 15 5 16 4 17 3 18 2 19 1 20
REMARK H PARENT
REMARK Flexibility Score: inf
ROOT
ATOM      1  C   UNL     1      61.576  24.487  50.072  1.00  0.00     0.000 C 
ENDROOT
BRANCH   1   2
ATOM      2  C   UNL     1      61.242  23.006  50.317  1.00  0.00     0.000 C 
BRANCH   2   3
ATOM      3  C   UNL     1      61.531  22.127  49.089  1.00  0.00     0.000 C 
BRANCH   3   4
ATOM      4  C   UNL     1      60.517  20.980  48.925  1.00  0.00     0.000 C 
BRANCH   4   5
ATOM      5  C   UNL     1      60.132  20.255  50.231  1.00  0.00     0.000 C 
BRANCH   5   6
ATOM      6  C   UNL     1      59.856  18.745  50.088  1.00  0.00     0.000 C 
BRANCH   6   7
ATOM      7  C   UNL     1      58.880  18.369  48.959  1.00  0.00     0.006 C 
BRANCH   7   8
ATOM      8  C   UNL     1      57.866  17.299  49.383  1.00  0.00     0.053 C 
BRANCH   8   9
ATOM      9  C   UNL     1      56.789  17.908  50.226  1.00  0.00     0.041 C 
ATOM     10  O   UNL     1      55.799  18.464  49.683  1.00  0.00    -0.550 OA
ATOM     11  O   UNL     1      56.853  17.813  51.610  1.00  0.00    -0.550 OA
ENDBRANCH   8   9
ENDBRANCH   7   8
ENDBRANCH   6   7
ENDBRANCH   5   6
ENDBRANCH   4   5
ENDBRANCH   3   4
ENDBRANCH   2   3
ENDBRANCH   1   2
BRANCH   1  12
ATOM     12  C   UNL     1      60.447  25.237  49.348  1.00  0.00     0.000 C 
BRANCH  12  13
ATOM     13  C   UNL     1      60.777  26.731  49.220  1.00  0.00    -0.000 C 
BRANCH  13  14
ATOM     14  C   UNL     1      59.640  27.541  48.571  1.00  0.00    -0.000 C 
BRANCH  14  15
ATOM     15  C   UNL     1      58.570  28.064  49.550  1.00  0.00    -0.000 C 
BRANCH  15  16
ATOM     16  C   UNL     1      57.308  27.187  49.665  1.00  0.00    -0.000 C 
BRANCH  16  17
ATOM     17  C   UNL     1      56.595  27.248  51.031  1.00  0.00    -0.000 C 
BRANCH  17  18
ATOM     18  C   UNL     1      55.719  28.497  51.253  1.00  0.00    -0.000 C 
BRANCH  18  19
ATOM     19  C   UNL     1      55.060  29.061  49.981  1.00  0.00    -0.003 C 
ATOM     20  C   UNL     1      55.426  30.521  49.716  1.00  0.00     0.004 C 
ENDBRANCH  18  19
ENDBRANCH  17  18
ENDBRANCH  16  17
ENDBRANCH  15  16
ENDBRANCH  14  15
ENDBRANCH  13  14
ENDBRANCH  12  13
ENDBRANCH   1  12
TORSDOF 16
ENDMDL
MODEL 9
REMARK VINA RESULT:    -3.014      9.921     12.129
REMARK INTER + INTRA:          -8.193
REMARK INTER:                  -5.444
REMARK INTRA:                  -2.749
REMARK UNBOUND:                -2.360
REMARK SMILES CCCCCCCCCCCCCCCCCC(=O)[O-]
REMARK SMILES IDX 10 1 11 2 12 3 13 4 14 5 15 6 16 7 17 8 18 9 19 10 20 11
REMARK SMILES IDX 9 12 8 13 7 14 6 15 5 16 4 17 3 18 2 19 1 20
REMARK H PARENT
REMARK Flexibility Score: inf
ROOT
ATOM      1  C   UNL     1      55.726  19.340  52.310  1.00  0.00     0.000 C 
ENDROOT
BRANCH   1   2
ATOM      2  C   UNL     1      56.227  18.055  51.631  1.00  0.00     0.000 C 
BRANCH   2   3
ATOM      3  C   UNL     1      56.498  18.248  50.131  1.00  0.00     0.000 C 
BRANCH   3   4
ATOM      4  C   UNL     1      57.683  17.405  49.625  1.00  0.00     0.000 C 
BRANCH   4   5
ATOM      5  C   UNL     1      58.105  16.246  50.551  1.00  0.00     0.000 C 
BRANCH   5   6
ATOM      6  C   UNL     1      59.545  16.330  51.093  1.00  0.00     0.000 C 
BRANCH   6   7
ATOM      7  C   UNL     1      60.193  17.723  51.000  1.00  0.00     0.006 C 
BRANCH   7   8
ATOM      8  C   UNL     1      60.204  18.464  52.343  1.00  0.00     0.053 C 
BRANCH   8   9
ATOM      9  C   UNL     1      59.492  19.774  52.221  1.00  0.00     0.041 C 
ATOM     10  O   UNL     1      59.106  20.384  53.253  1.00  0.00    -0.550 OA
ATOM     11  O   UNL     1      59.301  20.349  50.971  1.00  0.00    -0.550 OA
ENDBRANCH   8   9
ENDBRANCH   7   8
ENDBRANCH   6   7
ENDBRANCH   5   6
ENDBRANCH   4   5
ENDBRANCH   3   4
ENDBRANCH   2   3
ENDBRANCH   1   2
BRANCH   1  12
ATOM     12  C   UNL     1      54.280  19.689  51.925  1.00  0.00     0.000 C 
BRANCH  12  13
ATOM     13  C   UNL     1      53.404  19.852  53.175  1.00  0.00    -0.000 C 
BRANCH  13  14
ATOM     14  C   UNL     1      52.975  18.506  53.785  1.00  0.00    -0.000 C 
BRANCH  14  15
ATOM     15  C   UNL     1      53.531  18.221  55.194  1.00  0.00    -0.000 C 
BRANCH  15  16
ATOM     16  C   UNL     1      53.895  16.748  55.466  1.00  0.00    -0.000 C 
BRANCH  16  17
ATOM     17  C   UNL     1      55.403  16.430  55.406  1.00  0.00    -0.000 C 
BRANCH  17  18
ATOM     18  C   UNL     1      56.331  17.597  55.797  1.00  0.00    -0.000 C 
BRANCH  18  19
ATOM     19  C   UNL     1      57.653  17.665  55.010  1.00  0.00    -0.003 C 
ATOM     20  C   UNL     1      58.149  16.291  54.558  1.00  0.00     0.004 C 
ENDBRANCH  18  19
ENDBRANCH  17  18
ENDBRANCH  16  17
ENDBRANCH  15  16
ENDBRANCH  14  15
ENDBRANCH  13  14
ENDBRANCH  12  13
ENDBRANCH   1  12
TORSDOF 16
ENDMDL
