MODEL 1
REMARK VINA RESULT:    -2.874      0.000      0.000
REMARK INTER + INTRA:          -7.003
REMARK INTER:                  -4.890
REMARK INTRA:                  -2.113
REMARK UNBOUND:                -2.113
REMARK SMILES CCCCCCCCCCCCCC(=O)[O-]
REMARK SMILES IDX 8 1 9 2 10 3 11 4 12 5 13 6 14 7 15 8 16 9 7 10 6 11 5 12
REMARK SMILES IDX 4 13 3 14 2 15 1 16
REMARK H PARENT
REMARK Flexibility Score: inf
ROOT
ATOM      1  C   UNL     1    -103.193 -30.492 -14.401  1.00  0.00     0.000 C 
ENDROOT
BRANCH   1   2
ATOM      2  C   UNL     1    -101.815 -30.641 -15.067  1.00  0.00     0.000 C 
BRANCH   2   3
ATOM      3  C   UNL     1    -101.497 -29.491 -16.036  1.00  0.00     0.000 C 
BRANCH   3   4
ATOM      4  C   UNL     1    -102.722 -28.610 -16.332  1.00  0.00     0.000 C 
BRANCH   4   5
ATOM      5  C   UNL     1    -102.470 -27.120 -16.036  1.00  0.00     0.006 C 
BRANCH   5   6
ATOM      6  C   UNL     1    -103.390 -26.156 -16.805  1.00  0.00     0.053 C 
BRANCH   6   7
ATOM      7  C   UNL     1    -104.351 -25.451 -15.898  1.00  0.00     0.041 C 
ATOM      8  O   UNL     1    -105.442 -25.013 -16.348  1.00  0.00    -0.550 OA
ATOM      9  O   UNL     1    -104.026 -25.248 -14.562  1.00  0.00    -0.550 OA
ENDBRANCH   6   7
ENDBRANCH   5   6
ENDBRANCH   4   5
ENDBRANCH   3   4
ENDBRANCH   2   3
ENDBRANCH   1   2
BRANCH   1  10
ATOM     10  C   UNL     1    -103.047 -30.046 -12.938  1.00  0.00     0.000 C 
BRANCH  10  11
ATOM     11  C   UNL     1    -103.650 -28.655 -12.679  1.00  0.00    -0.000 C 
BRANCH  11  12
ATOM     12  C   UNL     1    -102.574 -27.585 -12.422  1.00  0.00    -0.000 C 
BRANCH  12  13
ATOM     13  C   UNL     1    -101.186 -28.188 -12.133  1.00  0.00    -0.000 C 
BRANCH  13  14
ATOM     14  C   UNL     1    -100.096 -27.840 -13.162  1.00  0.00    -0.000 C 
BRANCH  14  15
ATOM     15  C   UNL     1     -98.987 -28.900 -13.241  1.00  0.00    -0.003 C 
ATOM     16  C   UNL     1     -99.291 -30.084 -12.328  1.00  0.00     0.004 C 
ENDBRANCH  14  15
ENDBRANCH  13  14
ENDBRANCH  12  13
ENDBRANCH  11  12
ENDBRANCH  10  11
ENDBRANCH   1  10
TORSDOF 12
ENDMDL
MODEL 2
REMARK VINA RESULT:    -2.858      4.108      5.917
REMARK INTER + INTRA:          -6.976
REMARK INTER:                  -5.343
REMARK INTRA:                  -1.633
REMARK UNBOUND:                -2.113
REMARK SMILES CCCCCCCCCCCCCC(=O)[O-]
REMARK SMILES IDX 8 1 9 2 10 3 11 4 12 5 13 6 14 7 15 8 16 9 7 10 6 11 5 12
REMARK SMILES IDX 4 13 3 14 2 15 1 16
REMARK H PARENT
REMARK Flexibility Score: inf
ROOT
ATOM      1  C   UNL     1    -101.618 -31.431 -15.466  1.00  0.00     0.000 C 
ENDROOT
BRANCH   1   2
ATOM      2  C   UNL     1    -100.364 -31.649 -14.605  1.00  0.00     0.000 C 
BRANCH   2   3
ATOM      3  C   UNL     1     -99.234 -30.661 -14.940  1.00  0.00     0.000 C 
BRANCH   3   4
ATOM      4  C   UNL     1     -98.012 -30.827 -14.021  1.00  0.00     0.000 C 
BRANCH   4   5
ATOM      5  C   UNL     1     -97.837 -29.650 -13.043  1.00  0.00     0.006 C 
BRANCH   5   6
ATOM      6  C   UNL     1     -98.413 -29.900 -11.639  1.00  0.00     0.053 C 
BRANCH   6   7
ATOM      7  C   UNL     1     -97.338 -30.015 -10.602  1.00  0.00     0.041 C 
ATOM      8  O   UNL     1     -96.132 -29.838 -10.917  1.00  0.00    -0.550 OA
ATOM      9  O   UNL     1     -97.665 -30.350  -9.294  1.00  0.00    -0.550 OA
ENDBRANCH   6   7
ENDBRANCH   5   6
ENDBRANCH   4   5
ENDBRANCH   3   4
ENDBRANCH   2   3
ENDBRANCH   1   2
BRANCH   1  10
ATOM     10  C   UNL     1    -101.398 -30.292 -16.474  1.00  0.00     0.000 C 
BRANCH  10  11
ATOM     11  C   UNL     1    -102.544 -29.267 -16.471  1.00  0.00    -0.000 C 
BRANCH  11  12
ATOM     12  C   UNL     1    -102.037 -27.815 -16.415  1.00  0.00    -0.000 C 
BRANCH  12  13
ATOM     13  C   UNL     1    -102.144 -27.197 -15.009  1.00  0.00    -0.000 C 
BRANCH  13  14
ATOM     14  C   UNL     1    -101.039 -27.620 -14.024  1.00  0.00    -0.000 C 
BRANCH  14  15
ATOM     15  C   UNL     1    -101.558 -28.515 -12.889  1.00  0.00    -0.003 C 
ATOM     16  C   UNL     1    -101.705 -27.728 -11.590  1.00  0.00     0.004 C 
ENDBRANCH  14  15
ENDBRANCH  13  14
ENDBRANCH  12  13
ENDBRANCH  11  12
ENDBRANCH  10  11
ENDBRANCH   1  10
TORSDOF 12
ENDMDL
MODEL 3
REMARK VINA RESULT:    -2.799      1.939      3.119
REMARK INTER + INTRA:          -6.876
REMARK INTER:                  -5.519
REMARK INTRA:                  -1.357
REMARK UNBOUND:                -2.113
REMARK SMILES CCCCCCCCCCCCCC(=O)[O-]
REMARK SMILES IDX 8 1 9 2 10 3 11 4 12 5 13 6 14 7 15 8 16 9 7 10 6 11 5 12
REMARK SMILES IDX 4 13 3 14 2 15 1 16
REMARK H PARENT
REMARK Flexibility Score: inf
ROOT
ATOM      1  C   UNL     1    -101.928 -28.143 -16.073  1.00  0.00     0.000 C 
ENDROOT
BRANCH   1   2
ATOM      2  C   UNL     1    -103.243 -27.650 -16.697  1.00  0.00     0.000 C 
BRANCH   2   3
ATOM      3  C   UNL     1    -103.358 -26.116 -16.709  1.00  0.00     0.000 C 
BRANCH   3   4
ATOM      4  C   UNL     1    -104.641 -25.614 -16.025  1.00  0.00     0.000 C 
BRANCH   4   5
ATOM      5  C   UNL     1    -104.362 -24.566 -14.932  1.00  0.00     0.006 C 
BRANCH   5   6
ATOM      6  C   UNL     1    -104.511 -25.093 -13.494  1.00  0.00     0.053 C 
BRANCH   6   7
ATOM      7  C   UNL     1    -104.713 -23.985 -12.507  1.00  0.00     0.041 C 
ATOM      8  O   UNL     1    -104.600 -24.207 -11.273  1.00  0.00    -0.550 OA
ATOM      9  O   UNL     1    -105.061 -22.714 -12.948  1.00  0.00    -0.550 OA
ENDBRANCH   6   7
ENDBRANCH   5   6
ENDBRANCH   4   5
ENDBRANCH   3   4
ENDBRANCH   2   3
ENDBRANCH   1   2
BRANCH   1  10
ATOM     10  C   UNL     1    -101.592 -27.344 -14.804  1.00  0.00     0.000 C 
BRANCH  10  11
ATOM     11  C   UNL     1    -102.228 -27.943 -13.539  1.00  0.00    -0.000 C 
BRANCH  11  12
ATOM     12  C   UNL     1    -101.293 -27.873 -12.319  1.00  0.00    -0.000 C 
BRANCH  12  13
ATOM     13  C   UNL     1    -100.879 -29.263 -11.801  1.00  0.00    -0.000 C 
BRANCH  13  14
ATOM     14  C   UNL     1     -99.366 -29.543 -11.822  1.00  0.00    -0.000 C 
BRANCH  14  15
ATOM     15  C   UNL     1     -98.717 -29.232 -13.179  1.00  0.00    -0.003 C 
ATOM     16  C   UNL     1     -99.092 -30.282 -14.221  1.00  0.00     0.004 C 
ENDBRANCH  14  15
ENDBRANCH  13  14
ENDBRANCH  12  13
ENDBRANCH  11  12
ENDBRANCH  10  11
ENDBRANCH   1  10
TORSDOF 12
ENDMDL
MODEL 4
REMARK VINA RESULT:    -2.793      4.070      5.865
REMARK INTER + INTRA:          -6.865
REMARK INTER:                  -5.321
REMARK INTRA:                  -1.543
REMARK UNBOUND:                -2.113
REMARK SMILES CCCCCCCCCCCCCC(=O)[O-]
REMARK SMILES IDX 8 1 9 2 10 3 11 4 12 5 13 6 14 7 15 8 16 9 7 10 6 11 5 12
REMARK SMILES IDX 4 13 3 14 2 15 1 16
REMARK H PARENT
REMARK Flexibility Score: inf
ROOT
ATOM      1  C   UNL     1    -102.407 -29.456 -16.293  1.00  0.00     0.000 C 
ENDROOT
BRANCH   1   2
ATOM      2  C   UNL     1    -101.229 -30.437 -16.399  1.00  0.00     0.000 C 
BRANCH   2   3
ATOM      3  C   UNL     1    -100.749 -30.940 -15.027  1.00  0.00     0.000 C 
BRANCH   3   4
ATOM      4  C   UNL     1     -99.240 -30.737 -14.818  1.00  0.00     0.000 C 
BRANCH   4   5
ATOM      5  C   UNL     1     -98.852 -30.639 -13.330  1.00  0.00     0.006 C 
BRANCH   5   6
ATOM      6  C   UNL     1     -97.840 -29.526 -13.009  1.00  0.00     0.053 C 
BRANCH   6   7
ATOM      7  C   UNL     1     -96.479 -30.072 -12.707  1.00  0.00     0.041 C 
ATOM      8  O   UNL     1     -95.959 -30.932 -13.465  1.00  0.00    -0.550 OA
ATOM      9  O   UNL     1     -95.798 -29.656 -11.570  1.00  0.00    -0.550 OA
ENDBRANCH   6   7
ENDBRANCH   5   6
ENDBRANCH   4   5
ENDBRANCH   3   4
ENDBRANCH   2   3
ENDBRANCH   1   2
BRANCH   1  10
ATOM     10  C   UNL     1    -101.917 -28.002 -16.368  1.00  0.00     0.000 C 
BRANCH  10  11
ATOM     11  C   UNL     1    -102.080 -27.251 -15.037  1.00  0.00    -0.000 C 
BRANCH  11  12
ATOM     12  C   UNL     1    -100.872 -27.437 -14.102  1.00  0.00    -0.000 C 
BRANCH  12  13
ATOM     13  C   UNL     1    -101.267 -27.953 -12.707  1.00  0.00    -0.000 C 
BRANCH  13  14
ATOM     14  C   UNL     1    -102.781 -27.975 -12.423  1.00  0.00    -0.000 C 
BRANCH  14  15
ATOM     15  C   UNL     1    -103.234 -26.836 -11.498  1.00  0.00    -0.003 C 
ATOM     16  C   UNL     1    -104.185 -25.886 -12.221  1.00  0.00     0.004 C 
ENDBRANCH  14  15
ENDBRANCH  13  14
ENDBRANCH  12  13
ENDBRANCH  11  12
ENDBRANCH  10  11
ENDBRANCH   1  10
TORSDOF 12
ENDMDL
MODEL 5
REMARK VINA RESULT:    -2.773      3.165      5.275
REMARK INTER + INTRA:          -6.831
REMARK INTER:                  -5.360
REMARK INTRA:                  -1.470
REMARK UNBOUND:                -2.113
REMARK SMILES CCCCCCCCCCCCCC(=O)[O-]
REMARK SMILES IDX 8 1 9 2 10 3 11 4 12 5 13 6 14 7 15 8 16 9 7 10 6 11 5 12
REMARK SMILES IDX 4 13 3 14 2 15 1 16
REMARK H PARENT
REMARK Flexibility Score: inf
ROOT
ATOM      1  C   UNL     1    -104.889 -26.616 -16.718  1.00  0.00     0.000 C 
ENDROOT
BRANCH   1   2
ATOM      2  C   UNL     1    -103.395 -26.287 -16.862  1.00  0.00     0.000 C 
BRANCH   2   3
ATOM      3  C   UNL     1    -102.486 -27.410 -16.334  1.00  0.00     0.000 C 
BRANCH   3   4
ATOM      4  C   UNL     1    -101.972 -27.134 -14.911  1.00  0.00     0.000 C 
BRANCH   4   5
ATOM      5  C   UNL     1    -101.182 -28.319 -14.323  1.00  0.00     0.006 C 
BRANCH   5   6
ATOM      6  C   UNL     1    -100.014 -27.912 -13.410  1.00  0.00     0.053 C 
BRANCH   6   7
ATOM      7  C   UNL     1     -99.263 -29.101 -12.893  1.00  0.00     0.041 C 
ATOM      8  O   UNL     1     -98.031 -29.221 -13.123  1.00  0.00    -0.550 OA
ATOM      9  O   UNL     1     -99.931 -30.093 -12.186  1.00  0.00    -0.550 OA
ENDBRANCH   6   7
ENDBRANCH   5   6
ENDBRANCH   4   5
ENDBRANCH   3   4
ENDBRANCH   2   3
ENDBRANCH   1   2
BRANCH   1  10
ATOM     10  C   UNL     1    -105.642 -25.458 -16.045  1.00  0.00     0.000 C 
BRANCH  10  11
ATOM     11  C   UNL     1    -104.705 -24.329 -15.584  1.00  0.00    -0.000 C 
BRANCH  11  12
ATOM     12  C   UNL     1    -104.637 -24.206 -14.052  1.00  0.00    -0.000 C 
BRANCH  12  13
ATOM     13  C   UNL     1    -104.948 -25.531 -13.331  1.00  0.00    -0.000 C 
BRANCH  13  14
ATOM     14  C   UNL     1    -104.140 -25.779 -12.043  1.00  0.00    -0.000 C 
BRANCH  14  15
ATOM     15  C   UNL     1    -103.918 -27.270 -11.753  1.00  0.00    -0.003 C 
ATOM     16  C   UNL     1    -102.670 -27.485 -10.901  1.00  0.00     0.004 C 
ENDBRANCH  14  15
ENDBRANCH  13  14
ENDBRANCH  12  13
ENDBRANCH  11  12
ENDBRANCH  10  11
ENDBRANCH   1  10
TORSDOF 12
ENDMDL
MODEL 6
REMARK VINA RESULT:    -2.740      3.662      5.977
REMARK INTER + INTRA:          -6.775
REMARK INTER:                  -5.284
REMARK INTRA:                  -1.491
REMARK UNBOUND:                -2.113
REMARK SMILES CCCCCCCCCCCCCC(=O)[O-]
REMARK SMILES IDX 8 1 9 2 10 3 11 4 12 5 13 6 14 7 15 8 16 9 7 10 6 11 5 12
REMARK SMILES IDX 4 13 3 14 2 15 1 16
REMARK H PARENT
REMARK Flexibility Score: inf
ROOT
ATOM      1  C   UNL     1    -101.933 -29.192 -15.894  1.00  0.00     0.000 C 
ENDROOT
BRANCH   1   2
ATOM      2  C   UNL     1    -102.111 -28.952 -14.387  1.00  0.00     0.000 C 
BRANCH   2   3
ATOM      3  C   UNL     1    -101.207 -27.828 -13.853  1.00  0.00     0.000 C 
BRANCH   3   4
ATOM      4  C   UNL     1    -100.814 -28.035 -12.381  1.00  0.00     0.000 C 
BRANCH   4   5
ATOM      5  C   UNL     1    -100.003 -29.325 -12.156  1.00  0.00     0.006 C 
BRANCH   5   6
ATOM      6  C   UNL     1     -98.689 -29.396 -12.952  1.00  0.00     0.053 C 
BRANCH   6   7
ATOM      7  C   UNL     1     -97.525 -29.764 -12.085  1.00  0.00     0.041 C 
ATOM      8  O   UNL     1     -97.693 -29.980 -10.856  1.00  0.00    -0.550 OA
ATOM      9  O   UNL     1     -96.247 -29.834 -12.627  1.00  0.00    -0.550 OA
ENDBRANCH   6   7
ENDBRANCH   5   6
ENDBRANCH   4   5
ENDBRANCH   3   4
ENDBRANCH   2   3
ENDBRANCH   1   2
BRANCH   1  10
ATOM     10  C   UNL     1    -102.106 -27.883 -16.680  1.00  0.00     0.000 C 
BRANCH  10  11
ATOM     11  C   UNL     1    -103.526 -27.304 -16.566  1.00  0.00    -0.000 C 
BRANCH  11  12
ATOM     12  C   UNL     1    -103.535 -25.766 -16.531  1.00  0.00    -0.000 C 
BRANCH  12  13
ATOM     13  C   UNL     1    -104.226 -25.199 -15.277  1.00  0.00    -0.000 C 
BRANCH  13  14
ATOM     14  C   UNL     1    -104.675 -26.252 -14.247  1.00  0.00    -0.000 C 
BRANCH  14  15
ATOM     15  C   UNL     1    -104.236 -25.913 -12.815  1.00  0.00    -0.003 C 
ATOM     16  C   UNL     1    -104.399 -27.117 -11.890  1.00  0.00     0.004 C 
ENDBRANCH  14  15
ENDBRANCH  13  14
ENDBRANCH  12  13
ENDBRANCH  11  12
ENDBRANCH  10  11
ENDBRANCH   1  10
TORSDOF 12
ENDMDL
MODEL 7
REMARK VINA RESULT:    -2.713      3.550      5.892
REMARK INTER + INTRA:          -6.729
REMARK INTER:                  -5.182
REMARK INTRA:                  -1.546
REMARK UNBOUND:                -2.113
REMARK SMILES CCCCCCCCCCCCCC(=O)[O-]
REMARK SMILES IDX 8 1 9 2 10 3 11 4 12 5 13 6 14 7 15 8 16 9 7 10 6 11 5 12
REMARK SMILES IDX 4 13 3 14 2 15 1 16
REMARK H PARENT
REMARK Flexibility Score: inf
ROOT
ATOM      1  C   UNL     1    -104.008 -26.546 -12.433  1.00  0.00     0.000 C 
ENDROOT
BRANCH   1   2
ATOM      2  C   UNL     1    -103.179 -27.816 -12.680  1.00  0.00     0.000 C 
BRANCH   2   3
ATOM      3  C   UNL     1    -101.680 -27.609 -12.408  1.00  0.00     0.000 C 
BRANCH   3   4
ATOM      4  C   UNL     1    -100.858 -28.890 -12.628  1.00  0.00     0.000 C 
BRANCH   4   5
ATOM      5  C   UNL     1     -99.458 -28.608 -13.206  1.00  0.00     0.006 C 
BRANCH   5   6
ATOM      6  C   UNL     1     -98.535 -29.838 -13.264  1.00  0.00     0.053 C 
BRANCH   6   7
ATOM      7  C   UNL     1     -97.473 -29.794 -12.209  1.00  0.00     0.041 C 
ATOM      8  O   UNL     1     -97.789 -29.772 -10.991  1.00  0.00    -0.550 OA
ATOM      9  O   UNL     1     -96.133 -29.744 -12.573  1.00  0.00    -0.550 OA
ENDBRANCH   6   7
ENDBRANCH   5   6
ENDBRANCH   4   5
ENDBRANCH   3   4
ENDBRANCH   2   3
ENDBRANCH   1   2
BRANCH   1  10
ATOM     10  C   UNL     1    -104.751 -26.121 -13.709  1.00  0.00     0.000 C 
BRANCH  10  11
ATOM     11  C   UNL     1    -103.802 -25.615 -14.807  1.00  0.00    -0.000 C 
BRANCH  11  12
ATOM     12  C   UNL     1    -104.294 -25.969 -16.222  1.00  0.00    -0.000 C 
BRANCH  12  13
ATOM     13  C   UNL     1    -103.555 -27.175 -16.829  1.00  0.00    -0.000 C 
BRANCH  13  14
ATOM     14  C   UNL     1    -102.174 -27.471 -16.216  1.00  0.00    -0.000 C 
BRANCH  14  15
ATOM     15  C   UNL     1    -101.818 -28.965 -16.231  1.00  0.00    -0.003 C 
ATOM     16  C   UNL     1    -103.069 -29.830 -16.100  1.00  0.00     0.004 C 
ENDBRANCH  14  15
ENDBRANCH  13  14
ENDBRANCH  12  13
ENDBRANCH  11  12
ENDBRANCH  10  11
ENDBRANCH   1  10
TORSDOF 12
ENDMDL
MODEL 8
REMARK VINA RESULT:    -2.691      1.371      3.001
REMARK INTER + INTRA:          -6.692
REMARK INTER:                  -4.646
REMARK INTRA:                  -2.046
REMARK UNBOUND:                -2.113
REMARK SMILES CCCCCCCCCCCCCC(=O)[O-]
REMARK SMILES IDX 8 1 9 2 10 3 11 4 12 5 13 6 14 7 15 8 16 9 7 10 6 11 5 12
REMARK SMILES IDX 4 13 3 14 2 15 1 16
REMARK H PARENT
REMARK Flexibility Score: inf
ROOT
ATOM      1  C   UNL     1     -99.687 -30.195 -13.528  1.00  0.00     0.000 C 
ENDROOT
BRANCH   1   2
ATOM      2  C   UNL     1     -99.319 -30.696 -14.933  1.00  0.00     0.000 C 
BRANCH   2   3
ATOM      3  C   UNL     1    -100.336 -30.264 -16.003  1.00  0.00     0.000 C 
BRANCH   3   4
ATOM      4  C   UNL     1    -101.791 -30.418 -15.531  1.00  0.00     0.000 C 
BRANCH   4   5
ATOM      5  C   UNL     1    -102.767 -29.509 -16.303  1.00  0.00     0.006 C 
BRANCH   5   6
ATOM      6  C   UNL     1    -102.273 -28.065 -16.494  1.00  0.00     0.053 C 
BRANCH   6   7
ATOM      7  C   UNL     1    -103.404 -27.107 -16.712  1.00  0.00     0.041 C 
ATOM      8  O   UNL     1    -103.183 -25.870 -16.783  1.00  0.00    -0.550 OA
ATOM      9  O   UNL     1    -104.708 -27.580 -16.805  1.00  0.00    -0.550 OA
ENDBRANCH   6   7
ENDBRANCH   5   6
ENDBRANCH   4   5
ENDBRANCH   3   4
ENDBRANCH   2   3
ENDBRANCH   1   2
BRANCH   1  10
ATOM     10  C   UNL     1     -99.123 -28.788 -13.283  1.00  0.00     0.000 C 
BRANCH  10  11
ATOM     11  C   UNL     1    -100.201 -27.694 -13.355  1.00  0.00    -0.000 C 
BRANCH  11  12
ATOM     12  C   UNL     1    -101.342 -27.923 -12.348  1.00  0.00    -0.000 C 
BRANCH  12  13
ATOM     13  C   UNL     1    -102.738 -27.823 -12.992  1.00  0.00    -0.000 C 
BRANCH  13  14
ATOM     14  C   UNL     1    -103.712 -28.955 -12.618  1.00  0.00    -0.000 C 
BRANCH  14  15
ATOM     15  C   UNL     1    -103.089 -29.995 -11.675  1.00  0.00    -0.003 C 
ATOM     16  C   UNL     1    -103.005 -31.364 -12.343  1.00  0.00     0.004 C 
ENDBRANCH  14  15
ENDBRANCH  13  14
ENDBRANCH  12  13
ENDBRANCH  11  12
ENDBRANCH  10  11
ENDBRANCH   1  10
TORSDOF 12
ENDMDL
MODEL 9
REMARK VINA RESULT:    -2.661      1.675      3.395
REMARK INTER + INTRA:          -6.640
REMARK INTER:                  -4.741
REMARK INTRA:                  -1.899
REMARK UNBOUND:                -2.113
REMARK SMILES CCCCCCCCCCCCCC(=O)[O-]
REMARK SMILES IDX 8 1 9 2 10 3 11 4 12 5 13 6 14 7 15 8 16 9 7 10 6 11 5 12
REMARK SMILES IDX 4 13 3 14 2 15 1 16
REMARK H PARENT
REMARK Flexibility Score: inf
ROOT
ATOM      1  C   UNL     1    -101.598 -27.904 -15.574  1.00  0.00     0.000 C 
ENDROOT
BRANCH   1   2
ATOM      2  C   UNL     1    -102.592 -28.048 -16.736  1.00  0.00     0.000 C 
BRANCH   2   3
ATOM      3  C   UNL     1    -103.582 -26.874 -16.821  1.00  0.00     0.000 C 
BRANCH   3   4
ATOM      4  C   UNL     1    -103.433 -25.890 -15.649  1.00  0.00     0.000 C 
BRANCH   4   5
ATOM      5  C   UNL     1    -104.786 -25.496 -15.026  1.00  0.00     0.006 C 
BRANCH   5   6
ATOM      6  C   UNL     1    -104.711 -24.325 -14.032  1.00  0.00     0.053 C 
BRANCH   6   7
ATOM      7  C   UNL     1    -105.353 -23.085 -14.573  1.00  0.00     0.041 C 
ATOM      8  O   UNL     1    -104.955 -22.586 -15.658  1.00  0.00    -0.550 OA
ATOM      9  O   UNL     1    -106.371 -22.461 -13.862  1.00  0.00    -0.550 OA
ENDBRANCH   6   7
ENDBRANCH   5   6
ENDBRANCH   4   5
ENDBRANCH   3   4
ENDBRANCH   2   3
ENDBRANCH   1   2
BRANCH   1  10
ATOM     10  C   UNL     1    -101.139 -29.282 -15.072  1.00  0.00     0.000 C 
BRANCH  10  11
ATOM     11  C   UNL     1    -100.492 -29.221 -13.679  1.00  0.00    -0.000 C 
BRANCH  11  12
ATOM     12  C   UNL     1    -100.650 -27.842 -13.014  1.00  0.00    -0.000 C 
BRANCH  12  13
ATOM     13  C   UNL     1    -101.671 -27.847 -11.861  1.00  0.00    -0.000 C 
BRANCH  13  14
ATOM     14  C   UNL     1    -103.003 -27.137 -12.166  1.00  0.00    -0.000 C 
BRANCH  14  15
ATOM     15  C   UNL     1    -104.218 -28.069 -12.053  1.00  0.00    -0.003 C 
ATOM     16  C   UNL     1    -104.432 -28.855 -13.344  1.00  0.00     0.004 C 
ENDBRANCH  14  15
ENDBRANCH  13  14
ENDBRANCH  12  13
ENDBRANCH  11  12
ENDBRANCH  10  11
ENDBRANCH   1  10
TORSDOF 12
ENDMDL
