MODEL 1
REMARK VINA RESULT:    -3.889      0.000      0.000
REMARK INTER + INTRA:          -8.326
REMARK INTER:                  -6.617
REMARK INTRA:                  -1.710
REMARK UNBOUND:                -1.710
REMARK SMILES CCCCCCCCCCCCCC(=O)[O-]
REMARK SMILES IDX 8 1 9 2 10 3 11 4 12 5 13 6 14 7 15 8 16 9 7 10 6 11 5 12
REMARK SMILES IDX 4 13 3 14 2 15 1 16
REMARK H PARENT
REMARK Flexibility Score: inf
ROOT
ATOM      1  C   UNL     1     -23.609  -7.844  -6.704  1.00  0.00     0.000 C 
ENDROOT
BRANCH   1   2
ATOM      2  C   UNL     1     -24.382  -6.561  -7.072  1.00  0.00     0.000 C 
BRANCH   2   3
ATOM      3  C   UNL     1     -25.903  -6.622  -6.832  1.00  0.00     0.000 C 
BRANCH   3   4
ATOM      4  C   UNL     1     -26.463  -5.504  -5.933  1.00  0.00     0.000 C 
BRANCH   4   5
ATOM      5  C   UNL     1     -26.786  -5.966  -4.496  1.00  0.00     0.006 C 
BRANCH   5   6
ATOM      6  C   UNL     1     -25.882  -5.302  -3.448  1.00  0.00     0.053 C 
BRANCH   6   7
ATOM      7  C   UNL     1     -24.774  -6.227  -3.054  1.00  0.00     0.041 C 
ATOM      8  O   UNL     1     -24.994  -7.176  -2.256  1.00  0.00    -0.550 OA
ATOM      9  O   UNL     1     -23.510  -6.071  -3.605  1.00  0.00    -0.550 OA
ENDBRANCH   6   7
ENDBRANCH   5   6
ENDBRANCH   4   5
ENDBRANCH   3   4
ENDBRANCH   2   3
ENDBRANCH   1   2
BRANCH   1  10
ATOM     10  C   UNL     1     -24.484  -9.070  -6.387  1.00  0.00     0.000 C 
BRANCH  10  11
ATOM     11  C   UNL     1     -24.472  -9.444  -4.895  1.00  0.00    -0.000 C 
BRANCH  11  12
ATOM     12  C   UNL     1     -23.048  -9.507  -4.316  1.00  0.00    -0.000 C 
BRANCH  12  13
ATOM     13  C   UNL     1     -22.472 -10.933  -4.324  1.00  0.00    -0.000 C 
BRANCH  13  14
ATOM     14  C   UNL     1     -21.196 -11.050  -5.175  1.00  0.00    -0.000 C 
BRANCH  14  15
ATOM     15  C   UNL     1     -21.495 -11.346  -6.652  1.00  0.00    -0.003 C 
ATOM     16  C   UNL     1     -20.925 -10.256  -7.557  1.00  0.00     0.004 C 
ENDBRANCH  14  15
ENDBRANCH  13  14
ENDBRANCH  12  13
ENDBRANCH  11  12
ENDBRANCH  10  11
ENDBRANCH   1  10
TORSDOF 12
ENDMDL
MODEL 2
REMARK VINA RESULT:    -3.878      1.948      4.233
REMARK INTER + INTRA:          -8.308
REMARK INTER:                  -6.290
REMARK INTRA:                  -2.018
REMARK UNBOUND:                -1.710
REMARK SMILES CCCCCCCCCCCCCC(=O)[O-]
REMARK SMILES IDX 8 1 9 2 10 3 11 4 12 5 13 6 14 7 15 8 16 9 7 10 6 11 5 12
REMARK SMILES IDX 4 13 3 14 2 15 1 16
REMARK H PARENT
REMARK Flexibility Score: inf
ROOT
ATOM      1  C   UNL     1     -21.371 -11.578  -5.909  1.00  0.00     0.000 C 
ENDROOT
BRANCH   1   2
ATOM      2  C   UNL     1     -22.076 -11.410  -4.547  1.00  0.00     0.000 C 
BRANCH   2   3
ATOM      3  C   UNL     1     -21.719 -10.122  -3.780  1.00  0.00     0.000 C 
BRANCH   3   4
ATOM      4  C   UNL     1     -22.791  -9.018  -3.833  1.00  0.00     0.000 C 
BRANCH   4   5
ATOM      5  C   UNL     1     -24.153  -9.500  -4.378  1.00  0.00     0.006 C 
BRANCH   5   6
ATOM      6  C   UNL     1     -24.647  -8.651  -5.557  1.00  0.00     0.053 C 
BRANCH   6   7
ATOM      7  C   UNL     1     -25.231  -7.365  -5.067  1.00  0.00     0.041 C 
ATOM      8  O   UNL     1     -26.050  -7.365  -4.110  1.00  0.00    -0.550 OA
ATOM      9  O   UNL     1     -24.835  -6.161  -5.632  1.00  0.00    -0.550 OA
ENDBRANCH   6   7
ENDBRANCH   5   6
ENDBRANCH   4   5
ENDBRANCH   3   4
ENDBRANCH   2   3
ENDBRANCH   1   2
BRANCH   1  10
ATOM     10  C   UNL     1     -22.012 -10.810  -7.078  1.00  0.00     0.000 C 
BRANCH  10  11
ATOM     11  C   UNL     1     -21.019  -9.879  -7.797  1.00  0.00    -0.000 C 
BRANCH  11  12
ATOM     12  C   UNL     1     -20.757  -8.581  -7.014  1.00  0.00    -0.000 C 
BRANCH  12  13
ATOM     13  C   UNL     1     -19.340  -8.529  -6.418  1.00  0.00    -0.000 C 
BRANCH  13  14
ATOM     14  C   UNL     1     -18.378  -9.519  -7.096  1.00  0.00    -0.000 C 
BRANCH  14  15
ATOM     15  C   UNL     1     -17.623 -10.397  -6.087  1.00  0.00    -0.003 C 
ATOM     16  C   UNL     1     -18.119 -10.149  -4.664  1.00  0.00     0.004 C 
ENDBRANCH  14  15
ENDBRANCH  13  14
ENDBRANCH  12  13
ENDBRANCH  11  12
ENDBRANCH  10  11
ENDBRANCH   1  10
TORSDOF 12
ENDMDL
MODEL 3
REMARK VINA RESULT:    -3.788      2.486      5.927
REMARK INTER + INTRA:          -8.155
REMARK INTER:                  -6.611
REMARK INTRA:                  -1.544
REMARK UNBOUND:                -1.710
REMARK SMILES CCCCCCCCCCCCCC(=O)[O-]
REMARK SMILES IDX 8 1 9 2 10 3 11 4 12 5 13 6 14 7 15 8 16 9 7 10 6 11 5 12
REMARK SMILES IDX 4 13 3 14 2 15 1 16
REMARK H PARENT
REMARK Flexibility Score: inf
ROOT
ATOM      1  C   UNL     1     -24.086  -7.005  -6.521  1.00  0.00     0.000 C 
ENDROOT
BRANCH   1   2
ATOM      2  C   UNL     1     -24.513  -8.476  -6.710  1.00  0.00     0.000 C 
BRANCH   2   3
ATOM      3  C   UNL     1     -24.304  -9.381  -5.480  1.00  0.00     0.000 C 
BRANCH   3   4
ATOM      4  C   UNL     1     -22.855  -9.443  -4.962  1.00  0.00     0.000 C 
BRANCH   4   5
ATOM      5  C   UNL     1     -22.195 -10.829  -5.126  1.00  0.00     0.006 C 
BRANCH   5   6
ATOM      6  C   UNL     1     -21.966 -11.200  -6.597  1.00  0.00     0.053 C 
BRANCH   6   7
ATOM      7  C   UNL     1     -21.021 -10.234  -7.239  1.00  0.00     0.041 C 
ATOM      8  O   UNL     1     -21.388  -9.557  -8.236  1.00  0.00    -0.550 OA
ATOM      9  O   UNL     1     -19.754 -10.044  -6.707  1.00  0.00    -0.550 OA
ENDBRANCH   6   7
ENDBRANCH   5   6
ENDBRANCH   4   5
ENDBRANCH   3   4
ENDBRANCH   2   3
ENDBRANCH   1   2
BRANCH   1  10
ATOM     10  C   UNL     1     -25.053  -5.961  -7.109  1.00  0.00     0.000 C 
BRANCH  10  11
ATOM     11  C   UNL     1     -26.527  -6.264  -6.790  1.00  0.00    -0.000 C 
BRANCH  11  12
ATOM     12  C   UNL     1     -27.069  -5.403  -5.637  1.00  0.00    -0.000 C 
BRANCH  12  13
ATOM     13  C   UNL     1     -26.721  -5.983  -4.255  1.00  0.00    -0.000 C 
BRANCH  13  14
ATOM     14  C   UNL     1     -25.669  -5.144  -3.510  1.00  0.00    -0.000 C 
BRANCH  14  15
ATOM     15  C   UNL     1     -24.733  -6.000  -2.644  1.00  0.00    -0.003 C 
ATOM     16  C   UNL     1     -25.189  -7.456  -2.616  1.00  0.00     0.004 C 
ENDBRANCH  14  15
ENDBRANCH  13  14
ENDBRANCH  12  13
ENDBRANCH  11  12
ENDBRANCH  10  11
ENDBRANCH   1  10
TORSDOF 12
ENDMDL
MODEL 4
REMARK VINA RESULT:    -3.774      2.075      6.131
REMARK INTER + INTRA:          -8.131
REMARK INTER:                  -6.434
REMARK INTRA:                  -1.697
REMARK UNBOUND:                -1.710
REMARK SMILES CCCCCCCCCCCCCC(=O)[O-]
REMARK SMILES IDX 8 1 9 2 10 3 11 4 12 5 13 6 14 7 15 8 16 9 7 10 6 11 5 12
REMARK SMILES IDX 4 13 3 14 2 15 1 16
REMARK H PARENT
REMARK Flexibility Score: inf
ROOT
ATOM      1  C   UNL     1     -23.190  -8.485  -4.372  1.00  0.00     0.000 C 
ENDROOT
BRANCH   1   2
ATOM      2  C   UNL     1     -22.187  -9.522  -3.826  1.00  0.00     0.000 C 
BRANCH   2   3
ATOM      3  C   UNL     1     -22.439 -10.975  -4.272  1.00  0.00     0.000 C 
BRANCH   3   4
ATOM      4  C   UNL     1     -21.505 -11.482  -5.386  1.00  0.00     0.000 C 
BRANCH   4   5
ATOM      5  C   UNL     1     -21.866 -10.950  -6.789  1.00  0.00     0.006 C 
BRANCH   5   6
ATOM      6  C   UNL     1     -20.665 -10.315  -7.504  1.00  0.00     0.053 C 
BRANCH   6   7
ATOM      7  C   UNL     1     -20.380  -8.958  -6.943  1.00  0.00     0.041 C 
ATOM      8  O   UNL     1     -21.122  -7.983  -7.233  1.00  0.00    -0.550 OA
ATOM      9  O   UNL     1     -19.325  -8.780  -6.059  1.00  0.00    -0.550 OA
ENDBRANCH   6   7
ENDBRANCH   5   6
ENDBRANCH   4   5
ENDBRANCH   3   4
ENDBRANCH   2   3
ENDBRANCH   1   2
BRANCH   1  10
ATOM     10  C   UNL     1     -24.509  -9.069  -4.910  1.00  0.00     0.000 C 
BRANCH  10  11
ATOM     11  C   UNL     1     -24.753  -8.732  -6.391  1.00  0.00    -0.000 C 
BRANCH  11  12
ATOM     12  C   UNL     1     -24.552  -7.237  -6.695  1.00  0.00    -0.000 C 
BRANCH  12  13
ATOM     13  C   UNL     1     -25.883  -6.496  -6.910  1.00  0.00    -0.000 C 
BRANCH  13  14
ATOM     14  C   UNL     1     -26.096  -5.359  -5.897  1.00  0.00    -0.000 C 
BRANCH  14  15
ATOM     15  C   UNL     1     -26.820  -5.826  -4.626  1.00  0.00    -0.003 C 
ATOM     16  C   UNL     1     -25.869  -5.853  -3.431  1.00  0.00     0.004 C 
ENDBRANCH  14  15
ENDBRANCH  13  14
ENDBRANCH  12  13
ENDBRANCH  11  12
ENDBRANCH  10  11
ENDBRANCH   1  10
TORSDOF 12
ENDMDL
MODEL 5
REMARK VINA RESULT:    -3.773      1.707      3.395
REMARK INTER + INTRA:          -8.130
REMARK INTER:                  -6.431
REMARK INTRA:                  -1.699
REMARK UNBOUND:                -1.710
REMARK SMILES CCCCCCCCCCCCCC(=O)[O-]
REMARK SMILES IDX 8 1 9 2 10 3 11 4 12 5 13 6 14 7 15 8 16 9 7 10 6 11 5 12
REMARK SMILES IDX 4 13 3 14 2 15 1 16
REMARK H PARENT
REMARK Flexibility Score: inf
ROOT
ATOM      1  C   UNL     1     -22.157  -9.051  -3.157  1.00  0.00     0.000 C 
ENDROOT
BRANCH   1   2
ATOM      2  C   UNL     1     -23.543  -8.586  -3.648  1.00  0.00     0.000 C 
BRANCH   2   3
ATOM      3  C   UNL     1     -24.221  -9.518  -4.670  1.00  0.00     0.000 C 
BRANCH   3   4
ATOM      4  C   UNL     1     -24.610  -8.847  -6.000  1.00  0.00     0.000 C 
BRANCH   4   5
ATOM      5  C   UNL     1     -24.541  -7.305  -5.962  1.00  0.00     0.006 C 
BRANCH   5   6
ATOM      6  C   UNL     1     -25.857  -6.646  -6.398  1.00  0.00     0.053 C 
BRANCH   6   7
ATOM      7  C   UNL     1     -26.574  -6.078  -5.215  1.00  0.00     0.041 C 
ATOM      8  O   UNL     1     -27.528  -5.272  -5.379  1.00  0.00    -0.550 OA
ATOM      9  O   UNL     1     -26.222  -6.476  -3.932  1.00  0.00    -0.550 OA
ENDBRANCH   6   7
ENDBRANCH   5   6
ENDBRANCH   4   5
ENDBRANCH   3   4
ENDBRANCH   2   3
ENDBRANCH   1   2
BRANCH   1  10
ATOM     10  C   UNL     1     -21.004  -8.847  -4.156  1.00  0.00     0.000 C 
BRANCH  10  11
ATOM     11  C   UNL     1     -19.992 -10.006  -4.146  1.00  0.00    -0.000 C 
BRANCH  11  12
ATOM     12  C   UNL     1     -19.961 -10.771  -5.480  1.00  0.00    -0.000 C 
BRANCH  12  13
ATOM     13  C   UNL     1     -21.293 -11.478  -5.785  1.00  0.00    -0.000 C 
BRANCH  13  14
ATOM     14  C   UNL     1     -21.856 -11.105  -7.167  1.00  0.00    -0.000 C 
BRANCH  14  15
ATOM     15  C   UNL     1     -21.185  -9.860  -7.765  1.00  0.00    -0.003 C 
ATOM     16  C   UNL     1     -22.149  -9.099  -8.672  1.00  0.00     0.004 C 
ENDBRANCH  14  15
ENDBRANCH  13  14
ENDBRANCH  12  13
ENDBRANCH  11  12
ENDBRANCH  10  11
ENDBRANCH   1  10
TORSDOF 12
ENDMDL
MODEL 6
REMARK VINA RESULT:    -3.770      1.294      1.997
REMARK INTER + INTRA:          -8.125
REMARK INTER:                  -6.747
REMARK INTRA:                  -1.377
REMARK UNBOUND:                -1.710
REMARK SMILES CCCCCCCCCCCCCC(=O)[O-]
REMARK SMILES IDX 8 1 9 2 10 3 11 4 12 5 13 6 14 7 15 8 16 9 7 10 6 11 5 12
REMARK SMILES IDX 4 13 3 14 2 15 1 16
REMARK H PARENT
REMARK Flexibility Score: inf
ROOT
ATOM      1  C   UNL     1     -24.508  -9.498  -5.128  1.00  0.00     0.000 C 
ENDROOT
BRANCH   1   2
ATOM      2  C   UNL     1     -24.819  -8.757  -6.444  1.00  0.00     0.000 C 
BRANCH   2   3
ATOM      3  C   UNL     1     -24.802  -7.219  -6.349  1.00  0.00     0.000 C 
BRANCH   3   4
ATOM      4  C   UNL     1     -26.062  -6.522  -6.895  1.00  0.00     0.000 C 
BRANCH   4   5
ATOM      5  C   UNL     1     -26.856  -5.745  -5.823  1.00  0.00     0.006 C 
BRANCH   5   6
ATOM      6  C   UNL     1     -26.279  -5.932  -4.413  1.00  0.00     0.053 C 
BRANCH   6   7
ATOM      7  C   UNL     1     -25.653  -4.661  -3.933  1.00  0.00     0.041 C 
ATOM      8  O   UNL     1     -25.705  -4.350  -2.713  1.00  0.00    -0.550 OA
ATOM      9  O   UNL     1     -24.968  -3.843  -4.822  1.00  0.00    -0.550 OA
ENDBRANCH   6   7
ENDBRANCH   5   6
ENDBRANCH   4   5
ENDBRANCH   3   4
ENDBRANCH   2   3
ENDBRANCH   1   2
BRANCH   1  10
ATOM     10  C   UNL     1     -23.689  -8.696  -4.101  1.00  0.00     0.000 C 
BRANCH  10  11
ATOM     11  C   UNL     1     -22.335  -9.349  -3.774  1.00  0.00    -0.000 C 
BRANCH  11  12
ATOM     12  C   UNL     1     -22.276 -10.826  -4.200  1.00  0.00    -0.000 C 
BRANCH  12  13
ATOM     13  C   UNL     1     -21.094 -11.120  -5.141  1.00  0.00    -0.000 C 
BRANCH  13  14
ATOM     14  C   UNL     1     -21.532 -11.277  -6.607  1.00  0.00    -0.000 C 
BRANCH  14  15
ATOM     15  C   UNL     1     -20.982 -10.165  -7.512  1.00  0.00    -0.003 C 
ATOM     16  C   UNL     1     -22.081  -9.588  -8.401  1.00  0.00     0.004 C 
ENDBRANCH  14  15
ENDBRANCH  13  14
ENDBRANCH  12  13
ENDBRANCH  11  12
ENDBRANCH  10  11
ENDBRANCH   1  10
TORSDOF 12
ENDMDL
MODEL 7
REMARK VINA RESULT:    -3.756      2.062      5.627
REMARK INTER + INTRA:          -8.100
REMARK INTER:                  -6.523
REMARK INTRA:                  -1.577
REMARK UNBOUND:                -1.710
REMARK SMILES CCCCCCCCCCCCCC(=O)[O-]
REMARK SMILES IDX 8 1 9 2 10 3 11 4 12 5 13 6 14 7 15 8 16 9 7 10 6 11 5 12
REMARK SMILES IDX 4 13 3 14 2 15 1 16
REMARK H PARENT
REMARK Flexibility Score: inf
ROOT
ATOM      1  C   UNL     1     -24.439  -9.070  -6.239  1.00  0.00     0.000 C 
ENDROOT
BRANCH   1   2
ATOM      2  C   UNL     1     -23.381  -8.077  -6.765  1.00  0.00     0.000 C 
BRANCH   2   3
ATOM      3  C   UNL     1     -22.552  -8.578  -7.963  1.00  0.00     0.000 C 
BRANCH   3   4
ATOM      4  C   UNL     1     -22.292 -10.096  -7.980  1.00  0.00     0.000 C 
BRANCH   4   5
ATOM      5  C   UNL     1     -20.926 -10.500  -7.387  1.00  0.00     0.006 C 
BRANCH   5   6
ATOM      6  C   UNL     1     -21.049 -11.088  -5.974  1.00  0.00     0.053 C 
BRANCH   6   7
ATOM      7  C   UNL     1     -20.638 -10.078  -4.950  1.00  0.00     0.041 C 
ATOM      8  O   UNL     1     -20.893 -10.271  -3.732  1.00  0.00    -0.550 OA
ATOM      9  O   UNL     1     -19.931  -8.947  -5.334  1.00  0.00    -0.550 OA
ENDBRANCH   6   7
ENDBRANCH   5   6
ENDBRANCH   4   5
ENDBRANCH   3   4
ENDBRANCH   2   3
ENDBRANCH   1   2
BRANCH   1  10
ATOM     10  C   UNL     1     -24.248  -9.519  -4.779  1.00  0.00     0.000 C 
BRANCH  10  11
ATOM     11  C   UNL     1     -23.938  -8.350  -3.829  1.00  0.00    -0.000 C 
BRANCH  11  12
ATOM     12  C   UNL     1     -25.208  -7.610  -3.373  1.00  0.00    -0.000 C 
BRANCH  12  13
ATOM     13  C   UNL     1     -25.319  -6.201  -3.981  1.00  0.00    -0.000 C 
BRANCH  13  14
ATOM     14  C   UNL     1     -26.772  -5.701  -4.050  1.00  0.00    -0.000 C 
BRANCH  14  15
ATOM     15  C   UNL     1     -27.165  -5.216  -5.453  1.00  0.00    -0.003 C 
ATOM     16  C   UNL     1     -26.512  -6.073  -6.534  1.00  0.00     0.004 C 
ENDBRANCH  14  15
ENDBRANCH  13  14
ENDBRANCH  12  13
ENDBRANCH  11  12
ENDBRANCH  10  11
ENDBRANCH   1  10
TORSDOF 12
ENDMDL
MODEL 8
REMARK VINA RESULT:    -3.732      2.307      5.700
REMARK INTER + INTRA:          -8.060
REMARK INTER:                  -6.390
REMARK INTRA:                  -1.670
REMARK UNBOUND:                -1.710
REMARK SMILES CCCCCCCCCCCCCC(=O)[O-]
REMARK SMILES IDX 8 1 9 2 10 3 11 4 12 5 13 6 14 7 15 8 16 9 7 10 6 11 5 12
REMARK SMILES IDX 4 13 3 14 2 15 1 16
REMARK H PARENT
REMARK Flexibility Score: inf
ROOT
ATOM      1  C   UNL     1     -24.533  -7.642  -3.717  1.00  0.00     0.000 C 
ENDROOT
BRANCH   1   2
ATOM      2  C   UNL     1     -24.029  -9.050  -4.098  1.00  0.00     0.000 C 
BRANCH   2   3
ATOM      3  C   UNL     1     -24.217  -9.434  -5.578  1.00  0.00     0.000 C 
BRANCH   3   4
ATOM      4  C   UNL     1     -22.946  -9.329  -6.441  1.00  0.00     0.000 C 
BRANCH   4   5
ATOM      5  C   UNL     1     -22.429 -10.690  -6.954  1.00  0.00     0.006 C 
BRANCH   5   6
ATOM      6  C   UNL     1     -21.647 -11.464  -5.884  1.00  0.00     0.053 C 
BRANCH   6   7
ATOM      7  C   UNL     1     -20.494 -10.650  -5.389  1.00  0.00     0.041 C 
ATOM      8  O   UNL     1     -19.556 -10.339  -6.170  1.00  0.00    -0.550 OA
ATOM      9  O   UNL     1     -20.478 -10.192  -4.078  1.00  0.00    -0.550 OA
ENDBRANCH   6   7
ENDBRANCH   5   6
ENDBRANCH   4   5
ENDBRANCH   3   4
ENDBRANCH   2   3
ENDBRANCH   1   2
BRANCH   1  10
ATOM     10  C   UNL     1     -25.994  -7.343  -4.099  1.00  0.00     0.000 C 
BRANCH  10  11
ATOM     11  C   UNL     1     -26.282  -5.838  -4.227  1.00  0.00    -0.000 C 
BRANCH  11  12
ATOM     12  C   UNL     1     -26.928  -5.474  -5.575  1.00  0.00    -0.000 C 
BRANCH  12  13
ATOM     13  C   UNL     1     -26.386  -6.327  -6.736  1.00  0.00    -0.000 C 
BRANCH  13  14
ATOM     14  C   UNL     1     -25.474  -5.527  -7.680  1.00  0.00    -0.000 C 
BRANCH  14  15
ATOM     15  C   UNL     1     -24.033  -6.058  -7.703  1.00  0.00    -0.003 C 
ATOM     16  C   UNL     1     -23.249  -5.572  -6.487  1.00  0.00     0.004 C 
ENDBRANCH  14  15
ENDBRANCH  13  14
ENDBRANCH  12  13
ENDBRANCH  11  12
ENDBRANCH  10  11
ENDBRANCH   1  10
TORSDOF 12
ENDMDL
MODEL 9
REMARK VINA RESULT:    -3.719      2.954      6.214
REMARK INTER + INTRA:          -8.037
REMARK INTER:                  -6.703
REMARK INTRA:                  -1.335
REMARK UNBOUND:                -1.710
REMARK SMILES CCCCCCCCCCCCCC(=O)[O-]
REMARK SMILES IDX 8 1 9 2 10 3 11 4 12 5 13 6 14 7 15 8 16 9 7 10 6 11 5 12
REMARK SMILES IDX 4 13 3 14 2 15 1 16
REMARK H PARENT
REMARK Flexibility Score: inf
ROOT
ATOM      1  C   UNL     1     -22.337  -9.539  -8.103  1.00  0.00     0.000 C 
ENDROOT
BRANCH   1   2
ATOM      2  C   UNL     1     -21.157 -10.292  -7.454  1.00  0.00     0.000 C 
BRANCH   2   3
ATOM      3  C   UNL     1     -21.555 -11.413  -6.475  1.00  0.00     0.000 C 
BRANCH   3   4
ATOM      4  C   UNL     1     -21.361 -11.070  -4.986  1.00  0.00     0.000 C 
BRANCH   4   5
ATOM      5  C   UNL     1     -20.556  -9.776  -4.746  1.00  0.00     0.006 C 
BRANCH   5   6
ATOM      6  C   UNL     1     -19.243 -10.031  -3.993  1.00  0.00     0.053 C 
BRANCH   6   7
ATOM      7  C   UNL     1     -18.078  -9.930  -4.926  1.00  0.00     0.041 C 
ATOM      8  O   UNL     1     -17.621  -8.801  -5.249  1.00  0.00    -0.550 OA
ATOM      9  O   UNL     1     -17.464 -11.081  -5.399  1.00  0.00    -0.550 OA
ENDBRANCH   6   7
ENDBRANCH   5   6
ENDBRANCH   4   5
ENDBRANCH   3   4
ENDBRANCH   2   3
ENDBRANCH   1   2
BRANCH   1  10
ATOM     10  C   UNL     1     -23.068  -8.547  -7.180  1.00  0.00     0.000 C 
BRANCH  10  11
ATOM     11  C   UNL     1     -24.427  -9.076  -6.690  1.00  0.00    -0.000 C 
BRANCH  11  12
ATOM     12  C   UNL     1     -24.510  -9.154  -5.157  1.00  0.00    -0.000 C 
BRANCH  12  13
ATOM     13  C   UNL     1     -24.538  -7.765  -4.496  1.00  0.00    -0.000 C 
BRANCH  13  14
ATOM     14  C   UNL     1     -25.962  -7.312  -4.133  1.00  0.00    -0.000 C 
BRANCH  14  15
ATOM     15  C   UNL     1     -26.268  -5.882  -4.600  1.00  0.00    -0.003 C 
ATOM     16  C   UNL     1     -26.769  -5.870  -6.042  1.00  0.00     0.004 C 
ENDBRANCH  14  15
ENDBRANCH  13  14
ENDBRANCH  12  13
ENDBRANCH  11  12
ENDBRANCH  10  11
ENDBRANCH   1  10
TORSDOF 12
ENDMDL
