MODEL 1
REMARK VINA RESULT:    -4.448      0.000      0.000
REMARK INTER + INTRA:         -15.961
REMARK INTER:                 -11.729
REMARK INTRA:                  -4.232
REMARK UNBOUND:                -4.232
REMARK SMILES CCCCCCCCCCCCCCCCCCCCCCCCCCCCCC(=O)[O-]
REMARK SMILES IDX 16 1 17 2 18 3 19 4 20 5 21 6 22 7 23 8 24 9 25 10 26 11
REMARK SMILES IDX 27 12 28 13 29 14 30 15 31 16 32 17 15 18 14 19 13 20 12 21
REMARK SMILES IDX 11 22 10 23 9 24 8 25 7 26 6 27 5 28 4 29 3 30 2 31 1 32
REMARK H PARENT
REMARK Flexibility Score: inf
ROOT
ATOM      1  C   UNL     1     173.560 174.302 181.161  1.00  0.00     0.000 C 
ENDROOT
BRANCH   1   2
ATOM      2  C   UNL     1     172.540 175.189 181.898  1.00  0.00     0.000 C 
BRANCH   2   3
ATOM      3  C   UNL     1     172.696 176.680 181.563  1.00  0.00     0.000 C 
BRANCH   3   4
ATOM      4  C   UNL     1     171.789 177.547 182.452  1.00  0.00     0.000 C 
BRANCH   4   5
ATOM      5  C   UNL     1     170.653 176.730 183.106  1.00  0.00     0.000 C 
BRANCH   5   6
ATOM      6  C   UNL     1     169.248 177.312 182.875  1.00  0.00     0.000 C 
BRANCH   6   7
ATOM      7  C   UNL     1     168.386 176.445 181.944  1.00  0.00     0.000 C 
BRANCH   7   8
ATOM      8  C   UNL     1     167.401 177.269 181.096  1.00  0.00     0.000 C 
BRANCH   8   9
ATOM      9  C   UNL     1     166.127 177.722 181.835  1.00  0.00     0.000 C 
BRANCH   9  10
ATOM     10  C   UNL     1     164.902 176.853 181.509  1.00  0.00     0.000 C 
BRANCH  10  11
ATOM     11  C   UNL     1     163.724 177.176 182.443  1.00  0.00     0.000 C 
BRANCH  11  12
ATOM     12  C   UNL     1     162.712 176.012 182.528  1.00  0.00     0.000 C 
BRANCH  12  13
ATOM     13  C   UNL     1     161.242 176.461 182.487  1.00  0.00     0.006 C 
BRANCH  13  14
ATOM     14  C   UNL     1     160.259 175.332 182.817  1.00  0.00     0.053 C 
BRANCH  14  15
ATOM     15  C   UNL     1     160.030 174.461 181.620  1.00  0.00     0.041 C 
ATOM     16  O   UNL     1     159.933 174.971 180.473  1.00  0.00    -0.550 OA
ATOM     17  O   UNL     1     159.903 173.086 181.775  1.00  0.00    -0.550 OA
ENDBRANCH  14  15
ENDBRANCH  13  14
ENDBRANCH  12  13
ENDBRANCH  11  12
ENDBRANCH  10  11
ENDBRANCH   9  10
ENDBRANCH   8   9
ENDBRANCH   7   8
ENDBRANCH   6   7
ENDBRANCH   5   6
ENDBRANCH   4   5
ENDBRANCH   3   4
ENDBRANCH   2   3
ENDBRANCH   1   2
BRANCH   1  18
ATOM     18  C   UNL     1     174.644 173.673 182.060  1.00  0.00     0.000 C 
BRANCH  18  19
ATOM     19  C   UNL     1     176.092 173.853 181.564  1.00  0.00     0.000 C 
BRANCH  19  20
ATOM     20  C   UNL     1     176.979 174.747 182.447  1.00  0.00     0.000 C 
BRANCH  20  21
ATOM     21  C   UNL     1     176.168 175.761 183.272  1.00  0.00     0.000 C 
BRANCH  21  22
ATOM     22  C   UNL     1     176.017 177.126 182.574  1.00  0.00     0.000 C 
BRANCH  22  23
ATOM     23  C   UNL     1     177.313 177.723 181.992  1.00  0.00     0.000 C 
BRANCH  23  24
ATOM     24  C   UNL     1     177.267 177.895 180.465  1.00  0.00    -0.000 C 
BRANCH  24  25
ATOM     25  C   UNL     1     175.893 177.552 179.863  1.00  0.00    -0.000 C 
BRANCH  25  26
ATOM     26  C   UNL     1     175.872 176.321 178.940  1.00  0.00    -0.000 C 
BRANCH  26  27
ATOM     27  C   UNL     1     174.886 176.465 177.768  1.00  0.00    -0.000 C 
BRANCH  27  28
ATOM     28  C   UNL     1     173.729 177.426 178.081  1.00  0.00    -0.000 C 
BRANCH  28  29
ATOM     29  C   UNL     1     172.376 176.914 177.557  1.00  0.00    -0.000 C 
BRANCH  29  30
ATOM     30  C   UNL     1     171.184 177.609 178.250  1.00  0.00    -0.000 C 
BRANCH  30  31
ATOM     31  C   UNL     1     170.047 176.647 178.634  1.00  0.00    -0.003 C 
ATOM     32  C   UNL     1     170.528 175.216 178.865  1.00  0.00     0.004 C 
ENDBRANCH  30  31
ENDBRANCH  29  30
ENDBRANCH  28  29
ENDBRANCH  27  28
ENDBRANCH  26  27
ENDBRANCH  25  26
ENDBRANCH  24  25
ENDBRANCH  23  24
ENDBRANCH  22  23
ENDBRANCH  21  22
ENDBRANCH  20  21
ENDBRANCH  19  20
ENDBRANCH  18  19
ENDBRANCH   1  18
TORSDOF 28
ENDMDL
MODEL 2
REMARK VINA RESULT:    -4.401      5.446      7.782
REMARK INTER + INTRA:         -15.837
REMARK INTER:                  -9.860
REMARK INTRA:                  -5.977
REMARK UNBOUND:                -4.232
REMARK SMILES CCCCCCCCCCCCCCCCCCCCCCCCCCCCCC(=O)[O-]
REMARK SMILES IDX 16 1 17 2 18 3 19 4 20 5 21 6 22 7 23 8 24 9 25 10 26 11
REMARK SMILES IDX 27 12 28 13 29 14 30 15 31 16 32 17 15 18 14 19 13 20 12 21
REMARK SMILES IDX 11 22 10 23 9 24 8 25 7 26 6 27 5 28 4 29 3 30 2 31 1 32
REMARK H PARENT
REMARK Flexibility Score: inf
ROOT
ATOM      1  C   UNL     1     174.311 175.691 182.581  1.00  0.00     0.000 C 
ENDROOT
BRANCH   1   2
ATOM      2  C   UNL     1     173.546 177.025 182.509  1.00  0.00     0.000 C 
BRANCH   2   3
ATOM      3  C   UNL     1     172.721 177.170 181.221  1.00  0.00     0.000 C 
BRANCH   3   4
ATOM      4  C   UNL     1     171.246 177.469 181.535  1.00  0.00     0.000 C 
BRANCH   4   5
ATOM      5  C   UNL     1     170.832 176.971 182.937  1.00  0.00     0.000 C 
BRANCH   5   6
ATOM      6  C   UNL     1     169.801 175.829 182.917  1.00  0.00     0.000 C 
BRANCH   6   7
ATOM      7  C   UNL     1     170.331 174.533 183.551  1.00  0.00     0.000 C 
BRANCH   7   8
ATOM      8  C   UNL     1     171.368 173.813 182.670  1.00  0.00     0.000 C 
BRANCH   8   9
ATOM      9  C   UNL     1     170.960 173.641 181.193  1.00  0.00     0.000 C 
BRANCH   9  10
ATOM     10  C   UNL     1     172.135 173.824 180.220  1.00  0.00     0.000 C 
BRANCH  10  11
ATOM     11  C   UNL     1     172.940 172.524 180.065  1.00  0.00     0.000 C 
BRANCH  11  12
ATOM     12  C   UNL     1     174.463 172.775 180.091  1.00  0.00     0.000 C 
BRANCH  12  13
ATOM     13  C   UNL     1     175.110 172.532 181.465  1.00  0.00     0.006 C 
BRANCH  13  14
ATOM     14  C   UNL     1     175.204 171.046 181.830  1.00  0.00     0.053 C 
BRANCH  14  15
ATOM     15  C   UNL     1     176.627 170.580 181.794  1.00  0.00     0.041 C 
ATOM     16  O   UNL     1     177.069 169.820 182.696  1.00  0.00    -0.550 OA
ATOM     17  O   UNL     1     177.472 171.001 180.775  1.00  0.00    -0.550 OA
ENDBRANCH  14  15
ENDBRANCH  13  14
ENDBRANCH  12  13
ENDBRANCH  11  12
ENDBRANCH  10  11
ENDBRANCH   9  10
ENDBRANCH   8   9
ENDBRANCH   7   8
ENDBRANCH   6   7
ENDBRANCH   5   6
ENDBRANCH   4   5
ENDBRANCH   3   4
ENDBRANCH   2   3
ENDBRANCH   1   2
BRANCH   1  18
ATOM     18  C   UNL     1     175.639 175.747 183.365  1.00  0.00     0.000 C 
BRANCH  18  19
ATOM     19  C   UNL     1     176.633 176.825 182.892  1.00  0.00     0.000 C 
BRANCH  19  20
ATOM     20  C   UNL     1     177.183 176.629 181.468  1.00  0.00     0.000 C 
BRANCH  20  21
ATOM     21  C   UNL     1     176.928 177.844 180.560  1.00  0.00     0.000 C 
BRANCH  21  22
ATOM     22  C   UNL     1     175.873 177.575 179.470  1.00  0.00     0.000 C 
BRANCH  22  23
ATOM     23  C   UNL     1     175.629 176.091 179.132  1.00  0.00     0.000 C 
BRANCH  23  24
ATOM     24  C   UNL     1     175.333 175.851 177.643  1.00  0.00    -0.000 C 
BRANCH  24  25
ATOM     25  C   UNL     1     173.848 175.559 177.364  1.00  0.00    -0.000 C 
BRANCH  25  26
ATOM     26  C   UNL     1     173.139 176.580 176.458  1.00  0.00    -0.000 C 
BRANCH  26  27
ATOM     27  C   UNL     1     172.868 177.922 177.160  1.00  0.00    -0.000 C 
BRANCH  27  28
ATOM     28  C   UNL     1     171.479 177.979 177.813  1.00  0.00    -0.000 C 
BRANCH  28  29
ATOM     29  C   UNL     1     170.515 176.920 177.251  1.00  0.00    -0.000 C 
BRANCH  29  30
ATOM     30  C   UNL     1     169.998 175.964 178.347  1.00  0.00    -0.000 C 
BRANCH  30  31
ATOM     31  C   UNL     1     168.470 175.792 178.346  1.00  0.00    -0.003 C 
ATOM     32  C   UNL     1     167.923 175.312 179.689  1.00  0.00     0.004 C 
ENDBRANCH  30  31
ENDBRANCH  29  30
ENDBRANCH  28  29
ENDBRANCH  27  28
ENDBRANCH  26  27
ENDBRANCH  25  26
ENDBRANCH  24  25
ENDBRANCH  23  24
ENDBRANCH  22  23
ENDBRANCH  21  22
ENDBRANCH  20  21
ENDBRANCH  19  20
ENDBRANCH  18  19
ENDBRANCH   1  18
TORSDOF 28
ENDMDL
MODEL 3
REMARK VINA RESULT:    -4.389      4.634      8.862
REMARK INTER + INTRA:         -15.806
REMARK INTER:                  -9.554
REMARK INTRA:                  -6.253
REMARK UNBOUND:                -4.232
REMARK SMILES CCCCCCCCCCCCCCCCCCCCCCCCCCCCCC(=O)[O-]
REMARK SMILES IDX 16 1 17 2 18 3 19 4 20 5 21 6 22 7 23 8 24 9 25 10 26 11
REMARK SMILES IDX 27 12 28 13 29 14 30 15 31 16 32 17 15 18 14 19 13 20 12 21
REMARK SMILES IDX 11 22 10 23 9 24 8 25 7 26 6 27 5 28 4 29 3 30 2 31 1 32
REMARK H PARENT
REMARK Flexibility Score: inf
ROOT
ATOM      1  C   UNL     1     173.392 175.235 179.766  1.00  0.00     0.000 C 
ENDROOT
BRANCH   1   2
ATOM      2  C   UNL     1     173.353 176.773 179.697  1.00  0.00     0.000 C 
BRANCH   2   3
ATOM      3  C   UNL     1     174.636 177.375 179.104  1.00  0.00     0.000 C 
BRANCH   3   4
ATOM      4  C   UNL     1     175.684 176.286 178.826  1.00  0.00     0.000 C 
BRANCH   4   5
ATOM      5  C   UNL     1     176.976 176.491 179.646  1.00  0.00     0.000 C 
BRANCH   5   6
ATOM      6  C   UNL     1     177.020 177.815 180.428  1.00  0.00     0.000 C 
BRANCH   6   7
ATOM      7  C   UNL     1     177.071 177.610 181.950  1.00  0.00     0.000 C 
BRANCH   7   8
ATOM      8  C   UNL     1     175.797 176.958 182.513  1.00  0.00     0.000 C 
BRANCH   8   9
ATOM      9  C   UNL     1     176.036 175.730 183.413  1.00  0.00     0.000 C 
BRANCH   9  10
ATOM     10  C   UNL     1     175.861 174.396 182.669  1.00  0.00     0.000 C 
BRANCH  10  11
ATOM     11  C   UNL     1     177.204 173.879 182.127  1.00  0.00     0.000 C 
BRANCH  11  12
ATOM     12  C   UNL     1     177.037 172.591 181.290  1.00  0.00     0.000 C 
BRANCH  12  13
ATOM     13  C   UNL     1     175.904 172.668 180.252  1.00  0.00     0.006 C 
BRANCH  13  14
ATOM     14  C   UNL     1     174.838 171.583 180.444  1.00  0.00     0.053 C 
BRANCH  14  15
ATOM     15  C   UNL     1     173.918 171.528 179.264  1.00  0.00     0.041 C 
ATOM     16  O   UNL     1     172.690 171.298 179.427  1.00  0.00    -0.550 OA
ATOM     17  O   UNL     1     174.420 171.709 177.981  1.00  0.00    -0.550 OA
ENDBRANCH  14  15
ENDBRANCH  13  14
ENDBRANCH  12  13
ENDBRANCH  11  12
ENDBRANCH  10  11
ENDBRANCH   9  10
ENDBRANCH   8   9
ENDBRANCH   7   8
ENDBRANCH   6   7
ENDBRANCH   5   6
ENDBRANCH   4   5
ENDBRANCH   3   4
ENDBRANCH   2   3
ENDBRANCH   1   2
BRANCH   1  18
ATOM     18  C   UNL     1     172.645 174.619 180.967  1.00  0.00     0.000 C 
BRANCH  18  19
ATOM     19  C   UNL     1     172.327 175.600 182.112  1.00  0.00     0.000 C 
BRANCH  19  20
ATOM     20  C   UNL     1     171.246 175.124 183.099  1.00  0.00     0.000 C 
BRANCH  20  21
ATOM     21  C   UNL     1     169.886 175.804 182.865  1.00  0.00     0.000 C 
BRANCH  21  22
ATOM     22  C   UNL     1     169.980 177.051 181.966  1.00  0.00     0.000 C 
BRANCH  22  23
ATOM     23  C   UNL     1     168.975 177.107 180.798  1.00  0.00     0.000 C 
BRANCH  23  24
ATOM     24  C   UNL     1     168.559 175.716 180.292  1.00  0.00    -0.000 C 
BRANCH  24  25
ATOM     25  C   UNL     1     169.491 175.172 179.194  1.00  0.00    -0.000 C 
BRANCH  25  26
ATOM     26  C   UNL     1     170.128 176.241 178.289  1.00  0.00    -0.000 C 
BRANCH  26  27
ATOM     27  C   UNL     1     169.482 176.311 176.894  1.00  0.00    -0.000 C 
BRANCH  27  28
ATOM     28  C   UNL     1     170.241 177.241 175.935  1.00  0.00    -0.000 C 
BRANCH  28  29
ATOM     29  C   UNL     1     171.393 177.991 176.624  1.00  0.00    -0.000 C 
BRANCH  29  30
ATOM     30  C   UNL     1     172.729 177.823 175.870  1.00  0.00    -0.000 C 
BRANCH  30  31
ATOM     31  C   UNL     1     173.189 176.360 175.747  1.00  0.00    -0.003 C 
ATOM     32  C   UNL     1     174.637 176.227 175.278  1.00  0.00     0.004 C 
ENDBRANCH  30  31
ENDBRANCH  29  30
ENDBRANCH  28  29
ENDBRANCH  27  28
ENDBRANCH  26  27
ENDBRANCH  25  26
ENDBRANCH  24  25
ENDBRANCH  23  24
ENDBRANCH  22  23
ENDBRANCH  21  22
ENDBRANCH  20  21
ENDBRANCH  19  20
ENDBRANCH  18  19
ENDBRANCH   1  18
TORSDOF 28
ENDMDL
MODEL 4
REMARK VINA RESULT:    -4.346      5.024      9.422
REMARK INTER + INTRA:         -15.693
REMARK INTER:                  -9.541
REMARK INTRA:                  -6.152
REMARK UNBOUND:                -4.232
REMARK SMILES CCCCCCCCCCCCCCCCCCCCCCCCCCCCCC(=O)[O-]
REMARK SMILES IDX 16 1 17 2 18 3 19 4 20 5 21 6 22 7 23 8 24 9 25 10 26 11
REMARK SMILES IDX 27 12 28 13 29 14 30 15 31 16 32 17 15 18 14 19 13 20 12 21
REMARK SMILES IDX 11 22 10 23 9 24 8 25 7 26 6 27 5 28 4 29 3 30 2 31 1 32
REMARK H PARENT
REMARK Flexibility Score: inf
ROOT
ATOM      1  C   UNL     1     173.209 175.516 178.236  1.00  0.00     0.000 C 
ENDROOT
BRANCH   1   2
ATOM      2  C   UNL     1     174.651 175.584 177.699  1.00  0.00     0.000 C 
BRANCH   2   3
ATOM      3  C   UNL     1     175.707 175.439 178.806  1.00  0.00     0.000 C 
BRANCH   3   4
ATOM      4  C   UNL     1     176.184 176.813 179.303  1.00  0.00     0.000 C 
BRANCH   4   5
ATOM      5  C   UNL     1     177.027 176.711 180.593  1.00  0.00     0.000 C 
BRANCH   5   6
ATOM      6  C   UNL     1     176.419 177.448 181.799  1.00  0.00     0.000 C 
BRANCH   6   7
ATOM      7  C   UNL     1     176.519 176.643 183.105  1.00  0.00     0.000 C 
BRANCH   7   8
ATOM      8  C   UNL     1     176.543 175.122 182.873  1.00  0.00     0.000 C 
BRANCH   8   9
ATOM      9  C   UNL     1     175.160 174.441 182.877  1.00  0.00     0.000 C 
BRANCH   9  10
ATOM     10  C   UNL     1     175.117 173.163 182.023  1.00  0.00     0.000 C 
BRANCH  10  11
ATOM     11  C   UNL     1     176.529 172.610 181.774  1.00  0.00     0.000 C 
BRANCH  11  12
ATOM     12  C   UNL     1     176.636 171.874 180.420  1.00  0.00     0.000 C 
BRANCH  12  13
ATOM     13  C   UNL     1     176.727 170.344 180.550  1.00  0.00     0.006 C 
BRANCH  13  14
ATOM     14  C   UNL     1     176.614 169.857 182.000  1.00  0.00     0.053 C 
BRANCH  14  15
ATOM     15  C   UNL     1     175.371 169.044 182.190  1.00  0.00     0.041 C 
ATOM     16  O   UNL     1     174.282 169.607 182.479  1.00  0.00    -0.550 OA
ATOM     17  O   UNL     1     175.418 167.660 182.070  1.00  0.00    -0.550 OA
ENDBRANCH  14  15
ENDBRANCH  13  14
ENDBRANCH  12  13
ENDBRANCH  11  12
ENDBRANCH  10  11
ENDBRANCH   9  10
ENDBRANCH   8   9
ENDBRANCH   7   8
ENDBRANCH   6   7
ENDBRANCH   5   6
ENDBRANCH   4   5
ENDBRANCH   3   4
ENDBRANCH   2   3
ENDBRANCH   1   2
BRANCH   1  18
ATOM     18  C   UNL     1     172.518 176.882 178.417  1.00  0.00     0.000 C 
BRANCH  18  19
ATOM     19  C   UNL     1     172.322 177.328 179.879  1.00  0.00     0.000 C 
BRANCH  19  20
ATOM     20  C   UNL     1     172.819 176.329 180.939  1.00  0.00     0.000 C 
BRANCH  20  21
ATOM     21  C   UNL     1     172.697 176.873 182.373  1.00  0.00     0.000 C 
BRANCH  21  22
ATOM     22  C   UNL     1     171.478 177.795 182.568  1.00  0.00     0.000 C 
BRANCH  22  23
ATOM     23  C   UNL     1     170.265 177.155 183.272  1.00  0.00     0.000 C 
BRANCH  23  24
ATOM     24  C   UNL     1     169.038 177.019 182.356  1.00  0.00    -0.000 C 
BRANCH  24  25
ATOM     25  C   UNL     1     169.006 175.687 181.587  1.00  0.00    -0.000 C 
BRANCH  25  26
ATOM     26  C   UNL     1     169.021 175.816 180.054  1.00  0.00    -0.000 C 
BRANCH  26  27
ATOM     27  C   UNL     1     169.677 174.613 179.355  1.00  0.00    -0.000 C 
BRANCH  27  28
ATOM     28  C   UNL     1     169.902 173.426 180.305  1.00  0.00    -0.000 C 
BRANCH  28  29
ATOM     29  C   UNL     1     171.389 173.058 180.450  1.00  0.00    -0.000 C 
BRANCH  29  30
ATOM     30  C   UNL     1     171.672 172.294 181.761  1.00  0.00    -0.000 C 
BRANCH  30  31
ATOM     31  C   UNL     1     170.827 172.776 182.953  1.00  0.00    -0.003 C 
ATOM     32  C   UNL     1     171.583 173.734 183.871  1.00  0.00     0.004 C 
ENDBRANCH  30  31
ENDBRANCH  29  30
ENDBRANCH  28  29
ENDBRANCH  27  28
ENDBRANCH  26  27
ENDBRANCH  25  26
ENDBRANCH  24  25
ENDBRANCH  23  24
ENDBRANCH  22  23
ENDBRANCH  21  22
ENDBRANCH  20  21
ENDBRANCH  19  20
ENDBRANCH  18  19
ENDBRANCH   1  18
TORSDOF 28
ENDMDL
MODEL 5
REMARK VINA RESULT:    -4.344      4.823      7.331
REMARK INTER + INTRA:         -15.687
REMARK INTER:                  -8.929
REMARK INTRA:                  -6.758
REMARK UNBOUND:                -4.232
REMARK SMILES CCCCCCCCCCCCCCCCCCCCCCCCCCCCCC(=O)[O-]
REMARK SMILES IDX 16 1 17 2 18 3 19 4 20 5 21 6 22 7 23 8 24 9 25 10 26 11
REMARK SMILES IDX 27 12 28 13 29 14 30 15 31 16 32 17 15 18 14 19 13 20 12 21
REMARK SMILES IDX 11 22 10 23 9 24 8 25 7 26 6 27 5 28 4 29 3 30 2 31 1 32
REMARK H PARENT
REMARK Flexibility Score: inf
ROOT
ATOM      1  C   UNL     1     171.262 173.441 182.669  1.00  0.00     0.000 C 
ENDROOT
BRANCH   1   2
ATOM      2  C   UNL     1     170.004 174.275 182.979  1.00  0.00     0.000 C 
BRANCH   2   3
ATOM      3  C   UNL     1     170.262 175.382 184.013  1.00  0.00     0.000 C 
BRANCH   3   4
ATOM      4  C   UNL     1     169.880 176.763 183.456  1.00  0.00     0.000 C 
BRANCH   4   5
ATOM      5  C   UNL     1     169.989 176.827 181.917  1.00  0.00     0.000 C 
BRANCH   5   6
ATOM      6  C   UNL     1     168.644 177.038 181.202  1.00  0.00     0.000 C 
BRANCH   6   7
ATOM      7  C   UNL     1     168.608 176.413 179.798  1.00  0.00     0.000 C 
BRANCH   7   8
ATOM      8  C   UNL     1     169.938 175.749 179.401  1.00  0.00     0.000 C 
BRANCH   8   9
ATOM      9  C   UNL     1     170.425 176.068 177.974  1.00  0.00     0.000 C 
BRANCH   9  10
ATOM     10  C   UNL     1     171.313 177.321 177.909  1.00  0.00     0.000 C 
BRANCH  10  11
ATOM     11  C   UNL     1     172.326 177.349 179.065  1.00  0.00     0.000 C 
BRANCH  11  12
ATOM     12  C   UNL     1     173.779 177.500 178.563  1.00  0.00     0.000 C 
BRANCH  12  13
ATOM     13  C   UNL     1     174.567 176.179 178.535  1.00  0.00     0.006 C 
BRANCH  13  14
ATOM     14  C   UNL     1     175.182 175.875 177.164  1.00  0.00     0.053 C 
BRANCH  14  15
ATOM     15  C   UNL     1     174.119 175.792 176.113  1.00  0.00     0.041 C 
ATOM     16  O   UNL     1     173.281 174.852 176.129  1.00  0.00    -0.550 OA
ATOM     17  O   UNL     1     174.066 176.743 175.100  1.00  0.00    -0.550 OA
ENDBRANCH  14  15
ENDBRANCH  13  14
ENDBRANCH  12  13
ENDBRANCH  11  12
ENDBRANCH  10  11
ENDBRANCH   9  10
ENDBRANCH   8   9
ENDBRANCH   7   8
ENDBRANCH   6   7
ENDBRANCH   5   6
ENDBRANCH   4   5
ENDBRANCH   3   4
ENDBRANCH   2   3
ENDBRANCH   1   2
BRANCH   1  18
ATOM     18  C   UNL     1     172.447 173.675 183.627  1.00  0.00     0.000 C 
BRANCH  18  19
ATOM     19  C   UNL     1     173.710 174.270 182.974  1.00  0.00     0.000 C 
BRANCH  19  20
ATOM     20  C   UNL     1     173.453 175.423 181.988  1.00  0.00     0.000 C 
BRANCH  20  21
ATOM     21  C   UNL     1     174.048 176.758 182.467  1.00  0.00     0.000 C 
BRANCH  21  22
ATOM     22  C   UNL     1     175.513 176.638 182.926  1.00  0.00     0.000 C 
BRANCH  22  23
ATOM     23  C   UNL     1     176.576 176.932 181.849  1.00  0.00     0.000 C 
BRANCH  23  24
ATOM     24  C   UNL     1     177.049 175.671 181.108  1.00  0.00    -0.000 C 
BRANCH  24  25
ATOM     25  C   UNL     1     177.255 174.466 182.042  1.00  0.00    -0.000 C 
BRANCH  25  26
ATOM     26  C   UNL     1     176.959 173.093 181.414  1.00  0.00    -0.000 C 
BRANCH  26  27
ATOM     27  C   UNL     1     176.115 173.188 180.131  1.00  0.00    -0.000 C 
BRANCH  27  28
ATOM     28  C   UNL     1     174.862 172.300 180.179  1.00  0.00    -0.000 C 
BRANCH  28  29
ATOM     29  C   UNL     1     173.987 172.442 178.921  1.00  0.00    -0.000 C 
BRANCH  29  30
ATOM     30  C   UNL     1     172.684 173.220 179.205  1.00  0.00    -0.000 C 
BRANCH  30  31
ATOM     31  C   UNL     1     171.413 172.364 179.072  1.00  0.00    -0.003 C 
ATOM     32  C   UNL     1     171.528 171.011 179.771  1.00  0.00     0.004 C 
ENDBRANCH  30  31
ENDBRANCH  29  30
ENDBRANCH  28  29
ENDBRANCH  27  28
ENDBRANCH  26  27
ENDBRANCH  25  26
ENDBRANCH  24  25
ENDBRANCH  23  24
ENDBRANCH  22  23
ENDBRANCH  21  22
ENDBRANCH  20  21
ENDBRANCH  19  20
ENDBRANCH  18  19
ENDBRANCH   1  18
TORSDOF 28
ENDMDL
MODEL 6
REMARK VINA RESULT:    -4.325      5.043      7.262
REMARK INTER + INTRA:         -15.637
REMARK INTER:                  -9.126
REMARK INTRA:                  -6.511
REMARK UNBOUND:                -4.232
REMARK SMILES CCCCCCCCCCCCCCCCCCCCCCCCCCCCCC(=O)[O-]
REMARK SMILES IDX 16 1 17 2 18 3 19 4 20 5 21 6 22 7 23 8 24 9 25 10 26 11
REMARK SMILES IDX 27 12 28 13 29 14 30 15 31 16 32 17 15 18 14 19 13 20 12 21
REMARK SMILES IDX 11 22 10 23 9 24 8 25 7 26 6 27 5 28 4 29 3 30 2 31 1 32
REMARK H PARENT
REMARK Flexibility Score: inf
ROOT
ATOM      1  C   UNL     1     172.411 177.056 180.669  1.00  0.00     0.000 C 
ENDROOT
BRANCH   1   2
ATOM      2  C   UNL     1     172.481 177.390 182.171  1.00  0.00     0.000 C 
BRANCH   2   3
ATOM      3  C   UNL     1     171.112 177.308 182.864  1.00  0.00     0.000 C 
BRANCH   3   4
ATOM      4  C   UNL     1     170.442 175.948 182.613  1.00  0.00     0.000 C 
BRANCH   4   5
ATOM      5  C   UNL     1     170.217 175.154 183.918  1.00  0.00     0.000 C 
BRANCH   5   6
ATOM      6  C   UNL     1     170.977 173.818 183.978  1.00  0.00     0.000 C 
BRANCH   6   7
ATOM      7  C   UNL     1     172.166 173.761 183.004  1.00  0.00     0.000 C 
BRANCH   7   8
ATOM      8  C   UNL     1     172.052 172.614 181.984  1.00  0.00     0.000 C 
BRANCH   8   9
ATOM      9  C   UNL     1     171.129 172.901 180.783  1.00  0.00     0.000 C 
BRANCH   9  10
ATOM     10  C   UNL     1     171.737 172.464 179.441  1.00  0.00     0.000 C 
BRANCH  10  11
ATOM     11  C   UNL     1     171.370 173.446 178.316  1.00  0.00     0.000 C 
BRANCH  11  12
ATOM     12  C   UNL     1     172.548 173.688 177.346  1.00  0.00     0.000 C 
BRANCH  12  13
ATOM     13  C   UNL     1     172.297 174.818 176.334  1.00  0.00     0.006 C 
BRANCH  13  14
ATOM     14  C   UNL     1     171.426 175.947 176.897  1.00  0.00     0.053 C 
BRANCH  14  15
ATOM     15  C   UNL     1     171.297 177.062 175.906  1.00  0.00     0.041 C 
ATOM     16  O   UNL     1     170.187 177.629 175.729  1.00  0.00    -0.550 OA
ATOM     17  O   UNL     1     172.400 177.463 175.162  1.00  0.00    -0.550 OA
ENDBRANCH  14  15
ENDBRANCH  13  14
ENDBRANCH  12  13
ENDBRANCH  11  12
ENDBRANCH  10  11
ENDBRANCH   9  10
ENDBRANCH   8   9
ENDBRANCH   7   8
ENDBRANCH   6   7
ENDBRANCH   5   6
ENDBRANCH   4   5
ENDBRANCH   3   4
ENDBRANCH   2   3
ENDBRANCH   1   2
BRANCH   1  18
ATOM     18  C   UNL     1     173.308 175.884 180.222  1.00  0.00     0.000 C 
BRANCH  18  19
ATOM     19  C   UNL     1     174.402 176.251 179.200  1.00  0.00     0.000 C 
BRANCH  19  20
ATOM     20  C   UNL     1     175.235 177.496 179.554  1.00  0.00     0.000 C 
BRANCH  20  21
ATOM     21  C   UNL     1     176.741 177.197 179.648  1.00  0.00     0.000 C 
BRANCH  21  22
ATOM     22  C   UNL     1     177.393 177.770 180.920  1.00  0.00     0.000 C 
BRANCH  22  23
ATOM     23  C   UNL     1     176.510 177.762 182.183  1.00  0.00     0.000 C 
BRANCH  23  24
ATOM     24  C   UNL     1     176.710 176.511 183.053  1.00  0.00    -0.000 C 
BRANCH  24  25
ATOM     25  C   UNL     1     175.492 175.570 183.042  1.00  0.00    -0.000 C 
BRANCH  25  26
ATOM     26  C   UNL     1     175.774 174.142 182.543  1.00  0.00    -0.000 C 
BRANCH  26  27
ATOM     27  C   UNL     1     176.981 174.064 181.593  1.00  0.00    -0.000 C 
BRANCH  27  28
ATOM     28  C   UNL     1     176.617 173.491 180.215  1.00  0.00    -0.000 C 
BRANCH  28  29
ATOM     29  C   UNL     1     175.242 172.799 180.206  1.00  0.00    -0.000 C 
BRANCH  29  30
ATOM     30  C   UNL     1     175.366 171.263 180.115  1.00  0.00    -0.000 C 
BRANCH  30  31
ATOM     31  C   UNL     1     175.285 170.555 181.478  1.00  0.00    -0.003 C 
ATOM     32  C   UNL     1     176.658 170.254 182.076  1.00  0.00     0.004 C 
ENDBRANCH  30  31
ENDBRANCH  29  30
ENDBRANCH  28  29
ENDBRANCH  27  28
ENDBRANCH  26  27
ENDBRANCH  25  26
ENDBRANCH  24  25
ENDBRANCH  23  24
ENDBRANCH  22  23
ENDBRANCH  21  22
ENDBRANCH  20  21
ENDBRANCH  19  20
ENDBRANCH  18  19
ENDBRANCH   1  18
TORSDOF 28
ENDMDL
MODEL 7
REMARK VINA RESULT:    -4.318      1.468      3.159
REMARK INTER + INTRA:         -15.618
REMARK INTER:                 -10.998
REMARK INTRA:                  -4.620
REMARK UNBOUND:                -4.232
REMARK SMILES CCCCCCCCCCCCCCCCCCCCCCCCCCCCCC(=O)[O-]
REMARK SMILES IDX 16 1 17 2 18 3 19 4 20 5 21 6 22 7 23 8 24 9 25 10 26 11
REMARK SMILES IDX 27 12 28 13 29 14 30 15 31 16 32 17 15 18 14 19 13 20 12 21
REMARK SMILES IDX 11 22 10 23 9 24 8 25 7 26 6 27 5 28 4 29 3 30 2 31 1 32
REMARK H PARENT
REMARK Flexibility Score: inf
ROOT
ATOM      1  C   UNL     1     174.874 175.415 182.683  1.00  0.00     0.000 C 
ENDROOT
BRANCH   1   2
ATOM      2  C   UNL     1     173.413 175.849 182.462  1.00  0.00     0.000 C 
BRANCH   2   3
ATOM      3  C   UNL     1     173.246 177.375 182.405  1.00  0.00     0.000 C 
BRANCH   3   4
ATOM      4  C   UNL     1     171.765 177.776 182.496  1.00  0.00     0.000 C 
BRANCH   4   5
ATOM      5  C   UNL     1     170.842 176.563 182.744  1.00  0.00     0.000 C 
BRANCH   5   6
ATOM      6  C   UNL     1     169.344 176.911 182.779  1.00  0.00     0.000 C 
BRANCH   6   7
ATOM      7  C   UNL     1     168.591 176.444 181.523  1.00  0.00     0.000 C 
BRANCH   7   8
ATOM      8  C   UNL     1     167.581 177.484 181.006  1.00  0.00     0.000 C 
BRANCH   8   9
ATOM      9  C   UNL     1     166.100 177.105 181.203  1.00  0.00     0.000 C 
BRANCH   9  10
ATOM     10  C   UNL     1     165.365 178.041 182.177  1.00  0.00     0.000 C 
BRANCH  10  11
ATOM     11  C   UNL     1     164.212 177.314 182.888  1.00  0.00     0.000 C 
BRANCH  11  12
ATOM     12  C   UNL     1     162.899 178.125 182.847  1.00  0.00     0.000 C 
BRANCH  12  13
ATOM     13  C   UNL     1     161.643 177.263 182.633  1.00  0.00     0.006 C 
BRANCH  13  14
ATOM     14  C   UNL     1     161.909 176.013 181.785  1.00  0.00     0.053 C 
BRANCH  14  15
ATOM     15  C   UNL     1     161.911 176.352 180.327  1.00  0.00     0.041 C 
ATOM     16  O   UNL     1     160.859 176.762 179.769  1.00  0.00    -0.550 OA
ATOM     17  O   UNL     1     163.070 176.195 179.577  1.00  0.00    -0.550 OA
ENDBRANCH  14  15
ENDBRANCH  13  14
ENDBRANCH  12  13
ENDBRANCH  11  12
ENDBRANCH  10  11
ENDBRANCH   9  10
ENDBRANCH   8   9
ENDBRANCH   7   8
ENDBRANCH   6   7
ENDBRANCH   5   6
ENDBRANCH   4   5
ENDBRANCH   3   4
ENDBRANCH   2   3
ENDBRANCH   1   2
BRANCH   1  18
ATOM     18  C   UNL     1     175.787 176.497 183.295  1.00  0.00     0.000 C 
BRANCH  18  19
ATOM     19  C   UNL     1     176.884 177.037 182.356  1.00  0.00     0.000 C 
BRANCH  19  20
ATOM     20  C   UNL     1     177.000 176.312 181.004  1.00  0.00     0.000 C 
BRANCH  20  21
ATOM     21  C   UNL     1     176.726 177.238 179.807  1.00  0.00     0.000 C 
BRANCH  21  22
ATOM     22  C   UNL     1     176.520 176.474 178.485  1.00  0.00     0.000 C 
BRANCH  22  23
ATOM     23  C   UNL     1     175.092 176.515 177.908  1.00  0.00     0.000 C 
BRANCH  23  24
ATOM     24  C   UNL     1     174.089 177.233 178.825  1.00  0.00    -0.000 C 
BRANCH  24  25
ATOM     25  C   UNL     1     172.696 177.387 178.190  1.00  0.00    -0.000 C 
BRANCH  25  26
ATOM     26  C   UNL     1     171.524 176.891 179.055  1.00  0.00    -0.000 C 
BRANCH  26  27
ATOM     27  C   UNL     1     170.920 175.571 178.547  1.00  0.00    -0.000 C 
BRANCH  27  28
ATOM     28  C   UNL     1     170.957 174.456 179.604  1.00  0.00    -0.000 C 
BRANCH  28  29
ATOM     29  C   UNL     1     172.374 173.901 179.830  1.00  0.00    -0.000 C 
BRANCH  29  30
ATOM     30  C   UNL     1     173.074 173.538 178.503  1.00  0.00    -0.000 C 
BRANCH  30  31
ATOM     31  C   UNL     1     174.312 172.643 178.682  1.00  0.00    -0.003 C 
ATOM     32  C   UNL     1     175.315 173.206 179.687  1.00  0.00     0.004 C 
ENDBRANCH  30  31
ENDBRANCH  29  30
ENDBRANCH  28  29
ENDBRANCH  27  28
ENDBRANCH  26  27
ENDBRANCH  25  26
ENDBRANCH  24  25
ENDBRANCH  23  24
ENDBRANCH  22  23
ENDBRANCH  21  22
ENDBRANCH  20  21
ENDBRANCH  19  20
ENDBRANCH  18  19
ENDBRANCH   1  18
TORSDOF 28
ENDMDL
MODEL 8
REMARK VINA RESULT:    -4.317      5.160      8.984
REMARK INTER + INTRA:         -15.614
REMARK INTER:                  -9.709
REMARK INTRA:                  -5.905
REMARK UNBOUND:                -4.232
REMARK SMILES CCCCCCCCCCCCCCCCCCCCCCCCCCCCCC(=O)[O-]
REMARK SMILES IDX 16 1 17 2 18 3 19 4 20 5 21 6 22 7 23 8 24 9 25 10 26 11
REMARK SMILES IDX 27 12 28 13 29 14 30 15 31 16 32 17 15 18 14 19 13 20 12 21
REMARK SMILES IDX 11 22 10 23 9 24 8 25 7 26 6 27 5 28 4 29 3 30 2 31 1 32
REMARK H PARENT
REMARK Flexibility Score: inf
ROOT
ATOM      1  C   UNL     1     174.457 174.650 182.870  1.00  0.00     0.000 C 
ENDROOT
BRANCH   1   2
ATOM      2  C   UNL     1     175.803 175.318 183.207  1.00  0.00     0.000 C 
BRANCH   2   3
ATOM      3  C   UNL     1     176.989 174.671 182.477  1.00  0.00     0.000 C 
BRANCH   3   4
ATOM      4  C   UNL     1     177.352 175.453 181.204  1.00  0.00     0.000 C 
BRANCH   4   5
ATOM      5  C   UNL     1     177.019 176.956 181.322  1.00  0.00     0.000 C 
BRANCH   5   6
ATOM      6  C   UNL     1     176.816 177.662 179.971  1.00  0.00     0.000 C 
BRANCH   6   7
ATOM      7  C   UNL     1     175.387 177.511 179.425  1.00  0.00     0.000 C 
BRANCH   7   8
ATOM      8  C   UNL     1     175.234 176.319 178.464  1.00  0.00     0.000 C 
BRANCH   8   9
ATOM      9  C   UNL     1     174.344 175.173 178.984  1.00  0.00     0.000 C 
BRANCH   9  10
ATOM     10  C   UNL     1     175.093 173.835 179.099  1.00  0.00     0.000 C 
BRANCH  10  11
ATOM     11  C   UNL     1     174.115 172.658 179.240  1.00  0.00     0.000 C 
BRANCH  11  12
ATOM     12  C   UNL     1     174.587 171.631 180.292  1.00  0.00     0.000 C 
BRANCH  12  13
ATOM     13  C   UNL     1     176.061 171.794 180.702  1.00  0.00     0.006 C 
BRANCH  13  14
ATOM     14  C   UNL     1     176.464 170.885 181.869  1.00  0.00     0.053 C 
BRANCH  14  15
ATOM     15  C   UNL     1     175.653 169.627 181.867  1.00  0.00     0.041 C 
ATOM     16  O   UNL     1     174.656 169.513 182.628  1.00  0.00    -0.550 OA
ATOM     17  O   UNL     1     176.011 168.570 181.040  1.00  0.00    -0.550 OA
ENDBRANCH  14  15
ENDBRANCH  13  14
ENDBRANCH  12  13
ENDBRANCH  11  12
ENDBRANCH  10  11
ENDBRANCH   9  10
ENDBRANCH   8   9
ENDBRANCH   7   8
ENDBRANCH   6   7
ENDBRANCH   5   6
ENDBRANCH   4   5
ENDBRANCH   3   4
ENDBRANCH   2   3
ENDBRANCH   1   2
BRANCH   1  18
ATOM     18  C   UNL     1     173.398 175.591 182.261  1.00  0.00     0.000 C 
BRANCH  18  19
ATOM     19  C   UNL     1     173.599 177.088 182.569  1.00  0.00     0.000 C 
BRANCH  19  20
ATOM     20  C   UNL     1     172.311 177.871 182.877  1.00  0.00     0.000 C 
BRANCH  20  21
ATOM     21  C   UNL     1     171.147 177.492 181.944  1.00  0.00     0.000 C 
BRANCH  21  22
ATOM     22  C   UNL     1     169.856 177.132 182.703  1.00  0.00     0.000 C 
BRANCH  22  23
ATOM     23  C   UNL     1     169.975 175.964 183.702  1.00  0.00     0.000 C 
BRANCH  23  24
ATOM     24  C   UNL     1     170.064 174.590 183.019  1.00  0.00    -0.000 C 
BRANCH  24  25
ATOM     25  C   UNL     1     168.911 174.333 182.033  1.00  0.00    -0.000 C 
BRANCH  25  26
ATOM     26  C   UNL     1     169.331 173.755 180.671  1.00  0.00    -0.000 C 
BRANCH  26  27
ATOM     27  C   UNL     1     170.633 174.372 180.132  1.00  0.00    -0.000 C 
BRANCH  27  28
ATOM     28  C   UNL     1     170.817 174.145 178.623  1.00  0.00    -0.000 C 
BRANCH  28  29
ATOM     29  C   UNL     1     170.283 175.315 177.779  1.00  0.00    -0.000 C 
BRANCH  29  30
ATOM     30  C   UNL     1     170.341 176.656 178.543  1.00  0.00    -0.000 C 
BRANCH  30  31
ATOM     31  C   UNL     1     171.623 177.464 178.276  1.00  0.00    -0.003 C 
ATOM     32  C   UNL     1     172.015 177.490 176.800  1.00  0.00     0.004 C 
ENDBRANCH  30  31
ENDBRANCH  29  30
ENDBRANCH  28  29
ENDBRANCH  27  28
ENDBRANCH  26  27
ENDBRANCH  25  26
ENDBRANCH  24  25
ENDBRANCH  23  24
ENDBRANCH  22  23
ENDBRANCH  21  22
ENDBRANCH  20  21
ENDBRANCH  19  20
ENDBRANCH  18  19
ENDBRANCH   1  18
TORSDOF 28
ENDMDL
MODEL 9
REMARK VINA RESULT:    -4.289      3.959      4.951
REMARK INTER + INTRA:         -15.542
REMARK INTER:                  -8.747
REMARK INTRA:                  -6.795
REMARK UNBOUND:                -4.232
REMARK SMILES CCCCCCCCCCCCCCCCCCCCCCCCCCCCCC(=O)[O-]
REMARK SMILES IDX 16 1 17 2 18 3 19 4 20 5 21 6 22 7 23 8 24 9 25 10 26 11
REMARK SMILES IDX 27 12 28 13 29 14 30 15 31 16 32 17 15 18 14 19 13 20 12 21
REMARK SMILES IDX 11 22 10 23 9 24 8 25 7 26 6 27 5 28 4 29 3 30 2 31 1 32
REMARK H PARENT
REMARK Flexibility Score: inf
ROOT
ATOM      1  C   UNL     1     174.417 172.554 180.420  1.00  0.00     0.000 C 
ENDROOT
BRANCH   1   2
ATOM      2  C   UNL     1     173.728 172.135 181.732  1.00  0.00     0.000 C 
BRANCH   2   3
ATOM      3  C   UNL     1     173.071 173.315 182.463  1.00  0.00     0.000 C 
BRANCH   3   4
ATOM      4  C   UNL     1     173.277 174.630 181.694  1.00  0.00     0.000 C 
BRANCH   4   5
ATOM      5  C   UNL     1     173.605 175.814 182.630  1.00  0.00     0.000 C 
BRANCH   5   6
ATOM      6  C   UNL     1     173.364 177.196 182.000  1.00  0.00     0.000 C 
BRANCH   6   7
ATOM      7  C   UNL     1     172.280 178.006 182.730  1.00  0.00     0.000 C 
BRANCH   7   8
ATOM      8  C   UNL     1     170.854 177.528 182.408  1.00  0.00     0.000 C 
BRANCH   8   9
ATOM      9  C   UNL     1     170.065 176.976 183.612  1.00  0.00     0.000 C 
BRANCH   9  10
ATOM     10  C   UNL     1     169.862 175.453 183.550  1.00  0.00     0.000 C 
BRANCH  10  11
ATOM     11  C   UNL     1     169.734 174.966 182.098  1.00  0.00     0.000 C 
BRANCH  11  12
ATOM     12  C   UNL     1     168.311 174.456 181.778  1.00  0.00     0.000 C 
BRANCH  12  13
ATOM     13  C   UNL     1     168.241 172.945 181.498  1.00  0.00     0.006 C 
BRANCH  13  14
ATOM     14  C   UNL     1     169.522 172.200 181.893  1.00  0.00     0.053 C 
BRANCH  14  15
ATOM     15  C   UNL     1     169.389 171.606 183.261  1.00  0.00     0.041 C 
ATOM     16  O   UNL     1     168.334 171.004 183.592  1.00  0.00    -0.550 OA
ATOM     17  O   UNL     1     170.424 171.735 184.179  1.00  0.00    -0.550 OA
ENDBRANCH  14  15
ENDBRANCH  13  14
ENDBRANCH  12  13
ENDBRANCH  11  12
ENDBRANCH  10  11
ENDBRANCH   9  10
ENDBRANCH   8   9
ENDBRANCH   7   8
ENDBRANCH   6   7
ENDBRANCH   5   6
ENDBRANCH   4   5
ENDBRANCH   3   4
ENDBRANCH   2   3
ENDBRANCH   1   2
BRANCH   1  18
ATOM     18  C   UNL     1     175.947 172.358 180.398  1.00  0.00     0.000 C 
BRANCH  18  19
ATOM     19  C   UNL     1     176.654 172.582 181.749  1.00  0.00     0.000 C 
BRANCH  19  20
ATOM     20  C   UNL     1     176.913 174.054 182.115  1.00  0.00     0.000 C 
BRANCH  20  21
ATOM     21  C   UNL     1     177.349 174.899 180.906  1.00  0.00     0.000 C 
BRANCH  21  22
ATOM     22  C   UNL     1     176.889 176.366 180.996  1.00  0.00     0.000 C 
BRANCH  22  23
ATOM     23  C   UNL     1     176.201 176.926 179.736  1.00  0.00     0.000 C 
BRANCH  23  24
ATOM     24  C   UNL     1     175.720 175.829 178.772  1.00  0.00    -0.000 C 
BRANCH  24  25
ATOM     25  C   UNL     1     174.207 175.894 178.494  1.00  0.00    -0.000 C 
BRANCH  25  26
ATOM     26  C   UNL     1     173.695 177.250 177.979  1.00  0.00    -0.000 C 
BRANCH  26  27
ATOM     27  C   UNL     1     172.187 177.246 177.673  1.00  0.00    -0.000 C 
BRANCH  27  28
ATOM     28  C   UNL     1     171.325 177.352 178.941  1.00  0.00    -0.000 C 
BRANCH  28  29
ATOM     29  C   UNL     1     169.992 176.594 178.815  1.00  0.00    -0.000 C 
BRANCH  29  30
ATOM     30  C   UNL     1     170.064 175.460 177.770  1.00  0.00    -0.000 C 
BRANCH  30  31
ATOM     31  C   UNL     1     169.958 174.051 178.379  1.00  0.00    -0.003 C 
ATOM     32  C   UNL     1     171.314 173.466 178.768  1.00  0.00     0.004 C 
ENDBRANCH  30  31
ENDBRANCH  29  30
ENDBRANCH  28  29
ENDBRANCH  27  28
ENDBRANCH  26  27
ENDBRANCH  25  26
ENDBRANCH  24  25
ENDBRANCH  23  24
ENDBRANCH  22  23
ENDBRANCH  21  22
ENDBRANCH  20  21
ENDBRANCH  19  20
ENDBRANCH  18  19
ENDBRANCH   1  18
TORSDOF 28
ENDMDL
