MODEL 1
REMARK VINA RESULT:    10.213      0.000      0.000
REMARK INTER + INTRA:          12.867
REMARK INTER:                  11.109
REMARK INTRA:                   1.759
REMARK UNBOUND:                 1.759
REMARK SMILES CC1(C)CC[C@@]2(C(=O)[O-])CC[C@]3(C)C(=CC[C@@H]4[C@@]5(C)CC[C@H](O)C(C)(C)[C@@H]5CC[C@@]43C)[C@H]2C1
REMARK SMILES IDX 6 1 5 2 10 3 32 4 4 5 11 6 14 7 33 8 2 9 12 10 15 11 1 12
REMARK SMILES IDX 3 13 13 14 30 15 16 16 17 17 29 18 31 19 18 20 28 21 27 22
REMARK SMILES IDX 20 23 19 24 24 25 21 26 22 27 25 28 26 29 7 30 8 31 9 32
REMARK SMILES IDX 23 33
REMARK H PARENT 23 34
REMARK Flexibility Score: inf
ROOT
ATOM      1  C   UNL     1      14.915  -4.544  18.352  1.00  0.00     0.017 C 
ATOM      2  C   UNL     1      16.401  -5.049  18.180  1.00  0.00     0.014 C 
ATOM      3  C   UNL     1      13.937  -5.727  18.070  1.00  0.00     0.014 C 
ATOM      4  C   UNL     1      14.539  -3.912  19.788  1.00  0.00     0.028 C 
ATOM      5  C   UNL     1      17.183  -5.371  19.446  1.00  0.00     0.007 C 
ATOM      6  C   UNL     1      12.426  -5.337  18.064  1.00  0.00     0.013 C 
ATOM      7  C   UNL     1      13.082  -4.302  20.222  1.00  0.00    -0.064 C 
ATOM      8  C   UNL     1      15.570  -4.234  20.919  1.00  0.00     0.015 C 
ATOM      9  C   UNL     1      17.048  -4.272  20.509  1.00  0.00    -0.035 C 
ATOM     10  C   UNL     1      11.969  -4.305  19.161  1.00  0.00    -0.006 C 
ATOM     11  C   UNL     1      12.868  -5.030  21.342  1.00  0.00    -0.027 C 
ATOM     12  C   UNL     1      17.540  -2.892  20.016  1.00  0.00     0.011 C 
ATOM     13  C   UNL     1      17.900  -4.669  21.735  1.00  0.00     0.011 C 
ATOM     14  C   UNL     1      11.889  -2.875  18.527  1.00  0.00     0.017 C 
ATOM     15  C   UNL     1      10.505  -4.644  19.810  1.00  0.00    -0.020 C 
ATOM     16  C   UNL     1      11.976  -6.229  21.283  1.00  0.00     0.032 C 
ATOM     17  C   UNL     1      10.550  -5.821  20.890  1.00  0.00     0.006 C 
ATOM     18  C   UNL     1       9.454  -4.959  18.691  1.00  0.00     0.008 C 
ATOM     19  C   UNL     1       9.965  -3.376  20.566  1.00  0.00     0.012 C 
ATOM     20  C   UNL     1       9.531  -7.030  20.688  1.00  0.00    -0.025 C 
ATOM     21  C   UNL     1       8.082  -5.445  19.197  1.00  0.00     0.005 C 
ATOM     22  C   UNL     1       8.120  -6.383  20.440  1.00  0.00     0.003 C 
ATOM     23  C   UNL     1       9.482  -7.856  22.017  1.00  0.00     0.010 C 
ATOM     24  C   UNL     1       9.954  -7.984  19.524  1.00  0.00     0.012 C 
ATOM     25  C   UNL     1       6.868  -7.344  20.573  1.00  0.00    -0.006 C 
ATOM     26  C   UNL     1       8.292  -8.817  22.125  1.00  0.00     0.033 C 
ATOM     27  C   UNL     1       6.956  -8.090  21.943  1.00  0.00     0.120 C 
ATOM     28  C   UNL     1       6.726  -8.366  19.409  1.00  0.00     0.014 C 
ATOM     29  C   UNL     1       5.576  -6.485  20.583  1.00  0.00     0.014 C 
ENDROOT
BRANCH   1  30
ATOM     30  C   UNL     1      14.779  -3.521  17.225  1.00  0.00     0.048 C 
ATOM     31  O   UNL     1      13.693  -2.909  17.041  1.00  0.00    -0.550 OA
ATOM     32  O   UNL     1      15.886  -3.151  16.467  1.00  0.00    -0.550 OA
ENDBRANCH   1  30
BRANCH  27  33
ATOM     33  O   UNL     1       5.916  -9.029  22.077  1.00  0.00    -0.393 OA
ATOM     34  H   UNL     1       6.222  -9.876  21.661  1.00  0.00     0.210 HD
ENDBRANCH  27  33
TORSDOF 2
ENDMDL
MODEL 2
REMARK VINA RESULT:    13.141     21.655     24.921
REMARK INTER + INTRA:          16.052
REMARK INTER:                  15.391
REMARK INTRA:                   0.661
REMARK UNBOUND:                 1.759
REMARK SMILES CC1(C)CC[C@@]2(C(=O)[O-])CC[C@]3(C)C(=CC[C@@H]4[C@@]5(C)CC[C@H](O)C(C)(C)[C@@H]5CC[C@@]43C)[C@H]2C1
REMARK SMILES IDX 6 1 5 2 10 3 32 4 4 5 11 6 14 7 33 8 2 9 12 10 15 11 1 12
REMARK SMILES IDX 3 13 13 14 30 15 16 16 17 17 29 18 31 19 18 20 28 21 27 22
REMARK SMILES IDX 20 23 19 24 24 25 21 26 22 27 25 28 26 29 7 30 8 31 9 32
REMARK SMILES IDX 23 33
REMARK H PARENT 23 34
REMARK Flexibility Score: inf
ROOT
ATOM      1  C   UNL     1       0.931 -21.370   5.555  1.00  0.00     0.017 C 
ATOM      2  C   UNL     1      -0.254 -22.381   5.810  1.00  0.00     0.014 C 
ATOM      3  C   UNL     1       2.283 -22.071   5.894  1.00  0.00     0.014 C 
ATOM      4  C   UNL     1       1.040 -20.760   4.065  1.00  0.00     0.028 C 
ATOM      5  C   UNL     1      -0.858 -23.075   4.596  1.00  0.00     0.007 C 
ATOM      6  C   UNL     1       3.536 -21.142   5.824  1.00  0.00     0.013 C 
ATOM      7  C   UNL     1       2.535 -20.607   3.616  1.00  0.00    -0.064 C 
ATOM      8  C   UNL     1       0.206 -21.537   2.994  1.00  0.00     0.015 C 
ATOM      9  C   UNL     1      -1.148 -22.095   3.450  1.00  0.00    -0.035 C 
ATOM     10  C   UNL     1       3.569 -20.105   4.640  1.00  0.00    -0.006 C 
ATOM     11  C   UNL     1       3.008 -21.289   2.548  1.00  0.00    -0.027 C 
ATOM     12  C   UNL     1      -2.125 -20.967   3.856  1.00  0.00     0.011 C 
ATOM     13  C   UNL     1      -1.788 -22.881   2.284  1.00  0.00     0.011 C 
ATOM     14  C   UNL     1       3.103 -18.705   5.163  1.00  0.00     0.017 C 
ATOM     15  C   UNL     1       5.052 -19.919   3.973  1.00  0.00    -0.020 C 
ATOM     16  C   UNL     1       4.287 -22.054   2.668  1.00  0.00     0.032 C 
ATOM     17  C   UNL     1       5.453 -21.110   2.985  1.00  0.00     0.006 C 
ATOM     18  C   UNL     1       6.144 -19.725   5.079  1.00  0.00     0.008 C 
ATOM     19  C   UNL     1       5.072 -18.606   3.108  1.00  0.00     0.012 C 
ATOM     20  C   UNL     1       6.853 -21.825   3.245  1.00  0.00    -0.025 C 
ATOM     21  C   UNL     1       7.598 -19.697   4.569  1.00  0.00     0.005 C 
ATOM     22  C   UNL     1       7.916 -20.677   3.400  1.00  0.00     0.003 C 
ATOM     23  C   UNL     1       7.210 -22.676   1.979  1.00  0.00     0.010 C 
ATOM     24  C   UNL     1       6.822 -22.772   4.489  1.00  0.00     0.012 C 
ATOM     25  C   UNL     1       9.438 -21.104   3.300  1.00  0.00    -0.006 C 
ATOM     26  C   UNL     1       8.675 -23.124   1.907  1.00  0.00     0.033 C 
ATOM     27  C   UNL     1       9.638 -21.935   1.992  1.00  0.00     0.120 C 
ATOM     28  C   UNL     1       9.957 -21.900   4.531  1.00  0.00     0.014 C 
ATOM     29  C   UNL     1      10.310 -19.825   3.186  1.00  0.00     0.014 C 
ENDROOT
BRANCH   1  30
ATOM     30  C   UNL     1       0.671 -20.284   6.598  1.00  0.00     0.048 C 
ATOM     31  O   UNL     1       0.805 -19.066   6.304  1.00  0.00    -0.550 OA
ATOM     32  O   UNL     1       0.157 -20.612   7.849  1.00  0.00    -0.550 OA
ENDBRANCH   1  30
BRANCH  27  33
ATOM     33  O   UNL     1      10.955 -22.421   1.897  1.00  0.00    -0.393 OA
ATOM     34  H   UNL     1      11.221 -22.379   0.942  1.00  0.00     0.210 HD
ENDBRANCH  27  33
TORSDOF 2
ENDMDL
