MODEL 1
REMARK VINA RESULT:    -6.201      0.000      0.000
REMARK INTER + INTRA:         -18.775
REMARK INTER:                 -15.626
REMARK INTRA:                  -3.149
REMARK UNBOUND:                -3.149
REMARK SMILES CCCCCCCCCCCCCCCCCCCCCCCCCCCC(=O)[O-]
REMARK SMILES IDX 15 1 16 2 17 3 18 4 19 5 20 6 21 7 22 8 23 9 24 10 25 11
REMARK SMILES IDX 26 12 27 13 28 14 29 15 30 16 14 17 13 18 12 19 11 20 10 21
REMARK SMILES IDX 9 22 8 23 7 24 6 25 5 26 4 27 3 28 2 29 1 30
REMARK H PARENT
REMARK Flexibility Score: inf
ROOT
ATOM      1  C   UNL     1       7.198  16.011   3.658  1.00  0.00     0.000 C 
ENDROOT
BRANCH   1   2
ATOM      2  C   UNL     1       5.797  15.751   4.233  1.00  0.00     0.000 C 
BRANCH   2   3
ATOM      3  C   UNL     1       4.709  16.197   3.245  1.00  0.00     0.000 C 
BRANCH   3   4
ATOM      4  C   UNL     1       5.282  16.809   1.953  1.00  0.00     0.000 C 
BRANCH   4   5
ATOM      5  C   UNL     1       4.829  16.131   0.647  1.00  0.00     0.000 C 
BRANCH   5   6
ATOM      6  C   UNL     1       5.732  14.956   0.237  1.00  0.00     0.000 C 
BRANCH   6   7
ATOM      7  C   UNL     1       5.047  13.588   0.410  1.00  0.00     0.000 C 
BRANCH   7   8
ATOM      8  C   UNL     1       4.619  13.247   1.852  1.00  0.00     0.000 C 
BRANCH   8   9
ATOM      9  C   UNL     1       3.125  12.912   2.030  1.00  0.00     0.000 C 
BRANCH   9  10
ATOM     10  C   UNL     1       2.148  14.005   1.551  1.00  0.00     0.000 C 
BRANCH  10  11
ATOM     11  C   UNL     1       0.676  13.774   1.939  1.00  0.00     0.000 C 
BRANCH  11  12
ATOM     12  C   UNL     1       0.217  14.673   3.100  1.00  0.00     0.006 C 
BRANCH  12  13
ATOM     13  C   UNL     1      -0.803  13.972   4.006  1.00  0.00     0.053 C 
BRANCH  13  14
ATOM     14  C   UNL     1      -0.734  14.469   5.417  1.00  0.00     0.041 C 
ATOM     15  O   UNL     1       0.327  14.337   6.084  1.00  0.00    -0.550 OA
ATOM     16  O   UNL     1      -1.828  15.109   5.985  1.00  0.00    -0.550 OA
ENDBRANCH  13  14
ENDBRANCH  12  13
ENDBRANCH  11  12
ENDBRANCH  10  11
ENDBRANCH   9  10
ENDBRANCH   8   9
ENDBRANCH   7   8
ENDBRANCH   6   7
ENDBRANCH   5   6
ENDBRANCH   4   5
ENDBRANCH   3   4
ENDBRANCH   2   3
ENDBRANCH   1   2
BRANCH   1  17
ATOM     17  C   UNL     1       7.920  14.717   3.250  1.00  0.00     0.000 C 
BRANCH  17  18
ATOM     18  C   UNL     1       8.716  14.879   1.942  1.00  0.00     0.000 C 
BRANCH  18  19
ATOM     19  C   UNL     1       9.171  13.535   1.355  1.00  0.00     0.000 C 
BRANCH  19  20
ATOM     20  C   UNL     1       9.459  13.610  -0.153  1.00  0.00     0.000 C 
BRANCH  20  21
ATOM     21  C   UNL     1      10.884  14.110  -0.416  1.00  0.00     0.000 C 
BRANCH  21  22
ATOM     22  C   UNL     1      10.872  15.378  -1.282  1.00  0.00    -0.000 C 
BRANCH  22  23
ATOM     23  C   UNL     1      11.362  16.626  -0.526  1.00  0.00    -0.000 C 
BRANCH  23  24
ATOM     24  C   UNL     1      11.530  16.443   0.992  1.00  0.00    -0.000 C 
BRANCH  24  25
ATOM     25  C   UNL     1      11.707  17.776   1.741  1.00  0.00    -0.000 C 
BRANCH  25  26
ATOM     26  C   UNL     1      10.668  17.955   2.861  1.00  0.00    -0.000 C 
BRANCH  26  27
ATOM     27  C   UNL     1      10.910  19.211   3.727  1.00  0.00    -0.000 C 
BRANCH  27  28
ATOM     28  C   UNL     1      11.727  18.931   5.004  1.00  0.00    -0.000 C 
BRANCH  28  29
ATOM     29  C   UNL     1      12.943  19.854   5.196  1.00  0.00    -0.003 C 
ATOM     30  C   UNL     1      13.885  19.850   3.992  1.00  0.00     0.004 C 
ENDBRANCH  28  29
ENDBRANCH  27  28
ENDBRANCH  26  27
ENDBRANCH  25  26
ENDBRANCH  24  25
ENDBRANCH  23  24
ENDBRANCH  22  23
ENDBRANCH  21  22
ENDBRANCH  20  21
ENDBRANCH  19  20
ENDBRANCH  18  19
ENDBRANCH  17  18
ENDBRANCH   1  17
TORSDOF 26
ENDMDL
MODEL 2
REMARK VINA RESULT:    -6.190      4.235     10.518
REMARK INTER + INTRA:         -18.748
REMARK INTER:                 -16.009
REMARK INTRA:                  -2.739
REMARK UNBOUND:                -3.149
REMARK SMILES CCCCCCCCCCCCCCCCCCCCCCCCCCCC(=O)[O-]
REMARK SMILES IDX 15 1 16 2 17 3 18 4 19 5 20 6 21 7 22 8 23 9 24 10 25 11
REMARK SMILES IDX 26 12 27 13 28 14 29 15 30 16 14 17 13 18 12 19 11 20 10 21
REMARK SMILES IDX 9 22 8 23 7 24 6 25 5 26 4 27 3 28 2 29 1 30
REMARK H PARENT
REMARK Flexibility Score: inf
ROOT
ATOM      1  C   UNL     1       6.257  15.182   3.345  1.00  0.00     0.000 C 
ENDROOT
BRANCH   1   2
ATOM      2  C   UNL     1       7.654  15.734   3.670  1.00  0.00     0.000 C 
BRANCH   2   3
ATOM      3  C   UNL     1       8.749  14.829   3.085  1.00  0.00     0.000 C 
BRANCH   3   4
ATOM      4  C   UNL     1       8.302  14.087   1.813  1.00  0.00     0.000 C 
BRANCH   4   5
ATOM      5  C   UNL     1       9.394  13.899   0.744  1.00  0.00     0.000 C 
BRANCH   5   6
ATOM      6  C   UNL     1      10.817  13.935   1.326  1.00  0.00     0.000 C 
BRANCH   6   7
ATOM      7  C   UNL     1      11.738  14.926   0.591  1.00  0.00     0.000 C 
BRANCH   7   8
ATOM      8  C   UNL     1      11.158  16.343   0.403  1.00  0.00     0.000 C 
BRANCH   8   9
ATOM      9  C   UNL     1      11.656  17.393   1.415  1.00  0.00     0.000 C 
BRANCH   9  10
ATOM     10  C   UNL     1      10.655  17.748   2.534  1.00  0.00     0.000 C 
BRANCH  10  11
ATOM     11  C   UNL     1      11.025  18.989   3.367  1.00  0.00     0.000 C 
BRANCH  11  12
ATOM     12  C   UNL     1      11.452  18.638   4.802  1.00  0.00     0.006 C 
BRANCH  12  13
ATOM     13  C   UNL     1      12.309  19.742   5.437  1.00  0.00     0.053 C 
BRANCH  13  14
ATOM     14  C   UNL     1      13.715  19.727   4.920  1.00  0.00     0.041 C 
ATOM     15  O   UNL     1      14.026  20.413   3.911  1.00  0.00    -0.550 OA
ATOM     16  O   UNL     1      14.689  18.984   5.574  1.00  0.00    -0.550 OA
ENDBRANCH  13  14
ENDBRANCH  12  13
ENDBRANCH  11  12
ENDBRANCH  10  11
ENDBRANCH   9  10
ENDBRANCH   8   9
ENDBRANCH   7   8
ENDBRANCH   6   7
ENDBRANCH   5   6
ENDBRANCH   4   5
ENDBRANCH   3   4
ENDBRANCH   2   3
ENDBRANCH   1   2
BRANCH   1  17
ATOM     17  C   UNL     1       5.206  16.291   3.180  1.00  0.00     0.000 C 
BRANCH  17  18
ATOM     18  C   UNL     1       5.006  16.692   1.707  1.00  0.00     0.000 C 
BRANCH  18  19
ATOM     19  C   UNL     1       5.615  15.678   0.728  1.00  0.00     0.000 C 
BRANCH  19  20
ATOM     20  C   UNL     1       4.553  14.829   0.012  1.00  0.00     0.000 C 
BRANCH  20  21
ATOM     21  C   UNL     1       4.629  13.364   0.454  1.00  0.00     0.000 C 
BRANCH  21  22
ATOM     22  C   UNL     1       4.001  13.174   1.843  1.00  0.00    -0.000 C 
BRANCH  22  23
ATOM     23  C   UNL     1       2.500  13.515   1.874  1.00  0.00    -0.000 C 
BRANCH  23  24
ATOM     24  C   UNL     1       2.104  14.621   2.866  1.00  0.00    -0.000 C 
BRANCH  24  25
ATOM     25  C   UNL     1       0.583  14.850   2.934  1.00  0.00    -0.000 C 
BRANCH  25  26
ATOM     26  C   UNL     1      -0.197  13.805   2.120  1.00  0.00    -0.000 C 
BRANCH  26  27
ATOM     27  C   UNL     1      -1.728  13.901   2.306  1.00  0.00    -0.000 C 
BRANCH  27  28
ATOM     28  C   UNL     1      -2.164  14.016   3.780  1.00  0.00    -0.000 C 
BRANCH  28  29
ATOM     29  C   UNL     1      -3.474  14.792   3.997  1.00  0.00    -0.003 C 
ATOM     30  C   UNL     1      -4.439  14.667   2.818  1.00  0.00     0.004 C 
ENDBRANCH  28  29
ENDBRANCH  27  28
ENDBRANCH  26  27
ENDBRANCH  25  26
ENDBRANCH  24  25
ENDBRANCH  23  24
ENDBRANCH  22  23
ENDBRANCH  21  22
ENDBRANCH  20  21
ENDBRANCH  19  20
ENDBRANCH  18  19
ENDBRANCH  17  18
ENDBRANCH   1  17
TORSDOF 26
ENDMDL
MODEL 3
REMARK VINA RESULT:    -6.086      4.034     10.729
REMARK INTER + INTRA:         -18.485
REMARK INTER:                 -16.525
REMARK INTRA:                  -1.960
REMARK UNBOUND:                -3.149
REMARK SMILES CCCCCCCCCCCCCCCCCCCCCCCCCCCC(=O)[O-]
REMARK SMILES IDX 15 1 16 2 17 3 18 4 19 5 20 6 21 7 22 8 23 9 24 10 25 11
REMARK SMILES IDX 26 12 27 13 28 14 29 15 30 16 14 17 13 18 12 19 11 20 10 21
REMARK SMILES IDX 9 22 8 23 7 24 6 25 5 26 4 27 3 28 2 29 1 30
REMARK H PARENT
REMARK Flexibility Score: inf
ROOT
ATOM      1  C   UNL     1       7.504  15.532   3.565  1.00  0.00     0.000 C 
ENDROOT
BRANCH   1   2
ATOM      2  C   UNL     1       8.610  14.565   3.118  1.00  0.00     0.000 C 
BRANCH   2   3
ATOM      3  C   UNL     1       9.165  14.966   1.744  1.00  0.00     0.000 C 
BRANCH   3   4
ATOM      4  C   UNL     1      10.551  14.362   1.453  1.00  0.00     0.000 C 
BRANCH   4   5
ATOM      5  C   UNL     1      11.517  15.275   0.676  1.00  0.00     0.000 C 
BRANCH   5   6
ATOM      6  C   UNL     1      11.060  16.743   0.645  1.00  0.00     0.000 C 
BRANCH   6   7
ATOM      7  C   UNL     1      11.752  17.606   1.715  1.00  0.00     0.000 C 
BRANCH   7   8
ATOM      8  C   UNL     1      10.811  18.214   2.775  1.00  0.00     0.000 C 
BRANCH   8   9
ATOM      9  C   UNL     1      11.503  19.090   3.839  1.00  0.00     0.000 C 
BRANCH   9  10
ATOM     10  C   UNL     1      12.997  19.374   3.583  1.00  0.00     0.000 C 
BRANCH  10  11
ATOM     11  C   UNL     1      13.794  19.825   4.820  1.00  0.00     0.000 C 
BRANCH  11  12
ATOM     12  C   UNL     1      12.891  20.170   6.017  1.00  0.00     0.006 C 
BRANCH  12  13
ATOM     13  C   UNL     1      13.688  20.311   7.320  1.00  0.00     0.053 C 
BRANCH  13  14
ATOM     14  C   UNL     1      12.921  21.056   8.369  1.00  0.00     0.041 C 
ATOM     15  O   UNL     1      12.256  22.081   8.059  1.00  0.00    -0.550 OA
ATOM     16  O   UNL     1      12.910  20.600   9.680  1.00  0.00    -0.550 OA
ENDBRANCH  13  14
ENDBRANCH  12  13
ENDBRANCH  11  12
ENDBRANCH  10  11
ENDBRANCH   9  10
ENDBRANCH   8   9
ENDBRANCH   7   8
ENDBRANCH   6   7
ENDBRANCH   5   6
ENDBRANCH   4   5
ENDBRANCH   3   4
ENDBRANCH   2   3
ENDBRANCH   1   2
BRANCH   1  17
ATOM     17  C   UNL     1       6.096  15.027   3.210  1.00  0.00     0.000 C 
BRANCH  17  18
ATOM     18  C   UNL     1       5.212  16.133   2.607  1.00  0.00     0.000 C 
BRANCH  18  19
ATOM     19  C   UNL     1       4.918  15.909   1.116  1.00  0.00     0.000 C 
BRANCH  19  20
ATOM     20  C   UNL     1       5.432  14.554   0.605  1.00  0.00     0.000 C 
BRANCH  20  21
ATOM     21  C   UNL     1       4.419  13.439   0.888  1.00  0.00     0.000 C 
BRANCH  21  22
ATOM     22  C   UNL     1       2.980  13.973   0.824  1.00  0.00    -0.000 C 
BRANCH  22  23
ATOM     23  C   UNL     1       2.142  13.586   2.057  1.00  0.00    -0.000 C 
BRANCH  23  24
ATOM     24  C   UNL     1       1.508  14.769   2.809  1.00  0.00    -0.000 C 
BRANCH  24  25
ATOM     25  C   UNL     1      -0.006  14.893   2.564  1.00  0.00    -0.000 C 
BRANCH  25  26
ATOM     26  C   UNL     1      -0.826  14.051   3.556  1.00  0.00    -0.000 C 
BRANCH  26  27
ATOM     27  C   UNL     1      -0.363  14.208   5.022  1.00  0.00    -0.000 C 
BRANCH  27  28
ATOM     28  C   UNL     1      -1.409  14.885   5.929  1.00  0.00    -0.000 C 
BRANCH  28  29
ATOM     29  C   UNL     1      -0.973  15.039   7.396  1.00  0.00    -0.003 C 
ATOM     30  C   UNL     1      -2.147  15.307   8.338  1.00  0.00     0.004 C 
ENDBRANCH  28  29
ENDBRANCH  27  28
ENDBRANCH  26  27
ENDBRANCH  25  26
ENDBRANCH  24  25
ENDBRANCH  23  24
ENDBRANCH  22  23
ENDBRANCH  21  22
ENDBRANCH  20  21
ENDBRANCH  19  20
ENDBRANCH  18  19
ENDBRANCH  17  18
ENDBRANCH   1  17
TORSDOF 26
ENDMDL
MODEL 4
REMARK VINA RESULT:    -6.035      0.865      2.083
REMARK INTER + INTRA:         -18.357
REMARK INTER:                 -14.721
REMARK INTRA:                  -3.636
REMARK UNBOUND:                -3.149
REMARK SMILES CCCCCCCCCCCCCCCCCCCCCCCCCCCC(=O)[O-]
REMARK SMILES IDX 15 1 16 2 17 3 18 4 19 5 20 6 21 7 22 8 23 9 24 10 25 11
REMARK SMILES IDX 26 12 27 13 28 14 29 15 30 16 14 17 13 18 12 19 11 20 10 21
REMARK SMILES IDX 9 22 8 23 7 24 6 25 5 26 4 27 3 28 2 29 1 30
REMARK H PARENT
REMARK Flexibility Score: inf
ROOT
ATOM      1  C   UNL     1       5.783  15.787   4.352  1.00  0.00     0.000 C 
ENDROOT
BRANCH   1   2
ATOM      2  C   UNL     1       4.626  16.110   3.394  1.00  0.00     0.000 C 
BRANCH   2   3
ATOM      3  C   UNL     1       5.138  16.849   2.148  1.00  0.00     0.000 C 
BRANCH   3   4
ATOM      4  C   UNL     1       4.659  16.212   0.831  1.00  0.00     0.000 C 
BRANCH   4   5
ATOM      5  C   UNL     1       5.679  15.293   0.135  1.00  0.00     0.000 C 
BRANCH   5   6
ATOM      6  C   UNL     1       5.197  13.837   0.023  1.00  0.00     0.000 C 
BRANCH   6   7
ATOM      7  C   UNL     1       5.251  13.086   1.366  1.00  0.00     0.000 C 
BRANCH   7   8
ATOM      8  C   UNL     1       3.908  12.993   2.119  1.00  0.00     0.000 C 
BRANCH   8   9
ATOM      9  C   UNL     1       2.676  13.467   1.322  1.00  0.00     0.000 C 
BRANCH   9  10
ATOM     10  C   UNL     1       1.669  14.319   2.120  1.00  0.00     0.000 C 
BRANCH  10  11
ATOM     11  C   UNL     1       0.269  13.695   2.274  1.00  0.00     0.000 C 
BRANCH  11  12
ATOM     12  C   UNL     1      -0.668  14.543   3.151  1.00  0.00     0.006 C 
BRANCH  12  13
ATOM     13  C   UNL     1      -1.113  13.795   4.414  1.00  0.00     0.053 C 
BRANCH  13  14
ATOM     14  C   UNL     1      -0.675  14.495   5.663  1.00  0.00     0.041 C 
ATOM     15  O   UNL     1       0.540  14.502   5.993  1.00  0.00    -0.550 OA
ATOM     16  O   UNL     1      -1.604  15.170   6.445  1.00  0.00    -0.550 OA
ENDBRANCH  13  14
ENDBRANCH  12  13
ENDBRANCH  11  12
ENDBRANCH  10  11
ENDBRANCH   9  10
ENDBRANCH   8   9
ENDBRANCH   7   8
ENDBRANCH   6   7
ENDBRANCH   5   6
ENDBRANCH   4   5
ENDBRANCH   3   4
ENDBRANCH   2   3
ENDBRANCH   1   2
BRANCH   1  17
ATOM     17  C   UNL     1       7.163  16.005   3.709  1.00  0.00     0.000 C 
BRANCH  17  18
ATOM     18  C   UNL     1       7.817  14.684   3.267  1.00  0.00     0.000 C 
BRANCH  18  19
ATOM     19  C   UNL     1       8.691  14.847   2.014  1.00  0.00     0.000 C 
BRANCH  19  20
ATOM     20  C   UNL     1       8.917  13.521   1.270  1.00  0.00     0.000 C 
BRANCH  20  21
ATOM     21  C   UNL     1       8.852  13.724  -0.248  1.00  0.00     0.000 C 
BRANCH  21  22
ATOM     22  C   UNL     1      10.117  13.183  -0.931  1.00  0.00    -0.000 C 
BRANCH  22  23
ATOM     23  C   UNL     1      10.639  14.108  -2.046  1.00  0.00    -0.000 C 
BRANCH  23  24
ATOM     24  C   UNL     1      11.664  15.161  -1.591  1.00  0.00    -0.000 C 
BRANCH  24  25
ATOM     25  C   UNL     1      12.580  14.656  -0.460  1.00  0.00    -0.000 C 
BRANCH  25  26
ATOM     26  C   UNL     1      12.151  15.194   0.915  1.00  0.00    -0.000 C 
BRANCH  26  27
ATOM     27  C   UNL     1      11.365  16.522   0.837  1.00  0.00    -0.000 C 
BRANCH  27  28
ATOM     28  C   UNL     1      11.956  17.640   1.717  1.00  0.00    -0.000 C 
BRANCH  28  29
ATOM     29  C   UNL     1      10.929  18.355   2.613  1.00  0.00    -0.003 C 
ATOM     30  C   UNL     1      11.580  19.305   3.618  1.00  0.00     0.004 C 
ENDBRANCH  28  29
ENDBRANCH  27  28
ENDBRANCH  26  27
ENDBRANCH  25  26
ENDBRANCH  24  25
ENDBRANCH  23  24
ENDBRANCH  22  23
ENDBRANCH  21  22
ENDBRANCH  20  21
ENDBRANCH  19  20
ENDBRANCH  18  19
ENDBRANCH  17  18
ENDBRANCH   1  17
TORSDOF 26
ENDMDL
MODEL 5
REMARK VINA RESULT:    -6.026      3.997     10.176
REMARK INTER + INTRA:         -18.333
REMARK INTER:                 -15.631
REMARK INTRA:                  -2.702
REMARK UNBOUND:                -3.149
REMARK SMILES CCCCCCCCCCCCCCCCCCCCCCCCCCCC(=O)[O-]
REMARK SMILES IDX 15 1 16 2 17 3 18 4 19 5 20 6 21 7 22 8 23 9 24 10 25 11
REMARK SMILES IDX 26 12 27 13 28 14 29 15 30 16 14 17 13 18 12 19 11 20 10 21
REMARK SMILES IDX 9 22 8 23 7 24 6 25 5 26 4 27 3 28 2 29 1 30
REMARK H PARENT
REMARK Flexibility Score: inf
ROOT
ATOM      1  C   UNL     1       9.918  13.899   1.936  1.00  0.00     0.000 C 
ENDROOT
BRANCH   1   2
ATOM      2  C   UNL     1      10.108  13.773   0.416  1.00  0.00     0.000 C 
BRANCH   2   3
ATOM      3  C   UNL     1       9.945  15.137  -0.270  1.00  0.00     0.000 C 
BRANCH   3   4
ATOM      4  C   UNL     1      11.278  15.885  -0.451  1.00  0.00     0.000 C 
BRANCH   4   5
ATOM      5  C   UNL     1      11.373  17.244   0.267  1.00  0.00     0.000 C 
BRANCH   5   6
ATOM      6  C   UNL     1      11.643  17.108   1.775  1.00  0.00     0.000 C 
BRANCH   6   7
ATOM      7  C   UNL     1      10.708  17.983   2.630  1.00  0.00     0.000 C 
BRANCH   7   8
ATOM      8  C   UNL     1      11.403  19.124   3.400  1.00  0.00     0.000 C 
BRANCH   8   9
ATOM      9  C   UNL     1      12.943  19.107   3.349  1.00  0.00     0.000 C 
BRANCH   9  10
ATOM     10  C   UNL     1      13.639  20.184   4.206  1.00  0.00     0.000 C 
BRANCH  10  11
ATOM     11  C   UNL     1      13.975  19.752   5.645  1.00  0.00     0.000 C 
BRANCH  11  12
ATOM     12  C   UNL     1      12.866  20.108   6.649  1.00  0.00     0.006 C 
BRANCH  12  13
ATOM     13  C   UNL     1      13.172  21.403   7.414  1.00  0.00     0.053 C 
BRANCH  13  14
ATOM     14  C   UNL     1      12.622  21.375   8.806  1.00  0.00     0.041 C 
ATOM     15  O   UNL     1      12.913  20.426   9.583  1.00  0.00    -0.550 OA
ATOM     16  O   UNL     1      11.818  22.413   9.259  1.00  0.00    -0.550 OA
ENDBRANCH  13  14
ENDBRANCH  12  13
ENDBRANCH  11  12
ENDBRANCH  10  11
ENDBRANCH   9  10
ENDBRANCH   8   9
ENDBRANCH   7   8
ENDBRANCH   6   7
ENDBRANCH   5   6
ENDBRANCH   4   5
ENDBRANCH   3   4
ENDBRANCH   2   3
ENDBRANCH   1   2
BRANCH   1  17
ATOM     17  C   UNL     1       8.484  14.296   2.322  1.00  0.00     0.000 C 
BRANCH  17  18
ATOM     18  C   UNL     1       8.428  15.062   3.656  1.00  0.00     0.000 C 
BRANCH  18  19
ATOM     19  C   UNL     1       7.261  16.058   3.719  1.00  0.00     0.000 C 
BRANCH  19  20
ATOM     20  C   UNL     1       5.897  15.367   3.881  1.00  0.00     0.000 C 
BRANCH  20  21
ATOM     21  C   UNL     1       4.768  16.241   3.324  1.00  0.00     0.000 C 
BRANCH  21  22
ATOM     22  C   UNL     1       5.190  16.914   2.009  1.00  0.00    -0.000 C 
BRANCH  22  23
ATOM     23  C   UNL     1       4.786  16.103   0.764  1.00  0.00    -0.000 C 
BRANCH  23  24
ATOM     24  C   UNL     1       5.769  14.989   0.367  1.00  0.00    -0.000 C 
BRANCH  24  25
ATOM     25  C   UNL     1       5.096  13.609   0.249  1.00  0.00    -0.000 C 
BRANCH  25  26
ATOM     26  C   UNL     1       4.099  13.351   1.391  1.00  0.00    -0.000 C 
BRANCH  26  27
ATOM     27  C   UNL     1       2.640  13.706   1.024  1.00  0.00    -0.000 C 
BRANCH  27  28
ATOM     28  C   UNL     1       1.777  14.097   2.239  1.00  0.00    -0.000 C 
BRANCH  28  29
ATOM     29  C   UNL     1       0.260  13.994   2.001  1.00  0.00    -0.003 C 
ATOM     30  C   UNL     1      -0.556  14.261   3.265  1.00  0.00     0.004 C 
ENDBRANCH  28  29
ENDBRANCH  27  28
ENDBRANCH  26  27
ENDBRANCH  25  26
ENDBRANCH  24  25
ENDBRANCH  23  24
ENDBRANCH  22  23
ENDBRANCH  21  22
ENDBRANCH  20  21
ENDBRANCH  19  20
ENDBRANCH  18  19
ENDBRANCH  17  18
ENDBRANCH   1  17
TORSDOF 26
ENDMDL
MODEL 6
REMARK VINA RESULT:    -5.934      3.988     10.219
REMARK INTER + INTRA:         -18.102
REMARK INTER:                 -15.348
REMARK INTRA:                  -2.754
REMARK UNBOUND:                -3.149
REMARK SMILES CCCCCCCCCCCCCCCCCCCCCCCCCCCC(=O)[O-]
REMARK SMILES IDX 15 1 16 2 17 3 18 4 19 5 20 6 21 7 22 8 23 9 24 10 25 11
REMARK SMILES IDX 26 12 27 13 28 14 29 15 30 16 14 17 13 18 12 19 11 20 10 21
REMARK SMILES IDX 9 22 8 23 7 24 6 25 5 26 4 27 3 28 2 29 1 30
REMARK H PARENT
REMARK Flexibility Score: inf
ROOT
ATOM      1  C   UNL     1       9.305  13.854   0.694  1.00  0.00     0.000 C 
ENDROOT
BRANCH   1   2
ATOM      2  C   UNL     1      10.678  13.839   1.382  1.00  0.00     0.000 C 
BRANCH   2   3
ATOM      3  C   UNL     1      11.623  14.864   0.739  1.00  0.00     0.000 C 
BRANCH   3   4
ATOM      4  C   UNL     1      10.991  16.260   0.595  1.00  0.00     0.000 C 
BRANCH   4   5
ATOM      5  C   UNL     1      11.708  17.389   1.357  1.00  0.00     0.000 C 
BRANCH   5   6
ATOM      6  C   UNL     1      10.842  18.008   2.467  1.00  0.00     0.000 C 
BRANCH   6   7
ATOM      7  C   UNL     1      11.662  18.836   3.473  1.00  0.00     0.000 C 
BRANCH   7   8
ATOM      8  C   UNL     1      13.116  19.129   3.049  1.00  0.00     0.000 C 
BRANCH   8   9
ATOM      9  C   UNL     1      13.945  19.936   4.068  1.00  0.00     0.000 C 
BRANCH   9  10
ATOM     10  C   UNL     1      14.428  19.137   5.297  1.00  0.00     0.000 C 
BRANCH  10  11
ATOM     11  C   UNL     1      14.278  19.866   6.644  1.00  0.00     0.000 C 
BRANCH  11  12
ATOM     12  C   UNL     1      12.893  20.513   6.822  1.00  0.00     0.006 C 
BRANCH  12  13
ATOM     13  C   UNL     1      12.929  21.698   7.795  1.00  0.00     0.053 C 
BRANCH  13  14
ATOM     14  C   UNL     1      12.471  21.310   9.168  1.00  0.00     0.041 C 
ATOM     15  O   UNL     1      13.181  20.553   9.881  1.00  0.00    -0.550 OA
ATOM     16  O   UNL     1      11.279  21.812   9.672  1.00  0.00    -0.550 OA
ENDBRANCH  13  14
ENDBRANCH  12  13
ENDBRANCH  11  12
ENDBRANCH  10  11
ENDBRANCH   9  10
ENDBRANCH   8   9
ENDBRANCH   7   8
ENDBRANCH   6   7
ENDBRANCH   5   6
ENDBRANCH   4   5
ENDBRANCH   3   4
ENDBRANCH   2   3
ENDBRANCH   1   2
BRANCH   1  17
ATOM     17  C   UNL     1       8.201  14.445   1.585  1.00  0.00     0.000 C 
BRANCH  17  18
ATOM     18  C   UNL     1       8.718  14.817   2.987  1.00  0.00     0.000 C 
BRANCH  18  19
ATOM     19  C   UNL     1       7.784  15.789   3.723  1.00  0.00     0.000 C 
BRANCH  19  20
ATOM     20  C   UNL     1       6.311  15.357   3.668  1.00  0.00     0.000 C 
BRANCH  20  21
ATOM     21  C   UNL     1       5.420  16.500   3.167  1.00  0.00     0.000 C 
BRANCH  21  22
ATOM     22  C   UNL     1       4.325  16.834   4.191  1.00  0.00    -0.000 C 
BRANCH  22  23
ATOM     23  C   UNL     1       4.097  15.707   5.214  1.00  0.00    -0.000 C 
BRANCH  23  24
ATOM     24  C   UNL     1       3.114  14.611   4.766  1.00  0.00    -0.000 C 
BRANCH  24  25
ATOM     25  C   UNL     1       2.259  15.031   3.557  1.00  0.00    -0.000 C 
BRANCH  25  26
ATOM     26  C   UNL     1       2.572  14.193   2.306  1.00  0.00    -0.000 C 
BRANCH  26  27
ATOM     27  C   UNL     1       3.773  13.238   2.492  1.00  0.00    -0.000 C 
BRANCH  27  28
ATOM     28  C   UNL     1       4.653  13.102   1.235  1.00  0.00    -0.000 C 
BRANCH  28  29
ATOM     29  C   UNL     1       4.370  14.149   0.144  1.00  0.00    -0.003 C 
ATOM     30  C   UNL     1       5.497  15.172  -0.001  1.00  0.00     0.004 C 
ENDBRANCH  28  29
ENDBRANCH  27  28
ENDBRANCH  26  27
ENDBRANCH  25  26
ENDBRANCH  24  25
ENDBRANCH  23  24
ENDBRANCH  22  23
ENDBRANCH  21  22
ENDBRANCH  20  21
ENDBRANCH  19  20
ENDBRANCH  18  19
ENDBRANCH  17  18
ENDBRANCH   1  17
TORSDOF 26
ENDMDL
MODEL 7
REMARK VINA RESULT:    -5.912      2.082      4.620
REMARK INTER + INTRA:         -18.048
REMARK INTER:                 -15.499
REMARK INTRA:                  -2.549
REMARK UNBOUND:                -3.149
REMARK SMILES CCCCCCCCCCCCCCCCCCCCCCCCCCCC(=O)[O-]
REMARK SMILES IDX 15 1 16 2 17 3 18 4 19 5 20 6 21 7 22 8 23 9 24 10 25 11
REMARK SMILES IDX 26 12 27 13 28 14 29 15 30 16 14 17 13 18 12 19 11 20 10 21
REMARK SMILES IDX 9 22 8 23 7 24 6 25 5 26 4 27 3 28 2 29 1 30
REMARK H PARENT
REMARK Flexibility Score: inf
ROOT
ATOM      1  C   UNL     1       4.021  13.137   1.904  1.00  0.00     0.000 C 
ENDROOT
BRANCH   1   2
ATOM      2  C   UNL     1       2.927  13.792   1.048  1.00  0.00     0.000 C 
BRANCH   2   3
ATOM      3  C   UNL     1       1.831  14.401   1.934  1.00  0.00     0.000 C 
BRANCH   3   4
ATOM      4  C   UNL     1       0.443  13.781   1.689  1.00  0.00     0.000 C 
BRANCH   4   5
ATOM      5  C   UNL     1      -0.717  14.441   2.456  1.00  0.00     0.000 C 
BRANCH   5   6
ATOM      6  C   UNL     1      -1.087  13.690   3.746  1.00  0.00     0.000 C 
BRANCH   6   7
ATOM      7  C   UNL     1      -1.930  14.543   4.712  1.00  0.00     0.000 C 
BRANCH   7   8
ATOM      8  C   UNL     1      -1.314  14.751   6.111  1.00  0.00     0.000 C 
BRANCH   8   9
ATOM      9  C   UNL     1       0.055  14.076   6.330  1.00  0.00     0.000 C 
BRANCH   9  10
ATOM     10  C   UNL     1       1.263  15.034   6.334  1.00  0.00     0.000 C 
BRANCH  10  11
ATOM     11  C   UNL     1       2.519  14.498   5.623  1.00  0.00     0.000 C 
BRANCH  11  12
ATOM     12  C   UNL     1       3.131  15.516   4.645  1.00  0.00     0.006 C 
BRANCH  12  13
ATOM     13  C   UNL     1       4.517  15.993   5.097  1.00  0.00     0.053 C 
BRANCH  13  14
ATOM     14  C   UNL     1       5.452  16.174   3.941  1.00  0.00     0.041 C 
ATOM     15  O   UNL     1       5.011  16.551   2.823  1.00  0.00    -0.550 OA
ATOM     16  O   UNL     1       6.814  15.960   4.107  1.00  0.00    -0.550 OA
ENDBRANCH  13  14
ENDBRANCH  12  13
ENDBRANCH  11  12
ENDBRANCH  10  11
ENDBRANCH   9  10
ENDBRANCH   8   9
ENDBRANCH   7   8
ENDBRANCH   6   7
ENDBRANCH   5   6
ENDBRANCH   4   5
ENDBRANCH   3   4
ENDBRANCH   2   3
ENDBRANCH   1   2
BRANCH   1  17
ATOM     17  C   UNL     1       5.343  12.958   1.141  1.00  0.00     0.000 C 
BRANCH  17  18
ATOM     18  C   UNL     1       5.692  14.185   0.280  1.00  0.00     0.000 C 
BRANCH  18  19
ATOM     19  C   UNL     1       7.047  14.805   0.654  1.00  0.00     0.000 C 
BRANCH  19  20
ATOM     20  C   UNL     1       7.829  13.958   1.670  1.00  0.00     0.000 C 
BRANCH  20  21
ATOM     21  C   UNL     1       9.334  14.004   1.383  1.00  0.00     0.000 C 
BRANCH  21  22
ATOM     22  C   UNL     1       9.654  15.027   0.283  1.00  0.00    -0.000 C 
BRANCH  22  23
ATOM     23  C   UNL     1      11.163  15.169   0.016  1.00  0.00    -0.000 C 
BRANCH  23  24
ATOM     24  C   UNL     1      11.935  15.987   1.066  1.00  0.00    -0.000 C 
BRANCH  24  25
ATOM     25  C   UNL     1      11.444  17.443   1.170  1.00  0.00    -0.000 C 
BRANCH  25  26
ATOM     26  C   UNL     1      10.749  17.726   2.512  1.00  0.00    -0.000 C 
BRANCH  26  27
ATOM     27  C   UNL     1      11.184  19.059   3.160  1.00  0.00    -0.000 C 
BRANCH  27  28
ATOM     28  C   UNL     1      11.430  18.956   4.678  1.00  0.00    -0.000 C 
BRANCH  28  29
ATOM     29  C   UNL     1      12.768  19.553   5.148  1.00  0.00    -0.003 C 
ATOM     30  C   UNL     1      13.724  19.845   3.992  1.00  0.00     0.004 C 
ENDBRANCH  28  29
ENDBRANCH  27  28
ENDBRANCH  26  27
ENDBRANCH  25  26
ENDBRANCH  24  25
ENDBRANCH  23  24
ENDBRANCH  22  23
ENDBRANCH  21  22
ENDBRANCH  20  21
ENDBRANCH  19  20
ENDBRANCH  18  19
ENDBRANCH  17  18
ENDBRANCH   1  17
TORSDOF 26
ENDMDL
MODEL 8
REMARK VINA RESULT:    -5.900      4.165     10.985
REMARK INTER + INTRA:         -18.016
REMARK INTER:                 -15.704
REMARK INTRA:                  -2.311
REMARK UNBOUND:                -3.149
REMARK SMILES CCCCCCCCCCCCCCCCCCCCCCCCCCCC(=O)[O-]
REMARK SMILES IDX 15 1 16 2 17 3 18 4 19 5 20 6 21 7 22 8 23 9 24 10 25 11
REMARK SMILES IDX 26 12 27 13 28 14 29 15 30 16 14 17 13 18 12 19 11 20 10 21
REMARK SMILES IDX 9 22 8 23 7 24 6 25 5 26 4 27 3 28 2 29 1 30
REMARK H PARENT
REMARK Flexibility Score: inf
ROOT
ATOM      1  C   UNL     1       8.750  14.304   3.412  1.00  0.00     0.000 C 
ENDROOT
BRANCH   1   2
ATOM      2  C   UNL     1       9.361  13.652   2.163  1.00  0.00     0.000 C 
BRANCH   2   3
ATOM      3  C   UNL     1       8.674  14.163   0.888  1.00  0.00     0.000 C 
BRANCH   3   4
ATOM      4  C   UNL     1       9.670  14.614  -0.196  1.00  0.00     0.000 C 
BRANCH   4   5
ATOM      5  C   UNL     1      11.117  14.122  -0.005  1.00  0.00     0.000 C 
BRANCH   5   6
ATOM      6  C   UNL     1      12.069  15.230   0.473  1.00  0.00     0.000 C 
BRANCH   6   7
ATOM      7  C   UNL     1      11.349  16.567   0.728  1.00  0.00     0.000 C 
BRANCH   7   8
ATOM      8  C   UNL     1      11.970  17.446   1.833  1.00  0.00     0.000 C 
BRANCH   8   9
ATOM      9  C   UNL     1      10.984  18.385   2.554  1.00  0.00     0.000 C 
BRANCH   9  10
ATOM     10  C   UNL     1      11.591  19.209   3.709  1.00  0.00     0.000 C 
BRANCH  10  11
ATOM     11  C   UNL     1      13.117  19.402   3.636  1.00  0.00     0.000 C 
BRANCH  11  12
ATOM     12  C   UNL     1      13.763  19.571   5.022  1.00  0.00     0.006 C 
BRANCH  12  13
ATOM     13  C   UNL     1      12.753  20.039   6.078  1.00  0.00     0.053 C 
BRANCH  13  14
ATOM     14  C   UNL     1      13.423  20.722   7.231  1.00  0.00     0.041 C 
ATOM     15  O   UNL     1      12.873  21.708   7.789  1.00  0.00    -0.550 OA
ATOM     16  O   UNL     1      14.636  20.247   7.712  1.00  0.00    -0.550 OA
ENDBRANCH  13  14
ENDBRANCH  12  13
ENDBRANCH  11  12
ENDBRANCH  10  11
ENDBRANCH   9  10
ENDBRANCH   8   9
ENDBRANCH   7   8
ENDBRANCH   6   7
ENDBRANCH   5   6
ENDBRANCH   4   5
ENDBRANCH   3   4
ENDBRANCH   2   3
ENDBRANCH   1   2
BRANCH   1  17
ATOM     17  C   UNL     1       8.078  15.652   3.109  1.00  0.00     0.000 C 
BRANCH  17  18
ATOM     18  C   UNL     1       6.662  15.748   3.704  1.00  0.00     0.000 C 
BRANCH  18  19
ATOM     19  C   UNL     1       5.598  15.094   2.810  1.00  0.00     0.000 C 
BRANCH  19  20
ATOM     20  C   UNL     1       5.166  15.995   1.643  1.00  0.00     0.000 C 
BRANCH  20  21
ATOM     21  C   UNL     1       4.318  15.217   0.631  1.00  0.00     0.000 C 
BRANCH  21  22
ATOM     22  C   UNL     1       3.838  13.883   1.224  1.00  0.00    -0.000 C 
BRANCH  22  23
ATOM     23  C   UNL     1       2.327  13.868   1.518  1.00  0.00    -0.000 C 
BRANCH  23  24
ATOM     24  C   UNL     1       1.891  14.715   2.726  1.00  0.00    -0.000 C 
BRANCH  24  25
ATOM     25  C   UNL     1       0.383  14.611   3.018  1.00  0.00    -0.000 C 
BRANCH  25  26
ATOM     26  C   UNL     1      -0.299  13.529   2.164  1.00  0.00    -0.000 C 
BRANCH  26  27
ATOM     27  C   UNL     1      -1.810  13.778   1.952  1.00  0.00    -0.000 C 
BRANCH  27  28
ATOM     28  C   UNL     1      -2.531  14.296   3.211  1.00  0.00    -0.000 C 
BRANCH  28  29
ATOM     29  C   UNL     1      -4.066  14.310   3.105  1.00  0.00    -0.003 C 
ATOM     30  C   UNL     1      -4.659  15.709   3.269  1.00  0.00     0.004 C 
ENDBRANCH  28  29
ENDBRANCH  27  28
ENDBRANCH  26  27
ENDBRANCH  25  26
ENDBRANCH  24  25
ENDBRANCH  23  24
ENDBRANCH  22  23
ENDBRANCH  21  22
ENDBRANCH  20  21
ENDBRANCH  19  20
ENDBRANCH  18  19
ENDBRANCH  17  18
ENDBRANCH   1  17
TORSDOF 26
ENDMDL
MODEL 9
REMARK VINA RESULT:    -5.774      4.102      9.809
REMARK INTER + INTRA:         -17.700
REMARK INTER:                 -15.117
REMARK INTRA:                  -2.583
REMARK UNBOUND:                -3.149
REMARK SMILES CCCCCCCCCCCCCCCCCCCCCCCCCCCC(=O)[O-]
REMARK SMILES IDX 15 1 16 2 17 3 18 4 19 5 20 6 21 7 22 8 23 9 24 10 25 11
REMARK SMILES IDX 26 12 27 13 28 14 29 15 30 16 14 17 13 18 12 19 11 20 10 21
REMARK SMILES IDX 9 22 8 23 7 24 6 25 5 26 4 27 3 28 2 29 1 30
REMARK H PARENT
REMARK Flexibility Score: inf
ROOT
ATOM      1  C   UNL     1       9.035  13.522   0.691  1.00  0.00     0.000 C 
ENDROOT
BRANCH   1   2
ATOM      2  C   UNL     1       9.629  13.447  -0.724  1.00  0.00     0.000 C 
BRANCH   2   3
ATOM      3  C   UNL     1      11.043  14.045  -0.755  1.00  0.00     0.000 C 
BRANCH   3   4
ATOM      4  C   UNL     1      11.684  14.153   0.640  1.00  0.00     0.000 C 
BRANCH   4   5
ATOM      5  C   UNL     1      12.181  15.558   1.029  1.00  0.00     0.000 C 
BRANCH   5   6
ATOM      6  C   UNL     1      11.077  16.626   0.957  1.00  0.00     0.000 C 
BRANCH   6   7
ATOM      7  C   UNL     1      11.419  17.892   1.763  1.00  0.00     0.000 C 
BRANCH   7   8
ATOM      8  C   UNL     1      10.742  17.992   3.145  1.00  0.00     0.000 C 
BRANCH   8   9
ATOM      9  C   UNL     1      11.243  19.145   4.038  1.00  0.00     0.000 C 
BRANCH   9  10
ATOM     10  C   UNL     1      12.743  19.476   3.898  1.00  0.00     0.000 C 
BRANCH  10  11
ATOM     11  C   UNL     1      13.518  19.550   5.226  1.00  0.00     0.000 C 
BRANCH  11  12
ATOM     12  C   UNL     1      12.889  20.531   6.230  1.00  0.00     0.006 C 
BRANCH  12  13
ATOM     13  C   UNL     1      13.316  20.235   7.674  1.00  0.00     0.053 C 
BRANCH  13  14
ATOM     14  C   UNL     1      12.745  21.225   8.641  1.00  0.00     0.041 C 
ATOM     15  O   UNL     1      12.826  21.018   9.882  1.00  0.00    -0.550 OA
ATOM     16  O   UNL     1      12.153  22.392   8.176  1.00  0.00    -0.550 OA
ENDBRANCH  13  14
ENDBRANCH  12  13
ENDBRANCH  11  12
ENDBRANCH  10  11
ENDBRANCH   9  10
ENDBRANCH   8   9
ENDBRANCH   7   8
ENDBRANCH   6   7
ENDBRANCH   5   6
ENDBRANCH   4   5
ENDBRANCH   3   4
ENDBRANCH   2   3
ENDBRANCH   1   2
BRANCH   1  17
ATOM     17  C   UNL     1       8.020  14.665   0.848  1.00  0.00     0.000 C 
BRANCH  17  18
ATOM     18  C   UNL     1       6.596  14.242   0.446  1.00  0.00     0.000 C 
BRANCH  18  19
ATOM     19  C   UNL     1       6.008  13.176   1.385  1.00  0.00     0.000 C 
BRANCH  19  20
ATOM     20  C   UNL     1       4.471  13.184   1.405  1.00  0.00     0.000 C 
BRANCH  20  21
ATOM     21  C   UNL     1       3.912  14.181   0.384  1.00  0.00     0.000 C 
BRANCH  21  22
ATOM     22  C   UNL     1       2.380  14.251   0.463  1.00  0.00    -0.000 C 
BRANCH  22  23
ATOM     23  C   UNL     1       1.817  13.617   1.748  1.00  0.00    -0.000 C 
BRANCH  23  24
ATOM     24  C   UNL     1       0.696  14.419   2.432  1.00  0.00    -0.000 C 
BRANCH  24  25
ATOM     25  C   UNL     1       1.134  15.037   3.772  1.00  0.00    -0.000 C 
BRANCH  25  26
ATOM     26  C   UNL     1       2.653  14.939   3.988  1.00  0.00    -0.000 C 
BRANCH  26  27
ATOM     27  C   UNL     1       3.154  15.756   5.200  1.00  0.00    -0.000 C 
BRANCH  27  28
ATOM     28  C   UNL     1       4.674  16.012   5.185  1.00  0.00    -0.000 C 
BRANCH  28  29
ATOM     29  C   UNL     1       5.294  16.080   3.779  1.00  0.00    -0.003 C 
ATOM     30  C   UNL     1       6.819  15.980   3.798  1.00  0.00     0.004 C 
ENDBRANCH  28  29
ENDBRANCH  27  28
ENDBRANCH  26  27
ENDBRANCH  25  26
ENDBRANCH  24  25
ENDBRANCH  23  24
ENDBRANCH  22  23
ENDBRANCH  21  22
ENDBRANCH  20  21
ENDBRANCH  19  20
ENDBRANCH  18  19
ENDBRANCH  17  18
ENDBRANCH   1  17
TORSDOF 26
ENDMDL
