MODEL 1
REMARK VINA RESULT:    -3.092      0.000      0.000
REMARK INTER + INTRA:          -8.248
REMARK INTER:                  -5.984
REMARK INTRA:                  -2.263
REMARK UNBOUND:                -2.263
REMARK SMILES CCCCCCCCCCCCCCCCCC(=O)[O-]
REMARK SMILES IDX 10 1 11 2 12 3 13 4 14 5 15 6 16 7 17 8 18 9 19 10 20 11
REMARK SMILES IDX 9 12 8 13 7 14 6 15 5 16 4 17 3 18 2 19 1 20
REMARK H PARENT
REMARK Flexibility Score: inf
ROOT
ATOM      1  C   UNL     1      -1.865  11.779   8.712  1.00  0.00     0.000 C 
ENDROOT
BRANCH   1   2
ATOM      2  C   UNL     1      -2.083  12.530  10.039  1.00  0.00     0.000 C 
BRANCH   2   3
ATOM      3  C   UNL     1      -0.837  12.657  10.937  1.00  0.00     0.000 C 
BRANCH   3   4
ATOM      4  C   UNL     1      -1.008  13.695  12.059  1.00  0.00     0.000 C 
BRANCH   4   5
ATOM      5  C   UNL     1      -2.182  14.655  11.803  1.00  0.00     0.000 C 
BRANCH   5   6
ATOM      6  C   UNL     1      -1.723  16.063  11.396  1.00  0.00     0.000 C 
BRANCH   6   7
ATOM      7  C   UNL     1      -1.597  16.975  12.627  1.00  0.00     0.006 C 
BRANCH   7   8
ATOM      8  C   UNL     1      -2.567  18.164  12.571  1.00  0.00     0.053 C 
BRANCH   8   9
ATOM      9  C   UNL     1      -3.626  18.068  13.629  1.00  0.00     0.041 C 
ATOM     10  O   UNL     1      -3.582  17.148  14.488  1.00  0.00    -0.550 OA
ATOM     11  O   UNL     1      -4.676  18.978  13.646  1.00  0.00    -0.550 OA
ENDBRANCH   8   9
ENDBRANCH   7   8
ENDBRANCH   6   7
ENDBRANCH   5   6
ENDBRANCH   4   5
ENDBRANCH   3   4
ENDBRANCH   2   3
ENDBRANCH   1   2
BRANCH   1  12
ATOM     12  C   UNL     1      -0.544  10.994   8.674  1.00  0.00     0.000 C 
BRANCH  12  13
ATOM     13  C   UNL     1      -0.759   9.474   8.759  1.00  0.00    -0.000 C 
BRANCH  13  14
ATOM     14  C   UNL     1      -0.567   8.925  10.184  1.00  0.00    -0.000 C 
BRANCH  14  15
ATOM     15  C   UNL     1      -1.881   8.889  10.981  1.00  0.00    -0.000 C 
BRANCH  15  16
ATOM     16  C   UNL     1      -1.778   9.633  12.324  1.00  0.00    -0.000 C 
BRANCH  16  17
ATOM     17  C   UNL     1      -3.152   9.872  12.971  1.00  0.00    -0.000 C 
BRANCH  17  18
ATOM     18  C   UNL     1      -3.145  11.062  13.946  1.00  0.00    -0.000 C 
BRANCH  18  19
ATOM     19  C   UNL     1      -4.207  12.117  13.596  1.00  0.00    -0.003 C 
ATOM     20  C   UNL     1      -4.919  11.819  12.277  1.00  0.00     0.004 C 
ENDBRANCH  18  19
ENDBRANCH  17  18
ENDBRANCH  16  17
ENDBRANCH  15  16
ENDBRANCH  14  15
ENDBRANCH  13  14
ENDBRANCH  12  13
ENDBRANCH   1  12
TORSDOF 16
ENDMDL
MODEL 2
REMARK VINA RESULT:    -2.953      3.196      6.435
REMARK INTER + INTRA:          -7.979
REMARK INTER:                  -5.014
REMARK INTRA:                  -2.965
REMARK UNBOUND:                -2.263
REMARK SMILES CCCCCCCCCCCCCCCCCC(=O)[O-]
REMARK SMILES IDX 10 1 11 2 12 3 13 4 14 5 15 6 16 7 17 8 18 9 19 10 20 11
REMARK SMILES IDX 9 12 8 13 7 14 6 15 5 16 4 17 3 18 2 19 1 20
REMARK H PARENT
REMARK Flexibility Score: inf
ROOT
ATOM      1  C   UNL     1      -4.483  11.942  12.374  1.00  0.00     0.000 C 
ENDROOT
BRANCH   1   2
ATOM      2  C   UNL     1      -5.175  10.627  12.780  1.00  0.00     0.000 C 
BRANCH   2   3
ATOM      3  C   UNL     1      -4.603   9.352  12.132  1.00  0.00     0.000 C 
BRANCH   3   4
ATOM      4  C   UNL     1      -3.287   9.600  11.375  1.00  0.00     0.000 C 
BRANCH   4   5
ATOM      5  C   UNL     1      -2.049   9.197  12.194  1.00  0.00     0.000 C 
BRANCH   5   6
ATOM      6  C   UNL     1      -0.805  10.025  11.839  1.00  0.00     0.000 C 
BRANCH   6   7
ATOM      7  C   UNL     1      -1.192  11.287  11.052  1.00  0.00     0.006 C 
BRANCH   7   8
ATOM      8  C   UNL     1      -0.396  11.426   9.747  1.00  0.00     0.053 C 
BRANCH   8   9
ATOM      9  C   UNL     1      -1.196  10.987   8.558  1.00  0.00     0.041 C 
ATOM     10  O   UNL     1      -1.655  11.839   7.753  1.00  0.00    -0.550 OA
ATOM     11  O   UNL     1      -1.459   9.636   8.358  1.00  0.00    -0.550 OA
ENDBRANCH   8   9
ENDBRANCH   7   8
ENDBRANCH   6   7
ENDBRANCH   5   6
ENDBRANCH   4   5
ENDBRANCH   3   4
ENDBRANCH   2   3
ENDBRANCH   1   2
BRANCH   1  12
ATOM     12  C   UNL     1      -3.988  12.759  13.578  1.00  0.00     0.000 C 
BRANCH  12  13
ATOM     13  C   UNL     1      -3.172  11.912  14.569  1.00  0.00    -0.000 C 
BRANCH  13  14
ATOM     14  C   UNL     1      -1.693  12.332  14.633  1.00  0.00    -0.000 C 
BRANCH  14  15
ATOM     15  C   UNL     1      -1.455  13.735  14.052  1.00  0.00    -0.000 C 
BRANCH  15  16
ATOM     16  C   UNL     1      -0.069  13.877  13.398  1.00  0.00    -0.000 C 
BRANCH  16  17
ATOM     17  C   UNL     1      -0.124  14.635  12.062  1.00  0.00    -0.000 C 
BRANCH  17  18
ATOM     18  C   UNL     1      -1.566  14.930  11.611  1.00  0.00    -0.000 C 
BRANCH  18  19
ATOM     19  C   UNL     1      -1.817  16.428  11.382  1.00  0.00    -0.003 C 
ATOM     20  C   UNL     1      -2.212  17.162  12.663  1.00  0.00     0.004 C 
ENDBRANCH  18  19
ENDBRANCH  17  18
ENDBRANCH  16  17
ENDBRANCH  15  16
ENDBRANCH  14  15
ENDBRANCH  13  14
ENDBRANCH  12  13
ENDBRANCH   1  12
TORSDOF 16
ENDMDL
MODEL 3
REMARK VINA RESULT:    -2.916     17.886     20.036
REMARK INTER + INTRA:          -7.907
REMARK INTER:                  -5.995
REMARK INTRA:                  -1.911
REMARK UNBOUND:                -2.263
REMARK SMILES CCCCCCCCCCCCCCCCCC(=O)[O-]
REMARK SMILES IDX 10 1 11 2 12 3 13 4 14 5 15 6 16 7 17 8 18 9 19 10 20 11
REMARK SMILES IDX 9 12 8 13 7 14 6 15 5 16 4 17 3 18 2 19 1 20
REMARK H PARENT
REMARK Flexibility Score: inf
ROOT
ATOM      1  C   UNL     1     -19.050  14.141   1.129  1.00  0.00     0.000 C 
ENDROOT
BRANCH   1   2
ATOM      2  C   UNL     1     -19.402  12.678   1.456  1.00  0.00     0.000 C 
BRANCH   2   3
ATOM      3  C   UNL     1     -19.289  11.692   0.277  1.00  0.00     0.000 C 
BRANCH   3   4
ATOM      4  C   UNL     1     -18.496  10.422   0.628  1.00  0.00     0.000 C 
BRANCH   4   5
ATOM      5  C   UNL     1     -17.992  10.422   2.081  1.00  0.00     0.000 C 
BRANCH   5   6
ATOM      6  C   UNL     1     -16.822   9.453   2.306  1.00  0.00     0.000 C 
BRANCH   6   7
ATOM      7  C   UNL     1     -16.300   9.552   3.749  1.00  0.00     0.006 C 
BRANCH   7   8
ATOM      8  C   UNL     1     -16.237  11.003   4.247  1.00  0.00     0.053 C 
BRANCH   8   9
ATOM      9  C   UNL     1     -15.209  11.178   5.324  1.00  0.00     0.041 C 
ATOM     10  O   UNL     1     -14.041  10.736   5.162  1.00  0.00    -0.550 OA
ATOM     11  O   UNL     1     -15.551  11.802   6.517  1.00  0.00    -0.550 OA
ENDBRANCH   8   9
ENDBRANCH   7   8
ENDBRANCH   6   7
ENDBRANCH   5   6
ENDBRANCH   4   5
ENDBRANCH   3   4
ENDBRANCH   2   3
ENDBRANCH   1   2
BRANCH   1  12
ATOM     12  C   UNL     1     -18.547  14.333  -0.311  1.00  0.00     0.000 C 
BRANCH  12  13
ATOM     13  C   UNL     1     -19.091  15.617  -0.959  1.00  0.00    -0.000 C 
BRANCH  13  14
ATOM     14  C   UNL     1     -19.866  15.345  -2.259  1.00  0.00    -0.000 C 
BRANCH  14  15
ATOM     15  C   UNL     1     -19.699  13.899  -2.752  1.00  0.00    -0.000 C 
BRANCH  15  16
ATOM     16  C   UNL     1     -18.979  13.816  -4.110  1.00  0.00    -0.000 C 
BRANCH  16  17
ATOM     17  C   UNL     1     -17.630  13.086  -4.016  1.00  0.00    -0.000 C 
BRANCH  17  18
ATOM     18  C   UNL     1     -17.677  11.882  -3.059  1.00  0.00    -0.000 C 
BRANCH  18  19
ATOM     19  C   UNL     1     -16.434  11.794  -2.160  1.00  0.00    -0.003 C 
ATOM     20  C   UNL     1     -15.160  11.484  -2.945  1.00  0.00     0.004 C 
ENDBRANCH  18  19
ENDBRANCH  17  18
ENDBRANCH  16  17
ENDBRANCH  15  16
ENDBRANCH  14  15
ENDBRANCH  13  14
ENDBRANCH  12  13
ENDBRANCH   1  12
TORSDOF 16
ENDMDL
MODEL 4
REMARK VINA RESULT:    -2.885     15.267     17.454
REMARK INTER + INTRA:          -7.848
REMARK INTER:                  -6.352
REMARK INTRA:                  -1.495
REMARK UNBOUND:                -2.263
REMARK SMILES CCCCCCCCCCCCCCCCCC(=O)[O-]
REMARK SMILES IDX 10 1 11 2 12 3 13 4 14 5 15 6 16 7 17 8 18 9 19 10 20 11
REMARK SMILES IDX 9 12 8 13 7 14 6 15 5 16 4 17 3 18 2 19 1 20
REMARK H PARENT
REMARK Flexibility Score: inf
ROOT
ATOM      1  C   UNL     1     -15.792   9.713   3.776  1.00  0.00     0.000 C 
ENDROOT
BRANCH   1   2
ATOM      2  C   UNL     1     -14.340   9.201   3.817  1.00  0.00     0.000 C 
BRANCH   2   3
ATOM      3  C   UNL     1     -13.281  10.248   4.213  1.00  0.00     0.000 C 
BRANCH   3   4
ATOM      4  C   UNL     1     -12.490   9.856   5.473  1.00  0.00     0.000 C 
BRANCH   4   5
ATOM      5  C   UNL     1     -13.333   9.047   6.473  1.00  0.00     0.000 C 
BRANCH   5   6
ATOM      6  C   UNL     1     -14.143   9.937   7.428  1.00  0.00     0.000 C 
BRANCH   6   7
ATOM      7  C   UNL     1     -15.526   9.326   7.704  1.00  0.00     0.006 C 
BRANCH   7   8
ATOM      8  C   UNL     1     -16.612  10.398   7.873  1.00  0.00     0.053 C 
BRANCH   8   9
ATOM      9  C   UNL     1     -17.560  10.060   8.985  1.00  0.00     0.041 C 
ATOM     10  O   UNL     1     -18.442   9.178   8.819  1.00  0.00    -0.550 OA
ATOM     11  O   UNL     1     -17.485  10.743  10.193  1.00  0.00    -0.550 OA
ENDBRANCH   8   9
ENDBRANCH   7   8
ENDBRANCH   6   7
ENDBRANCH   5   6
ENDBRANCH   4   5
ENDBRANCH   3   4
ENDBRANCH   2   3
ENDBRANCH   1   2
BRANCH   1  12
ATOM     12  C   UNL     1     -15.949  11.124   4.365  1.00  0.00     0.000 C 
BRANCH  12  13
ATOM     13  C   UNL     1     -17.263  11.798   3.936  1.00  0.00    -0.000 C 
BRANCH  13  14
ATOM     14  C   UNL     1     -18.057  10.960   2.919  1.00  0.00    -0.000 C 
BRANCH  14  15
ATOM     15  C   UNL     1     -19.266  11.719   2.349  1.00  0.00    -0.000 C 
BRANCH  15  16
ATOM     16  C   UNL     1     -18.931  13.176   1.985  1.00  0.00    -0.000 C 
BRANCH  16  17
ATOM     17  C   UNL     1     -19.590  13.619   0.669  1.00  0.00    -0.000 C 
BRANCH  17  18
ATOM     18  C   UNL     1     -18.593  14.296  -0.290  1.00  0.00    -0.000 C 
BRANCH  18  19
ATOM     19  C   UNL     1     -19.057  15.692  -0.732  1.00  0.00    -0.003 C 
ATOM     20  C   UNL     1     -19.812  15.668  -2.061  1.00  0.00     0.004 C 
ENDBRANCH  18  19
ENDBRANCH  17  18
ENDBRANCH  16  17
ENDBRANCH  15  16
ENDBRANCH  14  15
ENDBRANCH  13  14
ENDBRANCH  12  13
ENDBRANCH   1  12
TORSDOF 16
ENDMDL
MODEL 5
REMARK VINA RESULT:    -2.881     17.585     19.584
REMARK INTER + INTRA:          -7.840
REMARK INTER:                  -5.709
REMARK INTRA:                  -2.131
REMARK UNBOUND:                -2.263
REMARK SMILES CCCCCCCCCCCCCCCCCC(=O)[O-]
REMARK SMILES IDX 10 1 11 2 12 3 13 4 14 5 15 6 16 7 17 8 18 9 19 10 20 11
REMARK SMILES IDX 9 12 8 13 7 14 6 15 5 16 4 17 3 18 2 19 1 20
REMARK H PARENT
REMARK Flexibility Score: inf
ROOT
ATOM      1  C   UNL     1     -18.601  14.515  -0.364  1.00  0.00     0.000 C 
ENDROOT
BRANCH   1   2
ATOM      2  C   UNL     1     -19.489  14.276   0.871  1.00  0.00     0.000 C 
BRANCH   2   3
ATOM      3  C   UNL     1     -19.823  12.801   1.168  1.00  0.00     0.000 C 
BRANCH   3   4
ATOM      4  C   UNL     1     -19.042  12.237   2.367  1.00  0.00     0.000 C 
BRANCH   4   5
ATOM      5  C   UNL     1     -18.901  10.707   2.315  1.00  0.00     0.000 C 
BRANCH   5   6
ATOM      6  C   UNL     1     -17.489  10.225   2.682  1.00  0.00     0.000 C 
BRANCH   6   7
ATOM      7  C   UNL     1     -17.240  10.361   4.192  1.00  0.00     0.006 C 
BRANCH   7   8
ATOM      8  C   UNL     1     -16.231  11.471   4.518  1.00  0.00     0.053 C 
BRANCH   8   9
ATOM      9  C   UNL     1     -15.839  11.459   5.965  1.00  0.00     0.041 C 
ATOM     10  O   UNL     1     -16.676  11.128   6.846  1.00  0.00    -0.550 OA
ATOM     11  O   UNL     1     -14.557  11.843   6.341  1.00  0.00    -0.550 OA
ENDBRANCH   8   9
ENDBRANCH   7   8
ENDBRANCH   6   7
ENDBRANCH   5   6
ENDBRANCH   4   5
ENDBRANCH   3   4
ENDBRANCH   2   3
ENDBRANCH   1   2
BRANCH   1  12
ATOM     12  C   UNL     1     -19.327  14.239  -1.691  1.00  0.00     0.000 C 
BRANCH  12  13
ATOM     13  C   UNL     1     -18.708  13.066  -2.469  1.00  0.00    -0.000 C 
BRANCH  13  14
ATOM     14  C   UNL     1     -19.583  11.801  -2.434  1.00  0.00    -0.000 C 
BRANCH  14  15
ATOM     15  C   UNL     1     -18.876  10.616  -1.756  1.00  0.00    -0.000 C 
BRANCH  15  16
ATOM     16  C   UNL     1     -17.527  11.012  -1.131  1.00  0.00    -0.000 C 
BRANCH  16  17
ATOM     17  C   UNL     1     -16.463   9.914  -1.286  1.00  0.00    -0.000 C 
BRANCH  17  18
ATOM     18  C   UNL     1     -15.496  10.192  -2.451  1.00  0.00    -0.000 C 
BRANCH  18  19
ATOM     19  C   UNL     1     -15.245  11.693  -2.663  1.00  0.00    -0.003 C 
ATOM     20  C   UNL     1     -15.440  12.123  -4.117  1.00  0.00     0.004 C 
ENDBRANCH  18  19
ENDBRANCH  17  18
ENDBRANCH  16  17
ENDBRANCH  15  16
ENDBRANCH  14  15
ENDBRANCH  13  14
ENDBRANCH  12  13
ENDBRANCH   1  12
TORSDOF 16
ENDMDL
MODEL 6
REMARK VINA RESULT:    -2.869     16.616     18.533
REMARK INTER + INTRA:          -7.816
REMARK INTER:                  -6.337
REMARK INTRA:                  -1.479
REMARK UNBOUND:                -2.263
REMARK SMILES CCCCCCCCCCCCCCCCCC(=O)[O-]
REMARK SMILES IDX 10 1 11 2 12 3 13 4 14 5 15 6 16 7 17 8 18 9 19 10 20 11
REMARK SMILES IDX 9 12 8 13 7 14 6 15 5 16 4 17 3 18 2 19 1 20
REMARK H PARENT
REMARK Flexibility Score: inf
ROOT
ATOM      1  C   UNL     1     -18.337  12.030   3.055  1.00  0.00     0.000 C 
ENDROOT
BRANCH   1   2
ATOM      2  C   UNL     1     -19.187  12.436   1.836  1.00  0.00     0.000 C 
BRANCH   2   3
ATOM      3  C   UNL     1     -19.043  13.903   1.390  1.00  0.00     0.000 C 
BRANCH   3   4
ATOM      4  C   UNL     1     -19.971  14.270   0.220  1.00  0.00     0.000 C 
BRANCH   4   5
ATOM      5  C   UNL     1     -19.216  14.916  -0.954  1.00  0.00     0.000 C 
BRANCH   5   6
ATOM      6  C   UNL     1     -19.510  14.235  -2.299  1.00  0.00     0.000 C 
BRANCH   6   7
ATOM      7  C   UNL     1     -18.342  13.329  -2.721  1.00  0.00     0.006 C 
BRANCH   7   8
ATOM      8  C   UNL     1     -18.516  11.887  -2.224  1.00  0.00     0.053 C 
BRANCH   8   9
ATOM      9  C   UNL     1     -17.283  11.384  -1.534  1.00  0.00     0.041 C 
ATOM     10  O   UNL     1     -16.143  11.669  -1.987  1.00  0.00    -0.550 OA
ATOM     11  O   UNL     1     -17.397  10.575  -0.409  1.00  0.00    -0.550 OA
ENDBRANCH   8   9
ENDBRANCH   7   8
ENDBRANCH   6   7
ENDBRANCH   5   6
ENDBRANCH   4   5
ENDBRANCH   3   4
ENDBRANCH   2   3
ENDBRANCH   1   2
BRANCH   1  12
ATOM     12  C   UNL     1     -17.908  10.553   3.026  1.00  0.00     0.000 C 
BRANCH  12  13
ATOM     13  C   UNL     1     -16.771  10.250   4.015  1.00  0.00    -0.000 C 
BRANCH  13  14
ATOM     14  C   UNL     1     -16.146  11.524   4.610  1.00  0.00    -0.000 C 
BRANCH  14  15
ATOM     15  C   UNL     1     -15.865  11.392   6.116  1.00  0.00    -0.000 C 
BRANCH  15  16
ATOM     16  C   UNL     1     -14.362  11.416   6.441  1.00  0.00    -0.000 C 
BRANCH  16  17
ATOM     17  C   UNL     1     -13.814  10.024   6.796  1.00  0.00    -0.000 C 
BRANCH  17  18
ATOM     18  C   UNL     1     -12.617   9.621   5.918  1.00  0.00    -0.000 C 
BRANCH  18  19
ATOM     19  C   UNL     1     -12.620  10.329   4.555  1.00  0.00    -0.003 C 
ATOM     20  C   UNL     1     -13.040   9.404   3.412  1.00  0.00     0.004 C 
ENDBRANCH  18  19
ENDBRANCH  17  18
ENDBRANCH  16  17
ENDBRANCH  15  16
ENDBRANCH  14  15
ENDBRANCH  13  14
ENDBRANCH  12  13
ENDBRANCH   1  12
TORSDOF 16
ENDMDL
MODEL 7
REMARK VINA RESULT:    -2.860     17.215     19.390
REMARK INTER + INTRA:          -7.799
REMARK INTER:                  -6.252
REMARK INTRA:                  -1.547
REMARK UNBOUND:                -2.263
REMARK SMILES CCCCCCCCCCCCCCCCCC(=O)[O-]
REMARK SMILES IDX 10 1 11 2 12 3 13 4 14 5 15 6 16 7 17 8 18 9 19 10 20 11
REMARK SMILES IDX 9 12 8 13 7 14 6 15 5 16 4 17 3 18 2 19 1 20
REMARK H PARENT
REMARK Flexibility Score: inf
ROOT
ATOM      1  C   UNL     1     -18.990  14.139   1.143  1.00  0.00     0.000 C 
ENDROOT
BRANCH   1   2
ATOM      2  C   UNL     1     -19.753  12.801   1.143  1.00  0.00     0.000 C 
BRANCH   2   3
ATOM      3  C   UNL     1     -19.174  11.711   2.064  1.00  0.00     0.000 C 
BRANCH   3   4
ATOM      4  C   UNL     1     -18.726  10.453   1.300  1.00  0.00     0.000 C 
BRANCH   4   5
ATOM      5  C   UNL     1     -17.376   9.908   1.797  1.00  0.00     0.000 C 
BRANCH   5   6
ATOM      6  C   UNL     1     -17.365   9.631   3.308  1.00  0.00     0.000 C 
BRANCH   6   7
ATOM      7  C   UNL     1     -16.078  10.171   3.953  1.00  0.00     0.006 C 
BRANCH   7   8
ATOM      8  C   UNL     1     -16.302  11.515   4.661  1.00  0.00     0.053 C 
BRANCH   8   9
ATOM      9  C   UNL     1     -15.652  11.547   6.012  1.00  0.00     0.041 C 
ATOM     10  O   UNL     1     -14.410  11.727   6.113  1.00  0.00    -0.550 OA
ATOM     11  O   UNL     1     -16.415  11.348   7.156  1.00  0.00    -0.550 OA
ENDBRANCH   8   9
ENDBRANCH   7   8
ENDBRANCH   6   7
ENDBRANCH   5   6
ENDBRANCH   4   5
ENDBRANCH   3   4
ENDBRANCH   2   3
ENDBRANCH   1   2
BRANCH   1  12
ATOM     12  C   UNL     1     -19.093  14.892  -0.194  1.00  0.00     0.000 C 
BRANCH  12  13
ATOM     13  C   UNL     1     -19.816  14.073  -1.276  1.00  0.00    -0.000 C 
BRANCH  13  14
ATOM     14  C   UNL     1     -18.898  13.703  -2.454  1.00  0.00    -0.000 C 
BRANCH  14  15
ATOM     15  C   UNL     1     -18.523  12.212  -2.460  1.00  0.00    -0.000 C 
BRANCH  15  16
ATOM     16  C   UNL     1     -17.200  11.932  -1.724  1.00  0.00    -0.000 C 
BRANCH  16  17
ATOM     17  C   UNL     1     -16.295  10.957  -2.494  1.00  0.00    -0.000 C 
BRANCH  17  18
ATOM     18  C   UNL     1     -14.923  11.568  -2.830  1.00  0.00    -0.000 C 
BRANCH  18  19
ATOM     19  C   UNL     1     -13.790  10.531  -2.796  1.00  0.00    -0.003 C 
ATOM     20  C   UNL     1     -13.034  10.440  -4.121  1.00  0.00     0.004 C 
ENDBRANCH  18  19
ENDBRANCH  17  18
ENDBRANCH  16  17
ENDBRANCH  15  16
ENDBRANCH  14  15
ENDBRANCH  13  14
ENDBRANCH  12  13
ENDBRANCH   1  12
TORSDOF 16
ENDMDL
MODEL 8
REMARK VINA RESULT:    -2.834     15.043     17.273
REMARK INTER + INTRA:          -7.749
REMARK INTER:                  -6.034
REMARK INTRA:                  -1.715
REMARK UNBOUND:                -2.263
REMARK SMILES CCCCCCCCCCCCCCCCCC(=O)[O-]
REMARK SMILES IDX 10 1 11 2 12 3 13 4 14 5 15 6 16 7 17 8 18 9 19 10 20 11
REMARK SMILES IDX 9 12 8 13 7 14 6 15 5 16 4 17 3 18 2 19 1 20
REMARK H PARENT
REMARK Flexibility Score: inf
ROOT
ATOM      1  C   UNL     1     -16.003  11.068   4.434  1.00  0.00     0.000 C 
ENDROOT
BRANCH   1   2
ATOM      2  C   UNL     1     -15.896   9.685   3.764  1.00  0.00     0.000 C 
BRANCH   2   3
ATOM      3  C   UNL     1     -14.461   9.174   3.531  1.00  0.00     0.000 C 
BRANCH   3   4
ATOM      4  C   UNL     1     -13.385  10.173   3.988  1.00  0.00     0.000 C 
BRANCH   4   5
ATOM      5  C   UNL     1     -12.536   9.636   5.152  1.00  0.00     0.000 C 
BRANCH   5   6
ATOM      6  C   UNL     1     -13.025  10.126   6.524  1.00  0.00     0.000 C 
BRANCH   6   7
ATOM      7  C   UNL     1     -13.698   8.986   7.304  1.00  0.00     0.006 C 
BRANCH   7   8
ATOM      8  C   UNL     1     -15.213   9.193   7.446  1.00  0.00     0.053 C 
BRANCH   8   9
ATOM      9  C   UNL     1     -15.600   9.514   8.859  1.00  0.00     0.041 C 
ATOM     10  O   UNL     1     -14.875   9.135   9.816  1.00  0.00    -0.550 OA
ATOM     11  O   UNL     1     -16.778  10.205   9.116  1.00  0.00    -0.550 OA
ENDBRANCH   8   9
ENDBRANCH   7   8
ENDBRANCH   6   7
ENDBRANCH   5   6
ENDBRANCH   4   5
ENDBRANCH   3   4
ENDBRANCH   2   3
ENDBRANCH   1   2
BRANCH   1  12
ATOM     12  C   UNL     1     -17.189  11.898   3.914  1.00  0.00     0.000 C 
BRANCH  12  13
ATOM     13  C   UNL     1     -18.215  11.046   3.150  1.00  0.00    -0.000 C 
BRANCH  13  14
ATOM     14  C   UNL     1     -19.070  11.876   2.177  1.00  0.00    -0.000 C 
BRANCH  14  15
ATOM     15  C   UNL     1     -18.840  11.482   0.709  1.00  0.00    -0.000 C 
BRANCH  15  16
ATOM     16  C   UNL     1     -17.842  10.320   0.559  1.00  0.00    -0.000 C 
BRANCH  16  17
ATOM     17  C   UNL     1     -17.172  10.296  -0.825  1.00  0.00    -0.000 C 
BRANCH  17  18
ATOM     18  C   UNL     1     -17.871  11.224  -1.833  1.00  0.00    -0.000 C 
BRANCH  18  19
ATOM     19  C   UNL     1     -16.875  11.988  -2.720  1.00  0.00    -0.003 C 
ATOM     20  C   UNL     1     -15.438  11.498  -2.548  1.00  0.00     0.004 C 
ENDBRANCH  18  19
ENDBRANCH  17  18
ENDBRANCH  16  17
ENDBRANCH  15  16
ENDBRANCH  14  15
ENDBRANCH  13  14
ENDBRANCH  12  13
ENDBRANCH   1  12
TORSDOF 16
ENDMDL
MODEL 9
REMARK VINA RESULT:    -0.392      2.902      7.576
REMARK INTER + INTRA:          -3.021
REMARK INTER:                  -2.048
REMARK INTRA:                  -0.974
REMARK UNBOUND:                -2.263
REMARK SMILES CCCCCCCCCCCCCCCCCC(=O)[O-]
REMARK SMILES IDX 10 1 11 2 12 3 13 4 14 5 15 6 16 7 17 8 18 9 19 10 20 11
REMARK SMILES IDX 9 12 8 13 7 14 6 15 5 16 4 17 3 18 2 19 1 20
REMARK H PARENT
REMARK Flexibility Score: inf
ROOT
ATOM      1  C   UNL     1      -1.499  15.684  11.761  1.00  0.00     0.000 C 
ENDROOT
BRANCH   1   2
ATOM      2  C   UNL     1      -1.098  14.253  12.165  1.00  0.00     0.000 C 
BRANCH   2   3
ATOM      3  C   UNL     1       0.125  13.676  11.425  1.00  0.00     0.000 C 
BRANCH   3   4
ATOM      4  C   UNL     1      -0.152  12.307  10.782  1.00  0.00     0.000 C 
BRANCH   4   5
ATOM      5  C   UNL     1      -1.609  12.155  10.316  1.00  0.00     0.000 C 
BRANCH   5   6
ATOM      6  C   UNL     1      -2.095  10.698  10.341  1.00  0.00     0.000 C 
BRANCH   6   7
ATOM      7  C   UNL     1      -3.221  10.515  11.371  1.00  0.00     0.006 C 
BRANCH   7   8
ATOM      8  C   UNL     1      -2.893  11.177  12.716  1.00  0.00     0.053 C 
BRANCH   8   9
ATOM      9  C   UNL     1      -4.036  12.006  13.222  1.00  0.00     0.041 C 
ATOM     10  O   UNL     1      -5.045  12.204  12.495  1.00  0.00    -0.550 OA
ATOM     11  O   UNL     1      -3.971  12.583  14.484  1.00  0.00    -0.550 OA
ENDBRANCH   8   9
ENDBRANCH   7   8
ENDBRANCH   6   7
ENDBRANCH   5   6
ENDBRANCH   4   5
ENDBRANCH   3   4
ENDBRANCH   2   3
ENDBRANCH   1   2
BRANCH   1  12
ATOM     12  C   UNL     1      -2.129  16.481  12.916  1.00  0.00     0.000 C 
BRANCH  12  13
ATOM     13  C   UNL     1      -2.250  17.980  12.599  1.00  0.00    -0.000 C 
BRANCH  13  14
ATOM     14  C   UNL     1      -3.553  18.598  13.135  1.00  0.00    -0.000 C 
BRANCH  14  15
ATOM     15  C   UNL     1      -4.012  17.950  14.451  1.00  0.00    -0.000 C 
BRANCH  15  16
ATOM     16  C   UNL     1      -5.426  18.394  14.866  1.00  0.00    -0.000 C 
BRANCH  16  17
ATOM     17  C   UNL     1      -5.696  19.873  14.546  1.00  0.00    -0.000 C 
BRANCH  17  18
ATOM     18  C   UNL     1      -7.037  20.364  15.119  1.00  0.00    -0.000 C 
BRANCH  18  19
ATOM     19  C   UNL     1      -7.886  21.109  14.077  1.00  0.00    -0.003 C 
ATOM     20  C   UNL     1      -9.366  21.166  14.454  1.00  0.00     0.004 C 
ENDBRANCH  18  19
ENDBRANCH  17  18
ENDBRANCH  16  17
ENDBRANCH  15  16
ENDBRANCH  14  15
ENDBRANCH  13  14
ENDBRANCH  12  13
ENDBRANCH   1  12
TORSDOF 16
ENDMDL
