MODEL 1
REMARK VINA RESULT:    -3.727      0.000      0.000
REMARK INTER + INTRA:          -9.500
REMARK INTER:                  -6.777
REMARK INTRA:                  -2.723
REMARK UNBOUND:                -2.723
REMARK SMILES CCCCCCCCCCCCCCCC(=O)[O-]
REMARK SMILES IDX 9 1 10 2 11 3 12 4 13 5 14 6 15 7 16 8 17 9 18 10 8 11 7 12
REMARK SMILES IDX 6 13 5 14 4 15 3 16 2 17 1 18
REMARK H PARENT
REMARK Flexibility Score: inf
ROOT
ATOM      1  C   UNL     1       8.315  27.387  27.439  1.00  0.00     0.000 C 
ENDROOT
BRANCH   1   2
ATOM      2  C   UNL     1       7.993  27.278  25.943  1.00  0.00     0.000 C 
BRANCH   2   3
ATOM      3  C   UNL     1       8.282  28.603  25.222  1.00  0.00     0.000 C 
BRANCH   3   4
ATOM      4  C   UNL     1       9.234  29.515  26.012  1.00  0.00     0.000 C 
BRANCH   4   5
ATOM      5  C   UNL     1       9.334  30.927  25.409  1.00  0.00     0.000 C 
BRANCH   5   6
ATOM      6  C   UNL     1       9.581  32.008  26.475  1.00  0.00     0.006 C 
BRANCH   6   7
ATOM      7  C   UNL     1       9.987  31.419  27.833  1.00  0.00     0.053 C 
BRANCH   7   8
ATOM      8  C   UNL     1      10.815  32.403  28.600  1.00  0.00     0.041 C 
ATOM      9  O   UNL     1      10.352  33.541  28.876  1.00  0.00    -0.550 OA
ATOM     10  O   UNL     1      12.079  32.045  29.051  1.00  0.00    -0.550 OA
ENDBRANCH   7   8
ENDBRANCH   6   7
ENDBRANCH   5   6
ENDBRANCH   4   5
ENDBRANCH   3   4
ENDBRANCH   2   3
ENDBRANCH   1   2
BRANCH   1  11
ATOM     11  C   UNL     1       7.178  26.809  28.291  1.00  0.00     0.000 C 
BRANCH  11  12
ATOM     12  C   UNL     1       6.645  27.853  29.279  1.00  0.00    -0.000 C 
BRANCH  12  13
ATOM     13  C   UNL     1       7.486  29.138  29.229  1.00  0.00    -0.000 C 
BRANCH  13  14
ATOM     14  C   UNL     1       6.632  30.404  29.060  1.00  0.00    -0.000 C 
BRANCH  14  15
ATOM     15  C   UNL     1       5.361  30.155  28.228  1.00  0.00    -0.000 C 
BRANCH  15  16
ATOM     16  C   UNL     1       5.518  30.602  26.765  1.00  0.00    -0.000 C 
BRANCH  16  17
ATOM     17  C   UNL     1       4.875  29.621  25.773  1.00  0.00    -0.003 C 
ATOM     18  C   UNL     1       4.232  28.446  26.502  1.00  0.00     0.004 C 
ENDBRANCH  16  17
ENDBRANCH  15  16
ENDBRANCH  14  15
ENDBRANCH  13  14
ENDBRANCH  12  13
ENDBRANCH  11  12
ENDBRANCH   1  11
TORSDOF 14
ENDMDL
MODEL 2
REMARK VINA RESULT:    -3.599      1.403      3.012
REMARK INTER + INTRA:          -9.268
REMARK INTER:                  -6.607
REMARK INTRA:                  -2.661
REMARK UNBOUND:                -2.723
REMARK SMILES CCCCCCCCCCCCCCCC(=O)[O-]
REMARK SMILES IDX 9 1 10 2 11 3 12 4 13 5 14 6 15 7 16 8 17 9 18 10 8 11 7 12
REMARK SMILES IDX 6 13 5 14 4 15 3 16 2 17 1 18
REMARK H PARENT
REMARK Flexibility Score: inf
ROOT
ATOM      1  C   UNL     1       6.624  26.982  29.766  1.00  0.00     0.000 C 
ENDROOT
BRANCH   1   2
ATOM      2  C   UNL     1       5.480  27.844  30.317  1.00  0.00     0.000 C 
BRANCH   2   3
ATOM      3  C   UNL     1       5.877  29.327  30.350  1.00  0.00     0.000 C 
BRANCH   3   4
ATOM      4  C   UNL     1       7.393  29.533  30.493  1.00  0.00     0.000 C 
BRANCH   4   5
ATOM      5  C   UNL     1       7.913  30.703  29.639  1.00  0.00     0.000 C 
BRANCH   5   6
ATOM      6  C   UNL     1       9.447  30.805  29.648  1.00  0.00     0.006 C 
BRANCH   6   7
ATOM      7  C   UNL     1      10.037  30.987  28.243  1.00  0.00     0.053 C 
BRANCH   7   8
ATOM      8  C   UNL     1      10.775  32.285  28.153  1.00  0.00     0.041 C 
ATOM      9  O   UNL     1      10.459  33.247  28.901  1.00  0.00    -0.550 OA
ATOM     10  O   UNL     1      11.843  32.418  27.274  1.00  0.00    -0.550 OA
ENDBRANCH   7   8
ENDBRANCH   6   7
ENDBRANCH   5   6
ENDBRANCH   4   5
ENDBRANCH   3   4
ENDBRANCH   2   3
ENDBRANCH   1   2
BRANCH   1  11
ATOM     11  C   UNL     1       6.136  26.086  28.621  1.00  0.00     0.000 C 
BRANCH  11  12
ATOM     12  C   UNL     1       7.021  26.248  27.380  1.00  0.00    -0.000 C 
BRANCH  12  13
ATOM     13  C   UNL     1       8.107  27.309  27.613  1.00  0.00    -0.000 C 
BRANCH  13  14
ATOM     14  C   UNL     1       8.043  28.462  26.599  1.00  0.00    -0.000 C 
BRANCH  14  15
ATOM     15  C   UNL     1       6.600  28.854  26.238  1.00  0.00    -0.000 C 
BRANCH  15  16
ATOM     16  C   UNL     1       6.310  30.340  26.503  1.00  0.00    -0.000 C 
BRANCH  16  17
ATOM     17  C   UNL     1       4.863  30.591  26.954  1.00  0.00    -0.003 C 
ATOM     18  C   UNL     1       4.074  29.287  27.017  1.00  0.00     0.004 C 
ENDBRANCH  16  17
ENDBRANCH  15  16
ENDBRANCH  14  15
ENDBRANCH  13  14
ENDBRANCH  12  13
ENDBRANCH  11  12
ENDBRANCH   1  11
TORSDOF 14
ENDMDL
MODEL 3
REMARK VINA RESULT:    -3.593      1.349      3.743
REMARK INTER + INTRA:          -9.258
REMARK INTER:                  -6.696
REMARK INTRA:                  -2.562
REMARK UNBOUND:                -2.723
REMARK SMILES CCCCCCCCCCCCCCCC(=O)[O-]
REMARK SMILES IDX 9 1 10 2 11 3 12 4 13 5 14 6 15 7 16 8 17 9 18 10 8 11 7 12
REMARK SMILES IDX 6 13 5 14 4 15 3 16 2 17 1 18
REMARK H PARENT
REMARK Flexibility Score: inf
ROOT
ATOM      1  C   UNL     1       4.924  30.129  26.640  1.00  0.00     0.000 C 
ENDROOT
BRANCH   1   2
ATOM      2  C   UNL     1       6.380  30.561  26.852  1.00  0.00     0.000 C 
BRANCH   2   3
ATOM      3  C   UNL     1       6.862  30.194  28.263  1.00  0.00     0.000 C 
BRANCH   3   4
ATOM      4  C   UNL     1       8.393  30.227  28.396  1.00  0.00     0.000 C 
BRANCH   4   5
ATOM      5  C   UNL     1       9.086  30.710  27.111  1.00  0.00     0.000 C 
BRANCH   5   6
ATOM      6  C   UNL     1      10.487  30.101  26.931  1.00  0.00     0.006 C 
BRANCH   6   7
ATOM      7  C   UNL     1      11.169  29.778  28.267  1.00  0.00     0.053 C 
BRANCH   7   8
ATOM      8  C   UNL     1      12.105  30.879  28.654  1.00  0.00     0.041 C 
ATOM      9  O   UNL     1      13.323  30.813  28.344  1.00  0.00    -0.550 OA
ATOM     10  O   UNL     1      11.623  32.002  29.316  1.00  0.00    -0.550 OA
ENDBRANCH   7   8
ENDBRANCH   6   7
ENDBRANCH   5   6
ENDBRANCH   4   5
ENDBRANCH   3   4
ENDBRANCH   2   3
ENDBRANCH   1   2
BRANCH   1  11
ATOM     11  C   UNL     1       4.832  28.973  25.636  1.00  0.00     0.000 C 
BRANCH  11  12
ATOM     12  C   UNL     1       6.190  28.709  24.975  1.00  0.00    -0.000 C 
BRANCH  12  13
ATOM     13  C   UNL     1       6.692  27.293  25.295  1.00  0.00    -0.000 C 
BRANCH  13  14
ATOM     14  C   UNL     1       8.206  27.242  25.556  1.00  0.00    -0.000 C 
BRANCH  14  15
ATOM     15  C   UNL     1       8.544  26.915  27.021  1.00  0.00    -0.000 C 
BRANCH  15  16
ATOM     16  C   UNL     1       7.577  25.889  27.634  1.00  0.00    -0.000 C 
BRANCH  16  17
ATOM     17  C   UNL     1       6.959  26.372  28.954  1.00  0.00    -0.003 C 
ATOM     18  C   UNL     1       5.497  26.763  28.766  1.00  0.00     0.004 C 
ENDBRANCH  16  17
ENDBRANCH  15  16
ENDBRANCH  14  15
ENDBRANCH  13  14
ENDBRANCH  12  13
ENDBRANCH  11  12
ENDBRANCH   1  11
TORSDOF 14
ENDMDL
MODEL 4
REMARK VINA RESULT:    -3.589      1.797      3.038
REMARK INTER + INTRA:          -9.250
REMARK INTER:                  -6.866
REMARK INTRA:                  -2.384
REMARK UNBOUND:                -2.723
REMARK SMILES CCCCCCCCCCCCCCCC(=O)[O-]
REMARK SMILES IDX 9 1 10 2 11 3 12 4 13 5 14 6 15 7 16 8 17 9 18 10 8 11 7 12
REMARK SMILES IDX 6 13 5 14 4 15 3 16 2 17 1 18
REMARK H PARENT
REMARK Flexibility Score: inf
ROOT
ATOM      1  C   UNL     1       7.976  28.117  24.696  1.00  0.00     0.000 C 
ENDROOT
BRANCH   1   2
ATOM      2  C   UNL     1       9.053  29.110  24.242  1.00  0.00     0.000 C 
BRANCH   2   3
ATOM      3  C   UNL     1       9.502  30.004  25.408  1.00  0.00     0.000 C 
BRANCH   3   4
ATOM      4  C   UNL     1       8.539  29.949  26.604  1.00  0.00     0.000 C 
BRANCH   4   5
ATOM      5  C   UNL     1       9.261  29.653  27.930  1.00  0.00     0.000 C 
BRANCH   5   6
ATOM      6  C   UNL     1      10.762  29.379  27.736  1.00  0.00     0.006 C 
BRANCH   6   7
ATOM      7  C   UNL     1      11.639  30.161  28.723  1.00  0.00     0.053 C 
BRANCH   7   8
ATOM      8  C   UNL     1      12.602  31.037  27.983  1.00  0.00     0.041 C 
ATOM      9  O   UNL     1      13.837  30.955  28.213  1.00  0.00    -0.550 OA
ATOM     10  O   UNL     1      12.139  31.909  27.006  1.00  0.00    -0.550 OA
ENDBRANCH   7   8
ENDBRANCH   6   7
ENDBRANCH   5   6
ENDBRANCH   4   5
ENDBRANCH   3   4
ENDBRANCH   2   3
ENDBRANCH   1   2
BRANCH   1  11
ATOM     11  C   UNL     1       8.476  26.671  24.581  1.00  0.00     0.000 C 
BRANCH  11  12
ATOM     12  C   UNL     1       7.913  25.802  25.712  1.00  0.00    -0.000 C 
BRANCH  12  13
ATOM     13  C   UNL     1       8.601  26.124  27.047  1.00  0.00    -0.000 C 
BRANCH  13  14
ATOM     14  C   UNL     1       7.603  26.320  28.200  1.00  0.00    -0.000 C 
BRANCH  14  15
ATOM     15  C   UNL     1       6.163  26.541  27.706  1.00  0.00    -0.000 C 
BRANCH  15  16
ATOM     16  C   UNL     1       5.716  28.007  27.829  1.00  0.00    -0.000 C 
BRANCH  16  17
ATOM     17  C   UNL     1       4.519  28.340  26.927  1.00  0.00    -0.003 C 
ATOM     18  C   UNL     1       4.828  29.525  26.018  1.00  0.00     0.004 C 
ENDBRANCH  16  17
ENDBRANCH  15  16
ENDBRANCH  14  15
ENDBRANCH  13  14
ENDBRANCH  12  13
ENDBRANCH  11  12
ENDBRANCH   1  11
TORSDOF 14
ENDMDL
MODEL 5
REMARK VINA RESULT:    -3.583      1.738      3.297
REMARK INTER + INTRA:          -9.239
REMARK INTER:                  -6.529
REMARK INTRA:                  -2.711
REMARK UNBOUND:                -2.723
REMARK SMILES CCCCCCCCCCCCCCCC(=O)[O-]
REMARK SMILES IDX 9 1 10 2 11 3 12 4 13 5 14 6 15 7 16 8 17 9 18 10 8 11 7 12
REMARK SMILES IDX 6 13 5 14 4 15 3 16 2 17 1 18
REMARK H PARENT
REMARK Flexibility Score: inf
ROOT
ATOM      1  C   UNL     1       4.909  27.669  24.593  1.00  0.00     0.000 C 
ENDROOT
BRANCH   1   2
ATOM      2  C   UNL     1       6.159  28.344  24.014  1.00  0.00     0.000 C 
BRANCH   2   3
ATOM      3  C   UNL     1       7.373  27.407  24.086  1.00  0.00     0.000 C 
BRANCH   3   4
ATOM      4  C   UNL     1       8.495  27.956  24.983  1.00  0.00     0.000 C 
BRANCH   4   5
ATOM      5  C   UNL     1       8.788  29.443  24.719  1.00  0.00     0.000 C 
BRANCH   5   6
ATOM      6  C   UNL     1       9.087  30.224  26.009  1.00  0.00     0.006 C 
BRANCH   6   7
ATOM      7  C   UNL     1       9.292  31.724  25.760  1.00  0.00     0.053 C 
BRANCH   7   8
ATOM      8  C   UNL     1      10.746  32.071  25.834  1.00  0.00     0.041 C 
ATOM      9  O   UNL     1      11.118  33.267  25.705  1.00  0.00    -0.550 OA
ATOM     10  O   UNL     1      11.685  31.081  26.093  1.00  0.00    -0.550 OA
ENDBRANCH   7   8
ENDBRANCH   6   7
ENDBRANCH   5   6
ENDBRANCH   4   5
ENDBRANCH   3   4
ENDBRANCH   2   3
ENDBRANCH   1   2
BRANCH   1  11
ATOM     11  C   UNL     1       4.372  28.447  25.801  1.00  0.00     0.000 C 
BRANCH  11  12
ATOM     12  C   UNL     1       5.151  29.751  26.007  1.00  0.00    -0.000 C 
BRANCH  12  13
ATOM     13  C   UNL     1       5.738  29.823  27.425  1.00  0.00    -0.000 C 
BRANCH  13  14
ATOM     14  C   UNL     1       5.804  28.451  28.114  1.00  0.00    -0.000 C 
BRANCH  14  15
ATOM     15  C   UNL     1       7.248  28.003  28.403  1.00  0.00    -0.000 C 
BRANCH  15  16
ATOM     16  C   UNL     1       7.395  26.473  28.429  1.00  0.00    -0.000 C 
BRANCH  16  17
ATOM     17  C   UNL     1       6.501  25.774  27.394  1.00  0.00    -0.003 C 
ATOM     18  C   UNL     1       7.282  24.720  26.615  1.00  0.00     0.004 C 
ENDBRANCH  16  17
ENDBRANCH  15  16
ENDBRANCH  14  15
ENDBRANCH  13  14
ENDBRANCH  12  13
ENDBRANCH  11  12
ENDBRANCH   1  11
TORSDOF 14
ENDMDL
MODEL 6
REMARK VINA RESULT:    -3.572      2.446      3.857
REMARK INTER + INTRA:          -9.218
REMARK INTER:                  -7.271
REMARK INTRA:                  -1.947
REMARK UNBOUND:                -2.723
REMARK SMILES CCCCCCCCCCCCCCCC(=O)[O-]
REMARK SMILES IDX 9 1 10 2 11 3 12 4 13 5 14 6 15 7 16 8 17 9 18 10 8 11 7 12
REMARK SMILES IDX 6 13 5 14 4 15 3 16 2 17 1 18
REMARK H PARENT
REMARK Flexibility Score: inf
ROOT
ATOM      1  C   UNL     1       8.878  29.675  28.125  1.00  0.00     0.000 C 
ENDROOT
BRANCH   1   2
ATOM      2  C   UNL     1      10.332  29.484  27.675  1.00  0.00     0.000 C 
BRANCH   2   3
ATOM      3  C   UNL     1      11.283  30.365  28.498  1.00  0.00     0.000 C 
BRANCH   3   4
ATOM      4  C   UNL     1      11.958  31.459  27.656  1.00  0.00     0.000 C 
BRANCH   4   5
ATOM      5  C   UNL     1      11.019  32.641  27.362  1.00  0.00     0.000 C 
BRANCH   5   6
ATOM      6  C   UNL     1      11.129  33.135  25.909  1.00  0.00     0.006 C 
BRANCH   6   7
ATOM      7  C   UNL     1      10.296  32.294  24.933  1.00  0.00     0.053 C 
BRANCH   7   8
ATOM      8  C   UNL     1      11.192  31.512  24.024  1.00  0.00     0.041 C 
ATOM      9  O   UNL     1      11.493  30.321  24.303  1.00  0.00    -0.550 OA
ATOM     10  O   UNL     1      11.657  32.082  22.846  1.00  0.00    -0.550 OA
ENDBRANCH   7   8
ENDBRANCH   6   7
ENDBRANCH   5   6
ENDBRANCH   4   5
ENDBRANCH   3   4
ENDBRANCH   2   3
ENDBRANCH   1   2
BRANCH   1  11
ATOM     11  C   UNL     1       8.024  30.261  26.994  1.00  0.00     0.000 C 
BRANCH  11  12
ATOM     12  C   UNL     1       8.101  29.388  25.736  1.00  0.00    -0.000 C 
BRANCH  12  13
ATOM     13  C   UNL     1       7.057  28.263  25.782  1.00  0.00    -0.000 C 
BRANCH  13  14
ATOM     14  C   UNL     1       6.085  28.302  24.592  1.00  0.00    -0.000 C 
BRANCH  14  15
ATOM     15  C   UNL     1       4.779  29.048  24.918  1.00  0.00    -0.000 C 
BRANCH  15  16
ATOM     16  C   UNL     1       4.382  28.919  26.398  1.00  0.00    -0.000 C 
BRANCH  16  17
ATOM     17  C   UNL     1       4.253  30.280  27.098  1.00  0.00    -0.003 C 
ATOM     18  C   UNL     1       4.632  30.178  28.572  1.00  0.00     0.004 C 
ENDBRANCH  16  17
ENDBRANCH  15  16
ENDBRANCH  14  15
ENDBRANCH  13  14
ENDBRANCH  12  13
ENDBRANCH  11  12
ENDBRANCH   1  11
TORSDOF 14
ENDMDL
MODEL 7
REMARK VINA RESULT:    -3.545      1.720      3.244
REMARK INTER + INTRA:          -9.170
REMARK INTER:                  -6.600
REMARK INTRA:                  -2.570
REMARK UNBOUND:                -2.723
REMARK SMILES CCCCCCCCCCCCCCCC(=O)[O-]
REMARK SMILES IDX 9 1 10 2 11 3 12 4 13 5 14 6 15 7 16 8 17 9 18 10 8 11 7 12
REMARK SMILES IDX 6 13 5 14 4 15 3 16 2 17 1 18
REMARK H PARENT
REMARK Flexibility Score: inf
ROOT
ATOM      1  C   UNL     1       6.277  27.758  29.164  1.00  0.00     0.000 C 
ENDROOT
BRANCH   1   2
ATOM      2  C   UNL     1       7.114  28.834  29.867  1.00  0.00     0.000 C 
BRANCH   2   3
ATOM      3  C   UNL     1       7.247  30.087  28.990  1.00  0.00     0.000 C 
BRANCH   3   4
ATOM      4  C   UNL     1       8.709  30.433  28.664  1.00  0.00     0.000 C 
BRANCH   4   5
ATOM      5  C   UNL     1       9.390  29.359  27.798  1.00  0.00     0.000 C 
BRANCH   5   6
ATOM      6  C   UNL     1       9.835  29.901  26.429  1.00  0.00     0.006 C 
BRANCH   6   7
ATOM      7  C   UNL     1       9.382  31.347  26.187  1.00  0.00     0.053 C 
BRANCH   7   8
ATOM      8  C   UNL     1      10.456  32.118  25.485  1.00  0.00     0.041 C 
ATOM      9  O   UNL     1      10.761  33.276  25.874  1.00  0.00    -0.550 OA
ATOM     10  O   UNL     1      11.151  31.540  24.430  1.00  0.00    -0.550 OA
ENDBRANCH   7   8
ENDBRANCH   6   7
ENDBRANCH   5   6
ENDBRANCH   4   5
ENDBRANCH   3   4
ENDBRANCH   2   3
ENDBRANCH   1   2
BRANCH   1  11
ATOM     11  C   UNL     1       7.010  26.410  29.150  1.00  0.00     0.000 C 
BRANCH  11  12
ATOM     12  C   UNL     1       6.930  25.754  27.767  1.00  0.00    -0.000 C 
BRANCH  12  13
ATOM     13  C   UNL     1       8.274  25.858  27.030  1.00  0.00    -0.000 C 
BRANCH  13  14
ATOM     14  C   UNL     1       8.161  26.587  25.682  1.00  0.00    -0.000 C 
BRANCH  14  15
ATOM     15  C   UNL     1       6.736  27.099  25.403  1.00  0.00    -0.000 C 
BRANCH  15  16
ATOM     16  C   UNL     1       6.704  28.600  25.072  1.00  0.00    -0.000 C 
BRANCH  16  17
ATOM     17  C   UNL     1       5.605  29.352  25.836  1.00  0.00    -0.003 C 
ATOM     18  C   UNL     1       4.375  28.473  26.036  1.00  0.00     0.004 C 
ENDBRANCH  16  17
ENDBRANCH  15  16
ENDBRANCH  14  15
ENDBRANCH  13  14
ENDBRANCH  12  13
ENDBRANCH  11  12
ENDBRANCH   1  11
TORSDOF 14
ENDMDL
MODEL 8
REMARK VINA RESULT:    -3.536      1.975      3.924
REMARK INTER + INTRA:          -9.154
REMARK INTER:                  -6.761
REMARK INTRA:                  -2.393
REMARK UNBOUND:                -2.723
REMARK SMILES CCCCCCCCCCCCCCCC(=O)[O-]
REMARK SMILES IDX 9 1 10 2 11 3 12 4 13 5 14 6 15 7 16 8 17 9 18 10 8 11 7 12
REMARK SMILES IDX 6 13 5 14 4 15 3 16 2 17 1 18
REMARK H PARENT
REMARK Flexibility Score: inf
ROOT
ATOM      1  C   UNL     1       4.375  28.667  26.046  1.00  0.00     0.000 C 
ENDROOT
BRANCH   1   2
ATOM      2  C   UNL     1       4.017  29.882  26.911  1.00  0.00     0.000 C 
BRANCH   2   3
ATOM      3  C   UNL     1       5.187  30.873  26.978  1.00  0.00     0.000 C 
BRANCH   3   4
ATOM      4  C   UNL     1       6.546  30.209  26.703  1.00  0.00     0.000 C 
BRANCH   4   5
ATOM      5  C   UNL     1       7.460  30.202  27.940  1.00  0.00     0.000 C 
BRANCH   5   6
ATOM      6  C   UNL     1       8.915  29.842  27.597  1.00  0.00     0.006 C 
BRANCH   6   7
ATOM      7  C   UNL     1       9.691  31.020  26.992  1.00  0.00     0.053 C 
BRANCH   7   8
ATOM      8  C   UNL     1      10.443  30.579  25.776  1.00  0.00     0.041 C 
ATOM      9  O   UNL     1       9.821  30.232  24.738  1.00  0.00    -0.550 OA
ATOM     10  O   UNL     1      11.833  30.595  25.773  1.00  0.00    -0.550 OA
ENDBRANCH   7   8
ENDBRANCH   6   7
ENDBRANCH   5   6
ENDBRANCH   4   5
ENDBRANCH   3   4
ENDBRANCH   2   3
ENDBRANCH   1   2
BRANCH   1  11
ATOM     11  C   UNL     1       4.025  27.357  26.762  1.00  0.00     0.000 C 
BRANCH  11  12
ATOM     12  C   UNL     1       4.420  27.416  28.242  1.00  0.00    -0.000 C 
BRANCH  12  13
ATOM     13  C   UNL     1       5.193  26.155  28.656  1.00  0.00    -0.000 C 
BRANCH  13  14
ATOM     14  C   UNL     1       6.621  26.460  29.134  1.00  0.00    -0.000 C 
BRANCH  14  15
ATOM     15  C   UNL     1       7.649  26.421  27.990  1.00  0.00    -0.000 C 
BRANCH  15  16
ATOM     16  C   UNL     1       7.419  25.241  27.031  1.00  0.00    -0.000 C 
BRANCH  16  17
ATOM     17  C   UNL     1       7.199  25.692  25.579  1.00  0.00    -0.003 C 
ATOM     18  C   UNL     1       7.868  27.037  25.315  1.00  0.00     0.004 C 
ENDBRANCH  16  17
ENDBRANCH  15  16
ENDBRANCH  14  15
ENDBRANCH  13  14
ENDBRANCH  12  13
ENDBRANCH  11  12
ENDBRANCH   1  11
TORSDOF 14
ENDMDL
MODEL 9
REMARK VINA RESULT:    -3.525      1.557      3.268
REMARK INTER + INTRA:          -9.132
REMARK INTER:                  -6.537
REMARK INTRA:                  -2.596
REMARK UNBOUND:                -2.723
REMARK SMILES CCCCCCCCCCCCCCCC(=O)[O-]
REMARK SMILES IDX 9 1 10 2 11 3 12 4 13 5 14 6 15 7 16 8 17 9 18 10 8 11 7 12
REMARK SMILES IDX 6 13 5 14 4 15 3 16 2 17 1 18
REMARK H PARENT
REMARK Flexibility Score: inf
ROOT
ATOM      1  C   UNL     1       4.301  30.342  26.909  1.00  0.00     0.000 C 
ENDROOT
BRANCH   1   2
ATOM      2  C   UNL     1       5.782  30.660  26.671  1.00  0.00     0.000 C 
BRANCH   2   3
ATOM      3  C   UNL     1       6.557  29.398  26.265  1.00  0.00     0.000 C 
BRANCH   3   4
ATOM      4  C   UNL     1       8.068  29.645  26.129  1.00  0.00     0.000 C 
BRANCH   4   5
ATOM      5  C   UNL     1       8.893  28.823  27.134  1.00  0.00     0.000 C 
BRANCH   5   6
ATOM      6  C   UNL     1      10.090  29.608  27.697  1.00  0.00     0.006 C 
BRANCH   6   7
ATOM      7  C   UNL     1       9.663  30.830  28.521  1.00  0.00     0.053 C 
BRANCH   7   8
ATOM      8  C   UNL     1      10.342  32.063  28.015  1.00  0.00     0.041 C 
ATOM      9  O   UNL     1      11.254  32.606  28.691  1.00  0.00    -0.550 OA
ATOM     10  O   UNL     1      10.000  32.585  26.773  1.00  0.00    -0.550 OA
ENDBRANCH   7   8
ENDBRANCH   6   7
ENDBRANCH   5   6
ENDBRANCH   4   5
ENDBRANCH   3   4
ENDBRANCH   2   3
ENDBRANCH   1   2
BRANCH   1  11
ATOM     11  C   UNL     1       4.096  28.846  27.181  1.00  0.00     0.000 C 
BRANCH  11  12
ATOM     12  C   UNL     1       3.276  28.625  28.457  1.00  0.00    -0.000 C 
BRANCH  12  13
ATOM     13  C   UNL     1       3.326  29.864  29.365  1.00  0.00    -0.000 C 
BRANCH  13  14
ATOM     14  C   UNL     1       4.238  29.672  30.587  1.00  0.00    -0.000 C 
BRANCH  14  15
ATOM     15  C   UNL     1       5.605  30.359  30.420  1.00  0.00    -0.000 C 
BRANCH  15  16
ATOM     16  C   UNL     1       6.728  29.363  30.089  1.00  0.00    -0.000 C 
BRANCH  16  17
ATOM     17  C   UNL     1       6.378  27.921  30.484  1.00  0.00    -0.003 C 
ATOM     18  C   UNL     1       6.595  26.963  29.317  1.00  0.00     0.004 C 
ENDBRANCH  16  17
ENDBRANCH  15  16
ENDBRANCH  14  15
ENDBRANCH  13  14
ENDBRANCH  12  13
ENDBRANCH  11  12
ENDBRANCH   1  11
TORSDOF 14
ENDMDL
