MODEL 1
REMARK VINA RESULT:    -2.229      0.000      0.000
REMARK INTER + INTRA:          -4.269
REMARK INTER:                  -4.314
REMARK INTRA:                   0.045
REMARK UNBOUND:                 0.045
REMARK SMILES CCCCCCCCCCCCCCCCCC(=O)[O-]
REMARK SMILES IDX 10 1 11 2 12 3 13 4 14 5 15 6 16 7 17 8 18 9 19 10 20 11
REMARK SMILES IDX 9 12 8 13 7 14 6 15 5 16 4 17 3 18 2 19 1 20
REMARK H PARENT
REMARK Flexibility Score: inf
ROOT
ATOM      1  C   UNL     1      -5.727  38.123   0.389  1.00  0.00     0.000 C 
ENDROOT
BRANCH   1   2
ATOM      2  C   UNL     1      -4.310  38.102  -0.211  1.00  0.00     0.000 C 
BRANCH   2   3
ATOM      3  C   UNL     1      -4.212  37.172  -1.439  1.00  0.00     0.000 C 
BRANCH   3   4
ATOM      4  C   UNL     1      -5.214  37.519  -2.555  1.00  0.00     0.000 C 
BRANCH   4   5
ATOM      5  C   UNL     1      -6.518  38.125  -2.019  1.00  0.00     0.000 C 
BRANCH   5   6
ATOM      6  C   UNL     1      -7.661  37.951  -3.027  1.00  0.00     0.000 C 
BRANCH   6   7
ATOM      7  C   UNL     1      -9.024  37.946  -2.318  1.00  0.00     0.006 C 
BRANCH   7   8
ATOM      8  C   UNL     1      -8.985  37.182  -0.989  1.00  0.00     0.053 C 
BRANCH   8   9
ATOM      9  C   UNL     1     -10.082  36.165  -0.899  1.00  0.00     0.041 C 
ATOM     10  O   UNL     1      -9.824  34.982  -0.554  1.00  0.00    -0.550 OA
ATOM     11  O   UNL     1     -11.386  36.515  -1.230  1.00  0.00    -0.550 OA
ENDBRANCH   8   9
ENDBRANCH   7   8
ENDBRANCH   6   7
ENDBRANCH   5   6
ENDBRANCH   4   5
ENDBRANCH   3   4
ENDBRANCH   2   3
ENDBRANCH   1   2
BRANCH   1  12
ATOM     12  C   UNL     1      -5.737  37.818   1.903  1.00  0.00     0.000 C 
BRANCH  12  13
ATOM     13  C   UNL     1      -5.473  36.338   2.239  1.00  0.00    -0.000 C 
BRANCH  13  14
ATOM     14  C   UNL     1      -6.732  35.454   2.309  1.00  0.00    -0.000 C 
BRANCH  14  15
ATOM     15  C   UNL     1      -7.176  34.840   0.965  1.00  0.00    -0.000 C 
BRANCH  15  16
ATOM     16  C   UNL     1      -6.646  33.422   0.689  1.00  0.00    -0.000 C 
BRANCH  16  17
ATOM     17  C   UNL     1      -7.349  32.346   1.531  1.00  0.00    -0.000 C 
BRANCH  17  18
ATOM     18  C   UNL     1      -6.615  31.002   1.425  1.00  0.00    -0.000 C 
BRANCH  18  19
ATOM     19  C   UNL     1      -7.503  29.811   1.817  1.00  0.00    -0.003 C 
ATOM     20  C   UNL     1      -8.117  29.964   3.208  1.00  0.00     0.004 C 
ENDBRANCH  18  19
ENDBRANCH  17  18
ENDBRANCH  16  17
ENDBRANCH  15  16
ENDBRANCH  14  15
ENDBRANCH  13  14
ENDBRANCH  12  13
ENDBRANCH   1  12
TORSDOF 16
ENDMDL
MODEL 2
REMARK VINA RESULT:    -2.022      2.470      6.095
REMARK INTER + INTRA:          -3.868
REMARK INTER:                  -2.152
REMARK INTRA:                  -1.716
REMARK UNBOUND:                 0.045
REMARK SMILES CCCCCCCCCCCCCCCCCC(=O)[O-]
REMARK SMILES IDX 10 1 11 2 12 3 13 4 14 5 15 6 16 7 17 8 18 9 19 10 20 11
REMARK SMILES IDX 9 12 8 13 7 14 6 15 5 16 4 17 3 18 2 19 1 20
REMARK H PARENT
REMARK Flexibility Score: inf
ROOT
ATOM      1  C   UNL     1      -9.582  36.896  -2.474  1.00  0.00     0.000 C 
ENDROOT
BRANCH   1   2
ATOM      2  C   UNL     1     -10.487  36.909  -1.230  1.00  0.00     0.000 C 
BRANCH   2   3
ATOM      3  C   UNL     1     -10.574  35.521  -0.559  1.00  0.00     0.000 C 
BRANCH   3   4
ATOM      4  C   UNL     1      -9.236  34.763  -0.537  1.00  0.00     0.000 C 
BRANCH   4   5
ATOM      5  C   UNL     1      -8.194  35.416   0.381  1.00  0.00     0.000 C 
BRANCH   5   6
ATOM      6  C   UNL     1      -7.492  34.366   1.251  1.00  0.00     0.000 C 
BRANCH   6   7
ATOM      7  C   UNL     1      -7.607  32.967   0.626  1.00  0.00     0.006 C 
BRANCH   7   8
ATOM      8  C   UNL     1      -6.681  31.950   1.305  1.00  0.00     0.053 C 
BRANCH   8   9
ATOM      9  C   UNL     1      -7.402  30.682   1.647  1.00  0.00     0.041 C 
ATOM     10  O   UNL     1      -7.874  30.514   2.803  1.00  0.00    -0.550 OA
ATOM     11  O   UNL     1      -7.524  29.672   0.701  1.00  0.00    -0.550 OA
ENDBRANCH   8   9
ENDBRANCH   7   8
ENDBRANCH   6   7
ENDBRANCH   5   6
ENDBRANCH   4   5
ENDBRANCH   3   4
ENDBRANCH   2   3
ENDBRANCH   1   2
BRANCH   1  12
ATOM     12  C   UNL     1      -8.435  37.926  -2.386  1.00  0.00     0.000 C 
BRANCH  12  13
ATOM     13  C   UNL     1      -7.418  37.824  -3.539  1.00  0.00    -0.000 C 
BRANCH  13  14
ATOM     14  C   UNL     1      -5.958  38.115  -3.145  1.00  0.00    -0.000 C 
BRANCH  14  15
ATOM     15  C   UNL     1      -5.640  37.945  -1.645  1.00  0.00    -0.000 C 
BRANCH  15  16
ATOM     16  C   UNL     1      -4.527  36.931  -1.325  1.00  0.00    -0.000 C 
BRANCH  16  17
ATOM     17  C   UNL     1      -4.565  36.439   0.130  1.00  0.00    -0.000 C 
BRANCH  17  18
ATOM     18  C   UNL     1      -4.748  37.614   1.101  1.00  0.00    -0.000 C 
BRANCH  18  19
ATOM     19  C   UNL     1      -5.044  37.154   2.537  1.00  0.00    -0.003 C 
ATOM     20  C   UNL     1      -6.302  37.801   3.117  1.00  0.00     0.004 C 
ENDBRANCH  18  19
ENDBRANCH  17  18
ENDBRANCH  16  17
ENDBRANCH  15  16
ENDBRANCH  14  15
ENDBRANCH  13  14
ENDBRANCH  12  13
ENDBRANCH   1  12
TORSDOF 16
ENDMDL
MODEL 3
REMARK VINA RESULT:    -1.730     12.865     16.281
REMARK INTER + INTRA:          -3.303
REMARK INTER:                  -2.348
REMARK INTRA:                  -0.955
REMARK UNBOUND:                 0.045
REMARK SMILES CCCCCCCCCCCCCCCCCC(=O)[O-]
REMARK SMILES IDX 10 1 11 2 12 3 13 4 14 5 15 6 16 7 17 8 18 9 19 10 20 11
REMARK SMILES IDX 9 12 8 13 7 14 6 15 5 16 4 17 3 18 2 19 1 20
REMARK H PARENT
REMARK Flexibility Score: inf
ROOT
ATOM      1  C   UNL     1     -18.802  33.355  -9.660  1.00  0.00     0.000 C 
ENDROOT
BRANCH   1   2
ATOM      2  C   UNL     1     -18.719  34.342 -10.838  1.00  0.00     0.000 C 
BRANCH   2   3
ATOM      3  C   UNL     1     -18.440  33.627 -12.177  1.00  0.00     0.000 C 
BRANCH   3   4
ATOM      4  C   UNL     1     -16.977  33.741 -12.642  1.00  0.00     0.000 C 
BRANCH   4   5
ATOM      5  C   UNL     1     -15.997  33.006 -11.719  1.00  0.00     0.000 C 
BRANCH   5   6
ATOM      6  C   UNL     1     -14.947  33.968 -11.153  1.00  0.00     0.000 C 
BRANCH   6   7
ATOM      7  C   UNL     1     -15.278  34.355  -9.703  1.00  0.00     0.006 C 
BRANCH   7   8
ATOM      8  C   UNL     1     -14.025  34.435  -8.822  1.00  0.00     0.053 C 
BRANCH   8   9
ATOM      9  C   UNL     1     -13.233  35.677  -9.091  1.00  0.00     0.041 C 
ATOM     10  O   UNL     1     -12.540  35.773 -10.139  1.00  0.00    -0.550 OA
ATOM     11  O   UNL     1     -13.231  36.717  -8.169  1.00  0.00    -0.550 OA
ENDBRANCH   8   9
ENDBRANCH   7   8
ENDBRANCH   6   7
ENDBRANCH   5   6
ENDBRANCH   4   5
ENDBRANCH   3   4
ENDBRANCH   2   3
ENDBRANCH   1   2
BRANCH   1  12
ATOM     12  C   UNL     1     -19.263  34.031  -8.350  1.00  0.00     0.000 C 
BRANCH  12  13
ATOM     13  C   UNL     1     -20.787  34.234  -8.259  1.00  0.00    -0.000 C 
BRANCH  13  14
ATOM     14  C   UNL     1     -21.500  33.343  -7.225  1.00  0.00    -0.000 C 
BRANCH  14  15
ATOM     15  C   UNL     1     -23.033  33.504  -7.169  1.00  0.00    -0.000 C 
BRANCH  15  16
ATOM     16  C   UNL     1     -23.636  34.401  -8.266  1.00  0.00    -0.000 C 
BRANCH  16  17
ATOM     17  C   UNL     1     -23.925  35.829  -7.779  1.00  0.00    -0.000 C 
BRANCH  17  18
ATOM     18  C   UNL     1     -24.125  36.782  -8.966  1.00  0.00    -0.000 C 
BRANCH  18  19
ATOM     19  C   UNL     1     -23.403  38.125  -8.775  1.00  0.00    -0.003 C 
ATOM     20  C   UNL     1     -21.891  38.017  -8.973  1.00  0.00     0.004 C 
ENDBRANCH  18  19
ENDBRANCH  17  18
ENDBRANCH  16  17
ENDBRANCH  15  16
ENDBRANCH  14  15
ENDBRANCH  13  14
ENDBRANCH  12  13
ENDBRANCH   1  12
TORSDOF 16
ENDMDL
MODEL 4
REMARK VINA RESULT:    -1.574      2.541      6.003
REMARK INTER + INTRA:          -3.001
REMARK INTER:                  -3.044
REMARK INTRA:                   0.043
REMARK UNBOUND:                 0.045
REMARK SMILES CCCCCCCCCCCCCCCCCC(=O)[O-]
REMARK SMILES IDX 10 1 11 2 12 3 13 4 14 5 15 6 16 7 17 8 18 9 19 10 20 11
REMARK SMILES IDX 9 12 8 13 7 14 6 15 5 16 4 17 3 18 2 19 1 20
REMARK H PARENT
REMARK Flexibility Score: inf
ROOT
ATOM      1  C   UNL     1      -6.685  34.838   0.884  1.00  0.00     0.000 C 
ENDROOT
BRANCH   1   2
ATOM      2  C   UNL     1      -5.513  35.054  -0.089  1.00  0.00     0.000 C 
BRANCH   2   3
ATOM      3  C   UNL     1      -4.254  34.267   0.332  1.00  0.00     0.000 C 
BRANCH   3   4
ATOM      4  C   UNL     1      -3.888  34.441   1.816  1.00  0.00     0.000 C 
BRANCH   4   5
ATOM      5  C   UNL     1      -3.911  33.119   2.596  1.00  0.00     0.000 C 
BRANCH   5   6
ATOM      6  C   UNL     1      -4.775  32.074   1.883  1.00  0.00     0.000 C 
BRANCH   6   7
ATOM      7  C   UNL     1      -6.261  32.261   2.227  1.00  0.00     0.006 C 
BRANCH   7   8
ATOM      8  C   UNL     1      -7.184  31.672   1.152  1.00  0.00     0.053 C 
BRANCH   8   9
ATOM      9  C   UNL     1      -7.469  30.222   1.397  1.00  0.00     0.041 C 
ATOM     10  O   UNL     1      -7.867  29.487   0.455  1.00  0.00    -0.550 OA
ATOM     11  O   UNL     1      -7.329  29.689   2.673  1.00  0.00    -0.550 OA
ENDBRANCH   8   9
ENDBRANCH   7   8
ENDBRANCH   6   7
ENDBRANCH   5   6
ENDBRANCH   4   5
ENDBRANCH   3   4
ENDBRANCH   2   3
ENDBRANCH   1   2
BRANCH   1  12
ATOM     12  C   UNL     1      -6.644  35.805   2.087  1.00  0.00     0.000 C 
BRANCH  12  13
ATOM     13  C   UNL     1      -5.976  37.158   1.774  1.00  0.00    -0.000 C 
BRANCH  13  14
ATOM     14  C   UNL     1      -6.751  38.052   0.789  1.00  0.00    -0.000 C 
BRANCH  14  15
ATOM     15  C   UNL     1      -6.160  38.123  -0.634  1.00  0.00    -0.000 C 
BRANCH  15  16
ATOM     16  C   UNL     1      -7.158  37.836  -1.770  1.00  0.00    -0.000 C 
BRANCH  16  17
ATOM     17  C   UNL     1      -8.352  36.982  -1.316  1.00  0.00    -0.000 C 
BRANCH  17  18
ATOM     18  C   UNL     1      -9.656  37.791  -1.375  1.00  0.00    -0.000 C 
BRANCH  18  19
ATOM     19  C   UNL     1     -10.898  36.899  -1.526  1.00  0.00    -0.003 C 
ATOM     20  C   UNL     1     -10.754  35.558  -0.808  1.00  0.00     0.004 C 
ENDBRANCH  18  19
ENDBRANCH  17  18
ENDBRANCH  16  17
ENDBRANCH  15  16
ENDBRANCH  14  15
ENDBRANCH  13  14
ENDBRANCH  12  13
ENDBRANCH   1  12
TORSDOF 16
ENDMDL
MODEL 5
REMARK VINA RESULT:    -1.113      2.149      4.134
REMARK INTER + INTRA:          -2.109
REMARK INTER:                  -2.146
REMARK INTRA:                   0.037
REMARK UNBOUND:                 0.045
REMARK SMILES CCCCCCCCCCCCCCCCCC(=O)[O-]
REMARK SMILES IDX 10 1 11 2 12 3 13 4 14 5 15 6 16 7 17 8 18 9 19 10 20 11
REMARK SMILES IDX 9 12 8 13 7 14 6 15 5 16 4 17 3 18 2 19 1 20
REMARK H PARENT
REMARK Flexibility Score: inf
ROOT
ATOM      1  C   UNL     1      -8.860  37.062  -0.662  1.00  0.00     0.000 C 
ENDROOT
BRANCH   1   2
ATOM      2  C   UNL     1      -8.044  38.115  -1.433  1.00  0.00     0.000 C 
BRANCH   2   3
ATOM      3  C   UNL     1      -6.538  38.043  -1.099  1.00  0.00     0.000 C 
BRANCH   3   4
ATOM      4  C   UNL     1      -5.638  37.927  -2.341  1.00  0.00     0.000 C 
BRANCH   4   5
ATOM      5  C   UNL     1      -4.266  37.313  -2.029  1.00  0.00     0.000 C 
BRANCH   5   6
ATOM      6  C   UNL     1      -4.012  37.272  -0.518  1.00  0.00     0.000 C 
BRANCH   6   7
ATOM      7  C   UNL     1      -4.223  35.855   0.038  1.00  0.00     0.006 C 
BRANCH   7   8
ATOM      8  C   UNL     1      -4.244  35.830   1.571  1.00  0.00     0.053 C 
BRANCH   8   9
ATOM      9  C   UNL     1      -5.079  36.938   2.135  1.00  0.00     0.041 C 
ATOM     10  O   UNL     1      -4.551  38.042   2.435  1.00  0.00    -0.550 OA
ATOM     11  O   UNL     1      -6.437  36.743   2.361  1.00  0.00    -0.550 OA
ENDBRANCH   8   9
ENDBRANCH   7   8
ENDBRANCH   6   7
ENDBRANCH   5   6
ENDBRANCH   4   5
ENDBRANCH   3   4
ENDBRANCH   2   3
ENDBRANCH   1   2
BRANCH   1  12
ATOM     12  C   UNL     1     -10.180  36.695  -1.375  1.00  0.00     0.000 C 
BRANCH  12  13
ATOM     13  C   UNL     1     -10.915  35.498  -0.742  1.00  0.00    -0.000 C 
BRANCH  13  14
ATOM     14  C   UNL     1     -10.007  34.328  -0.319  1.00  0.00    -0.000 C 
BRANCH  14  15
ATOM     15  C   UNL     1      -8.590  34.732   0.137  1.00  0.00    -0.000 C 
BRANCH  15  16
ATOM     16  C   UNL     1      -7.990  33.859   1.253  1.00  0.00    -0.000 C 
BRANCH  16  17
ATOM     17  C   UNL     1      -6.626  33.261   0.878  1.00  0.00    -0.000 C 
BRANCH  17  18
ATOM     18  C   UNL     1      -6.391  31.932   1.610  1.00  0.00    -0.000 C 
BRANCH  18  19
ATOM     19  C   UNL     1      -7.463  30.881   1.286  1.00  0.00    -0.003 C 
ATOM     20  C   UNL     1      -7.860  30.046   2.503  1.00  0.00     0.004 C 
ENDBRANCH  18  19
ENDBRANCH  17  18
ENDBRANCH  16  17
ENDBRANCH  15  16
ENDBRANCH  14  15
ENDBRANCH  13  14
ENDBRANCH  12  13
ENDBRANCH   1  12
TORSDOF 16
ENDMDL
MODEL 6
REMARK VINA RESULT:    -0.763      1.529      2.863
REMARK INTER + INTRA:          -1.431
REMARK INTER:                  -2.161
REMARK INTRA:                   0.729
REMARK UNBOUND:                 0.045
REMARK SMILES CCCCCCCCCCCCCCCCCC(=O)[O-]
REMARK SMILES IDX 10 1 11 2 12 3 13 4 14 5 15 6 16 7 17 8 18 9 19 10 20 11
REMARK SMILES IDX 9 12 8 13 7 14 6 15 5 16 4 17 3 18 2 19 1 20
REMARK H PARENT
REMARK Flexibility Score: inf
ROOT
ATOM      1  C   UNL     1      -3.968  34.577   2.127  1.00  0.00     0.000 C 
ENDROOT
BRANCH   1   2
ATOM      2  C   UNL     1      -3.889  36.114   2.150  1.00  0.00     0.000 C 
BRANCH   2   3
ATOM      3  C   UNL     1      -5.170  36.754   2.729  1.00  0.00     0.000 C 
BRANCH   3   4
ATOM      4  C   UNL     1      -5.520  38.111   2.094  1.00  0.00     0.000 C 
BRANCH   4   5
ATOM      5  C   UNL     1      -6.908  38.125   1.440  1.00  0.00     0.000 C 
BRANCH   5   6
ATOM      6  C   UNL     1      -6.981  37.124   0.281  1.00  0.00     0.000 C 
BRANCH   6   7
ATOM      7  C   UNL     1      -7.345  37.831  -1.034  1.00  0.00     0.006 C 
BRANCH   7   8
ATOM      8  C   UNL     1      -8.861  37.981  -1.212  1.00  0.00     0.053 C 
BRANCH   8   9
ATOM      9  C   UNL     1      -9.580  36.687  -0.982  1.00  0.00     0.041 C 
ATOM     10  O   UNL     1      -8.991  35.727  -0.418  1.00  0.00    -0.550 OA
ATOM     11  O   UNL     1     -10.889  36.529  -1.422  1.00  0.00    -0.550 OA
ENDBRANCH   8   9
ENDBRANCH   7   8
ENDBRANCH   6   7
ENDBRANCH   5   6
ENDBRANCH   4   5
ENDBRANCH   3   4
ENDBRANCH   2   3
ENDBRANCH   1   2
BRANCH   1  12
ATOM     12  C   UNL     1      -3.877  33.998   0.698  1.00  0.00     0.000 C 
BRANCH  12  13
ATOM     13  C   UNL     1      -5.240  33.876  -0.010  1.00  0.00    -0.000 C 
BRANCH  13  14
ATOM     14  C   UNL     1      -6.426  34.493   0.753  1.00  0.00    -0.000 C 
BRANCH  14  15
ATOM     15  C   UNL     1      -7.199  33.514   1.661  1.00  0.00    -0.000 C 
BRANCH  15  16
ATOM     16  C   UNL     1      -7.305  32.074   1.127  1.00  0.00    -0.000 C 
BRANCH  16  17
ATOM     17  C   UNL     1      -7.493  31.035   2.243  1.00  0.00    -0.000 C 
BRANCH  17  18
ATOM     18  C   UNL     1      -7.835  29.658   1.656  1.00  0.00    -0.000 C 
BRANCH  18  19
ATOM     19  C   UNL     1      -7.446  29.534   0.175  1.00  0.00    -0.003 C 
ATOM     20  C   UNL     1      -8.443  28.701  -0.631  1.00  0.00     0.004 C 
ENDBRANCH  18  19
ENDBRANCH  17  18
ENDBRANCH  16  17
ENDBRANCH  15  16
ENDBRANCH  14  15
ENDBRANCH  13  14
ENDBRANCH  12  13
ENDBRANCH   1  12
TORSDOF 16
ENDMDL
MODEL 7
REMARK VINA RESULT:    -0.582      2.626      4.872
REMARK INTER + INTRA:          -1.082
REMARK INTER:                  -0.425
REMARK INTRA:                  -0.657
REMARK UNBOUND:                 0.045
REMARK SMILES CCCCCCCCCCCCCCCCCC(=O)[O-]
REMARK SMILES IDX 10 1 11 2 12 3 13 4 14 5 15 6 16 7 17 8 18 9 19 10 20 11
REMARK SMILES IDX 9 12 8 13 7 14 6 15 5 16 4 17 3 18 2 19 1 20
REMARK H PARENT
REMARK Flexibility Score: inf
ROOT
ATOM      1  C   UNL     1      -8.740  37.382  -0.880  1.00  0.00     0.000 C 
ENDROOT
BRANCH   1   2
ATOM      2  C   UNL     1      -7.526  38.021  -1.575  1.00  0.00     0.000 C 
BRANCH   2   3
ATOM      3  C   UNL     1      -6.257  37.966  -0.698  1.00  0.00     0.000 C 
BRANCH   3   4
ATOM      4  C   UNL     1      -5.195  36.979  -1.213  1.00  0.00     0.000 C 
BRANCH   4   5
ATOM      5  C   UNL     1      -3.884  37.043  -0.418  1.00  0.00     0.000 C 
BRANCH   5   6
ATOM      6  C   UNL     1      -4.003  38.011   0.764  1.00  0.00     0.000 C 
BRANCH   6   7
ATOM      7  C   UNL     1      -3.998  37.252   2.100  1.00  0.00     0.006 C 
BRANCH   7   8
ATOM      8  C   UNL     1      -4.481  38.125   3.265  1.00  0.00     0.053 C 
BRANCH   8   9
ATOM      9  C   UNL     1      -5.777  37.630   3.832  1.00  0.00     0.041 C 
ATOM     10  O   UNL     1      -6.184  38.053   4.946  1.00  0.00    -0.550 OA
ATOM     11  O   UNL     1      -6.518  36.675   3.146  1.00  0.00    -0.550 OA
ENDBRANCH   8   9
ENDBRANCH   7   8
ENDBRANCH   6   7
ENDBRANCH   5   6
ENDBRANCH   4   5
ENDBRANCH   3   4
ENDBRANCH   2   3
ENDBRANCH   1   2
BRANCH   1  12
ATOM     12  C   UNL     1      -9.847  36.971  -1.875  1.00  0.00     0.000 C 
BRANCH  12  13
ATOM     13  C   UNL     1     -10.859  35.963  -1.298  1.00  0.00    -0.000 C 
BRANCH  13  14
ATOM     14  C   UNL     1     -10.332  35.112  -0.128  1.00  0.00    -0.000 C 
BRANCH  14  15
ATOM     15  C   UNL     1      -8.990  34.397  -0.391  1.00  0.00    -0.000 C 
BRANCH  15  16
ATOM     16  C   UNL     1      -8.316  33.795   0.854  1.00  0.00    -0.000 C 
BRANCH  16  17
ATOM     17  C   UNL     1      -6.813  33.544   0.659  1.00  0.00    -0.000 C 
BRANCH  17  18
ATOM     18  C   UNL     1      -5.981  34.613   1.383  1.00  0.00    -0.000 C 
BRANCH  18  19
ATOM     19  C   UNL     1      -4.525  34.178   1.605  1.00  0.00    -0.003 C 
ATOM     20  C   UNL     1      -3.946  33.418   0.411  1.00  0.00     0.004 C 
ENDBRANCH  18  19
ENDBRANCH  17  18
ENDBRANCH  16  17
ENDBRANCH  15  16
ENDBRANCH  14  15
ENDBRANCH  13  14
ENDBRANCH  12  13
ENDBRANCH   1  12
TORSDOF 16
ENDMDL
MODEL 8
REMARK VINA RESULT:     0.162      6.351      9.560
REMARK INTER + INTRA:           0.358
REMARK INTER:                   0.982
REMARK INTRA:                  -0.624
REMARK UNBOUND:                 0.045
REMARK SMILES CCCCCCCCCCCCCCCCCC(=O)[O-]
REMARK SMILES IDX 10 1 11 2 12 3 13 4 14 5 15 6 16 7 17 8 18 9 19 10 20 11
REMARK SMILES IDX 9 12 8 13 7 14 6 15 5 16 4 17 3 18 2 19 1 20
REMARK H PARENT
REMARK Flexibility Score: inf
ROOT
ATOM      1  C   UNL     1     -11.260  36.448  -3.116  1.00  0.00     0.000 C 
ENDROOT
BRANCH   1   2
ATOM      2  C   UNL     1     -11.367  36.300  -1.588  1.00  0.00     0.000 C 
BRANCH   2   3
ATOM      3  C   UNL     1      -9.982  36.296  -0.905  1.00  0.00     0.000 C 
BRANCH   3   4
ATOM      4  C   UNL     1      -9.221  37.625  -1.051  1.00  0.00     0.000 C 
BRANCH   4   5
ATOM      5  C   UNL     1      -7.702  37.435  -1.161  1.00  0.00     0.000 C 
BRANCH   5   6
ATOM      6  C   UNL     1      -7.011  37.737   0.173  1.00  0.00     0.000 C 
BRANCH   6   7
ATOM      7  C   UNL     1      -6.022  36.622   0.546  1.00  0.00     0.006 C 
BRANCH   7   8
ATOM      8  C   UNL     1      -6.566  35.707   1.651  1.00  0.00     0.053 C 
BRANCH   8   9
ATOM      9  C   UNL     1      -6.767  34.305   1.164  1.00  0.00     0.041 C 
ATOM     10  O   UNL     1      -5.775  33.559   0.952  1.00  0.00    -0.550 OA
ATOM     11  O   UNL     1      -8.049  33.832   0.911  1.00  0.00    -0.550 OA
ENDBRANCH   8   9
ENDBRANCH   7   8
ENDBRANCH   6   7
ENDBRANCH   5   6
ENDBRANCH   4   5
ENDBRANCH   3   4
ENDBRANCH   2   3
ENDBRANCH   1   2
BRANCH   1  12
ATOM     12  C   UNL     1     -12.513  35.926  -3.852  1.00  0.00     0.000 C 
BRANCH  12  13
ATOM     13  C   UNL     1     -12.329  35.796  -5.376  1.00  0.00    -0.000 C 
BRANCH  13  14
ATOM     14  C   UNL     1     -13.565  36.170  -6.214  1.00  0.00    -0.000 C 
BRANCH  14  15
ATOM     15  C   UNL     1     -13.499  35.755  -7.699  1.00  0.00    -0.000 C 
BRANCH  15  16
ATOM     16  C   UNL     1     -14.482  34.645  -8.110  1.00  0.00    -0.000 C 
BRANCH  16  17
ATOM     17  C   UNL     1     -14.510  34.402  -9.627  1.00  0.00    -0.000 C 
BRANCH  17  18
ATOM     18  C   UNL     1     -15.914  33.990 -10.090  1.00  0.00    -0.000 C 
BRANCH  18  19
ATOM     19  C   UNL     1     -15.911  33.341 -11.483  1.00  0.00    -0.003 C 
ATOM     20  C   UNL     1     -17.265  33.443 -12.186  1.00  0.00     0.004 C 
ENDBRANCH  18  19
ENDBRANCH  17  18
ENDBRANCH  16  17
ENDBRANCH  15  16
ENDBRANCH  14  15
ENDBRANCH  13  14
ENDBRANCH  12  13
ENDBRANCH   1  12
TORSDOF 16
ENDMDL
