MODEL 1
REMARK VINA RESULT:    -0.227      0.000      0.000
REMARK INTER + INTRA:          -0.783
REMARK INTER:                  -0.386
REMARK INTRA:                  -0.397
REMARK UNBOUND:                -0.397
REMARK SMILES CCCCCCCCCCCCCC(=O)[O-]
REMARK SMILES IDX 8 1 9 2 10 3 11 4 12 5 13 6 14 7 15 8 16 9 7 10 6 11 5 12
REMARK SMILES IDX 4 13 3 14 2 15 1 16
REMARK H PARENT
REMARK Flexibility Score: inf
ROOT
ATOM      1  C   UNL     1      91.247  18.158 119.355  1.00  0.00     0.000 C 
ENDROOT
BRANCH   1   2
ATOM      2  C   UNL     1      91.945  16.809 119.149  1.00  0.00     0.000 C 
BRANCH   2   3
ATOM      3  C   UNL     1      92.386  16.207 120.492  1.00  0.00     0.000 C 
BRANCH   3   4
ATOM      4  C   UNL     1      93.655  16.872 121.051  1.00  0.00     0.000 C 
BRANCH   4   5
ATOM      5  C   UNL     1      94.848  15.904 121.123  1.00  0.00     0.006 C 
BRANCH   5   6
ATOM      6  C   UNL     1      95.718  15.964 119.861  1.00  0.00     0.053 C 
BRANCH   6   7
ATOM      7  C   UNL     1      96.765  17.030 119.957  1.00  0.00     0.041 C 
ATOM      8  O   UNL     1      97.298  17.301 121.064  1.00  0.00    -0.550 OA
ATOM      9  O   UNL     1      97.134  17.746 118.823  1.00  0.00    -0.550 OA
ENDBRANCH   6   7
ENDBRANCH   5   6
ENDBRANCH   4   5
ENDBRANCH   3   4
ENDBRANCH   2   3
ENDBRANCH   1   2
BRANCH   1  10
ATOM     10  C   UNL     1      90.750  18.308 120.798  1.00  0.00     0.000 C 
BRANCH  10  11
ATOM     11  C   UNL     1      89.274  17.913 120.916  1.00  0.00    -0.000 C 
BRANCH  11  12
ATOM     12  C   UNL     1      88.381  19.153 121.050  1.00  0.00    -0.000 C 
BRANCH  12  13
ATOM     13  C   UNL     1      86.899  18.760 121.125  1.00  0.00    -0.000 C 
BRANCH  13  14
ATOM     14  C   UNL     1      86.605  17.444 120.373  1.00  0.00    -0.000 C 
BRANCH  14  15
ATOM     15  C   UNL     1      85.118  17.055 120.369  1.00  0.00    -0.003 C 
ATOM     16  C   UNL     1      84.225  18.096 121.041  1.00  0.00     0.004 C 
ENDBRANCH  14  15
ENDBRANCH  13  14
ENDBRANCH  12  13
ENDBRANCH  11  12
ENDBRANCH  10  11
ENDBRANCH   1  10
TORSDOF 12
ENDMDL
MODEL 2
REMARK VINA RESULT:     0.507      4.862      9.005
REMARK INTER + INTRA:           0.466
REMARK INTER:                   1.040
REMARK INTRA:                  -0.574
REMARK UNBOUND:                -0.397
REMARK SMILES CCCCCCCCCCCCCC(=O)[O-]
REMARK SMILES IDX 8 1 9 2 10 3 11 4 12 5 13 6 14 7 15 8 16 9 7 10 6 11 5 12
REMARK SMILES IDX 4 13 3 14 2 15 1 16
REMARK H PARENT
REMARK Flexibility Score: inf
ROOT
ATOM      1  C   UNL     1      90.750  17.599 119.197  1.00  0.00     0.000 C 
ENDROOT
BRANCH   1   2
ATOM      2  C   UNL     1      89.416  18.331 119.391  1.00  0.00     0.000 C 
BRANCH   2   3
ATOM      3  C   UNL     1      89.087  18.487 120.884  1.00  0.00     0.000 C 
BRANCH   3   4
ATOM      4  C   UNL     1      87.662  19.011 121.125  1.00  0.00     0.000 C 
BRANCH   4   5
ATOM      5  C   UNL     1      86.584  18.093 120.523  1.00  0.00     0.006 C 
BRANCH   5   6
ATOM      6  C   UNL     1      85.187  18.403 121.074  1.00  0.00     0.053 C 
BRANCH   6   7
ATOM      7  C   UNL     1      84.193  17.348 120.698  1.00  0.00     0.041 C 
ATOM      8  O   UNL     1      82.959  17.593 120.738  1.00  0.00    -0.550 OA
ATOM      9  O   UNL     1      84.631  16.081 120.331  1.00  0.00    -0.550 OA
ENDBRANCH   6   7
ENDBRANCH   5   6
ENDBRANCH   4   5
ENDBRANCH   3   4
ENDBRANCH   2   3
ENDBRANCH   1   2
BRANCH   1  10
ATOM     10  C   UNL     1      91.840  18.193 120.096  1.00  0.00     0.000 C 
BRANCH  10  11
ATOM     11  C   UNL     1      92.543  17.098 120.905  1.00  0.00    -0.000 C 
BRANCH  11  12
ATOM     12  C   UNL     1      92.994  15.946 119.998  1.00  0.00    -0.000 C 
BRANCH  12  13
ATOM     13  C   UNL     1      94.440  15.531 120.310  1.00  0.00    -0.000 C 
BRANCH  13  14
ATOM     14  C   UNL     1      95.464  16.586 119.842  1.00  0.00    -0.000 C 
BRANCH  14  15
ATOM     15  C   UNL     1      96.843  16.443 120.505  1.00  0.00    -0.003 C 
ATOM     16  C   UNL     1      97.719  17.683 120.339  1.00  0.00     0.004 C 
ENDBRANCH  14  15
ENDBRANCH  13  14
ENDBRANCH  12  13
ENDBRANCH  11  12
ENDBRANCH  10  11
ENDBRANCH   1  10
TORSDOF 12
ENDMDL
MODEL 3
REMARK VINA RESULT:     1.197      4.197      8.180
REMARK INTER + INTRA:           1.639
REMARK INTER:                   0.983
REMARK INTRA:                   0.656
REMARK UNBOUND:                -0.397
REMARK SMILES CCCCCCCCCCCCCC(=O)[O-]
REMARK SMILES IDX 8 1 9 2 10 3 11 4 12 5 13 6 14 7 15 8 16 9 7 10 6 11 5 12
REMARK SMILES IDX 4 13 3 14 2 15 1 16
REMARK H PARENT
REMARK Flexibility Score: inf
ROOT
ATOM      1  C   UNL     1      92.288  16.605 118.577  1.00  0.00     0.000 C 
ENDROOT
BRANCH   1   2
ATOM      2  C   UNL     1      92.242  17.792 119.548  1.00  0.00     0.000 C 
BRANCH   2   3
ATOM      3  C   UNL     1      91.442  17.438 120.811  1.00  0.00     0.000 C 
BRANCH   3   4
ATOM      4  C   UNL     1      90.345  18.468 121.125  1.00  0.00     0.000 C 
BRANCH   4   5
ATOM      5  C   UNL     1      88.930  17.869 121.049  1.00  0.00     0.006 C 
BRANCH   5   6
ATOM      6  C   UNL     1      87.853  18.948 120.886  1.00  0.00     0.053 C 
BRANCH   6   7
ATOM      7  C   UNL     1      86.472  18.374 120.965  1.00  0.00     0.041 C 
ATOM      8  O   UNL     1      85.474  19.131 121.089  1.00  0.00    -0.550 OA
ATOM      9  O   UNL     1      86.290  16.996 120.931  1.00  0.00    -0.550 OA
ENDBRANCH   6   7
ENDBRANCH   5   6
ENDBRANCH   4   5
ENDBRANCH   3   4
ENDBRANCH   2   3
ENDBRANCH   1   2
BRANCH   1  10
ATOM     10  C   UNL     1      93.664  15.930 118.596  1.00  0.00     0.000 C 
BRANCH  10  11
ATOM     11  C   UNL     1      93.787  14.963 119.779  1.00  0.00    -0.000 C 
BRANCH  11  12
ATOM     12  C   UNL     1      93.927  15.726 121.102  1.00  0.00    -0.000 C 
BRANCH  12  13
ATOM     13  C   UNL     1      94.887  16.916 120.954  1.00  0.00    -0.000 C 
BRANCH  13  14
ATOM     14  C   UNL     1      96.366  16.489 121.066  1.00  0.00    -0.000 C 
BRANCH  14  15
ATOM     15  C   UNL     1      97.278  17.142 120.014  1.00  0.00    -0.003 C 
ATOM     16  C   UNL     1      96.625  17.243 118.637  1.00  0.00     0.004 C 
ENDBRANCH  14  15
ENDBRANCH  13  14
ENDBRANCH  12  13
ENDBRANCH  11  12
ENDBRANCH  10  11
ENDBRANCH   1  10
TORSDOF 12
ENDMDL
MODEL 4
REMARK VINA RESULT:     1.271      1.711      2.657
REMARK INTER + INTRA:           1.765
REMARK INTER:                   2.469
REMARK INTRA:                  -0.704
REMARK UNBOUND:                -0.397
REMARK SMILES CCCCCCCCCCCCCC(=O)[O-]
REMARK SMILES IDX 8 1 9 2 10 3 11 4 12 5 13 6 14 7 15 8 16 9 7 10 6 11 5 12
REMARK SMILES IDX 4 13 3 14 2 15 1 16
REMARK H PARENT
REMARK Flexibility Score: inf
ROOT
ATOM      1  C   UNL     1      89.541  17.669 119.736  1.00  0.00     0.000 C 
ENDROOT
BRANCH   1   2
ATOM      2  C   UNL     1      90.428  18.451 120.712  1.00  0.00     0.000 C 
BRANCH   2   3
ATOM      3  C   UNL     1      91.916  18.173 120.446  1.00  0.00     0.000 C 
BRANCH   3   4
ATOM      4  C   UNL     1      92.158  17.504 119.083  1.00  0.00     0.000 C 
BRANCH   4   5
ATOM      5  C   UNL     1      93.073  16.271 119.182  1.00  0.00     0.006 C 
BRANCH   5   6
ATOM      6  C   UNL     1      93.356  15.877 120.637  1.00  0.00     0.053 C 
BRANCH   6   7
ATOM      7  C   UNL     1      94.632  15.104 120.767  1.00  0.00     0.041 C 
ATOM      8  O   UNL     1      95.738  15.659 120.539  1.00  0.00    -0.550 OA
ATOM      9  O   UNL     1      94.597  13.758 121.113  1.00  0.00    -0.550 OA
ENDBRANCH   6   7
ENDBRANCH   5   6
ENDBRANCH   4   5
ENDBRANCH   3   4
ENDBRANCH   2   3
ENDBRANCH   1   2
BRANCH   1  10
ATOM     10  C   UNL     1      88.137  18.281 119.655  1.00  0.00     0.000 C 
BRANCH  10  11
ATOM     11  C   UNL     1      87.676  18.784 121.027  1.00  0.00    -0.000 C 
BRANCH  11  12
ATOM     12  C   UNL     1      86.149  18.917 121.081  1.00  0.00    -0.000 C 
BRANCH  12  13
ATOM     13  C   UNL     1      85.477  17.537 121.121  1.00  0.00    -0.000 C 
BRANCH  13  14
ATOM     14  C   UNL     1      84.320  17.421 120.106  1.00  0.00    -0.000 C 
BRANCH  14  15
ATOM     15  C   UNL     1      82.939  17.254 120.760  1.00  0.00    -0.003 C 
ATOM     16  C   UNL     1      81.882  18.188 120.174  1.00  0.00     0.004 C 
ENDBRANCH  14  15
ENDBRANCH  13  14
ENDBRANCH  12  13
ENDBRANCH  11  12
ENDBRANCH  10  11
ENDBRANCH   1  10
TORSDOF 12
ENDMDL
