MODEL 1
REMARK VINA RESULT:    77.450      0.000      0.000
REMARK INTER + INTRA:          85.863
REMARK INTER:                  84.241
REMARK INTRA:                   1.621
REMARK UNBOUND:                 1.621
REMARK SMILES C[C@@H]1[C@H](C)CC[C@@]2(C(=O)[O-])CC[C@]3(C)C(=CC[C@H]4[C@@]5(C)CC[C@@H](O)C(C)(C)[C@@H]5CC[C@]43C)[C@H]12
REMARK SMILES IDX 7 1 6 2 11 3 33 4 5 5 12 6 15 7 2 8 3 9 13 10 16 11 1 12
REMARK SMILES IDX 4 13 14 14 31 15 17 16 18 17 30 18 32 19 19 20 29 21 28 22
REMARK SMILES IDX 21 23 20 24 25 25 22 26 23 27 26 28 27 29 8 30 9 31 10 32
REMARK SMILES IDX 24 33
REMARK H PARENT 24 34
REMARK Flexibility Score: inf
ROOT
ATOM      1  C   UNL     1     120.965  69.762  -1.259  1.00  0.00     0.017 C 
ATOM      2  C   UNL     1     120.263  68.795  -2.254  1.00  0.00     0.014 C 
ATOM      3  C   UNL     1     119.939  70.699  -0.582  1.00  0.00     0.014 C 
ATOM      4  C   UNL     1     121.533  68.885  -0.086  1.00  0.00     0.030 C 
ATOM      5  C   UNL     1     121.220  67.684  -2.752  1.00  0.00     0.004 C 
ATOM      6  C   UNL     1     120.572  71.652   0.479  1.00  0.00     0.013 C 
ATOM      7  C   UNL     1     121.769  69.596   1.269  1.00  0.00    -0.063 C 
ATOM      8  C   UNL     1     122.491  67.722  -0.480  1.00  0.00    -0.003 C 
ATOM      9  C   UNL     1     121.822  66.852  -1.595  1.00  0.00    -0.011 C 
ATOM     10  C   UNL     1     121.793  71.129   1.359  1.00  0.00    -0.006 C 
ATOM     11  C   UNL     1     121.545  68.840   2.358  1.00  0.00    -0.027 C 
ATOM     12  C   UNL     1     123.948  68.136  -0.758  1.00  0.00     0.008 C 
ATOM     13  C   UNL     1     122.746  65.747  -2.131  1.00  0.00     0.008 C 
ATOM     14  C   UNL     1     123.143  71.594   0.732  1.00  0.00     0.017 C 
ATOM     15  C   UNL     1     121.730  71.732   2.883  1.00  0.00    -0.020 C 
ATOM     16  C   UNL     1     121.178  69.350   3.703  1.00  0.00     0.032 C 
ATOM     17  C   UNL     1     120.777  70.853   3.797  1.00  0.00     0.006 C 
ATOM     18  C   UNL     1     123.127  71.757   3.601  1.00  0.00     0.008 C 
ATOM     19  C   UNL     1     121.257  73.228   2.770  1.00  0.00     0.012 C 
ATOM     20  C   UNL     1     120.684  71.317   5.337  1.00  0.00    -0.025 C 
ATOM     21  C   UNL     1     123.104  72.224   5.076  1.00  0.00     0.005 C 
ATOM     22  C   UNL     1     122.138  71.398   5.952  1.00  0.00     0.003 C 
ATOM     23  C   UNL     1     119.876  70.281   6.194  1.00  0.00     0.010 C 
ATOM     24  C   UNL     1     119.898  72.667   5.410  1.00  0.00     0.012 C 
ATOM     25  C   UNL     1     122.219  71.688   7.507  1.00  0.00    -0.006 C 
ATOM     26  C   UNL     1     119.894  70.566   7.711  1.00  0.00     0.033 C 
ATOM     27  C   UNL     1     121.327  70.651   8.269  1.00  0.00     0.120 C 
ATOM     28  C   UNL     1     121.805  73.130   7.902  1.00  0.00     0.014 C 
ATOM     29  C   UNL     1     123.682  71.508   8.005  1.00  0.00     0.014 C 
ENDROOT
BRANCH   1  30
ATOM     30  C   UNL     1     121.914  70.617  -2.103  1.00  0.00     0.048 C 
ATOM     31  O   UNL     1     121.655  70.912  -3.295  1.00  0.00    -0.550 OA
ATOM     32  O   UNL     1     123.041  71.191  -1.525  1.00  0.00    -0.550 OA
ENDBRANCH   1  30
BRANCH  27  33
ATOM     33  O   UNL     1     121.915  69.372   8.213  1.00  0.00    -0.393 OA
ATOM     34  H   UNL     1     121.548  68.916   7.411  1.00  0.00     0.210 HD
ENDBRANCH  27  33
TORSDOF 2
ENDMDL
