MODEL 1
REMARK VINA RESULT:    -5.502      0.000      0.000
REMARK INTER + INTRA:         -10.326
REMARK INTER:                  -9.362
REMARK INTRA:                  -0.965
REMARK UNBOUND:                -0.965
REMARK SMILES CCCCCCCCCCCCCC(=O)[O-]
REMARK SMILES IDX 8 1 9 2 10 3 11 4 12 5 13 6 14 7 15 8 16 9 7 10 6 11 5 12
REMARK SMILES IDX 4 13 3 14 2 15 1 16
REMARK H PARENT
REMARK Flexibility Score: inf
ROOT
ATOM      1  C   UNL     1       7.891 -30.346  24.168  1.00  0.00     0.000 C 
ENDROOT
BRANCH   1   2
ATOM      2  C   UNL     1       7.637 -29.388  22.994  1.00  0.00     0.000 C 
BRANCH   2   3
ATOM      3  C   UNL     1       7.746 -30.084  21.629  1.00  0.00     0.000 C 
BRANCH   3   4
ATOM      4  C   UNL     1       7.398 -31.573  21.744  1.00  0.00     0.000 C 
BRANCH   4   5
ATOM      5  C   UNL     1       8.490 -32.444  21.105  1.00  0.00     0.006 C 
BRANCH   5   6
ATOM      6  C   UNL     1       9.734 -31.630  20.726  1.00  0.00     0.053 C 
BRANCH   6   7
ATOM      7  C   UNL     1      10.928 -32.031  21.538  1.00  0.00     0.041 C 
ATOM      8  O   UNL     1      11.863 -32.686  21.009  1.00  0.00    -0.550 OA
ATOM      9  O   UNL     1      11.020 -31.653  22.871  1.00  0.00    -0.550 OA
ENDBRANCH   6   7
ENDBRANCH   5   6
ENDBRANCH   4   5
ENDBRANCH   3   4
ENDBRANCH   2   3
ENDBRANCH   1   2
BRANCH   1  10
ATOM     10  C   UNL     1       6.739 -30.353  25.189  1.00  0.00     0.000 C 
BRANCH  10  11
ATOM     11  C   UNL     1       5.470 -29.669  24.636  1.00  0.00    -0.000 C 
BRANCH  11  12
ATOM     12  C   UNL     1       4.484 -29.221  25.729  1.00  0.00    -0.000 C 
BRANCH  12  13
ATOM     13  C   UNL     1       3.135 -28.754  25.160  1.00  0.00    -0.000 C 
BRANCH  13  14
ATOM     14  C   UNL     1       2.836 -29.359  23.779  1.00  0.00    -0.000 C 
BRANCH  14  15
ATOM     15  C   UNL     1       1.353 -29.256  23.395  1.00  0.00    -0.003 C 
ATOM     16  C   UNL     1       0.723 -30.640  23.259  1.00  0.00     0.004 C 
ENDBRANCH  14  15
ENDBRANCH  13  14
ENDBRANCH  12  13
ENDBRANCH  11  12
ENDBRANCH  10  11
ENDBRANCH   1  10
TORSDOF 12
ENDMDL
MODEL 2
REMARK VINA RESULT:    -5.393      4.156      7.573
REMARK INTER + INTRA:         -10.142
REMARK INTER:                  -9.422
REMARK INTRA:                  -0.719
REMARK UNBOUND:                -0.965
REMARK SMILES CCCCCCCCCCCCCC(=O)[O-]
REMARK SMILES IDX 8 1 9 2 10 3 11 4 12 5 13 6 14 7 15 8 16 9 7 10 6 11 5 12
REMARK SMILES IDX 4 13 3 14 2 15 1 16
REMARK H PARENT
REMARK Flexibility Score: inf
ROOT
ATOM      1  C   UNL     1       6.537 -29.424  25.689  1.00  0.00     0.000 C 
ENDROOT
BRANCH   1   2
ATOM      2  C   UNL     1       5.109 -29.734  25.214  1.00  0.00     0.000 C 
BRANCH   2   3
ATOM      3  C   UNL     1       4.041 -28.983  26.022  1.00  0.00     0.000 C 
BRANCH   3   4
ATOM      4  C   UNL     1       2.921 -28.471  25.109  1.00  0.00     0.000 C 
BRANCH   4   5
ATOM      5  C   UNL     1       2.746 -29.384  23.886  1.00  0.00     0.006 C 
BRANCH   5   6
ATOM      6  C   UNL     1       1.384 -29.193  23.208  1.00  0.00     0.053 C 
BRANCH   6   7
ATOM      7  C   UNL     1       0.403 -30.246  23.625  1.00  0.00     0.041 C 
ATOM      8  O   UNL     1       0.047 -31.139  22.812  1.00  0.00    -0.550 OA
ATOM      9  O   UNL     1      -0.092 -30.260  24.922  1.00  0.00    -0.550 OA
ENDBRANCH   6   7
ENDBRANCH   5   6
ENDBRANCH   4   5
ENDBRANCH   3   4
ENDBRANCH   2   3
ENDBRANCH   1   2
BRANCH   1  10
ATOM     10  C   UNL     1       7.609 -30.168  24.872  1.00  0.00     0.000 C 
BRANCH  10  11
ATOM     11  C   UNL     1       7.201 -30.332  23.392  1.00  0.00    -0.000 C 
BRANCH  11  12
ATOM     12  C   UNL     1       7.780 -29.246  22.468  1.00  0.00    -0.000 C 
BRANCH  12  13
ATOM     13  C   UNL     1       8.146 -29.781  21.075  1.00  0.00    -0.000 C 
BRANCH  13  14
ATOM     14  C   UNL     1       9.439 -30.613  21.084  1.00  0.00    -0.000 C 
BRANCH  14  15
ATOM     15  C   UNL     1       9.192 -32.096  20.771  1.00  0.00    -0.003 C 
ATOM     16  C   UNL     1      10.338 -32.964  21.284  1.00  0.00     0.004 C 
ENDBRANCH  14  15
ENDBRANCH  13  14
ENDBRANCH  12  13
ENDBRANCH  11  12
ENDBRANCH  10  11
ENDBRANCH   1  10
TORSDOF 12
ENDMDL
MODEL 3
REMARK VINA RESULT:    -5.392      3.334      6.983
REMARK INTER + INTRA:         -10.139
REMARK INTER:                  -8.580
REMARK INTRA:                  -1.559
REMARK UNBOUND:                -0.965
REMARK SMILES CCCCCCCCCCCCCC(=O)[O-]
REMARK SMILES IDX 8 1 9 2 10 3 11 4 12 5 13 6 14 7 15 8 16 9 7 10 6 11 5 12
REMARK SMILES IDX 4 13 3 14 2 15 1 16
REMARK H PARENT
REMARK Flexibility Score: inf
ROOT
ATOM      1  C   UNL     1      10.716 -32.545  20.714  1.00  0.00     0.000 C 
ENDROOT
BRANCH   1   2
ATOM      2  C   UNL     1       9.246 -32.126  20.872  1.00  0.00     0.000 C 
BRANCH   2   3
ATOM      3  C   UNL     1       9.065 -30.601  20.897  1.00  0.00     0.000 C 
BRANCH   3   4
ATOM      4  C   UNL     1       7.839 -30.208  21.731  1.00  0.00     0.000 C 
BRANCH   4   5
ATOM      5  C   UNL     1       7.374 -31.377  22.611  1.00  0.00     0.006 C 
BRANCH   5   6
ATOM      6  C   UNL     1       6.419 -30.923  23.723  1.00  0.00     0.053 C 
BRANCH   6   7
ATOM      7  C   UNL     1       7.129 -30.758  25.031  1.00  0.00     0.041 C 
ATOM      8  O   UNL     1       7.092 -31.674  25.893  1.00  0.00    -0.550 OA
ATOM      9  O   UNL     1       7.859 -29.604  25.285  1.00  0.00    -0.550 OA
ENDBRANCH   6   7
ENDBRANCH   5   6
ENDBRANCH   4   5
ENDBRANCH   3   4
ENDBRANCH   2   3
ENDBRANCH   1   2
BRANCH   1  10
ATOM     10  C   UNL     1      11.601 -32.054  21.874  1.00  0.00     0.000 C 
BRANCH  10  11
ATOM     11  C   UNL     1      11.345 -32.846  23.174  1.00  0.00    -0.000 C 
BRANCH  11  12
ATOM     12  C   UNL     1      10.618 -32.033  24.260  1.00  0.00    -0.000 C 
BRANCH  12  13
ATOM     13  C   UNL     1      11.202 -30.623  24.440  1.00  0.00    -0.000 C 
BRANCH  13  14
ATOM     14  C   UNL     1      12.585 -30.639  25.111  1.00  0.00    -0.000 C 
BRANCH  14  15
ATOM     15  C   UNL     1      13.304 -29.286  25.016  1.00  0.00    -0.003 C 
ATOM     16  C   UNL     1      13.655 -28.950  23.568  1.00  0.00     0.004 C 
ENDBRANCH  14  15
ENDBRANCH  13  14
ENDBRANCH  12  13
ENDBRANCH  11  12
ENDBRANCH  10  11
ENDBRANCH   1  10
TORSDOF 12
ENDMDL
MODEL 4
REMARK VINA RESULT:    -5.362      2.725      5.940
REMARK INTER + INTRA:         -10.088
REMARK INTER:                  -8.539
REMARK INTRA:                  -1.549
REMARK UNBOUND:                -0.965
REMARK SMILES CCCCCCCCCCCCCC(=O)[O-]
REMARK SMILES IDX 8 1 9 2 10 3 11 4 12 5 13 6 14 7 15 8 16 9 7 10 6 11 5 12
REMARK SMILES IDX 4 13 3 14 2 15 1 16
REMARK H PARENT
REMARK Flexibility Score: inf
ROOT
ATOM      1  C   UNL     1       6.799 -30.512  24.750  1.00  0.00     0.000 C 
ENDROOT
BRANCH   1   2
ATOM      2  C   UNL     1       6.605 -30.271  23.244  1.00  0.00     0.000 C 
BRANCH   2   3
ATOM      3  C   UNL     1       7.647 -29.304  22.662  1.00  0.00     0.000 C 
BRANCH   3   4
ATOM      4  C   UNL     1       8.040 -29.715  21.237  1.00  0.00     0.000 C 
BRANCH   4   5
ATOM      5  C   UNL     1       9.401 -30.425  21.226  1.00  0.00     0.006 C 
BRANCH   5   6
ATOM      6  C   UNL     1       9.259 -31.952  21.163  1.00  0.00     0.053 C 
BRANCH   6   7
ATOM      7  C   UNL     1      10.593 -32.631  21.103  1.00  0.00     0.041 C 
ATOM      8  O   UNL     1      10.672 -33.884  21.195  1.00  0.00    -0.550 OA
ATOM      9  O   UNL     1      11.747 -31.881  20.915  1.00  0.00    -0.550 OA
ENDBRANCH   6   7
ENDBRANCH   5   6
ENDBRANCH   4   5
ENDBRANCH   3   4
ENDBRANCH   2   3
ENDBRANCH   1   2
BRANCH   1  10
ATOM     10  C   UNL     1       8.261 -30.330  25.196  1.00  0.00     0.000 C 
BRANCH  10  11
ATOM     11  C   UNL     1       8.961 -31.682  25.455  1.00  0.00    -0.000 C 
BRANCH  11  12
ATOM     12  C   UNL     1      10.295 -31.840  24.704  1.00  0.00    -0.000 C 
BRANCH  12  13
ATOM     13  C   UNL     1      11.017 -30.501  24.484  1.00  0.00    -0.000 C 
BRANCH  13  14
ATOM     14  C   UNL     1      12.530 -30.675  24.272  1.00  0.00    -0.000 C 
BRANCH  14  15
ATOM     15  C   UNL     1      13.242 -29.348  23.974  1.00  0.00    -0.003 C 
ATOM     16  C   UNL     1      13.760 -28.703  25.257  1.00  0.00     0.004 C 
ENDBRANCH  14  15
ENDBRANCH  13  14
ENDBRANCH  12  13
ENDBRANCH  11  12
ENDBRANCH  10  11
ENDBRANCH   1  10
TORSDOF 12
ENDMDL
MODEL 5
REMARK VINA RESULT:    -5.355      1.336      2.068
REMARK INTER + INTRA:         -10.076
REMARK INTER:                  -9.155
REMARK INTRA:                  -0.920
REMARK UNBOUND:                -0.965
REMARK SMILES CCCCCCCCCCCCCC(=O)[O-]
REMARK SMILES IDX 8 1 9 2 10 3 11 4 12 5 13 6 14 7 15 8 16 9 7 10 6 11 5 12
REMARK SMILES IDX 4 13 3 14 2 15 1 16
REMARK H PARENT
REMARK Flexibility Score: inf
ROOT
ATOM      1  C   UNL     1       7.397 -30.136  22.442  1.00  0.00     0.000 C 
ENDROOT
BRANCH   1   2
ATOM      2  C   UNL     1       7.280 -31.628  22.094  1.00  0.00     0.000 C 
BRANCH   2   3
ATOM      3  C   UNL     1       8.518 -32.163  21.359  1.00  0.00     0.000 C 
BRANCH   3   4
ATOM      4  C   UNL     1       9.324 -31.016  20.737  1.00  0.00     0.000 C 
BRANCH   4   5
ATOM      5  C   UNL     1      10.790 -31.063  21.194  1.00  0.00     0.006 C 
BRANCH   5   6
ATOM      6  C   UNL     1      11.186 -29.820  22.003  1.00  0.00     0.053 C 
BRANCH   6   7
ATOM      7  C   UNL     1      11.422 -30.151  23.445  1.00  0.00     0.041 C 
ATOM      8  O   UNL     1      10.541 -30.758  24.109  1.00  0.00    -0.550 OA
ATOM      9  O   UNL     1      12.628 -29.815  24.047  1.00  0.00    -0.550 OA
ENDBRANCH   6   7
ENDBRANCH   5   6
ENDBRANCH   4   5
ENDBRANCH   3   4
ENDBRANCH   2   3
ENDBRANCH   1   2
BRANCH   1  10
ATOM     10  C   UNL     1       7.105 -29.847  23.925  1.00  0.00     0.000 C 
BRANCH  10  11
ATOM     11  C   UNL     1       5.639 -30.157  24.298  1.00  0.00    -0.000 C 
BRANCH  11  12
ATOM     12  C   UNL     1       5.082 -29.256  25.415  1.00  0.00    -0.000 C 
BRANCH  12  13
ATOM     13  C   UNL     1       3.583 -28.962  25.252  1.00  0.00    -0.000 C 
BRANCH  13  14
ATOM     14  C   UNL     1       3.052 -29.356  23.865  1.00  0.00    -0.000 C 
BRANCH  14  15
ATOM     15  C   UNL     1       1.789 -28.575  23.470  1.00  0.00    -0.003 C 
ATOM     16  C   UNL     1       0.676 -29.521  23.025  1.00  0.00     0.004 C 
ENDBRANCH  14  15
ENDBRANCH  13  14
ENDBRANCH  12  13
ENDBRANCH  11  12
ENDBRANCH  10  11
ENDBRANCH   1  10
TORSDOF 12
ENDMDL
MODEL 6
REMARK VINA RESULT:    -5.348      2.868      5.454
REMARK INTER + INTRA:         -10.064
REMARK INTER:                  -8.272
REMARK INTRA:                  -1.792
REMARK UNBOUND:                -0.965
REMARK SMILES CCCCCCCCCCCCCC(=O)[O-]
REMARK SMILES IDX 8 1 9 2 10 3 11 4 12 5 13 6 14 7 15 8 16 9 7 10 6 11 5 12
REMARK SMILES IDX 4 13 3 14 2 15 1 16
REMARK H PARENT
REMARK Flexibility Score: inf
ROOT
ATOM      1  C   UNL     1       7.418 -29.918  25.107  1.00  0.00     0.000 C 
ENDROOT
BRANCH   1   2
ATOM      2  C   UNL     1       8.412 -31.080  25.259  1.00  0.00     0.000 C 
BRANCH   2   3
ATOM      3  C   UNL     1       9.837 -30.699  24.829  1.00  0.00     0.000 C 
BRANCH   3   4
ATOM      4  C   UNL     1      10.713 -31.948  24.668  1.00  0.00     0.000 C 
BRANCH   4   5
ATOM      5  C   UNL     1      12.136 -31.569  24.232  1.00  0.00     0.006 C 
BRANCH   5   6
ATOM      6  C   UNL     1      12.532 -30.163  24.700  1.00  0.00     0.053 C 
BRANCH   6   7
ATOM      7  C   UNL     1      13.013 -29.315  23.562  1.00  0.00     0.041 C 
ATOM      8  O   UNL     1      14.125 -28.730  23.634  1.00  0.00    -0.550 OA
ATOM      9  O   UNL     1      12.246 -29.197  22.411  1.00  0.00    -0.550 OA
ENDBRANCH   6   7
ENDBRANCH   5   6
ENDBRANCH   4   5
ENDBRANCH   3   4
ENDBRANCH   2   3
ENDBRANCH   1   2
BRANCH   1  10
ATOM     10  C   UNL     1       6.549 -30.041  23.843  1.00  0.00     0.000 C 
BRANCH  10  11
ATOM     11  C   UNL     1       6.531 -31.484  23.291  1.00  0.00    -0.000 C 
BRANCH  11  12
ATOM     12  C   UNL     1       7.149 -31.615  21.888  1.00  0.00    -0.000 C 
BRANCH  12  13
ATOM     13  C   UNL     1       8.019 -30.408  21.504  1.00  0.00    -0.000 C 
BRANCH  13  14
ATOM     14  C   UNL     1       9.428 -30.818  21.047  1.00  0.00    -0.000 C 
BRANCH  14  15
ATOM     15  C   UNL     1       9.669 -32.331  21.155  1.00  0.00    -0.003 C 
ATOM     16  C   UNL     1      11.122 -32.680  20.840  1.00  0.00     0.004 C 
ENDBRANCH  14  15
ENDBRANCH  13  14
ENDBRANCH  12  13
ENDBRANCH  11  12
ENDBRANCH  10  11
ENDBRANCH   1  10
TORSDOF 12
ENDMDL
MODEL 7
REMARK VINA RESULT:    -5.291      1.666      2.390
REMARK INTER + INTRA:          -9.968
REMARK INTER:                  -9.014
REMARK INTRA:                  -0.954
REMARK UNBOUND:                -0.965
REMARK SMILES CCCCCCCCCCCCCC(=O)[O-]
REMARK SMILES IDX 8 1 9 2 10 3 11 4 12 5 13 6 14 7 15 8 16 9 7 10 6 11 5 12
REMARK SMILES IDX 4 13 3 14 2 15 1 16
REMARK H PARENT
REMARK Flexibility Score: inf
ROOT
ATOM      1  C   UNL     1       6.929 -30.880  24.269  1.00  0.00     0.000 C 
ENDROOT
BRANCH   1   2
ATOM      2  C   UNL     1       7.839 -30.194  25.301  1.00  0.00     0.000 C 
BRANCH   2   3
ATOM      3  C   UNL     1       9.327 -30.491  25.065  1.00  0.00     0.000 C 
BRANCH   3   4
ATOM      4  C   UNL     1       9.511 -31.821  24.324  1.00  0.00     0.000 C 
BRANCH   4   5
ATOM      5  C   UNL     1      10.470 -31.662  23.135  1.00  0.00     0.006 C 
BRANCH   5   6
ATOM      6  C   UNL     1      10.187 -30.387  22.329  1.00  0.00     0.053 C 
BRANCH   6   7
ATOM      7  C   UNL     1       9.144 -30.615  21.278  1.00  0.00     0.041 C 
ATOM      8  O   UNL     1       8.175 -29.820  21.164  1.00  0.00    -0.550 OA
ATOM      9  O   UNL     1       9.259 -31.689  20.406  1.00  0.00    -0.550 OA
ENDBRANCH   6   7
ENDBRANCH   5   6
ENDBRANCH   4   5
ENDBRANCH   3   4
ENDBRANCH   2   3
ENDBRANCH   1   2
BRANCH   1  10
ATOM     10  C   UNL     1       5.626 -30.100  24.016  1.00  0.00     0.000 C 
BRANCH  10  11
ATOM     11  C   UNL     1       5.119 -29.390  25.289  1.00  0.00    -0.000 C 
BRANCH  11  12
ATOM     12  C   UNL     1       3.646 -28.950  25.206  1.00  0.00    -0.000 C 
BRANCH  12  13
ATOM     13  C   UNL     1       2.968 -29.384  23.897  1.00  0.00    -0.000 C 
BRANCH  13  14
ATOM     14  C   UNL     1       1.823 -28.444  23.486  1.00  0.00    -0.000 C 
BRANCH  14  15
ATOM     15  C   UNL     1       0.451 -29.134  23.513  1.00  0.00    -0.003 C 
ATOM     16  C   UNL     1       0.567 -30.601  23.107  1.00  0.00     0.004 C 
ENDBRANCH  14  15
ENDBRANCH  13  14
ENDBRANCH  12  13
ENDBRANCH  11  12
ENDBRANCH  10  11
ENDBRANCH   1  10
TORSDOF 12
ENDMDL
MODEL 8
REMARK VINA RESULT:    -5.242      2.819      5.545
REMARK INTER + INTRA:          -9.884
REMARK INTER:                  -7.880
REMARK INTRA:                  -2.004
REMARK UNBOUND:                -0.965
REMARK SMILES CCCCCCCCCCCCCC(=O)[O-]
REMARK SMILES IDX 8 1 9 2 10 3 11 4 12 5 13 6 14 7 15 8 16 9 7 10 6 11 5 12
REMARK SMILES IDX 4 13 3 14 2 15 1 16
REMARK H PARENT
REMARK Flexibility Score: inf
ROOT
ATOM      1  C   UNL     1       6.800 -29.770  24.261  1.00  0.00     0.000 C 
ENDROOT
BRANCH   1   2
ATOM      2  C   UNL     1       7.500 -30.033  25.604  1.00  0.00     0.000 C 
BRANCH   2   3
ATOM      3  C   UNL     1       7.782 -31.524  25.842  1.00  0.00     0.000 C 
BRANCH   3   4
ATOM      4  C   UNL     1       9.283 -31.774  26.032  1.00  0.00     0.000 C 
BRANCH   4   5
ATOM      5  C   UNL     1       9.980 -31.987  24.680  1.00  0.00     0.006 C 
BRANCH   5   6
ATOM      6  C   UNL     1      10.954 -30.849  24.344  1.00  0.00     0.053 C 
BRANCH   6   7
ATOM      7  C   UNL     1      12.381 -31.275  24.504  1.00  0.00     0.041 C 
ATOM      8  O   UNL     1      13.049 -31.642  23.502  1.00  0.00    -0.550 OA
ATOM      9  O   UNL     1      12.982 -31.237  25.755  1.00  0.00    -0.550 OA
ENDBRANCH   6   7
ENDBRANCH   5   6
ENDBRANCH   4   5
ENDBRANCH   3   4
ENDBRANCH   2   3
ENDBRANCH   1   2
BRANCH   1  10
ATOM     10  C   UNL     1       7.764 -29.241  23.183  1.00  0.00     0.000 C 
BRANCH  10  11
ATOM     11  C   UNL     1       7.626 -30.013  21.853  1.00  0.00    -0.000 C 
BRANCH  11  12
ATOM     12  C   UNL     1       7.399 -31.524  22.037  1.00  0.00    -0.000 C 
BRANCH  12  13
ATOM     13  C   UNL     1       8.316 -32.378  21.148  1.00  0.00    -0.000 C 
BRANCH  13  14
ATOM     14  C   UNL     1       9.426 -31.551  20.480  1.00  0.00    -0.000 C 
BRANCH  14  15
ATOM     15  C   UNL     1      10.830 -32.101  20.769  1.00  0.00    -0.003 C 
ATOM     16  C   UNL     1      10.756 -33.493  21.395  1.00  0.00     0.004 C 
ENDBRANCH  14  15
ENDBRANCH  13  14
ENDBRANCH  12  13
ENDBRANCH  11  12
ENDBRANCH  10  11
ENDBRANCH   1  10
TORSDOF 12
ENDMDL
MODEL 9
REMARK VINA RESULT:    -5.215      4.037      7.030
REMARK INTER + INTRA:          -9.838
REMARK INTER:                  -7.734
REMARK INTRA:                  -2.104
REMARK UNBOUND:                -0.965
REMARK SMILES CCCCCCCCCCCCCC(=O)[O-]
REMARK SMILES IDX 8 1 9 2 10 3 11 4 12 5 13 6 14 7 15 8 16 9 7 10 6 11 5 12
REMARK SMILES IDX 4 13 3 14 2 15 1 16
REMARK H PARENT
REMARK Flexibility Score: inf
ROOT
ATOM      1  C   UNL     1      13.629 -31.993  22.823  1.00  0.00     0.000 C 
ENDROOT
BRANCH   1   2
ATOM      2  C   UNL     1      12.783 -32.741  21.781  1.00  0.00     0.000 C 
BRANCH   2   3
ATOM      3  C   UNL     1      11.568 -31.927  21.312  1.00  0.00     0.000 C 
BRANCH   3   4
ATOM      4  C   UNL     1      10.330 -32.821  21.169  1.00  0.00     0.000 C 
BRANCH   4   5
ATOM      5  C   UNL     1       9.085 -31.988  20.833  1.00  0.00     0.006 C 
BRANCH   5   6
ATOM      6  C   UNL     1       8.276 -31.621  22.084  1.00  0.00     0.053 C 
BRANCH   6   7
ATOM      7  C   UNL     1       8.217 -30.138  22.291  1.00  0.00     0.041 C 
ATOM      8  O   UNL     1       7.197 -29.610  22.805  1.00  0.00    -0.550 OA
ATOM      9  O   UNL     1       9.303 -29.344  21.945  1.00  0.00    -0.550 OA
ENDBRANCH   6   7
ENDBRANCH   5   6
ENDBRANCH   4   5
ENDBRANCH   3   4
ENDBRANCH   2   3
ENDBRANCH   1   2
BRANCH   1  10
ATOM     10  C   UNL     1      12.887 -30.793  23.440  1.00  0.00     0.000 C 
BRANCH  10  11
ATOM     11  C   UNL     1      12.368 -31.101  24.861  1.00  0.00    -0.000 C 
BRANCH  11  12
ATOM     12  C   UNL     1      10.842 -31.291  24.932  1.00  0.00    -0.000 C 
BRANCH  12  13
ATOM     13  C   UNL     1      10.427 -32.771  24.969  1.00  0.00    -0.000 C 
BRANCH  13  14
ATOM     14  C   UNL     1      11.560 -33.689  25.455  1.00  0.00    -0.000 C 
BRANCH  14  15
ATOM     15  C   UNL     1      11.796 -34.884  24.520  1.00  0.00    -0.003 C 
ATOM     16  C   UNL     1      13.258 -35.323  24.548  1.00  0.00     0.004 C 
ENDBRANCH  14  15
ENDBRANCH  13  14
ENDBRANCH  12  13
ENDBRANCH  11  12
ENDBRANCH  10  11
ENDBRANCH   1  10
TORSDOF 12
ENDMDL
