MODEL 1
REMARK VINA RESULT:    22.251      0.000      0.000
REMARK INTER + INTRA:          26.533
REMARK INTER:                  26.153
REMARK INTRA:                   0.380
REMARK UNBOUND:                 0.380
REMARK SMILES O=c1c(O)c(-c2ccc(O)cc2)oc2cc(O)cc(O)c12
REMARK SMILES IDX 5 1 3 2 2 3 1 4 21 5 19 6 18 7 16 8 15 9 14 10 13 11 6 12
REMARK SMILES IDX 7 13 8 14 9 15 12 16 11 17 10 18 4 20 20 22 17 24
REMARK H PARENT 10 19 4 21 20 23 17 25
REMARK Flexibility Score: inf
ROOT
ATOM      1  C   UNL     1      29.810  23.678  45.322  1.00  0.00     0.180 A 
ATOM      2  C   UNL     1      29.034  24.272  44.308  1.00  0.00     0.208 A 
ATOM      3  C   UNL     1      27.637  24.293  44.447  1.00  0.00     0.238 A 
ATOM      4  O   UNL     1      26.933  24.833  43.550  1.00  0.00    -0.285 OA
ATOM      5  C   UNL     1      27.040  23.707  45.582  1.00  0.00     0.111 A 
ATOM      6  C   UNL     1      25.641  23.683  45.796  1.00  0.00     0.134 A 
ATOM      7  C   UNL     1      25.124  23.072  46.948  1.00  0.00     0.093 A 
ATOM      8  C   UNL     1      25.979  22.484  47.887  1.00  0.00     0.123 A 
ATOM      9  C   UNL     1      27.359  22.505  47.680  1.00  0.00     0.094 A 
ATOM     10  C   UNL     1      27.894  23.111  46.540  1.00  0.00     0.146 A 
ATOM     11  O   UNL     1      29.211  23.121  46.372  1.00  0.00    -0.452 OA
ENDROOT
BRANCH   1  12
ATOM     12  C   UNL     1      31.289  23.633  45.256  1.00  0.00     0.021 A 
ATOM     13  C   UNL     1      32.013  24.515  44.435  1.00  0.00     0.016 A 
ATOM     14  C   UNL     1      33.411  24.470  44.410  1.00  0.00     0.047 A 
ATOM     15  C   UNL     1      34.101  23.552  45.213  1.00  0.00     0.115 A 
ATOM     16  C   UNL     1      31.989  22.729  46.074  1.00  0.00     0.016 A 
ATOM     17  C   UNL     1      33.386  22.685  46.045  1.00  0.00     0.047 A 
BRANCH  15  18
ATOM     18  O   UNL     1      35.492  23.496  45.194  1.00  0.00    -0.508 OA
ATOM     19  H   UNL     1      35.991  22.648  45.440  1.00  0.00     0.293 HD
ENDBRANCH  15  18
ENDBRANCH   1  12
BRANCH   2  20
ATOM     20  O   UNL     1      29.646  24.802  43.169  1.00  0.00    -0.502 OA
ATOM     21  H   UNL     1      30.372  24.309  42.663  1.00  0.00     0.293 HD
ENDBRANCH   2  20
BRANCH   6  22
ATOM     22  O   UNL     1      24.765  24.260  44.878  1.00  0.00    -0.507 OA
ATOM     23  H   UNL     1      25.057  24.494  43.935  1.00  0.00     0.293 HD
ENDBRANCH   6  22
BRANCH   8  24
ATOM     24  O   UNL     1      25.465  21.875  49.030  1.00  0.00    -0.508 OA
ATOM     25  H   UNL     1      24.865  22.376  49.673  1.00  0.00     0.293 HD
ENDBRANCH   8  24
TORSDOF 5
ENDMDL
MODEL 2
REMARK VINA RESULT:    23.701     10.089     10.609
REMARK INTER + INTRA:          28.237
REMARK INTER:                  28.409
REMARK INTRA:                  -0.172
REMARK UNBOUND:                 0.380
REMARK SMILES O=c1c(O)c(-c2ccc(O)cc2)oc2cc(O)cc(O)c12
REMARK SMILES IDX 5 1 3 2 2 3 1 4 21 5 19 6 18 7 16 8 15 9 14 10 13 11 6 12
REMARK SMILES IDX 7 13 8 14 9 15 12 16 11 17 10 18 4 20 20 22 17 24
REMARK H PARENT 10 19 4 21 20 23 17 25
REMARK Flexibility Score: inf
ROOT
ATOM      1  C   UNL     1      29.243  33.553  48.594  1.00  0.00     0.180 A 
ATOM      2  C   UNL     1      28.399  33.376  47.480  1.00  0.00     0.208 A 
ATOM      3  C   UNL     1      27.976  32.080  47.148  1.00  0.00     0.238 A 
ATOM      4  O   UNL     1      27.212  31.910  46.159  1.00  0.00    -0.285 OA
ATOM      5  C   UNL     1      28.416  30.984  47.919  1.00  0.00     0.111 A 
ATOM      6  C   UNL     1      28.040  29.646  47.650  1.00  0.00     0.134 A 
ATOM      7  C   UNL     1      28.528  28.610  48.460  1.00  0.00     0.093 A 
ATOM      8  C   UNL     1      29.385  28.887  49.532  1.00  0.00     0.123 A 
ATOM      9  C   UNL     1      29.759  30.204  49.801  1.00  0.00     0.094 A 
ATOM     10  C   UNL     1      29.282  31.250  49.007  1.00  0.00     0.146 A 
ATOM     11  O   UNL     1      29.649  32.495  49.289  1.00  0.00    -0.452 OA
ENDROOT
BRANCH   1  12
ATOM     12  C   UNL     1      29.715  34.891  49.017  1.00  0.00     0.021 A 
ATOM     13  C   UNL     1      31.057  35.280  48.856  1.00  0.00     0.016 A 
ATOM     14  C   UNL     1      31.473  36.559  49.241  1.00  0.00     0.047 A 
ATOM     15  C   UNL     1      30.553  37.467  49.780  1.00  0.00     0.115 A 
ATOM     16  C   UNL     1      28.794  35.815  49.540  1.00  0.00     0.016 A 
ATOM     17  C   UNL     1      29.214  37.092  49.926  1.00  0.00     0.047 A 
BRANCH  15  18
ATOM     18  O   UNL     1      30.956  38.742  50.169  1.00  0.00    -0.508 OA
ATOM     19  H   UNL     1      30.953  39.023  51.143  1.00  0.00     0.293 HD
ENDBRANCH  15  18
ENDBRANCH   1  12
BRANCH   2  20
ATOM     20  O   UNL     1      28.018  34.472  46.701  1.00  0.00    -0.502 OA
ATOM     21  H   UNL     1      28.578  35.313  46.635  1.00  0.00     0.293 HD
ENDBRANCH   2  20
BRANCH   6  22
ATOM     22  O   UNL     1      27.188  29.340  46.589  1.00  0.00    -0.507 OA
ATOM     23  H   UNL     1      26.182  29.451  46.663  1.00  0.00     0.293 HD
ENDBRANCH   6  22
BRANCH   8  24
ATOM     24  O   UNL     1      29.871  27.857  50.335  1.00  0.00    -0.508 OA
ATOM     25  H   UNL     1      30.636  27.266  50.034  1.00  0.00     0.293 HD
ENDBRANCH   8  24
TORSDOF 5
ENDMDL
MODEL 3
REMARK VINA RESULT:    23.918     10.277     11.061
REMARK INTER + INTRA:          28.493
REMARK INTER:                  28.719
REMARK INTRA:                  -0.227
REMARK UNBOUND:                 0.380
REMARK SMILES O=c1c(O)c(-c2ccc(O)cc2)oc2cc(O)cc(O)c12
REMARK SMILES IDX 5 1 3 2 2 3 1 4 21 5 19 6 18 7 16 8 15 9 14 10 13 11 6 12
REMARK SMILES IDX 7 13 8 14 9 15 12 16 11 17 10 18 4 20 20 22 17 24
REMARK H PARENT 10 19 4 21 20 23 17 25
REMARK Flexibility Score: inf
ROOT
ATOM      1  C   UNL     1      29.494  33.546  49.131  1.00  0.00     0.180 A 
ATOM      2  C   UNL     1      29.876  32.588  50.091  1.00  0.00     0.208 A 
ATOM      3  C   UNL     1      29.538  31.243  49.878  1.00  0.00     0.238 A 
ATOM      4  O   UNL     1      29.886  30.375  50.725  1.00  0.00    -0.285 OA
ATOM      5  C   UNL     1      28.810  30.880  48.727  1.00  0.00     0.111 A 
ATOM      6  C   UNL     1      28.427  29.547  48.440  1.00  0.00     0.134 A 
ATOM      7  C   UNL     1      27.696  29.269  47.276  1.00  0.00     0.093 A 
ATOM      8  C   UNL     1      27.339  30.297  46.395  1.00  0.00     0.123 A 
ATOM      9  C   UNL     1      27.715  31.612  46.674  1.00  0.00     0.094 A 
ATOM     10  C   UNL     1      28.446  31.910  47.827  1.00  0.00     0.146 A 
ATOM     11  O   UNL     1      28.795  33.169  48.064  1.00  0.00    -0.452 OA
ENDROOT
BRANCH   1  12
ATOM     12  C   UNL     1      29.830  34.981  49.275  1.00  0.00     0.021 A 
ATOM     13  C   UNL     1      28.867  35.923  49.681  1.00  0.00     0.016 A 
ATOM     14  C   UNL     1      29.215  37.268  49.834  1.00  0.00     0.047 A 
ATOM     15  C   UNL     1      30.531  37.687  49.595  1.00  0.00     0.115 A 
ATOM     16  C   UNL     1      31.152  35.405  49.058  1.00  0.00     0.016 A 
ATOM     17  C   UNL     1      31.496  36.752  49.210  1.00  0.00     0.047 A 
BRANCH  15  18
ATOM     18  O   UNL     1      30.889  39.025  49.742  1.00  0.00    -0.508 OA
ATOM     19  H   UNL     1      30.348  39.768  49.313  1.00  0.00     0.293 HD
ENDBRANCH  15  18
ENDBRANCH   1  12
BRANCH   2  20
ATOM     20  O   UNL     1      30.554  32.980  51.249  1.00  0.00    -0.502 OA
ATOM     21  H   UNL     1      30.871  33.930  51.397  1.00  0.00     0.293 HD
ENDBRANCH   2  20
BRANCH   6  22
ATOM     22  O   UNL     1      28.767  28.503  49.299  1.00  0.00    -0.507 OA
ATOM     23  H   UNL     1      29.673  28.458  49.754  1.00  0.00     0.293 HD
ENDBRANCH   6  22
BRANCH   8  24
ATOM     24  O   UNL     1      26.611  30.021  45.240  1.00  0.00    -0.508 OA
ATOM     25  H   UNL     1      26.749  29.163  44.719  1.00  0.00     0.293 HD
ENDBRANCH   8  24
TORSDOF 5
ENDMDL
