MODEL 1
REMARK VINA RESULT:    -5.700      0.000      0.000
REMARK INTER + INTRA:          -7.381
REMARK INTER:                  -7.032
REMARK INTRA:                  -0.349
REMARK UNBOUND:                -0.349
REMARK SMILES Oc1cc(O)c2cc(O)c(-c3cc(O)c(O)c(O)c3)[o+]c2c1.[Cl-]
REMARK SMILES IDX 10 1 20 2 21 3 22 4 2 5 3 6 4 7 6 8 7 9 8 10 11 11 12 12
REMARK SMILES IDX 13 13 19 14 15 15 17 16 14 17 16 19 18 21 9 23 1 25 5 27
REMARK H PARENT 14 18 16 20 18 22 9 24 1 26 5 28
REMARK Flexibility Score: inf
ROOT
ATOM      1  C   UNL     1      22.293  29.263  21.696  1.00  0.00     0.402 A 
ATOM      2  O   UNL     1      21.615  29.973  20.797  1.00  0.00    -0.202 OA
ATOM      3  C   UNL     1      21.866  29.928  19.494  1.00  0.00     0.368 A 
ATOM      4  C   UNL     1      21.097  30.709  18.627  1.00  0.00     0.162 A 
ATOM      5  C   UNL     1      21.336  30.680  17.252  1.00  0.00     0.128 A 
ATOM      6  C   UNL     1      22.350  29.865  16.738  1.00  0.00     0.093 A 
ATOM      7  C   UNL     1      23.134  29.073  17.586  1.00  0.00     0.136 A 
ATOM      8  C   UNL     1      22.897  29.101  18.985  1.00  0.00     0.125 A 
ATOM      9  C   UNL     1      23.640  28.351  19.910  1.00  0.00     0.078 A 
ATOM     10  C   UNL     1      23.350  28.435  21.275  1.00  0.00     0.223 A 
ENDROOT
BRANCH   1  11
ATOM     11  C   UNL     1      21.912  29.391  23.122  1.00  0.00     0.091 A 
ATOM     12  C   UNL     1      22.642  30.247  23.956  1.00  0.00     0.068 A 
ATOM     13  C   UNL     1      22.291  30.400  25.303  1.00  0.00     0.162 A 
ATOM     14  C   UNL     1      20.798  28.715  23.645  1.00  0.00     0.068 A 
ATOM     15  C   UNL     1      21.190  29.708  25.830  1.00  0.00     0.200 A 
ATOM     16  C   UNL     1      20.432  28.862  24.988  1.00  0.00     0.162 A 
BRANCH  13  17
ATOM     17  O   UNL     1      23.034  31.242  26.130  1.00  0.00    -0.504 OA
ATOM     18  H   UNL     1      23.142  31.054  27.119  1.00  0.00     0.293 HD
ENDBRANCH  13  17
BRANCH  15  19
ATOM     19  O   UNL     1      20.888  29.889  27.182  1.00  0.00    -0.502 OA
ATOM     20  H   UNL     1      21.214  29.283  27.921  1.00  0.00     0.293 HD
ENDBRANCH  15  19
BRANCH  16  21
ATOM     21  O   UNL     1      19.313  28.158  25.437  1.00  0.00    -0.504 OA
ATOM     22  H   UNL     1      19.338  27.458  26.164  1.00  0.00     0.293 HD
ENDBRANCH  16  21
ENDBRANCH   1  11
BRANCH  10  23
ATOM     23  O   UNL     1      24.121  27.729  22.199  1.00  0.00    -0.500 OA
ATOM     24  H   UNL     1      23.803  26.855  22.600  1.00  0.00     0.294 HD
ENDBRANCH  10  23
BRANCH   5  25
ATOM     25  O   UNL     1      20.559  31.466  16.404  1.00  0.00    -0.507 OA
ATOM     26  H   UNL     1      19.623  31.757  16.660  1.00  0.00     0.293 HD
ENDBRANCH   5  25
BRANCH   7  27
ATOM     27  O   UNL     1      24.125  28.282  16.995  1.00  0.00    -0.507 OA
ATOM     28  H   UNL     1      24.437  27.393  17.357  1.00  0.00     0.293 HD
ENDBRANCH   7  27
TORSDOF 7
ENDMDL
MODEL 2
REMARK VINA RESULT:    -5.698      0.102      1.800
REMARK INTER + INTRA:          -7.379
REMARK INTER:                  -7.015
REMARK INTRA:                  -0.364
REMARK UNBOUND:                -0.349
REMARK SMILES Oc1cc(O)c2cc(O)c(-c3cc(O)c(O)c(O)c3)[o+]c2c1.[Cl-]
REMARK SMILES IDX 10 1 20 2 21 3 22 4 2 5 3 6 4 7 6 8 7 9 8 10 11 11 12 12
REMARK SMILES IDX 13 13 19 14 15 15 17 16 14 17 16 19 18 21 9 23 1 25 5 27
REMARK H PARENT 14 18 16 20 18 22 9 24 1 26 5 28
REMARK Flexibility Score: inf
ROOT
ATOM      1  C   UNL     1      22.308  29.281  21.685  1.00  0.00     0.402 A 
ATOM      2  O   UNL     1      21.636  29.999  20.787  1.00  0.00    -0.202 OA
ATOM      3  C   UNL     1      21.886  29.952  19.483  1.00  0.00     0.368 A 
ATOM      4  C   UNL     1      21.123  30.743  18.618  1.00  0.00     0.162 A 
ATOM      5  C   UNL     1      21.360  30.712  17.243  1.00  0.00     0.128 A 
ATOM      6  C   UNL     1      22.366  29.887  16.727  1.00  0.00     0.093 A 
ATOM      7  C   UNL     1      23.143  29.086  17.573  1.00  0.00     0.136 A 
ATOM      8  C   UNL     1      22.907  29.116  18.972  1.00  0.00     0.125 A 
ATOM      9  C   UNL     1      23.644  28.358  19.896  1.00  0.00     0.078 A 
ATOM     10  C   UNL     1      23.356  28.443  21.261  1.00  0.00     0.223 A 
ENDROOT
BRANCH   1  11
ATOM     11  C   UNL     1      21.930  29.412  23.111  1.00  0.00     0.091 A 
ATOM     12  C   UNL     1      20.894  28.621  23.624  1.00  0.00     0.068 A 
ATOM     13  C   UNL     1      20.530  28.712  24.973  1.00  0.00     0.162 A 
ATOM     14  C   UNL     1      22.626  30.271  23.976  1.00  0.00     0.068 A 
ATOM     15  C   UNL     1      21.211  29.587  25.833  1.00  0.00     0.200 A 
ATOM     16  C   UNL     1      22.276  30.370  25.328  1.00  0.00     0.162 A 
BRANCH  13  17
ATOM     17  O   UNL     1      19.486  27.933  25.471  1.00  0.00    -0.504 OA
ATOM     18  H   UNL     1      19.563  27.444  26.354  1.00  0.00     0.293 HD
ENDBRANCH  13  17
BRANCH  15  19
ATOM     19  O   UNL     1      20.802  29.646  27.167  1.00  0.00    -0.502 OA
ATOM     20  H   UNL     1      20.929  28.896  27.831  1.00  0.00     0.293 HD
ENDBRANCH  15  19
BRANCH  16  21
ATOM     21  O   UNL     1      23.012  31.246  26.128  1.00  0.00    -0.504 OA
ATOM     22  H   UNL     1      23.227  31.079  27.100  1.00  0.00     0.293 HD
ENDBRANCH  16  21
ENDBRANCH   1  11
BRANCH  10  23
ATOM     23  O   UNL     1      24.121  27.729  22.184  1.00  0.00    -0.500 OA
ATOM     24  H   UNL     1      24.823  28.181  22.757  1.00  0.00     0.294 HD
ENDBRANCH  10  23
BRANCH   5  25
ATOM     25  O   UNL     1      20.591  31.507  16.396  1.00  0.00    -0.507 OA
ATOM     26  H   UNL     1      20.420  31.245  15.432  1.00  0.00     0.293 HD
ENDBRANCH   5  25
BRANCH   7  27
ATOM     27  O   UNL     1      24.125  28.287  16.980  1.00  0.00    -0.507 OA
ATOM     28  H   UNL     1      23.934  27.458  16.437  1.00  0.00     0.293 HD
ENDBRANCH   7  27
TORSDOF 7
ENDMDL
MODEL 3
REMARK VINA RESULT:    -5.577      1.124      7.147
REMARK INTER + INTRA:          -7.230
REMARK INTER:                  -6.845
REMARK INTRA:                  -0.385
REMARK UNBOUND:                -0.349
REMARK SMILES Oc1cc(O)c2cc(O)c(-c3cc(O)c(O)c(O)c3)[o+]c2c1.[Cl-]
REMARK SMILES IDX 10 1 20 2 21 3 22 4 2 5 3 6 4 7 6 8 7 9 8 10 11 11 12 12
REMARK SMILES IDX 13 13 19 14 15 15 17 16 14 17 16 19 18 21 9 23 1 25 5 27
REMARK H PARENT 14 18 16 20 18 22 9 24 1 26 5 28
REMARK Flexibility Score: inf
ROOT
ATOM      1  C   UNL     1      22.265  29.911  21.104  1.00  0.00     0.402 A 
ATOM      2  O   UNL     1      21.400  29.211  21.835  1.00  0.00    -0.202 OA
ATOM      3  C   UNL     1      21.317  29.309  23.157  1.00  0.00     0.368 A 
ATOM      4  C   UNL     1      20.373  28.534  23.837  1.00  0.00     0.162 A 
ATOM      5  C   UNL     1      20.261  28.618  25.226  1.00  0.00     0.128 A 
ATOM      6  C   UNL     1      21.096  29.483  25.941  1.00  0.00     0.093 A 
ATOM      7  C   UNL     1      22.049  30.271  25.283  1.00  0.00     0.136 A 
ATOM      8  C   UNL     1      22.168  30.186  23.871  1.00  0.00     0.125 A 
ATOM      9  C   UNL     1      23.102  30.927  23.130  1.00  0.00     0.078 A 
ATOM     10  C   UNL     1      23.164  30.786  21.740  1.00  0.00     0.223 A 
ENDROOT
BRANCH   1  11
ATOM     11  C   UNL     1      22.255  29.721  19.635  1.00  0.00     0.091 A 
ATOM     12  C   UNL     1      22.943  28.637  19.075  1.00  0.00     0.068 A 
ATOM     13  C   UNL     1      22.933  28.425  17.691  1.00  0.00     0.162 A 
ATOM     14  C   UNL     1      21.522  30.573  18.792  1.00  0.00     0.068 A 
ATOM     15  C   UNL     1      22.220  29.289  16.848  1.00  0.00     0.200 A 
ATOM     16  C   UNL     1      21.500  30.371  17.407  1.00  0.00     0.162 A 
BRANCH  13  17
ATOM     17  O   UNL     1      23.635  27.352  17.142  1.00  0.00    -0.504 OA
ATOM     18  H   UNL     1      24.145  26.698  17.723  1.00  0.00     0.293 HD
ENDBRANCH  13  17
BRANCH  15  19
ATOM     19  O   UNL     1      22.250  29.038  15.474  1.00  0.00    -0.502 OA
ATOM     20  H   UNL     1      23.085  28.791  14.962  1.00  0.00     0.293 HD
ENDBRANCH  15  19
BRANCH  16  21
ATOM     21  O   UNL     1      20.751  31.259  16.633  1.00  0.00    -0.504 OA
ATOM     22  H   UNL     1      20.105  31.936  17.013  1.00  0.00     0.293 HD
ENDBRANCH  16  21
ENDBRANCH   1  11
BRANCH  10  23
ATOM     23  O   UNL     1      24.125  31.484  21.008  1.00  0.00    -0.500 OA
ATOM     24  H   UNL     1      25.111  31.266  21.080  1.00  0.00     0.294 HD
ENDBRANCH  10  23
BRANCH   5  25
ATOM     25  O   UNL     1      19.315  27.837  25.886  1.00  0.00    -0.507 OA
ATOM     26  H   UNL     1      19.570  27.241  26.665  1.00  0.00     0.293 HD
ENDBRANCH   5  25
BRANCH   7  27
ATOM     27  O   UNL     1      22.842  31.113  26.068  1.00  0.00    -0.507 OA
ATOM     28  H   UNL     1      22.671  32.098  26.200  1.00  0.00     0.293 HD
ENDBRANCH   7  27
TORSDOF 7
ENDMDL
MODEL 4
REMARK VINA RESULT:    -5.496      1.119      7.153
REMARK INTER + INTRA:          -7.131
REMARK INTER:                  -6.756
REMARK INTRA:                  -0.375
REMARK UNBOUND:                -0.349
REMARK SMILES Oc1cc(O)c2cc(O)c(-c3cc(O)c(O)c(O)c3)[o+]c2c1.[Cl-]
REMARK SMILES IDX 10 1 20 2 21 3 22 4 2 5 3 6 4 7 6 8 7 9 8 10 11 11 12 12
REMARK SMILES IDX 13 13 19 14 15 15 17 16 14 17 16 19 18 21 9 23 1 25 5 27
REMARK H PARENT 14 18 16 20 18 22 9 24 1 26 5 28
REMARK Flexibility Score: inf
ROOT
ATOM      1  C   UNL     1      22.325  29.865  21.194  1.00  0.00     0.402 A 
ATOM      2  O   UNL     1      21.496  29.154  21.956  1.00  0.00    -0.202 OA
ATOM      3  C   UNL     1      21.427  29.286  23.276  1.00  0.00     0.368 A 
ATOM      4  C   UNL     1      20.522  28.495  23.990  1.00  0.00     0.162 A 
ATOM      5  C   UNL     1      20.425  28.613  25.377  1.00  0.00     0.128 A 
ATOM      6  C   UNL     1      21.237  29.527  26.058  1.00  0.00     0.093 A 
ATOM      7  C   UNL     1      22.151  30.330  25.365  1.00  0.00     0.136 A 
ATOM      8  C   UNL     1      22.255  30.212  23.955  1.00  0.00     0.125 A 
ATOM      9  C   UNL     1      23.151  30.966  23.180  1.00  0.00     0.078 A 
ATOM     10  C   UNL     1      23.200  30.790  21.794  1.00  0.00     0.223 A 
ENDROOT
BRANCH   1  11
ATOM     11  C   UNL     1      22.302  29.636  19.731  1.00  0.00     0.091 A 
ATOM     12  C   UNL     1      21.543  30.481  18.912  1.00  0.00     0.068 A 
ATOM     13  C   UNL     1      21.520  30.297  17.525  1.00  0.00     0.162 A 
ATOM     14  C   UNL     1      23.071  28.621  19.138  1.00  0.00     0.068 A 
ATOM     15  C   UNL     1      22.271  29.270  16.934  1.00  0.00     0.200 A 
ATOM     16  C   UNL     1      23.061  28.427  17.752  1.00  0.00     0.162 A 
BRANCH  13  17
ATOM     17  O   UNL     1      20.749  31.134  16.720  1.00  0.00    -0.504 OA
ATOM     18  H   UNL     1      19.739  31.154  16.789  1.00  0.00     0.293 HD
ENDBRANCH  13  17
BRANCH  15  19
ATOM     19  O   UNL     1      22.206  29.124  15.547  1.00  0.00    -0.502 OA
ATOM     20  H   UNL     1      22.990  29.263  14.926  1.00  0.00     0.293 HD
ENDBRANCH  15  19
BRANCH  16  21
ATOM     21  O   UNL     1      23.850  27.399  17.234  1.00  0.00    -0.504 OA
ATOM     22  H   UNL     1      23.622  26.418  17.308  1.00  0.00     0.293 HD
ENDBRANCH  16  21
ENDBRANCH   1  11
BRANCH  10  23
ATOM     23  O   UNL     1      24.125  31.502  21.030  1.00  0.00    -0.500 OA
ATOM     24  H   UNL     1      25.058  31.698  21.370  1.00  0.00     0.294 HD
ENDBRANCH  10  23
BRANCH   5  25
ATOM     25  O   UNL     1      19.517  27.816  26.072  1.00  0.00    -0.507 OA
ATOM     26  H   UNL     1      18.563  27.696  25.751  1.00  0.00     0.293 HD
ENDBRANCH   5  25
BRANCH   7  27
ATOM     27  O   UNL     1      22.924  31.222  26.116  1.00  0.00    -0.507 OA
ATOM     28  H   UNL     1      23.331  32.070  25.752  1.00  0.00     0.293 HD
ENDBRANCH   7  27
TORSDOF 7
ENDMDL
MODEL 5
REMARK VINA RESULT:    -5.038      4.702      9.285
REMARK INTER + INTRA:          -6.565
REMARK INTER:                  -6.206
REMARK INTRA:                  -0.359
REMARK UNBOUND:                -0.349
REMARK SMILES Oc1cc(O)c2cc(O)c(-c3cc(O)c(O)c(O)c3)[o+]c2c1.[Cl-]
REMARK SMILES IDX 10 1 20 2 21 3 22 4 2 5 3 6 4 7 6 8 7 9 8 10 11 11 12 12
REMARK SMILES IDX 13 13 19 14 15 15 17 16 14 17 16 19 18 21 9 23 1 25 5 27
REMARK H PARENT 14 18 16 20 18 22 9 24 1 26 5 28
REMARK Flexibility Score: inf
ROOT
ATOM      1  C   UNL     1      21.194  30.054  27.933  1.00  0.00     0.402 A 
ATOM      2  O   UNL     1      19.961  30.078  28.436  1.00  0.00    -0.202 OA
ATOM      3  C   UNL     1      19.542  31.000  29.295  1.00  0.00     0.368 A 
ATOM      4  C   UNL     1      18.227  30.942  29.765  1.00  0.00     0.162 A 
ATOM      5  C   UNL     1      17.757  31.899  30.667  1.00  0.00     0.128 A 
ATOM      6  C   UNL     1      18.607  32.921  31.103  1.00  0.00     0.093 A 
ATOM      7  C   UNL     1      19.929  33.001  30.646  1.00  0.00     0.136 A 
ATOM      8  C   UNL     1      20.411  32.029  29.732  1.00  0.00     0.125 A 
ATOM      9  C   UNL     1      21.723  32.022  29.231  1.00  0.00     0.078 A 
ATOM     10  C   UNL     1      22.127  31.028  28.336  1.00  0.00     0.223 A 
ENDROOT
BRANCH   1  11
ATOM     11  C   UNL     1      21.539  28.980  26.974  1.00  0.00     0.091 A 
ATOM     12  C   UNL     1      21.544  29.257  25.601  1.00  0.00     0.068 A 
ATOM     13  C   UNL     1      21.885  28.264  24.675  1.00  0.00     0.162 A 
ATOM     14  C   UNL     1      21.917  27.701  27.414  1.00  0.00     0.068 A 
ATOM     15  C   UNL     1      22.242  26.980  25.113  1.00  0.00     0.200 A 
ATOM     16  C   UNL     1      22.265  26.699  26.500  1.00  0.00     0.162 A 
BRANCH  13  17
ATOM     17  O   UNL     1      21.872  28.545  23.309  1.00  0.00    -0.504 OA
ATOM     18  H   UNL     1      21.729  27.818  22.619  1.00  0.00     0.293 HD
ENDBRANCH  13  17
BRANCH  15  19
ATOM     19  O   UNL     1      22.565  26.024  24.148  1.00  0.00    -0.502 OA
ATOM     20  H   UNL     1      23.420  26.028  23.612  1.00  0.00     0.293 HD
ENDBRANCH  15  19
BRANCH  16  21
ATOM     21  O   UNL     1      22.629  25.452  27.010  1.00  0.00    -0.504 OA
ATOM     22  H   UNL     1      22.404  25.134  27.941  1.00  0.00     0.293 HD
ENDBRANCH  16  21
ENDBRANCH   1  11
BRANCH  10  23
ATOM     23  O   UNL     1      23.444  30.992  27.877  1.00  0.00    -0.500 OA
ATOM     24  H   UNL     1      23.977  30.131  27.856  1.00  0.00     0.294 HD
ENDBRANCH  10  23
BRANCH   5  25
ATOM     25  O   UNL     1      16.444  31.824  31.124  1.00  0.00    -0.507 OA
ATOM     26  H   UNL     1      16.105  31.017  31.634  1.00  0.00     0.293 HD
ENDBRANCH   5  25
BRANCH   7  27
ATOM     27  O   UNL     1      20.713  34.055  31.125  1.00  0.00    -0.507 OA
ATOM     28  H   UNL     1      21.698  33.984  31.334  1.00  0.00     0.293 HD
ENDBRANCH   7  27
TORSDOF 7
ENDMDL
MODEL 6
REMARK VINA RESULT:    -4.968      4.747      7.345
REMARK INTER + INTRA:          -6.479
REMARK INTER:                  -6.124
REMARK INTRA:                  -0.356
REMARK UNBOUND:                -0.349
REMARK SMILES Oc1cc(O)c2cc(O)c(-c3cc(O)c(O)c(O)c3)[o+]c2c1.[Cl-]
REMARK SMILES IDX 10 1 20 2 21 3 22 4 2 5 3 6 4 7 6 8 7 9 8 10 11 11 12 12
REMARK SMILES IDX 13 13 19 14 15 15 17 16 14 17 16 19 18 21 9 23 1 25 5 27
REMARK H PARENT 14 18 16 20 18 22 9 24 1 26 5 28
REMARK Flexibility Score: inf
ROOT
ATOM      1  C   UNL     1      21.535  29.095  28.461  1.00  0.00     0.402 A 
ATOM      2  O   UNL     1      21.724  29.132  27.144  1.00  0.00    -0.202 OA
ATOM      3  C   UNL     1      22.092  28.073  26.431  1.00  0.00     0.368 A 
ATOM      4  C   UNL     1      22.262  28.210  25.050  1.00  0.00     0.162 A 
ATOM      5  C   UNL     1      22.645  27.114  24.275  1.00  0.00     0.128 A 
ATOM      6  C   UNL     1      22.860  25.872  24.882  1.00  0.00     0.093 A 
ATOM      7  C   UNL     1      22.696  25.709  26.263  1.00  0.00     0.136 A 
ATOM      8  C   UNL     1      22.309  26.821  27.056  1.00  0.00     0.125 A 
ATOM      9  C   UNL     1      22.134  26.754  28.447  1.00  0.00     0.078 A 
ATOM     10  C   UNL     1      21.756  27.895  29.162  1.00  0.00     0.223 A 
ENDROOT
BRANCH   1  11
ATOM     11  C   UNL     1      21.115  30.341  29.143  1.00  0.00     0.091 A 
ATOM     12  C   UNL     1      22.079  31.148  29.761  1.00  0.00     0.068 A 
ATOM     13  C   UNL     1      21.710  32.340  30.395  1.00  0.00     0.162 A 
ATOM     14  C   UNL     1      19.776  30.762  29.137  1.00  0.00     0.068 A 
ATOM     15  C   UNL     1      20.369  32.749  30.408  1.00  0.00     0.200 A 
ATOM     16  C   UNL     1      19.392  31.953  29.764  1.00  0.00     0.162 A 
BRANCH  13  17
ATOM     17  O   UNL     1      22.675  33.128  31.022  1.00  0.00    -0.504 OA
ATOM     18  H   UNL     1      22.757  33.165  32.030  1.00  0.00     0.293 HD
ENDBRANCH  13  17
BRANCH  15  19
ATOM     19  O   UNL     1      20.053  33.941  31.063  1.00  0.00    -0.502 OA
ATOM     20  H   UNL     1      19.329  34.029  31.762  1.00  0.00     0.293 HD
ENDBRANCH  15  19
BRANCH  16  21
ATOM     21  O   UNL     1      18.042  32.307  29.717  1.00  0.00    -0.504 OA
ATOM     22  H   UNL     1      17.677  33.075  29.173  1.00  0.00     0.293 HD
ENDBRANCH  16  21
ENDBRANCH   1  11
BRANCH  10  23
ATOM     23  O   UNL     1      21.630  27.841  30.550  1.00  0.00    -0.500 OA
ATOM     24  H   UNL     1      22.414  28.025  31.163  1.00  0.00     0.294 HD
ENDBRANCH  10  23
BRANCH   5  25
ATOM     25  O   UNL     1      22.810  27.270  22.901  1.00  0.00    -0.507 OA
ATOM     26  H   UNL     1      23.202  26.533  22.326  1.00  0.00     0.293 HD
ENDBRANCH   5  25
BRANCH   7  27
ATOM     27  O   UNL     1      22.926  24.436  26.794  1.00  0.00    -0.507 OA
ATOM     28  H   UNL     1      23.796  24.140  27.211  1.00  0.00     0.293 HD
ENDBRANCH   7  27
TORSDOF 7
ENDMDL
MODEL 7
REMARK VINA RESULT:    -4.953      2.294      7.672
REMARK INTER + INTRA:          -6.460
REMARK INTER:                  -6.090
REMARK INTRA:                  -0.370
REMARK UNBOUND:                -0.349
REMARK SMILES Oc1cc(O)c2cc(O)c(-c3cc(O)c(O)c(O)c3)[o+]c2c1.[Cl-]
REMARK SMILES IDX 10 1 20 2 21 3 22 4 2 5 3 6 4 7 6 8 7 9 8 10 11 11 12 12
REMARK SMILES IDX 13 13 19 14 15 15 17 16 14 17 16 19 18 21 9 23 1 25 5 27
REMARK H PARENT 14 18 16 20 18 22 9 24 1 26 5 28
REMARK Flexibility Score: inf
ROOT
ATOM      1  C   UNL     1      21.714  29.301  24.446  1.00  0.00     0.402 A 
ATOM      2  O   UNL     1      22.409  30.134  25.216  1.00  0.00    -0.202 OA
ATOM      3  C   UNL     1      21.955  30.607  26.372  1.00  0.00     0.368 A 
ATOM      4  C   UNL     1      22.761  31.476  27.113  1.00  0.00     0.162 A 
ATOM      5  C   UNL     1      22.313  31.986  28.332  1.00  0.00     0.128 A 
ATOM      6  C   UNL     1      21.051  31.626  28.816  1.00  0.00     0.093 A 
ATOM      7  C   UNL     1      20.225  30.756  28.093  1.00  0.00     0.136 A 
ATOM      8  C   UNL     1      20.676  30.237  26.852  1.00  0.00     0.125 A 
ATOM      9  C   UNL     1      19.912  29.371  26.054  1.00  0.00     0.078 A 
ATOM     10  C   UNL     1      20.422  28.905  24.839  1.00  0.00     0.223 A 
ENDROOT
BRANCH   1  11
ATOM     11  C   UNL     1      22.332  28.835  23.183  1.00  0.00     0.091 A 
ATOM     12  C   UNL     1      22.363  29.690  22.074  1.00  0.00     0.068 A 
ATOM     13  C   UNL     1      22.958  29.281  20.875  1.00  0.00     0.162 A 
ATOM     14  C   UNL     1      22.939  27.572  23.088  1.00  0.00     0.068 A 
ATOM     15  C   UNL     1      23.545  28.011  20.773  1.00  0.00     0.200 A 
ATOM     16  C   UNL     1      23.541  27.151  21.897  1.00  0.00     0.162 A 
BRANCH  13  17
ATOM     17  O   UNL     1      22.969  30.133  19.771  1.00  0.00    -0.504 OA
ATOM     18  H   UNL     1      23.608  29.993  18.999  1.00  0.00     0.293 HD
ENDBRANCH  13  17
BRANCH  15  19
ATOM     19  O   UNL     1      24.117  27.648  19.552  1.00  0.00    -0.502 OA
ATOM     20  H   UNL     1      24.209  26.695  19.231  1.00  0.00     0.293 HD
ENDBRANCH  15  19
BRANCH  16  21
ATOM     21  O   UNL     1      24.125  25.883  21.877  1.00  0.00    -0.504 OA
ATOM     22  H   UNL     1      25.118  25.716  21.944  1.00  0.00     0.293 HD
ENDBRANCH  16  21
ENDBRANCH   1  11
BRANCH  10  23
ATOM     23  O   UNL     1      19.644  28.084  24.021  1.00  0.00    -0.500 OA
ATOM     24  H   UNL     1      19.796  27.084  23.971  1.00  0.00     0.294 HD
ENDBRANCH  10  23
BRANCH   5  25
ATOM     25  O   UNL     1      23.130  32.851  29.056  1.00  0.00    -0.507 OA
ATOM     26  H   UNL     1      24.124  32.679  29.162  1.00  0.00     0.293 HD
ENDBRANCH   5  25
BRANCH   7  27
ATOM     27  O   UNL     1      18.980  30.441  28.646  1.00  0.00    -0.507 OA
ATOM     28  H   UNL     1      18.641  30.795  29.529  1.00  0.00     0.293 HD
ENDBRANCH   7  27
TORSDOF 7
ENDMDL
MODEL 8
REMARK VINA RESULT:    -4.938      4.803      7.628
REMARK INTER + INTRA:          -6.441
REMARK INTER:                  -6.077
REMARK INTRA:                  -0.364
REMARK UNBOUND:                -0.349
REMARK SMILES Oc1cc(O)c2cc(O)c(-c3cc(O)c(O)c(O)c3)[o+]c2c1.[Cl-]
REMARK SMILES IDX 10 1 20 2 21 3 22 4 2 5 3 6 4 7 6 8 7 9 8 10 11 11 12 12
REMARK SMILES IDX 13 13 19 14 15 15 17 16 14 17 16 19 18 21 9 23 1 25 5 27
REMARK H PARENT 14 18 16 20 18 22 9 24 1 26 5 28
REMARK Flexibility Score: inf
ROOT
ATOM      1  C   UNL     1      21.443  29.291  28.511  1.00  0.00     0.402 A 
ATOM      2  O   UNL     1      21.577  29.263  27.187  1.00  0.00    -0.202 OA
ATOM      3  C   UNL     1      22.002  28.195  26.521  1.00  0.00     0.368 A 
ATOM      4  C   UNL     1      22.107  28.261  25.128  1.00  0.00     0.162 A 
ATOM      5  C   UNL     1      22.547  27.154  24.401  1.00  0.00     0.128 A 
ATOM      6  C   UNL     1      22.886  25.972  25.068  1.00  0.00     0.093 A 
ATOM      7  C   UNL     1      22.789  25.880  26.462  1.00  0.00     0.136 A 
ATOM      8  C   UNL     1      22.344  27.004  27.206  1.00  0.00     0.125 A 
ATOM      9  C   UNL     1      22.228  27.008  28.605  1.00  0.00     0.078 A 
ATOM     10  C   UNL     1      21.786  28.156  29.269  1.00  0.00     0.223 A 
ENDROOT
BRANCH   1  11
ATOM     11  C   UNL     1      20.949  30.539  29.138  1.00  0.00     0.091 A 
ATOM     12  C   UNL     1      19.570  30.758  29.244  1.00  0.00     0.068 A 
ATOM     13  C   UNL     1      19.078  31.920  29.850  1.00  0.00     0.162 A 
ATOM     14  C   UNL     1      21.834  31.484  29.682  1.00  0.00     0.068 A 
ATOM     15  C   UNL     1      19.962  32.875  30.373  1.00  0.00     0.200 A 
ATOM     16  C   UNL     1      21.357  32.649  30.294  1.00  0.00     0.162 A 
BRANCH  13  17
ATOM     17  O   UNL     1      17.703  32.138  29.935  1.00  0.00    -0.504 OA
ATOM     18  H   UNL     1      17.040  31.376  29.865  1.00  0.00     0.293 HD
ENDBRANCH  13  17
BRANCH  15  19
ATOM     19  O   UNL     1      19.420  34.021  30.959  1.00  0.00    -0.502 OA
ATOM     20  H   UNL     1      18.460  34.100  31.264  1.00  0.00     0.293 HD
ENDBRANCH  15  19
BRANCH  16  21
ATOM     21  O   UNL     1      22.296  33.543  30.811  1.00  0.00    -0.504 OA
ATOM     22  H   UNL     1      22.708  33.462  31.730  1.00  0.00     0.293 HD
ENDBRANCH  16  21
ENDBRANCH   1  11
BRANCH  10  23
ATOM     23  O   UNL     1      21.719  28.177  30.662  1.00  0.00    -0.500 OA
ATOM     24  H   UNL     1      22.392  28.687  31.220  1.00  0.00     0.294 HD
ENDBRANCH  10  23
BRANCH   5  25
ATOM     25  O   UNL     1      22.646  27.240  23.014  1.00  0.00    -0.507 OA
ATOM     26  H   UNL     1      23.542  27.192  22.542  1.00  0.00     0.293 HD
ENDBRANCH   5  25
BRANCH   7  27
ATOM     27  O   UNL     1      23.142  24.664  27.054  1.00  0.00    -0.507 OA
ATOM     28  H   UNL     1      22.490  24.039  27.506  1.00  0.00     0.293 HD
ENDBRANCH   7  27
TORSDOF 7
ENDMDL
MODEL 9
REMARK VINA RESULT:    -4.937      3.607      7.822
REMARK INTER + INTRA:          -6.440
REMARK INTER:                  -6.119
REMARK INTRA:                  -0.321
REMARK UNBOUND:                -0.349
REMARK SMILES Oc1cc(O)c2cc(O)c(-c3cc(O)c(O)c(O)c3)[o+]c2c1.[Cl-]
REMARK SMILES IDX 10 1 20 2 21 3 22 4 2 5 3 6 4 7 6 8 7 9 8 10 11 11 12 12
REMARK SMILES IDX 13 13 19 14 15 15 17 16 14 17 16 19 18 21 9 23 1 25 5 27
REMARK H PARENT 14 18 16 20 18 22 9 24 1 26 5 28
REMARK Flexibility Score: inf
ROOT
ATOM      1  C   UNL     1      21.998  28.735  25.266  1.00  0.00     0.402 A 
ATOM      2  O   UNL     1      22.864  29.539  25.878  1.00  0.00    -0.202 OA
ATOM      3  C   UNL     1      22.497  30.499  26.720  1.00  0.00     0.368 A 
ATOM      4  C   UNL     1      23.481  31.291  27.317  1.00  0.00     0.162 A 
ATOM      5  C   UNL     1      23.127  32.305  28.209  1.00  0.00     0.128 A 
ATOM      6  C   UNL     1      21.778  32.529  28.507  1.00  0.00     0.093 A 
ATOM      7  C   UNL     1      20.773  31.749  27.923  1.00  0.00     0.136 A 
ATOM      8  C   UNL     1      21.129  30.719  27.014  1.00  0.00     0.125 A 
ATOM      9  C   UNL     1      20.190  29.896  26.371  1.00  0.00     0.078 A 
ATOM     10  C   UNL     1      20.618  28.905  25.484  1.00  0.00     0.223 A 
ENDROOT
BRANCH   1  11
ATOM     11  C   UNL     1      22.531  27.695  24.356  1.00  0.00     0.091 A 
ATOM     12  C   UNL     1      22.527  26.355  24.763  1.00  0.00     0.068 A 
ATOM     13  C   UNL     1      23.007  25.351  23.914  1.00  0.00     0.162 A 
ATOM     14  C   UNL     1      22.988  28.016  23.068  1.00  0.00     0.068 A 
ATOM     15  C   UNL     1      23.486  25.674  22.635  1.00  0.00     0.200 A 
ATOM     16  C   UNL     1      23.468  27.022  22.206  1.00  0.00     0.162 A 
BRANCH  13  17
ATOM     17  O   UNL     1      23.015  24.021  24.335  1.00  0.00    -0.504 OA
ATOM     18  H   UNL     1      23.798  23.409  24.143  1.00  0.00     0.293 HD
ENDBRANCH  13  17
BRANCH  15  19
ATOM     19  O   UNL     1      23.962  24.636  21.832  1.00  0.00    -0.502 OA
ATOM     20  H   UNL     1      23.401  23.854  21.525  1.00  0.00     0.293 HD
ENDBRANCH  15  19
BRANCH  16  21
ATOM     21  O   UNL     1      23.907  27.416  20.941  1.00  0.00    -0.504 OA
ATOM     22  H   UNL     1      23.301  27.773  20.217  1.00  0.00     0.293 HD
ENDBRANCH  16  21
ENDBRANCH   1  11
BRANCH  10  23
ATOM     23  O   UNL     1      19.683  28.121  24.807  1.00  0.00    -0.500 OA
ATOM     24  H   UNL     1      19.625  28.115  23.796  1.00  0.00     0.294 HD
ENDBRANCH  10  23
BRANCH   5  25
ATOM     25  O   UNL     1      24.122  33.084  28.793  1.00  0.00    -0.507 OA
ATOM     26  H   UNL     1      25.104  32.921  28.603  1.00  0.00     0.293 HD
ENDBRANCH   5  25
BRANCH   7  27
ATOM     27  O   UNL     1      19.450  32.032  28.275  1.00  0.00    -0.507 OA
ATOM     28  H   UNL     1      19.156  32.335  29.192  1.00  0.00     0.293 HD
ENDBRANCH   7  27
TORSDOF 7
ENDMDL
