MODEL 1
REMARK VINA RESULT:    -5.163      0.000      0.000
REMARK INTER + INTRA:          -6.512
REMARK INTER:                  -6.220
REMARK INTRA:                  -0.293
REMARK UNBOUND:                -0.293
REMARK SMILES O=c1c(O)c(-c2ccc(O)c(O)c2)oc2cc(O)cc(O)c12
REMARK SMILES IDX 5 1 3 2 2 3 1 4 22 5 20 6 19 7 17 8 16 9 15 10 14 11 6 12
REMARK SMILES IDX 7 13 8 14 9 15 13 16 11 17 10 18 12 20 4 22 21 24 18 26
REMARK H PARENT 10 19 12 21 4 23 21 25 18 27
REMARK Flexibility Score: inf
ROOT
ATOM      1  C   UNL     1     133.011 125.764  99.378  1.00  0.00     0.180 A 
ATOM      2  C   UNL     1     132.758 127.125  99.623  1.00  0.00     0.208 A 
ATOM      3  C   UNL     1     132.158 127.498 100.837  1.00  0.00     0.238 A 
ATOM      4  O   UNL     1     131.884 128.712 101.027  1.00  0.00    -0.285 OA
ATOM      5  C   UNL     1     131.836 126.510 101.797  1.00  0.00     0.111 A 
ATOM      6  C   UNL     1     131.263 126.778 103.077  1.00  0.00     0.134 A 
ATOM      7  C   UNL     1     130.864 125.713 103.892  1.00  0.00     0.093 A 
ATOM      8  C   UNL     1     131.078 124.390 103.505  1.00  0.00     0.123 A 
ATOM      9  C   UNL     1     131.690 124.116 102.282  1.00  0.00     0.094 A 
ATOM     10  C   UNL     1     132.066 125.158 101.430  1.00  0.00     0.146 A 
ATOM     11  O   UNL     1     132.637 124.855 100.270  1.00  0.00    -0.452 OA
ENDROOT
BRANCH   1  12
ATOM     12  C   UNL     1     133.663 125.296  98.133  1.00  0.00     0.025 A 
ATOM     13  C   UNL     1     135.044 125.043  98.130  1.00  0.00     0.016 A 
ATOM     14  C   UNL     1     135.684 124.622  96.962  1.00  0.00     0.051 A 
ATOM     15  C   UNL     1     134.955 124.462  95.776  1.00  0.00     0.157 A 
ATOM     16  C   UNL     1     132.939 125.155  96.936  1.00  0.00     0.062 A 
ATOM     17  C   UNL     1     133.581 124.733  95.762  1.00  0.00     0.158 A 
BRANCH  15  18
ATOM     18  O   UNL     1     135.588 124.039  94.610  1.00  0.00    -0.504 OA
ATOM     19  H   UNL     1     135.382 123.140  94.189  1.00  0.00     0.293 HD
ENDBRANCH  15  18
BRANCH  17  20
ATOM     20  O   UNL     1     132.860 124.588  94.577  1.00  0.00    -0.504 OA
ATOM     21  H   UNL     1     132.342 125.359  94.175  1.00  0.00     0.293 HD
ENDBRANCH  17  20
ENDBRANCH   1  12
BRANCH   2  22
ATOM     22  O   UNL     1     133.064 128.083  98.653  1.00  0.00    -0.502 OA
ATOM     23  H   UNL     1     133.889 128.668  98.707  1.00  0.00     0.293 HD
ENDBRANCH   2  22
BRANCH   6  24
ATOM     24  O   UNL     1     131.091 128.063 103.600  1.00  0.00    -0.507 OA
ATOM     25  H   UNL     1     131.284 128.918 103.100  1.00  0.00     0.293 HD
ENDBRANCH   6  24
BRANCH   8  26
ATOM     26  O   UNL     1     130.682 123.354 104.349  1.00  0.00    -0.508 OA
ATOM     27  H   UNL     1     131.227 123.098 105.165  1.00  0.00     0.293 HD
ENDBRANCH   8  26
TORSDOF 6
ENDMDL
MODEL 2
REMARK VINA RESULT:    -5.152     13.079     14.455
REMARK INTER + INTRA:          -6.499
REMARK INTER:                  -6.203
REMARK INTRA:                  -0.296
REMARK UNBOUND:                -0.293
REMARK SMILES O=c1c(O)c(-c2ccc(O)c(O)c2)oc2cc(O)cc(O)c12
REMARK SMILES IDX 5 1 3 2 2 3 1 4 22 5 20 6 19 7 17 8 16 9 15 10 14 11 6 12
REMARK SMILES IDX 7 13 8 14 9 15 13 16 11 17 10 18 12 20 4 22 21 24 18 26
REMARK H PARENT 10 19 12 21 4 23 21 25 18 27
REMARK Flexibility Score: inf
ROOT
ATOM      1  C   UNL     1     118.638 125.642  99.666  1.00  0.00     0.180 A 
ATOM      2  C   UNL     1     118.893 124.276  99.880  1.00  0.00     0.208 A 
ATOM      3  C   UNL     1     119.503 123.877 101.080  1.00  0.00     0.238 A 
ATOM      4  O   UNL     1     119.778 122.659 101.242  1.00  0.00    -0.285 OA
ATOM      5  C   UNL     1     119.835 124.845 102.058  1.00  0.00     0.111 A 
ATOM      6  C   UNL     1     120.419 124.550 103.326  1.00  0.00     0.134 A 
ATOM      7  C   UNL     1     120.826 125.598 104.160  1.00  0.00     0.093 A 
ATOM      8  C   UNL     1     120.610 126.928 103.802  1.00  0.00     0.123 A 
ATOM      9  C   UNL     1     119.986 127.228 102.591  1.00  0.00     0.094 A 
ATOM     10  C   UNL     1     119.602 126.205 101.721  1.00  0.00     0.146 A 
ATOM     11  O   UNL     1     119.021 126.532 100.573  1.00  0.00    -0.452 OA
ENDROOT
BRANCH   1  12
ATOM     12  C   UNL     1     117.975 126.136  98.437  1.00  0.00     0.025 A 
ATOM     13  C   UNL     1     116.591 126.375  98.448  1.00  0.00     0.016 A 
ATOM     14  C   UNL     1     115.941 126.821  97.294  1.00  0.00     0.051 A 
ATOM     15  C   UNL     1     116.662 127.019  96.110  1.00  0.00     0.157 A 
ATOM     16  C   UNL     1     118.691 126.316  97.240  1.00  0.00     0.062 A 
ATOM     17  C   UNL     1     118.039 126.762  96.081  1.00  0.00     0.158 A 
BRANCH  15  18
ATOM     18  O   UNL     1     116.019 127.466  94.958  1.00  0.00    -0.504 OA
ATOM     19  H   UNL     1     115.322 128.201  94.990  1.00  0.00     0.293 HD
ENDBRANCH  15  18
BRANCH  17  20
ATOM     20  O   UNL     1     118.751 126.946  94.897  1.00  0.00    -0.504 OA
ATOM     21  H   UNL     1     119.713 126.642  94.805  1.00  0.00     0.293 HD
ENDBRANCH  17  20
ENDBRANCH   1  12
BRANCH   2  22
ATOM     22  O   UNL     1     118.577 123.339  98.892  1.00  0.00    -0.502 OA
ATOM     23  H   UNL     1     118.610 123.558  97.904  1.00  0.00     0.293 HD
ENDBRANCH   2  22
BRANCH   6  24
ATOM     24  O   UNL     1     120.596 123.254 103.821  1.00  0.00    -0.507 OA
ATOM     25  H   UNL     1     121.482 122.863 104.103  1.00  0.00     0.293 HD
ENDBRANCH   6  24
BRANCH   8  26
ATOM     26  O   UNL     1     121.014 127.946 104.664  1.00  0.00    -0.508 OA
ATOM     27  H   UNL     1     120.739 127.954 105.640  1.00  0.00     0.293 HD
ENDBRANCH   8  26
TORSDOF 6
ENDMDL
MODEL 3
REMARK VINA RESULT:    -5.050     12.881     14.205
REMARK INTER + INTRA:          -6.376
REMARK INTER:                  -6.106
REMARK INTRA:                  -0.270
REMARK UNBOUND:                -0.293
REMARK SMILES O=c1c(O)c(-c2ccc(O)c(O)c2)oc2cc(O)cc(O)c12
REMARK SMILES IDX 5 1 3 2 2 3 1 4 22 5 20 6 19 7 17 8 16 9 15 10 14 11 6 12
REMARK SMILES IDX 7 13 8 14 9 15 13 16 11 17 10 18 12 20 4 22 21 24 18 26
REMARK H PARENT 10 19 12 21 4 23 21 25 18 27
REMARK Flexibility Score: inf
ROOT
ATOM      1  C   UNL     1     118.709 126.172  99.809  1.00  0.00     0.180 A 
ATOM      2  C   UNL     1     118.920 127.122 100.823  1.00  0.00     0.208 A 
ATOM      3  C   UNL     1     119.610 126.737 101.984  1.00  0.00     0.238 A 
ATOM      4  O   UNL     1     119.747 127.578 102.911  1.00  0.00    -0.285 OA
ATOM      5  C   UNL     1     120.097 125.414 102.109  1.00  0.00     0.111 A 
ATOM      6  C   UNL     1     120.844 124.926 103.222  1.00  0.00     0.134 A 
ATOM      7  C   UNL     1     121.160 123.564 103.299  1.00  0.00     0.093 A 
ATOM      8  C   UNL     1     120.815 122.686 102.272  1.00  0.00     0.123 A 
ATOM      9  C   UNL     1     120.136 123.163 101.151  1.00  0.00     0.094 A 
ATOM     10  C   UNL     1     119.774 124.510 101.063  1.00  0.00     0.146 A 
ATOM     11  O   UNL     1     119.120 124.922  99.984  1.00  0.00    -0.452 OA
ENDROOT
BRANCH   1  12
ATOM     12  C   UNL     1     118.012 126.510  98.547  1.00  0.00     0.025 A 
ATOM     13  C   UNL     1     116.610 126.596  98.534  1.00  0.00     0.016 A 
ATOM     14  C   UNL     1     115.930 126.892  97.350  1.00  0.00     0.051 A 
ATOM     15  C   UNL     1     116.640 127.091  96.159  1.00  0.00     0.157 A 
ATOM     16  C   UNL     1     118.719 126.690  97.344  1.00  0.00     0.062 A 
ATOM     17  C   UNL     1     118.037 126.986  96.155  1.00  0.00     0.158 A 
BRANCH  15  18
ATOM     18  O   UNL     1     115.966 127.389  94.977  1.00  0.00    -0.504 OA
ATOM     19  H   UNL     1     115.083 126.951  94.745  1.00  0.00     0.293 HD
ENDBRANCH  15  18
BRANCH  17  20
ATOM     20  O   UNL     1     118.740 127.170  94.965  1.00  0.00    -0.504 OA
ATOM     21  H   UNL     1     119.014 128.092  94.649  1.00  0.00     0.293 HD
ENDBRANCH  17  20
ENDBRANCH   1  12
BRANCH   2  22
ATOM     22  O   UNL     1     118.412 128.418 100.690  1.00  0.00    -0.502 OA
ATOM     23  H   UNL     1     117.420 128.618 100.712  1.00  0.00     0.293 HD
ENDBRANCH   2  22
BRANCH   6  24
ATOM     24  O   UNL     1     121.319 125.736 104.258  1.00  0.00    -0.507 OA
ATOM     25  H   UNL     1     122.181 125.582 104.758  1.00  0.00     0.293 HD
ENDBRANCH   6  24
BRANCH   8  26
ATOM     26  O   UNL     1     121.160 121.340 102.375  1.00  0.00    -0.508 OA
ATOM     27  H   UNL     1     121.555 120.833 101.591  1.00  0.00     0.293 HD
ENDBRANCH   8  26
TORSDOF 6
ENDMDL
MODEL 4
REMARK VINA RESULT:    -5.033      1.248      2.892
REMARK INTER + INTRA:          -6.355
REMARK INTER:                  -6.085
REMARK INTRA:                  -0.270
REMARK UNBOUND:                -0.293
REMARK SMILES O=c1c(O)c(-c2ccc(O)c(O)c2)oc2cc(O)cc(O)c12
REMARK SMILES IDX 5 1 3 2 2 3 1 4 22 5 20 6 19 7 17 8 16 9 15 10 14 11 6 12
REMARK SMILES IDX 7 13 8 14 9 15 13 16 11 17 10 18 12 20 4 22 21 24 18 26
REMARK H PARENT 10 19 12 21 4 23 21 25 18 27
REMARK Flexibility Score: inf
ROOT
ATOM      1  C   UNL     1     132.933 125.292  99.448  1.00  0.00     0.180 A 
ATOM      2  C   UNL     1     132.710 124.338 100.455  1.00  0.00     0.208 A 
ATOM      3  C   UNL     1     132.014 124.720 101.614  1.00  0.00     0.238 A 
ATOM      4  O   UNL     1     131.865 123.875 102.535  1.00  0.00    -0.285 OA
ATOM      5  C   UNL     1     131.535 126.045 101.743  1.00  0.00     0.111 A 
ATOM      6  C   UNL     1     130.783 126.531 102.854  1.00  0.00     0.134 A 
ATOM      7  C   UNL     1     130.475 127.894 102.937  1.00  0.00     0.093 A 
ATOM      8  C   UNL     1     130.833 128.776 101.918  1.00  0.00     0.123 A 
ATOM      9  C   UNL     1     131.517 128.302 100.798  1.00  0.00     0.094 A 
ATOM     10  C   UNL     1     131.870 126.953 100.704  1.00  0.00     0.146 A 
ATOM     11  O   UNL     1     132.530 126.544  99.627  1.00  0.00    -0.452 OA
ENDROOT
BRANCH   1  12
ATOM     12  C   UNL     1     133.637 124.957  98.189  1.00  0.00     0.025 A 
ATOM     13  C   UNL     1     135.038 124.863  98.185  1.00  0.00     0.016 A 
ATOM     14  C   UNL     1     135.725 124.570  97.004  1.00  0.00     0.051 A 
ATOM     15  C   UNL     1     135.022 124.382  95.807  1.00  0.00     0.157 A 
ATOM     16  C   UNL     1     132.937 124.789  96.981  1.00  0.00     0.062 A 
ATOM     17  C   UNL     1     133.626 124.496  95.794  1.00  0.00     0.158 A 
BRANCH  15  18
ATOM     18  O   UNL     1     135.702 124.087  94.628  1.00  0.00    -0.504 OA
ATOM     19  H   UNL     1     136.705 124.210  94.548  1.00  0.00     0.293 HD
ENDBRANCH  15  18
BRANCH  17  20
ATOM     20  O   UNL     1     132.930 124.323  94.599  1.00  0.00    -0.504 OA
ATOM     21  H   UNL     1     132.060 124.810  94.417  1.00  0.00     0.293 HD
ENDBRANCH  17  20
ENDBRANCH   1  12
BRANCH   2  22
ATOM     22  O   UNL     1     133.210 123.039 100.317  1.00  0.00    -0.502 OA
ATOM     23  H   UNL     1     132.899 122.411  99.586  1.00  0.00     0.293 HD
ENDBRANCH   2  22
BRANCH   6  24
ATOM     24  O   UNL     1     130.296 125.718 103.882  1.00  0.00    -0.507 OA
ATOM     25  H   UNL     1     129.683 126.030 104.619  1.00  0.00     0.293 HD
ENDBRANCH   6  24
BRANCH   8  26
ATOM     26  O   UNL     1     130.496 130.125 102.026  1.00  0.00    -0.508 OA
ATOM     27  H   UNL     1     129.803 130.548 101.419  1.00  0.00     0.293 HD
ENDBRANCH   8  26
TORSDOF 6
ENDMDL
MODEL 5
REMARK VINA RESULT:    -4.718     13.485     15.512
REMARK INTER + INTRA:          -5.976
REMARK INTER:                  -5.675
REMARK INTRA:                  -0.301
REMARK UNBOUND:                -0.293
REMARK SMILES O=c1c(O)c(-c2ccc(O)c(O)c2)oc2cc(O)cc(O)c12
REMARK SMILES IDX 5 1 3 2 2 3 1 4 22 5 20 6 19 7 17 8 16 9 15 10 14 11 6 12
REMARK SMILES IDX 7 13 8 14 9 15 13 16 11 17 10 18 12 20 4 22 21 24 18 26
REMARK H PARENT 10 19 12 21 4 23 21 25 18 27
REMARK Flexibility Score: inf
ROOT
ATOM      1  C   UNL     1     118.718 125.916  98.113  1.00  0.00     0.180 A 
ATOM      2  C   UNL     1     117.458 126.412  97.735  1.00  0.00     0.208 A 
ATOM      3  C   UNL     1     117.257 126.821  96.407  1.00  0.00     0.238 A 
ATOM      4  O   UNL     1     116.144 127.315  96.089  1.00  0.00    -0.285 OA
ATOM      5  C   UNL     1     118.312 126.713  95.469  1.00  0.00     0.111 A 
ATOM      6  C   UNL     1     118.209 127.059  94.088  1.00  0.00     0.134 A 
ATOM      7  C   UNL     1     119.353 127.036  93.283  1.00  0.00     0.093 A 
ATOM      8  C   UNL     1     120.582 126.616  93.790  1.00  0.00     0.123 A 
ATOM      9  C   UNL     1     120.683 126.218  95.123  1.00  0.00     0.094 A 
ATOM     10  C   UNL     1     119.566 126.266  95.962  1.00  0.00     0.146 A 
ATOM     11  O   UNL     1     119.706 125.889  97.227  1.00  0.00    -0.452 OA
ENDROOT
BRANCH   1  12
ATOM     12  C   UNL     1     118.997 125.443  99.488  1.00  0.00     0.025 A 
ATOM     13  C   UNL     1     118.888 124.074  99.783  1.00  0.00     0.016 A 
ATOM     14  C   UNL     1     119.126 123.608 101.078  1.00  0.00     0.051 A 
ATOM     15  C   UNL     1     119.462 124.504 102.100  1.00  0.00     0.157 A 
ATOM     16  C   UNL     1     119.314 126.342 100.522  1.00  0.00     0.062 A 
ATOM     17  C   UNL     1     119.552 125.874 101.823  1.00  0.00     0.158 A 
BRANCH  15  18
ATOM     18  O   UNL     1     119.703 124.043 103.393  1.00  0.00    -0.504 OA
ATOM     19  H   UNL     1     119.108 123.348 103.828  1.00  0.00     0.293 HD
ENDBRANCH  15  18
BRANCH  17  20
ATOM     20  O   UNL     1     119.872 126.766 102.846  1.00  0.00    -0.504 OA
ATOM     21  H   UNL     1     120.374 127.626 102.661  1.00  0.00     0.293 HD
ENDBRANCH  17  20
ENDBRANCH   1  12
BRANCH   2  22
ATOM     22  O   UNL     1     116.437 126.531  98.682  1.00  0.00    -0.502 OA
ATOM     23  H   UNL     1     115.548 126.970  98.471  1.00  0.00     0.293 HD
ENDBRANCH   2  22
BRANCH   6  24
ATOM     24  O   UNL     1     117.009 127.405  93.459  1.00  0.00    -0.507 OA
ATOM     25  H   UNL     1     116.091 127.164  93.800  1.00  0.00     0.293 HD
ENDBRANCH   6  24
BRANCH   8  26
ATOM     26  O   UNL     1     121.698 126.590  92.955  1.00  0.00    -0.508 OA
ATOM     27  H   UNL     1     121.709 126.042  92.102  1.00  0.00     0.293 HD
ENDBRANCH   8  26
TORSDOF 6
ENDMDL
MODEL 6
REMARK VINA RESULT:    -4.699      1.655      6.913
REMARK INTER + INTRA:          -5.954
REMARK INTER:                  -5.743
REMARK INTRA:                  -0.211
REMARK UNBOUND:                -0.293
REMARK SMILES O=c1c(O)c(-c2ccc(O)c(O)c2)oc2cc(O)cc(O)c12
REMARK SMILES IDX 5 1 3 2 2 3 1 4 22 5 20 6 19 7 17 8 16 9 15 10 14 11 6 12
REMARK SMILES IDX 7 13 8 14 9 15 13 16 11 17 10 18 12 20 4 22 21 24 18 26
REMARK H PARENT 10 19 12 21 4 23 21 25 18 27
REMARK Flexibility Score: inf
ROOT
ATOM      1  C   UNL     1     132.075 125.370 100.019  1.00  0.00     0.180 A 
ATOM      2  C   UNL     1     130.913 125.612  99.267  1.00  0.00     0.208 A 
ATOM      3  C   UNL     1     130.965 125.481  97.870  1.00  0.00     0.238 A 
ATOM      4  O   UNL     1     129.935 125.752  97.199  1.00  0.00    -0.285 OA
ATOM      5  C   UNL     1     132.174 125.093  97.244  1.00  0.00     0.111 A 
ATOM      6  C   UNL     1     132.330 124.890  95.840  1.00  0.00     0.134 A 
ATOM      7  C   UNL     1     133.604 124.636  95.317  1.00  0.00     0.093 A 
ATOM      8  C   UNL     1     134.713 124.511  96.152  1.00  0.00     0.123 A 
ATOM      9  C   UNL     1     134.562 124.649  97.532  1.00  0.00     0.094 A 
ATOM     10  C   UNL     1     133.310 124.939  98.080  1.00  0.00     0.146 A 
ATOM     11  O   UNL     1     133.210 125.072  99.397  1.00  0.00    -0.452 OA
ENDROOT
BRANCH   1  12
ATOM     12  C   UNL     1     132.091 125.464 101.497  1.00  0.00     0.025 A 
ATOM     13  C   UNL     1     132.176 124.289 102.262  1.00  0.00     0.016 A 
ATOM     14  C   UNL     1     132.171 124.352 103.658  1.00  0.00     0.051 A 
ATOM     15  C   UNL     1     132.066 125.588 104.309  1.00  0.00     0.157 A 
ATOM     16  C   UNL     1     131.964 126.701 102.154  1.00  0.00     0.062 A 
ATOM     17  C   UNL     1     131.958 126.764 103.556  1.00  0.00     0.158 A 
BRANCH  15  18
ATOM     18  O   UNL     1     132.063 125.656 105.700  1.00  0.00    -0.504 OA
ATOM     19  H   UNL     1     131.302 125.273 106.249  1.00  0.00     0.293 HD
ENDBRANCH  15  18
BRANCH  17  20
ATOM     20  O   UNL     1     131.838 127.992 104.205  1.00  0.00    -0.504 OA
ATOM     21  H   UNL     1     131.920 128.867 103.703  1.00  0.00     0.293 HD
ENDBRANCH  17  20
ENDBRANCH   1  12
BRANCH   2  22
ATOM     22  O   UNL     1     129.735 126.015  99.904  1.00  0.00    -0.502 OA
ATOM     23  H   UNL     1     128.842 126.045  99.427  1.00  0.00     0.293 HD
ENDBRANCH   2  22
BRANCH   6  24
ATOM     24  O   UNL     1     131.272 124.902  94.927  1.00  0.00    -0.507 OA
ATOM     25  H   UNL     1     130.383 125.352  95.084  1.00  0.00     0.293 HD
ENDBRANCH   6  24
BRANCH   8  26
ATOM     26  O   UNL     1     135.964 124.242  95.598  1.00  0.00    -0.508 OA
ATOM     27  H   UNL     1     136.749 123.961  96.174  1.00  0.00     0.293 HD
ENDBRANCH   8  26
TORSDOF 6
ENDMDL
MODEL 7
REMARK VINA RESULT:    -4.695      1.895      3.659
REMARK INTER + INTRA:          -5.948
REMARK INTER:                  -5.720
REMARK INTRA:                  -0.228
REMARK UNBOUND:                -0.293
REMARK SMILES O=c1c(O)c(-c2ccc(O)c(O)c2)oc2cc(O)cc(O)c12
REMARK SMILES IDX 5 1 3 2 2 3 1 4 22 5 20 6 19 7 17 8 16 9 15 10 14 11 6 12
REMARK SMILES IDX 7 13 8 14 9 15 13 16 11 17 10 18 12 20 4 22 21 24 18 26
REMARK H PARENT 10 19 12 21 4 23 21 25 18 27
REMARK Flexibility Score: inf
ROOT
ATOM      1  C   UNL     1     132.517 126.511  98.833  1.00  0.00     0.180 A 
ATOM      2  C   UNL     1     132.360 126.044 100.150  1.00  0.00     0.208 A 
ATOM      3  C   UNL     1     131.662 126.837 101.076  1.00  0.00     0.238 A 
ATOM      4  O   UNL     1     131.573 126.437 102.266  1.00  0.00    -0.285 OA
ATOM      5  C   UNL     1     131.116 128.078 100.670  1.00  0.00     0.111 A 
ATOM      6  C   UNL     1     130.357 128.944 101.513  1.00  0.00     0.134 A 
ATOM      7  C   UNL     1     129.979 130.208 101.043  1.00  0.00     0.093 A 
ATOM      8  C   UNL     1     130.274 130.610  99.741  1.00  0.00     0.123 A 
ATOM      9  C   UNL     1     130.964 129.748  98.888  1.00  0.00     0.094 A 
ATOM     10  C   UNL     1     131.387 128.496  99.340  1.00  0.00     0.146 A 
ATOM     11  O   UNL     1     132.051 127.709  98.501  1.00  0.00    -0.452 OA
ENDROOT
BRANCH   1  12
ATOM     12  C   UNL     1     133.218 125.721  97.796  1.00  0.00     0.025 A 
ATOM     13  C   UNL     1     134.616 125.601  97.846  1.00  0.00     0.016 A 
ATOM     14  C   UNL     1     135.300 124.879  96.866  1.00  0.00     0.051 A 
ATOM     15  C   UNL     1     134.598 124.277  95.813  1.00  0.00     0.157 A 
ATOM     16  C   UNL     1     132.519 125.134  96.726  1.00  0.00     0.062 A 
ATOM     17  C   UNL     1     133.206 124.409  95.740  1.00  0.00     0.158 A 
BRANCH  15  18
ATOM     18  O   UNL     1     135.276 123.554  94.835  1.00  0.00    -0.504 OA
ATOM     19  H   UNL     1     135.004 122.609  94.589  1.00  0.00     0.293 HD
ENDBRANCH  15  18
BRANCH  17  20
ATOM     20  O   UNL     1     132.511 123.823  94.683  1.00  0.00    -0.504 OA
ATOM     21  H   UNL     1     131.500 123.768  94.680  1.00  0.00     0.293 HD
ENDBRANCH  17  20
ENDBRANCH   1  12
BRANCH   2  22
ATOM     22  O   UNL     1     132.925 124.825 100.535  1.00  0.00    -0.502 OA
ATOM     23  H   UNL     1     133.331 124.179  99.869  1.00  0.00     0.293 HD
ENDBRANCH   2  22
BRANCH   6  24
ATOM     24  O   UNL     1     129.930 128.603 102.799  1.00  0.00    -0.507 OA
ATOM     25  H   UNL     1     130.119 129.143 103.630  1.00  0.00     0.293 HD
ENDBRANCH   6  24
BRANCH   8  26
ATOM     26  O   UNL     1     129.868 131.869  99.302  1.00  0.00    -0.508 OA
ATOM     27  H   UNL     1     128.955 132.243  99.536  1.00  0.00     0.293 HD
ENDBRANCH   8  26
TORSDOF 6
ENDMDL
MODEL 8
REMARK VINA RESULT:    -4.618      1.473      1.648
REMARK INTER + INTRA:          -5.855
REMARK INTER:                  -5.678
REMARK INTRA:                  -0.177
REMARK UNBOUND:                -0.293
REMARK SMILES O=c1c(O)c(-c2ccc(O)c(O)c2)oc2cc(O)cc(O)c12
REMARK SMILES IDX 5 1 3 2 2 3 1 4 22 5 20 6 19 7 17 8 16 9 15 10 14 11 6 12
REMARK SMILES IDX 7 13 8 14 9 15 13 16 11 17 10 18 12 20 4 22 21 24 18 26
REMARK H PARENT 10 19 12 21 4 23 21 25 18 27
REMARK Flexibility Score: inf
ROOT
ATOM      1  C   UNL     1     132.291 126.416  99.237  1.00  0.00     0.180 A 
ATOM      2  C   UNL     1     131.465 127.520  98.965  1.00  0.00     0.208 A 
ATOM      3  C   UNL     1     130.851 128.192 100.034  1.00  0.00     0.238 A 
ATOM      4  O   UNL     1     130.069 129.145  99.780  1.00  0.00    -0.285 OA
ATOM      5  C   UNL     1     131.085 127.763 101.363  1.00  0.00     0.111 A 
ATOM      6  C   UNL     1     130.547 128.394 102.525  1.00  0.00     0.134 A 
ATOM      7  C   UNL     1     130.737 127.805 103.781  1.00  0.00     0.093 A 
ATOM      8  C   UNL     1     131.501 126.647 103.925  1.00  0.00     0.123 A 
ATOM      9  C   UNL     1     132.080 126.054 102.803  1.00  0.00     0.094 A 
ATOM     10  C   UNL     1     131.878 126.598 101.532  1.00  0.00     0.146 A 
ATOM     11  O   UNL     1     132.438 125.998 100.488  1.00  0.00    -0.452 OA
ENDROOT
BRANCH   1  12
ATOM     12  C   UNL     1     132.992 125.674  98.164  1.00  0.00     0.025 A 
ATOM     13  C   UNL     1     134.390 125.760  98.065  1.00  0.00     0.016 A 
ATOM     14  C   UNL     1     135.071 125.085  97.048  1.00  0.00     0.051 A 
ATOM     15  C   UNL     1     134.362 124.327  96.107  1.00  0.00     0.157 A 
ATOM     16  C   UNL     1     132.283 124.929  97.205  1.00  0.00     0.062 A 
ATOM     17  C   UNL     1     132.965 124.253  96.183  1.00  0.00     0.158 A 
BRANCH  15  18
ATOM     18  O   UNL     1     135.036 123.651  95.093  1.00  0.00    -0.504 OA
ATOM     19  H   UNL     1     134.546 123.061  94.431  1.00  0.00     0.293 HD
ENDBRANCH  15  18
BRANCH  17  20
ATOM     20  O   UNL     1     132.261 123.510  95.236  1.00  0.00    -0.504 OA
ATOM     21  H   UNL     1     131.366 123.088  95.453  1.00  0.00     0.293 HD
ENDBRANCH  17  20
ENDBRANCH   1  12
BRANCH   2  22
ATOM     22  O   UNL     1     131.230 127.914  97.644  1.00  0.00    -0.502 OA
ATOM     23  H   UNL     1     131.974 128.008  96.964  1.00  0.00     0.293 HD
ENDBRANCH   2  22
BRANCH   6  24
ATOM     24  O   UNL     1     129.847 129.603 102.502  1.00  0.00    -0.507 OA
ATOM     25  H   UNL     1     128.854 129.689 102.350  1.00  0.00     0.293 HD
ENDBRANCH   6  24
BRANCH   8  26
ATOM     26  O   UNL     1     131.682 126.097 105.193  1.00  0.00    -0.508 OA
ATOM     27  H   UNL     1     130.896 125.800 105.759  1.00  0.00     0.293 HD
ENDBRANCH   8  26
TORSDOF 6
ENDMDL
MODEL 9
REMARK VINA RESULT:    -4.546      2.020      6.987
REMARK INTER + INTRA:          -5.769
REMARK INTER:                  -5.894
REMARK INTRA:                   0.125
REMARK UNBOUND:                -0.293
REMARK SMILES O=c1c(O)c(-c2ccc(O)c(O)c2)oc2cc(O)cc(O)c12
REMARK SMILES IDX 5 1 3 2 2 3 1 4 22 5 20 6 19 7 17 8 16 9 15 10 14 11 6 12
REMARK SMILES IDX 7 13 8 14 9 15 13 16 11 17 10 18 12 20 4 22 21 24 18 26
REMARK H PARENT 10 19 12 21 4 23 21 25 18 27
REMARK Flexibility Score: inf
ROOT
ATOM      1  C   UNL     1     132.780 125.291 100.029  1.00  0.00     0.180 A 
ATOM      2  C   UNL     1     132.772 124.018 100.627  1.00  0.00     0.208 A 
ATOM      3  C   UNL     1     133.490 122.975 100.019  1.00  0.00     0.238 A 
ATOM      4  O   UNL     1     133.434 121.826 100.530  1.00  0.00    -0.285 OA
ATOM      5  C   UNL     1     134.220 123.222  98.832  1.00  0.00     0.111 A 
ATOM      6  C   UNL     1     135.015 122.250  98.153  1.00  0.00     0.134 A 
ATOM      7  C   UNL     1     135.588 122.568  96.916  1.00  0.00     0.093 A 
ATOM      8  C   UNL     1     135.450 123.842  96.365  1.00  0.00     0.123 A 
ATOM      9  C   UNL     1     134.725 124.818  97.048  1.00  0.00     0.094 A 
ATOM     10  C   UNL     1     134.111 124.519  98.267  1.00  0.00     0.146 A 
ATOM     11  O   UNL     1     133.420 125.473  98.881  1.00  0.00    -0.452 OA
ENDROOT
BRANCH   1  12
ATOM     12  C   UNL     1     132.068 126.444 100.624  1.00  0.00     0.025 A 
ATOM     13  C   UNL     1     131.441 127.378  99.782  1.00  0.00     0.016 A 
ATOM     14  C   UNL     1     130.782 128.486 100.321  1.00  0.00     0.051 A 
ATOM     15  C   UNL     1     130.752 128.685 101.707  1.00  0.00     0.157 A 
ATOM     16  C   UNL     1     132.054 126.659 102.014  1.00  0.00     0.062 A 
ATOM     17  C   UNL     1     131.393 127.773 102.555  1.00  0.00     0.158 A 
BRANCH  15  18
ATOM     18  O   UNL     1     130.094 129.787 102.248  1.00  0.00    -0.504 OA
ATOM     19  H   UNL     1     130.514 130.350 102.978  1.00  0.00     0.293 HD
ENDBRANCH  15  18
BRANCH  17  20
ATOM     20  O   UNL     1     131.375 127.981 103.933  1.00  0.00    -0.504 OA
ATOM     21  H   UNL     1     130.935 127.321 104.563  1.00  0.00     0.293 HD
ENDBRANCH  17  20
ENDBRANCH   1  12
BRANCH   2  22
ATOM     22  O   UNL     1     132.026 123.791 101.787  1.00  0.00    -0.502 OA
ATOM     23  H   UNL     1     132.408 123.929 102.715  1.00  0.00     0.293 HD
ENDBRANCH   2  22
BRANCH   6  24
ATOM     24  O   UNL     1     135.293 120.977  98.660  1.00  0.00    -0.507 OA
ATOM     25  H   UNL     1     135.646 120.206  98.114  1.00  0.00     0.293 HD
ENDBRANCH   6  24
BRANCH   8  26
ATOM     26  O   UNL     1     136.047 124.128  95.139  1.00  0.00    -0.508 OA
ATOM     27  H   UNL     1     136.375 123.392  94.524  1.00  0.00     0.293 HD
ENDBRANCH   8  26
TORSDOF 6
ENDMDL
