MODEL 1
REMARK VINA RESULT:    -5.176      0.000      0.000
REMARK INTER + INTRA:          -9.203
REMARK INTER:                  -8.202
REMARK INTRA:                  -1.001
REMARK UNBOUND:                -1.001
REMARK SMILES CCCCCCCCCCCC(=O)[O-]
REMARK SMILES IDX 7 1 8 2 9 3 10 4 11 5 12 6 13 7 14 8 6 9 5 10 4 11 3 12 2 13
REMARK SMILES IDX 1 14
REMARK H PARENT
REMARK Flexibility Score: inf
ROOT
ATOM      1  C   UNL     1      88.842 326.415 195.402  1.00  0.00     0.000 C 
ENDROOT
BRANCH   1   2
ATOM      2  C   UNL     1      87.901 326.062 196.568  1.00  0.00     0.000 C 
BRANCH   2   3
ATOM      3  C   UNL     1      88.204 324.682 197.173  1.00  0.00     0.000 C 
BRANCH   3   4
ATOM      4  C   UNL     1      88.922 324.776 198.530  1.00  0.00     0.006 C 
BRANCH   4   5
ATOM      5  C   UNL     1      88.995 326.219 199.048  1.00  0.00     0.053 C 
BRANCH   5   6
ATOM      6  C   UNL     1      89.336 326.268 200.505  1.00  0.00     0.041 C 
ATOM      7  O   UNL     1      90.488 326.618 200.875  1.00  0.00    -0.550 OA
ATOM      8  O   UNL     1      88.372 325.961 201.456  1.00  0.00    -0.550 OA
ENDBRANCH   5   6
ENDBRANCH   4   5
ENDBRANCH   3   4
ENDBRANCH   2   3
ENDBRANCH   1   2
BRANCH   1   9
ATOM      9  C   UNL     1      88.084 326.752 194.108  1.00  0.00     0.000 C 
BRANCH   9  10
ATOM     10  C   UNL     1      86.637 326.228 194.120  1.00  0.00    -0.000 C 
BRANCH  10  11
ATOM     11  C   UNL     1      86.462 324.961 193.269  1.00  0.00    -0.000 C 
BRANCH  11  12
ATOM     12  C   UNL     1      87.664 324.696 192.344  1.00  0.00    -0.000 C 
BRANCH  12  13
ATOM     13  C   UNL     1      88.213 323.268 192.489  1.00  0.00    -0.003 C 
ATOM     14  C   UNL     1      88.516 322.897 193.940  1.00  0.00     0.004 C 
ENDBRANCH  12  13
ENDBRANCH  11  12
ENDBRANCH  10  11
ENDBRANCH   9  10
ENDBRANCH   1   9
TORSDOF 10
ENDMDL
MODEL 2
REMARK VINA RESULT:    -5.121     19.494     20.679
REMARK INTER + INTRA:          -9.116
REMARK INTER:                  -8.457
REMARK INTRA:                  -0.660
REMARK UNBOUND:                -1.001
REMARK SMILES CCCCCCCCCCCC(=O)[O-]
REMARK SMILES IDX 7 1 8 2 9 3 10 4 11 5 12 6 13 7 14 8 6 9 5 10 4 11 3 12 2 13
REMARK SMILES IDX 1 14
REMARK H PARENT
REMARK Flexibility Score: inf
ROOT
ATOM      1  C   UNL     1     104.225 311.655 192.929  1.00  0.00     0.000 C 
ENDROOT
BRANCH   1   2
ATOM      2  C   UNL     1     105.615 311.452 193.558  1.00  0.00     0.000 C 
BRANCH   2   3
ATOM      3  C   UNL     1     105.658 311.867 195.037  1.00  0.00     0.000 C 
BRANCH   3   4
ATOM      4  C   UNL     1     104.263 312.181 195.604  1.00  0.00     0.006 C 
BRANCH   4   5
ATOM      5  C   UNL     1     103.966 311.385 196.882  1.00  0.00     0.053 C 
BRANCH   5   6
ATOM      6  C   UNL     1     103.754 312.286 198.059  1.00  0.00     0.041 C 
ATOM      7  O   UNL     1     103.265 311.831 199.127  1.00  0.00    -0.550 OA
ATOM      8  O   UNL     1     104.128 313.622 197.988  1.00  0.00    -0.550 OA
ENDBRANCH   5   6
ENDBRANCH   4   5
ENDBRANCH   3   4
ENDBRANCH   2   3
ENDBRANCH   1   2
BRANCH   1   9
ATOM      9  C   UNL     1     104.171 312.869 191.988  1.00  0.00     0.000 C 
BRANCH   9  10
ATOM     10  C   UNL     1     105.557 313.495 191.754  1.00  0.00    -0.000 C 
BRANCH  10  11
ATOM     11  C   UNL     1     105.559 314.508 190.598  1.00  0.00    -0.000 C 
BRANCH  11  12
ATOM     12  C   UNL     1     104.152 315.044 190.275  1.00  0.00    -0.000 C 
BRANCH  12  13
ATOM     13  C   UNL     1     103.886 315.122 188.764  1.00  0.00    -0.003 C 
ATOM     14  C   UNL     1     102.574 314.451 188.361  1.00  0.00     0.004 C 
ENDBRANCH  12  13
ENDBRANCH  11  12
ENDBRANCH  10  11
ENDBRANCH   9  10
ENDBRANCH   1   9
TORSDOF 10
ENDMDL
MODEL 3
REMARK VINA RESULT:    -5.093     19.217     20.655
REMARK INTER + INTRA:          -9.071
REMARK INTER:                  -8.320
REMARK INTRA:                  -0.751
REMARK UNBOUND:                -1.001
REMARK SMILES CCCCCCCCCCCC(=O)[O-]
REMARK SMILES IDX 7 1 8 2 9 3 10 4 11 5 12 6 13 7 14 8 6 9 5 10 4 11 3 12 2 13
REMARK SMILES IDX 1 14
REMARK H PARENT
REMARK Flexibility Score: inf
ROOT
ATOM      1  C   UNL     1     103.500 311.870 194.654  1.00  0.00     0.000 C 
ENDROOT
BRANCH   1   2
ATOM      2  C   UNL     1     104.522 312.213 195.753  1.00  0.00     0.000 C 
BRANCH   2   3
ATOM      3  C   UNL     1     104.209 311.514 197.086  1.00  0.00     0.000 C 
BRANCH   3   4
ATOM      4  C   UNL     1     103.755 312.498 198.177  1.00  0.00     0.006 C 
BRANCH   4   5
ATOM      5  C   UNL     1     103.352 311.781 199.472  1.00  0.00     0.053 C 
BRANCH   5   6
ATOM      6  C   UNL     1     104.212 312.197 200.625  1.00  0.00     0.041 C 
ATOM      7  O   UNL     1     104.248 311.500 201.674  1.00  0.00    -0.550 OA
ATOM      8  O   UNL     1     105.001 313.336 200.530  1.00  0.00    -0.550 OA
ENDBRANCH   5   6
ENDBRANCH   4   5
ENDBRANCH   3   4
ENDBRANCH   2   3
ENDBRANCH   1   2
BRANCH   1   9
ATOM      9  C   UNL     1     104.165 311.391 193.353  1.00  0.00     0.000 C 
BRANCH   9  10
ATOM     10  C   UNL     1     105.590 311.946 193.181  1.00  0.00    -0.000 C 
BRANCH  10  11
ATOM     11  C   UNL     1     105.666 313.056 192.122  1.00  0.00    -0.000 C 
BRANCH  11  12
ATOM     12  C   UNL     1     104.296 313.375 191.496  1.00  0.00    -0.000 C 
BRANCH  12  13
ATOM     13  C   UNL     1     103.875 314.836 191.718  1.00  0.00    -0.003 C 
ATOM     14  C   UNL     1     103.826 315.218 193.197  1.00  0.00     0.004 C 
ENDBRANCH  12  13
ENDBRANCH  11  12
ENDBRANCH  10  11
ENDBRANCH   9  10
ENDBRANCH   1   9
TORSDOF 10
ENDMDL
MODEL 4
REMARK VINA RESULT:    -5.084      5.032      7.012
REMARK INTER + INTRA:          -9.057
REMARK INTER:                  -7.955
REMARK INTRA:                  -1.102
REMARK UNBOUND:                -1.001
REMARK SMILES CCCCCCCCCCCC(=O)[O-]
REMARK SMILES IDX 7 1 8 2 9 3 10 4 11 5 12 6 13 7 14 8 6 9 5 10 4 11 3 12 2 13
REMARK SMILES IDX 1 14
REMARK H PARENT
REMARK Flexibility Score: inf
ROOT
ATOM      1  C   UNL     1      87.971 326.592 194.031  1.00  0.00     0.000 C 
ENDROOT
BRANCH   1   2
ATOM      2  C   UNL     1      88.094 325.408 193.056  1.00  0.00     0.000 C 
BRANCH   2   3
ATOM      3  C   UNL     1      86.758 324.677 192.846  1.00  0.00     0.000 C 
BRANCH   3   4
ATOM      4  C   UNL     1      86.809 323.677 191.678  1.00  0.00     0.006 C 
BRANCH   4   5
ATOM      5  C   UNL     1      88.129 323.762 190.901  1.00  0.00     0.053 C 
BRANCH   5   6
ATOM      6  C   UNL     1      88.050 323.035 189.594  1.00  0.00     0.041 C 
ATOM      7  O   UNL     1      89.041 323.016 188.817  1.00  0.00    -0.550 OA
ATOM      8  O   UNL     1      86.893 322.349 189.249  1.00  0.00    -0.550 OA
ENDBRANCH   5   6
ENDBRANCH   4   5
ENDBRANCH   3   4
ENDBRANCH   2   3
ENDBRANCH   1   2
BRANCH   1   9
ATOM      9  C   UNL     1      86.594 326.662 194.710  1.00  0.00     0.000 C 
BRANCH   9  10
ATOM     10  C   UNL     1      86.659 326.330 196.211  1.00  0.00    -0.000 C 
BRANCH  10  11
ATOM     11  C   UNL     1      88.102 326.169 196.716  1.00  0.00    -0.000 C 
BRANCH  11  12
ATOM     12  C   UNL     1      88.350 324.803 197.380  1.00  0.00    -0.000 C 
BRANCH  12  13
ATOM     13  C   UNL     1      89.361 323.946 196.602  1.00  0.00    -0.003 C 
ATOM     14  C   UNL     1      88.690 323.004 195.604  1.00  0.00     0.004 C 
ENDBRANCH  12  13
ENDBRANCH  11  12
ENDBRANCH  10  11
ENDBRANCH   9  10
ENDBRANCH   1   9
TORSDOF 10
ENDMDL
MODEL 5
REMARK VINA RESULT:    -5.072     19.511     21.177
REMARK INTER + INTRA:          -9.038
REMARK INTER:                  -7.785
REMARK INTRA:                  -1.254
REMARK UNBOUND:                -1.001
REMARK SMILES CCCCCCCCCCCC(=O)[O-]
REMARK SMILES IDX 7 1 8 2 9 3 10 4 11 5 12 6 13 7 14 8 6 9 5 10 4 11 3 12 2 13
REMARK SMILES IDX 1 14
REMARK H PARENT
REMARK Flexibility Score: inf
ROOT
ATOM      1  C   UNL     1     105.585 312.013 193.119  1.00  0.00     0.000 C 
ENDROOT
BRANCH   1   2
ATOM      2  C   UNL     1     105.543 313.143 192.075  1.00  0.00     0.000 C 
BRANCH   2   3
ATOM      3  C   UNL     1     104.173 313.261 191.389  1.00  0.00     0.000 C 
BRANCH   3   4
ATOM      4  C   UNL     1     103.911 314.670 190.830  1.00  0.00     0.006 C 
BRANCH   4   5
ATOM      5  C   UNL     1     103.533 314.642 189.344  1.00  0.00     0.053 C 
BRANCH   5   6
ATOM      6  C   UNL     1     104.441 315.506 188.525  1.00  0.00     0.041 C 
ATOM      7  O   UNL     1     104.035 316.006 187.442  1.00  0.00    -0.550 OA
ATOM      8  O   UNL     1     105.724 315.788 188.974  1.00  0.00    -0.550 OA
ENDBRANCH   5   6
ENDBRANCH   4   5
ENDBRANCH   3   4
ENDBRANCH   2   3
ENDBRANCH   1   2
BRANCH   1   9
ATOM      9  C   UNL     1     104.230 311.307 193.284  1.00  0.00     0.000 C 
BRANCH   9  10
ATOM     10  C   UNL     1     103.555 311.635 194.628  1.00  0.00    -0.000 C 
BRANCH  10  11
ATOM     11  C   UNL     1     104.529 312.260 195.639  1.00  0.00    -0.000 C 
BRANCH  11  12
ATOM     12  C   UNL     1     104.059 313.637 196.143  1.00  0.00    -0.000 C 
BRANCH  12  13
ATOM     13  C   UNL     1     103.442 314.493 195.026  1.00  0.00    -0.003 C 
ATOM     14  C   UNL     1     104.366 315.620 194.568  1.00  0.00     0.004 C 
ENDBRANCH  12  13
ENDBRANCH  11  12
ENDBRANCH  10  11
ENDBRANCH   9  10
ENDBRANCH   1   9
TORSDOF 10
ENDMDL
MODEL 6
REMARK VINA RESULT:    -5.070      4.939      7.458
REMARK INTER + INTRA:          -9.035
REMARK INTER:                  -8.480
REMARK INTRA:                  -0.554
REMARK UNBOUND:                -1.001
REMARK SMILES CCCCCCCCCCCC(=O)[O-]
REMARK SMILES IDX 7 1 8 2 9 3 10 4 11 5 12 6 13 7 14 8 6 9 5 10 4 11 3 12 2 13
REMARK SMILES IDX 1 14
REMARK H PARENT
REMARK Flexibility Score: inf
ROOT
ATOM      1  C   UNL     1      88.080 326.467 194.011  1.00  0.00     0.000 C 
ENDROOT
BRANCH   1   2
ATOM      2  C   UNL     1      88.132 325.407 192.896  1.00  0.00     0.000 C 
BRANCH   2   3
ATOM      3  C   UNL     1      86.824 324.608 192.781  1.00  0.00     0.000 C 
BRANCH   3   4
ATOM      4  C   UNL     1      86.884 323.531 191.684  1.00  0.00     0.006 C 
BRANCH   4   5
ATOM      5  C   UNL     1      88.037 323.770 190.701  1.00  0.00     0.053 C 
BRANCH   5   6
ATOM      6  C   UNL     1      88.159 322.655 189.709  1.00  0.00     0.041 C 
ATOM      7  O   UNL     1      87.413 322.622 188.695  1.00  0.00    -0.550 OA
ATOM      8  O   UNL     1      89.122 321.669 189.886  1.00  0.00    -0.550 OA
ENDBRANCH   5   6
ENDBRANCH   4   5
ENDBRANCH   3   4
ENDBRANCH   2   3
ENDBRANCH   1   2
BRANCH   1   9
ATOM      9  C   UNL     1      86.666 326.655 194.585  1.00  0.00     0.000 C 
BRANCH   9  10
ATOM     10  C   UNL     1      86.599 326.363 196.094  1.00  0.00    -0.000 C 
BRANCH  10  11
ATOM     11  C   UNL     1      87.902 325.750 196.634  1.00  0.00    -0.000 C 
BRANCH  11  12
ATOM     12  C   UNL     1      88.500 326.558 197.799  1.00  0.00    -0.000 C 
BRANCH  12  13
ATOM     13  C   UNL     1      88.887 325.670 198.992  1.00  0.00    -0.003 C 
ATOM     14  C   UNL     1      89.614 326.443 200.092  1.00  0.00     0.004 C 
ENDBRANCH  12  13
ENDBRANCH  11  12
ENDBRANCH  10  11
ENDBRANCH   9  10
ENDBRANCH   1   9
TORSDOF 10
ENDMDL
MODEL 7
REMARK VINA RESULT:    -5.050      1.645      2.733
REMARK INTER + INTRA:          -9.004
REMARK INTER:                  -8.346
REMARK INTRA:                  -0.657
REMARK UNBOUND:                -1.001
REMARK SMILES CCCCCCCCCCCC(=O)[O-]
REMARK SMILES IDX 7 1 8 2 9 3 10 4 11 5 12 6 13 7 14 8 6 9 5 10 4 11 3 12 2 13
REMARK SMILES IDX 1 14
REMARK H PARENT
REMARK Flexibility Score: inf
ROOT
ATOM      1  C   UNL     1      86.620 326.250 194.091  1.00  0.00     0.000 C 
ENDROOT
BRANCH   1   2
ATOM      2  C   UNL     1      88.054 326.808 194.055  1.00  0.00     0.000 C 
BRANCH   2   3
ATOM      3  C   UNL     1      88.860 326.441 195.310  1.00  0.00     0.000 C 
BRANCH   3   4
ATOM      4  C   UNL     1      87.963 326.013 196.485  1.00  0.00     0.006 C 
BRANCH   4   5
ATOM      5  C   UNL     1      88.498 326.513 197.833  1.00  0.00     0.053 C 
BRANCH   5   6
ATOM      6  C   UNL     1      88.861 325.379 198.740  1.00  0.00     0.041 C 
ATOM      7  O   UNL     1      89.435 325.603 199.839  1.00  0.00    -0.550 OA
ATOM      8  O   UNL     1      88.535 324.075 198.389  1.00  0.00    -0.550 OA
ENDBRANCH   5   6
ENDBRANCH   4   5
ENDBRANCH   3   4
ENDBRANCH   2   3
ENDBRANCH   1   2
BRANCH   1   9
ATOM      9  C   UNL     1      86.443 325.008 193.203  1.00  0.00     0.000 C 
BRANCH   9  10
ATOM     10  C   UNL     1      87.697 324.698 192.367  1.00  0.00    -0.000 C 
BRANCH  10  11
ATOM     11  C   UNL     1      88.246 323.287 192.630  1.00  0.00    -0.000 C 
BRANCH  11  12
ATOM     12  C   UNL     1      88.289 322.420 191.359  1.00  0.00    -0.000 C 
BRANCH  12  13
ATOM     13  C   UNL     1      87.783 323.171 190.117  1.00  0.00    -0.003 C 
ATOM     14  C   UNL     1      88.914 323.575 189.171  1.00  0.00     0.004 C 
ENDBRANCH  12  13
ENDBRANCH  11  12
ENDBRANCH  10  11
ENDBRANCH   9  10
ENDBRANCH   1   9
TORSDOF 10
ENDMDL
MODEL 8
REMARK VINA RESULT:    -4.997      1.451      2.666
REMARK INTER + INTRA:          -8.920
REMARK INTER:                  -8.389
REMARK INTRA:                  -0.531
REMARK UNBOUND:                -1.001
REMARK SMILES CCCCCCCCCCCC(=O)[O-]
REMARK SMILES IDX 7 1 8 2 9 3 10 4 11 5 12 6 13 7 14 8 6 9 5 10 4 11 3 12 2 13
REMARK SMILES IDX 1 14
REMARK H PARENT
REMARK Flexibility Score: inf
ROOT
ATOM      1  C   UNL     1      88.502 326.253 197.957  1.00  0.00     0.000 C 
ENDROOT
BRANCH   1   2
ATOM      2  C   UNL     1      88.916 324.908 198.578  1.00  0.00     0.000 C 
BRANCH   2   3
ATOM      3  C   UNL     1      89.807 325.081 199.818  1.00  0.00     0.000 C 
BRANCH   3   4
ATOM      4  C   UNL     1      89.696 326.487 200.434  1.00  0.00     0.006 C 
BRANCH   4   5
ATOM      5  C   UNL     1      89.492 326.438 201.954  1.00  0.00     0.053 C 
BRANCH   5   6
ATOM      6  C   UNL     1      90.684 326.966 202.690  1.00  0.00     0.041 C 
ATOM      7  O   UNL     1      91.841 326.821 202.213  1.00  0.00    -0.550 OA
ATOM      8  O   UNL     1      90.516 327.649 203.888  1.00  0.00    -0.550 OA
ENDBRANCH   5   6
ENDBRANCH   4   5
ENDBRANCH   3   4
ENDBRANCH   2   3
ENDBRANCH   1   2
BRANCH   1   9
ATOM      9  C   UNL     1      87.871 326.095 196.564  1.00  0.00     0.000 C 
BRANCH   9  10
ATOM     10  C   UNL     1      88.833 326.496 195.432  1.00  0.00    -0.000 C 
BRANCH  10  11
ATOM     11  C   UNL     1      88.119 326.653 194.080  1.00  0.00    -0.000 C 
BRANCH  11  12
ATOM     12  C   UNL     1      86.716 326.019 194.072  1.00  0.00    -0.000 C 
BRANCH  12  13
ATOM     13  C   UNL     1      86.594 324.876 193.053  1.00  0.00    -0.003 C 
ATOM     14  C   UNL     1      87.891 324.632 192.282  1.00  0.00     0.004 C 
ENDBRANCH  12  13
ENDBRANCH  11  12
ENDBRANCH  10  11
ENDBRANCH   9  10
ENDBRANCH   1   9
TORSDOF 10
ENDMDL
MODEL 9
REMARK VINA RESULT:    -4.997      5.116      7.434
REMARK INTER + INTRA:          -8.919
REMARK INTER:                  -8.120
REMARK INTRA:                  -0.799
REMARK UNBOUND:                -1.001
REMARK SMILES CCCCCCCCCCCC(=O)[O-]
REMARK SMILES IDX 7 1 8 2 9 3 10 4 11 5 12 6 13 7 14 8 6 9 5 10 4 11 3 12 2 13
REMARK SMILES IDX 1 14
REMARK H PARENT
REMARK Flexibility Score: inf
ROOT
ATOM      1  C   UNL     1      88.129 325.164 193.216  1.00  0.00     0.000 C 
ENDROOT
BRANCH   1   2
ATOM      2  C   UNL     1      86.745 324.618 192.823  1.00  0.00     0.000 C 
BRANCH   2   3
ATOM      3  C   UNL     1      86.809 323.659 191.623  1.00  0.00     0.000 C 
BRANCH   3   4
ATOM      4  C   UNL     1      88.111 323.807 190.817  1.00  0.00     0.006 C 
BRANCH   4   5
ATOM      5  C   UNL     1      88.019 323.135 189.441  1.00  0.00     0.053 C 
BRANCH   5   6
ATOM      6  C   UNL     1      89.307 322.474 189.060  1.00  0.00     0.041 C 
ATOM      7  O   UNL     1      90.260 323.157 188.600  1.00  0.00    -0.550 OA
ATOM      8  O   UNL     1      89.469 321.107 189.247  1.00  0.00    -0.550 OA
ENDBRANCH   5   6
ENDBRANCH   4   5
ENDBRANCH   3   4
ENDBRANCH   2   3
ENDBRANCH   1   2
BRANCH   1   9
ATOM      9  C   UNL     1      88.050 326.511 193.952  1.00  0.00     0.000 C 
BRANCH   9  10
ATOM     10  C   UNL     1      86.734 326.679 194.731  1.00  0.00    -0.000 C 
BRANCH  10  11
ATOM     11  C   UNL     1      86.847 326.203 196.188  1.00  0.00    -0.000 C 
BRANCH  11  12
ATOM     12  C   UNL     1      88.280 326.314 196.740  1.00  0.00    -0.000 C 
BRANCH  12  13
ATOM     13  C   UNL     1      88.726 325.042 197.478  1.00  0.00    -0.003 C 
ATOM     14  C   UNL     1      89.246 323.962 196.530  1.00  0.00     0.004 C 
ENDBRANCH  12  13
ENDBRANCH  11  12
ENDBRANCH  10  11
ENDBRANCH   9  10
ENDBRANCH   1   9
TORSDOF 10
ENDMDL
