MODEL 1
REMARK VINA RESULT:    -3.058      0.000      0.000
REMARK INTER + INTRA:          -7.385
REMARK INTER:                  -5.560
REMARK INTRA:                  -1.825
REMARK UNBOUND:                -1.825
REMARK SMILES CCCCCCCCCCCCCCCC(=O)[O-]
REMARK SMILES IDX 9 1 10 2 11 3 12 4 13 5 14 6 15 7 16 8 17 9 18 10 8 11 7 12
REMARK SMILES IDX 6 13 5 14 4 15 3 16 2 17 1 18
REMARK H PARENT
REMARK Flexibility Score: inf
ROOT
ATOM      1  C   UNL     1      -2.493  -5.028   7.979  1.00  0.00     0.000 C 
ENDROOT
BRANCH   1   2
ATOM      2  C   UNL     1      -1.185  -4.224   8.077  1.00  0.00     0.000 C 
BRANCH   2   3
ATOM      3  C   UNL     1      -0.852  -3.480   6.774  1.00  0.00     0.000 C 
BRANCH   3   4
ATOM      4  C   UNL     1       0.029  -2.242   7.004  1.00  0.00     0.000 C 
BRANCH   4   5
ATOM      5  C   UNL     1      -0.774  -1.116   7.673  1.00  0.00     0.000 C 
BRANCH   5   6
ATOM      6  C   UNL     1       0.118  -0.131   8.445  1.00  0.00     0.006 C 
BRANCH   6   7
ATOM      7  C   UNL     1       1.089   0.627   7.531  1.00  0.00     0.053 C 
BRANCH   7   8
ATOM      8  C   UNL     1       0.334   1.411   6.505  1.00  0.00     0.041 C 
ATOM      9  O   UNL     1       0.524   1.199   5.278  1.00  0.00    -0.550 OA
ATOM     10  O   UNL     1      -0.545   2.412   6.903  1.00  0.00    -0.550 OA
ENDBRANCH   7   8
ENDBRANCH   6   7
ENDBRANCH   5   6
ENDBRANCH   4   5
ENDBRANCH   3   4
ENDBRANCH   2   3
ENDBRANCH   1   2
BRANCH   1  11
ATOM     11  C   UNL     1      -2.267  -6.493   7.563  1.00  0.00     0.000 C 
BRANCH  11  12
ATOM     12  C   UNL     1      -1.295  -7.287   8.455  1.00  0.00    -0.000 C 
BRANCH  12  13
ATOM     13  C   UNL     1      -0.159  -7.952   7.664  1.00  0.00    -0.000 C 
BRANCH  13  14
ATOM     14  C   UNL     1       1.207  -7.395   8.088  1.00  0.00    -0.000 C 
BRANCH  14  15
ATOM     15  C   UNL     1       1.942  -6.683   6.940  1.00  0.00    -0.000 C 
BRANCH  15  16
ATOM     16  C   UNL     1       2.365  -5.250   7.309  1.00  0.00    -0.000 C 
BRANCH  16  17
ATOM     17  C   UNL     1       2.731  -5.110   8.796  1.00  0.00    -0.003 C 
ATOM     18  C   UNL     1       2.381  -3.736   9.366  1.00  0.00     0.004 C 
ENDBRANCH  16  17
ENDBRANCH  15  16
ENDBRANCH  14  15
ENDBRANCH  13  14
ENDBRANCH  12  13
ENDBRANCH  11  12
ENDBRANCH   1  11
TORSDOF 14
ENDMDL
MODEL 2
REMARK VINA RESULT:    -3.017      3.906      7.328
REMARK INTER + INTRA:          -7.311
REMARK INTER:                  -5.243
REMARK INTRA:                  -2.068
REMARK UNBOUND:                -1.825
REMARK SMILES CCCCCCCCCCCCCCCC(=O)[O-]
REMARK SMILES IDX 9 1 10 2 11 3 12 4 13 5 14 6 15 7 16 8 17 9 18 10 8 11 7 12
REMARK SMILES IDX 6 13 5 14 4 15 3 16 2 17 1 18
REMARK H PARENT
REMARK Flexibility Score: inf
ROOT
ATOM      1  C   UNL     1       0.668  -1.714   8.090  1.00  0.00     0.000 C 
ENDROOT
BRANCH   1   2
ATOM      2  C   UNL     1      -0.283  -2.349   7.061  1.00  0.00     0.000 C 
BRANCH   2   3
ATOM      3  C   UNL     1      -1.623  -2.777   7.682  1.00  0.00     0.000 C 
BRANCH   3   4
ATOM      4  C   UNL     1      -2.549  -1.587   7.979  1.00  0.00     0.000 C 
BRANCH   4   5
ATOM      5  C   UNL     1      -3.148  -1.024   6.681  1.00  0.00     0.000 C 
BRANCH   5   6
ATOM      6  C   UNL     1      -4.630  -1.392   6.505  1.00  0.00     0.006 C 
BRANCH   6   7
ATOM      7  C   UNL     1      -5.069  -1.387   5.034  1.00  0.00     0.053 C 
BRANCH   7   8
ATOM      8  C   UNL     1      -4.679  -2.670   4.371  1.00  0.00     0.041 C 
ATOM      9  O   UNL     1      -4.581  -2.732   3.117  1.00  0.00    -0.550 OA
ATOM     10  O   UNL     1      -4.473  -3.813   5.134  1.00  0.00    -0.550 OA
ENDBRANCH   7   8
ENDBRANCH   6   7
ENDBRANCH   5   6
ENDBRANCH   4   5
ENDBRANCH   3   4
ENDBRANCH   2   3
ENDBRANCH   1   2
BRANCH   1  11
ATOM     11  C   UNL     1       0.801  -0.189   7.924  1.00  0.00     0.000 C 
BRANCH  11  12
ATOM     12  C   UNL     1       0.909   0.306   6.470  1.00  0.00    -0.000 C 
BRANCH  12  13
ATOM     13  C   UNL     1      -0.071   1.443   6.147  1.00  0.00    -0.000 C 
BRANCH  13  14
ATOM     14  C   UNL     1      -0.477   2.197   7.421  1.00  0.00    -0.000 C 
BRANCH  14  15
ATOM     15  C   UNL     1      -2.000   2.374   7.547  1.00  0.00    -0.000 C 
BRANCH  15  16
ATOM     16  C   UNL     1      -2.632   2.974   6.278  1.00  0.00    -0.000 C 
BRANCH  16  17
ATOM     17  C   UNL     1      -4.064   2.471   6.042  1.00  0.00    -0.003 C 
ATOM     18  C   UNL     1      -4.860   2.316   7.338  1.00  0.00     0.004 C 
ENDBRANCH  16  17
ENDBRANCH  15  16
ENDBRANCH  14  15
ENDBRANCH  13  14
ENDBRANCH  12  13
ENDBRANCH  11  12
ENDBRANCH   1  11
TORSDOF 14
ENDMDL
MODEL 3
REMARK VINA RESULT:    -3.004      1.865      3.193
REMARK INTER + INTRA:          -7.287
REMARK INTER:                  -6.174
REMARK INTRA:                  -1.113
REMARK UNBOUND:                -1.825
REMARK SMILES CCCCCCCCCCCCCCCC(=O)[O-]
REMARK SMILES IDX 9 1 10 2 11 3 12 4 13 5 14 6 15 7 16 8 17 9 18 10 8 11 7 12
REMARK SMILES IDX 6 13 5 14 4 15 3 16 2 17 1 18
REMARK H PARENT
REMARK Flexibility Score: inf
ROOT
ATOM      1  C   UNL     1      -1.095  -3.396   6.841  1.00  0.00     0.000 C 
ENDROOT
BRANCH   1   2
ATOM      2  C   UNL     1      -1.111  -1.890   7.156  1.00  0.00     0.000 C 
BRANCH   2   3
ATOM      3  C   UNL     1      -0.215  -1.528   8.350  1.00  0.00     0.000 C 
BRANCH   3   4
ATOM      4  C   UNL     1       0.733  -0.357   8.051  1.00  0.00     0.000 C 
BRANCH   4   5
ATOM      5  C   UNL     1       0.683   0.020   6.562  1.00  0.00     0.000 C 
BRANCH   5   6
ATOM      6  C   UNL     1       0.370   1.509   6.339  1.00  0.00     0.006 C 
BRANCH   6   7
ATOM      7  C   UNL     1      -0.712   2.034   7.291  1.00  0.00     0.053 C 
BRANCH   7   8
ATOM      8  C   UNL     1      -2.032   2.105   6.591  1.00  0.00     0.041 C 
ATOM      9  O   UNL     1      -2.738   1.070   6.462  1.00  0.00    -0.550 OA
ATOM     10  O   UNL     1      -2.461   3.304   6.035  1.00  0.00    -0.550 OA
ENDBRANCH   7   8
ENDBRANCH   6   7
ENDBRANCH   5   6
ENDBRANCH   4   5
ENDBRANCH   3   4
ENDBRANCH   2   3
ENDBRANCH   1   2
BRANCH   1  11
ATOM     11  C   UNL     1       0.093  -4.132   7.488  1.00  0.00     0.000 C 
BRANCH  11  12
ATOM     12  C   UNL     1      -0.174  -5.599   7.870  1.00  0.00    -0.000 C 
BRANCH  12  13
ATOM     13  C   UNL     1       1.029  -6.517   7.609  1.00  0.00    -0.000 C 
BRANCH  13  14
ATOM     14  C   UNL     1       2.338  -5.715   7.585  1.00  0.00    -0.000 C 
BRANCH  14  15
ATOM     15  C   UNL     1       3.291  -6.166   6.465  1.00  0.00    -0.000 C 
BRANCH  15  16
ATOM     16  C   UNL     1       2.714  -7.321   5.627  1.00  0.00    -0.000 C 
BRANCH  16  17
ATOM     17  C   UNL     1       3.432  -7.483   4.278  1.00  0.00    -0.003 C 
ATOM     18  C   UNL     1       3.334  -8.903   3.721  1.00  0.00     0.004 C 
ENDBRANCH  16  17
ENDBRANCH  15  16
ENDBRANCH  14  15
ENDBRANCH  13  14
ENDBRANCH  12  13
ENDBRANCH  11  12
ENDBRANCH   1  11
TORSDOF 14
ENDMDL
MODEL 4
REMARK VINA RESULT:    -2.997      3.761      6.811
REMARK INTER + INTRA:          -7.274
REMARK INTER:                  -5.622
REMARK INTRA:                  -1.652
REMARK UNBOUND:                -1.825
REMARK SMILES CCCCCCCCCCCCCCCC(=O)[O-]
REMARK SMILES IDX 9 1 10 2 11 3 12 4 13 5 14 6 15 7 16 8 17 9 18 10 8 11 7 12
REMARK SMILES IDX 6 13 5 14 4 15 3 16 2 17 1 18
REMARK H PARENT
REMARK Flexibility Score: inf
ROOT
ATOM      1  C   UNL     1      -2.556   2.618   6.409  1.00  0.00     0.000 C 
ENDROOT
BRANCH   1   2
ATOM      2  C   UNL     1      -3.464   1.403   6.149  1.00  0.00     0.000 C 
BRANCH   2   3
ATOM      3  C   UNL     1      -3.167   0.232   7.099  1.00  0.00     0.000 C 
BRANCH   3   4
ATOM      4  C   UNL     1      -4.136  -0.946   6.914  1.00  0.00     0.000 C 
BRANCH   4   5
ATOM      5  C   UNL     1      -3.423  -2.142   6.264  1.00  0.00     0.000 C 
BRANCH   5   6
ATOM      6  C   UNL     1      -4.185  -2.696   5.049  1.00  0.00     0.006 C 
BRANCH   6   7
ATOM      7  C   UNL     1      -5.278  -1.742   4.552  1.00  0.00     0.053 C 
BRANCH   7   8
ATOM      8  C   UNL     1      -5.402  -1.823   3.063  1.00  0.00     0.041 C 
ATOM      9  O   UNL     1      -5.257  -2.926   2.473  1.00  0.00    -0.550 OA
ATOM     10  O   UNL     1      -5.629  -0.670   2.321  1.00  0.00    -0.550 OA
ENDBRANCH   7   8
ENDBRANCH   6   7
ENDBRANCH   5   6
ENDBRANCH   4   5
ENDBRANCH   3   4
ENDBRANCH   2   3
ENDBRANCH   1   2
BRANCH   1  11
ATOM     11  C   UNL     1      -1.730   2.485   7.701  1.00  0.00     0.000 C 
BRANCH  11  12
ATOM     12  C   UNL     1      -0.210   2.342   7.497  1.00  0.00    -0.000 C 
BRANCH  12  13
ATOM     13  C   UNL     1       0.155   1.470   6.287  1.00  0.00    -0.000 C 
BRANCH  13  14
ATOM     14  C   UNL     1       1.095   0.327   6.696  1.00  0.00    -0.000 C 
BRANCH  14  15
ATOM     15  C   UNL     1       0.967  -0.045   8.183  1.00  0.00    -0.000 C 
BRANCH  15  16
ATOM     16  C   UNL     1       0.039  -1.251   8.413  1.00  0.00    -0.000 C 
BRANCH  16  17
ATOM     17  C   UNL     1      -0.032  -2.178   7.189  1.00  0.00    -0.003 C 
ATOM     18  C   UNL     1       0.374  -3.617   7.510  1.00  0.00     0.004 C 
ENDBRANCH  16  17
ENDBRANCH  15  16
ENDBRANCH  14  15
ENDBRANCH  13  14
ENDBRANCH  12  13
ENDBRANCH  11  12
ENDBRANCH   1  11
TORSDOF 14
ENDMDL
MODEL 5
REMARK VINA RESULT:    -2.991      4.395      7.192
REMARK INTER + INTRA:          -7.264
REMARK INTER:                  -5.067
REMARK INTRA:                  -2.197
REMARK UNBOUND:                -1.825
REMARK SMILES CCCCCCCCCCCCCCCC(=O)[O-]
REMARK SMILES IDX 9 1 10 2 11 3 12 4 13 5 14 6 15 7 16 8 17 9 18 10 8 11 7 12
REMARK SMILES IDX 6 13 5 14 4 15 3 16 2 17 1 18
REMARK H PARENT
REMARK Flexibility Score: inf
ROOT
ATOM      1  C   UNL     1      -1.688   2.671   7.554  1.00  0.00     0.000 C 
ENDROOT
BRANCH   1   2
ATOM      2  C   UNL     1      -2.482   2.212   6.319  1.00  0.00     0.000 C 
BRANCH   2   3
ATOM      3  C   UNL     1      -3.988   2.489   6.451  1.00  0.00     0.000 C 
BRANCH   3   4
ATOM      4  C   UNL     1      -4.781   2.075   5.201  1.00  0.00     0.000 C 
BRANCH   4   5
ATOM      5  C   UNL     1      -5.674   0.861   5.498  1.00  0.00     0.000 C 
BRANCH   5   6
ATOM      6  C   UNL     1      -5.557  -0.236   4.428  1.00  0.00     0.006 C 
BRANCH   6   7
ATOM      7  C   UNL     1      -5.565  -1.649   5.026  1.00  0.00     0.053 C 
BRANCH   7   8
ATOM      8  C   UNL     1      -4.821  -2.595   4.138  1.00  0.00     0.041 C 
ATOM      9  O   UNL     1      -3.803  -3.200   4.567  1.00  0.00    -0.550 OA
ATOM     10  O   UNL     1      -5.222  -2.771   2.819  1.00  0.00    -0.550 OA
ENDBRANCH   7   8
ENDBRANCH   6   7
ENDBRANCH   5   6
ENDBRANCH   4   5
ENDBRANCH   3   4
ENDBRANCH   2   3
ENDBRANCH   1   2
BRANCH   1  11
ATOM     11  C   UNL     1      -0.222   2.199   7.535  1.00  0.00     0.000 C 
BRANCH  11  12
ATOM     12  C   UNL     1       0.198   1.413   6.279  1.00  0.00    -0.000 C 
BRANCH  12  13
ATOM     13  C   UNL     1       0.909   0.092   6.606  1.00  0.00    -0.000 C 
BRANCH  13  14
ATOM     14  C   UNL     1       0.120  -0.715   7.648  1.00  0.00    -0.000 C 
BRANCH  14  15
ATOM     15  C   UNL     1      -0.819  -1.752   7.010  1.00  0.00    -0.000 C 
BRANCH  15  16
ATOM     16  C   UNL     1      -2.304  -1.372   7.153  1.00  0.00    -0.000 C 
BRANCH  16  17
ATOM     17  C   UNL     1      -2.639  -0.830   8.552  1.00  0.00    -0.003 C 
ATOM     18  C   UNL     1      -4.091  -0.370   8.677  1.00  0.00     0.004 C 
ENDBRANCH  16  17
ENDBRANCH  15  16
ENDBRANCH  14  15
ENDBRANCH  13  14
ENDBRANCH  12  13
ENDBRANCH  11  12
ENDBRANCH   1  11
TORSDOF 14
ENDMDL
MODEL 6
REMARK VINA RESULT:    -2.988      3.110      5.967
REMARK INTER + INTRA:          -7.259
REMARK INTER:                  -5.212
REMARK INTRA:                  -2.046
REMARK UNBOUND:                -1.825
REMARK SMILES CCCCCCCCCCCCCCCC(=O)[O-]
REMARK SMILES IDX 9 1 10 2 11 3 12 4 13 5 14 6 15 7 16 8 17 9 18 10 8 11 7 12
REMARK SMILES IDX 6 13 5 14 4 15 3 16 2 17 1 18
REMARK H PARENT
REMARK Flexibility Score: inf
ROOT
ATOM      1  C   UNL     1      -0.558   2.250   7.122  1.00  0.00     0.000 C 
ENDROOT
BRANCH   1   2
ATOM      2  C   UNL     1      -2.089   2.379   7.053  1.00  0.00     0.000 C 
BRANCH   2   3
ATOM      3  C   UNL     1      -2.806   1.388   7.985  1.00  0.00     0.000 C 
BRANCH   3   4
ATOM      4  C   UNL     1      -3.637   0.346   7.221  1.00  0.00     0.000 C 
BRANCH   4   5
ATOM      5  C   UNL     1      -2.754  -0.823   6.757  1.00  0.00     0.000 C 
BRANCH   5   6
ATOM      6  C   UNL     1      -3.421  -2.191   6.975  1.00  0.00     0.006 C 
BRANCH   6   7
ATOM      7  C   UNL     1      -3.393  -3.068   5.716  1.00  0.00     0.053 C 
BRANCH   7   8
ATOM      8  C   UNL     1      -4.551  -2.739   4.827  1.00  0.00     0.041 C 
ATOM      9  O   UNL     1      -4.499  -3.000   3.596  1.00  0.00    -0.550 OA
ATOM     10  O   UNL     1      -5.669  -2.099   5.349  1.00  0.00    -0.550 OA
ENDBRANCH   7   8
ENDBRANCH   6   7
ENDBRANCH   5   6
ENDBRANCH   4   5
ENDBRANCH   3   4
ENDBRANCH   2   3
ENDBRANCH   1   2
BRANCH   1  11
ATOM     11  C   UNL     1       0.017   1.326   6.033  1.00  0.00     0.000 C 
BRANCH  11  12
ATOM     12  C   UNL     1       0.823   0.121   6.554  1.00  0.00    -0.000 C 
BRANCH  12  13
ATOM     13  C   UNL     1       0.904   0.069   8.086  1.00  0.00    -0.000 C 
BRANCH  13  14
ATOM     14  C   UNL     1       0.487  -1.312   8.613  1.00  0.00    -0.000 C 
BRANCH  14  15
ATOM     15  C   UNL     1       0.375  -2.364   7.497  1.00  0.00    -0.000 C 
BRANCH  15  16
ATOM     16  C   UNL     1       0.749  -3.777   7.979  1.00  0.00    -0.000 C 
BRANCH  16  17
ATOM     17  C   UNL     1      -0.249  -4.844   7.500  1.00  0.00    -0.003 C 
ATOM     18  C   UNL     1      -1.429  -5.023   8.456  1.00  0.00     0.004 C 
ENDBRANCH  16  17
ENDBRANCH  15  16
ENDBRANCH  14  15
ENDBRANCH  13  14
ENDBRANCH  12  13
ENDBRANCH  11  12
ENDBRANCH   1  11
TORSDOF 14
ENDMDL
MODEL 7
REMARK VINA RESULT:    -2.966      2.875      5.235
REMARK INTER + INTRA:          -7.219
REMARK INTER:                  -5.275
REMARK INTRA:                  -1.944
REMARK UNBOUND:                -1.825
REMARK SMILES CCCCCCCCCCCCCCCC(=O)[O-]
REMARK SMILES IDX 9 1 10 2 11 3 12 4 13 5 14 6 15 7 16 8 17 9 18 10 8 11 7 12
REMARK SMILES IDX 6 13 5 14 4 15 3 16 2 17 1 18
REMARK H PARENT
REMARK Flexibility Score: inf
ROOT
ATOM      1  C   UNL     1       1.011   0.469   6.511  1.00  0.00     0.000 C 
ENDROOT
BRANCH   1   2
ATOM      2  C   UNL     1      -0.246   1.200   6.009  1.00  0.00     0.000 C 
BRANCH   2   3
ATOM      3  C   UNL     1      -1.006   1.911   7.140  1.00  0.00     0.000 C 
BRANCH   3   4
ATOM      4  C   UNL     1      -2.485   1.501   7.214  1.00  0.00     0.000 C 
BRANCH   4   5
ATOM      5  C   UNL     1      -2.744   0.237   6.380  1.00  0.00     0.000 C 
BRANCH   5   6
ATOM      6  C   UNL     1      -3.734  -0.725   7.056  1.00  0.00     0.006 C 
BRANCH   6   7
ATOM      7  C   UNL     1      -3.691  -2.135   6.454  1.00  0.00     0.053 C 
BRANCH   7   8
ATOM      8  C   UNL     1      -4.452  -2.175   5.166  1.00  0.00     0.041 C 
ATOM      9  O   UNL     1      -5.509  -1.503   5.033  1.00  0.00    -0.550 OA
ATOM     10  O   UNL     1      -4.022  -2.994   4.130  1.00  0.00    -0.550 OA
ENDBRANCH   7   8
ENDBRANCH   6   7
ENDBRANCH   5   6
ENDBRANCH   4   5
ENDBRANCH   3   4
ENDBRANCH   2   3
ENDBRANCH   1   2
BRANCH   1  11
ATOM     11  C   UNL     1       1.021   0.273   8.038  1.00  0.00     0.000 C 
BRANCH  11  12
ATOM     12  C   UNL     1       0.963  -1.191   8.512  1.00  0.00    -0.000 C 
BRANCH  12  13
ATOM     13  C   UNL     1      -0.345  -1.896   8.125  1.00  0.00    -0.000 C 
BRANCH  13  14
ATOM     14  C   UNL     1      -0.097  -2.967   7.052  1.00  0.00    -0.000 C 
BRANCH  14  15
ATOM     15  C   UNL     1      -0.663  -4.342   7.443  1.00  0.00    -0.000 C 
BRANCH  15  16
ATOM     16  C   UNL     1       0.441  -5.372   7.744  1.00  0.00    -0.000 C 
BRANCH  16  17
ATOM     17  C   UNL     1       1.851  -4.774   7.617  1.00  0.00    -0.003 C 
ATOM     18  C   UNL     1       2.540  -4.588   8.969  1.00  0.00     0.004 C 
ENDBRANCH  16  17
ENDBRANCH  15  16
ENDBRANCH  14  15
ENDBRANCH  13  14
ENDBRANCH  12  13
ENDBRANCH  11  12
ENDBRANCH   1  11
TORSDOF 14
ENDMDL
MODEL 8
REMARK VINA RESULT:    -2.939      3.917      6.582
REMARK INTER + INTRA:          -7.169
REMARK INTER:                  -4.885
REMARK INTRA:                  -2.284
REMARK UNBOUND:                -1.825
REMARK SMILES CCCCCCCCCCCCCCCC(=O)[O-]
REMARK SMILES IDX 9 1 10 2 11 3 12 4 13 5 14 6 15 7 16 8 17 9 18 10 8 11 7 12
REMARK SMILES IDX 6 13 5 14 4 15 3 16 2 17 1 18
REMARK H PARENT
REMARK Flexibility Score: inf
ROOT
ATOM      1  C   UNL     1      -0.024   1.463   6.234  1.00  0.00     0.000 C 
ENDROOT
BRANCH   1   2
ATOM      2  C   UNL     1      -0.337   2.289   7.494  1.00  0.00     0.000 C 
BRANCH   2   3
ATOM      3  C   UNL     1      -1.800   2.756   7.544  1.00  0.00     0.000 C 
BRANCH   3   4
ATOM      4  C   UNL     1      -2.568   2.452   6.248  1.00  0.00     0.000 C 
BRANCH   4   5
ATOM      5  C   UNL     1      -4.056   2.800   6.400  1.00  0.00     0.000 C 
BRANCH   5   6
ATOM      6  C   UNL     1      -4.980   1.650   5.968  1.00  0.00     0.006 C 
BRANCH   6   7
ATOM      7  C   UNL     1      -5.279   1.666   4.463  1.00  0.00     0.053 C 
BRANCH   7   8
ATOM      8  C   UNL     1      -5.698   0.306   4.001  1.00  0.00     0.041 C 
ATOM      9  O   UNL     1      -5.648  -0.675   4.789  1.00  0.00    -0.550 OA
ATOM     10  O   UNL     1      -6.097   0.112   2.684  1.00  0.00    -0.550 OA
ENDBRANCH   7   8
ENDBRANCH   6   7
ENDBRANCH   5   6
ENDBRANCH   4   5
ENDBRANCH   3   4
ENDBRANCH   2   3
ENDBRANCH   1   2
BRANCH   1  11
ATOM     11  C   UNL     1       0.915   0.276   6.513  1.00  0.00     0.000 C 
BRANCH  11  12
ATOM     12  C   UNL     1       1.002  -0.161   7.987  1.00  0.00    -0.000 C 
BRANCH  12  13
ATOM     13  C   UNL     1       0.038  -1.306   8.332  1.00  0.00    -0.000 C 
BRANCH  13  14
ATOM     14  C   UNL     1      -0.166  -2.236   7.128  1.00  0.00    -0.000 C 
BRANCH  14  15
ATOM     15  C   UNL     1      -1.651  -2.501   6.826  1.00  0.00    -0.000 C 
BRANCH  15  16
ATOM     16  C   UNL     1      -2.498  -1.216   6.854  1.00  0.00    -0.000 C 
BRANCH  16  17
ATOM     17  C   UNL     1      -3.623  -1.278   7.899  1.00  0.00    -0.003 C 
ATOM     18  C   UNL     1      -3.527  -0.163   8.941  1.00  0.00     0.004 C 
ENDBRANCH  16  17
ENDBRANCH  15  16
ENDBRANCH  14  15
ENDBRANCH  13  14
ENDBRANCH  12  13
ENDBRANCH  11  12
ENDBRANCH   1  11
TORSDOF 14
ENDMDL
MODEL 9
REMARK VINA RESULT:    -2.888      2.930      5.239
REMARK INTER + INTRA:          -7.077
REMARK INTER:                  -4.674
REMARK INTRA:                  -2.403
REMARK UNBOUND:                -1.825
REMARK SMILES CCCCCCCCCCCCCCCC(=O)[O-]
REMARK SMILES IDX 9 1 10 2 11 3 12 4 13 5 14 6 15 7 16 8 17 9 18 10 8 11 7 12
REMARK SMILES IDX 6 13 5 14 4 15 3 16 2 17 1 18
REMARK H PARENT
REMARK Flexibility Score: inf
ROOT
ATOM      1  C   UNL     1       0.861  -0.661   8.623  1.00  0.00     0.000 C 
ENDROOT
BRANCH   1   2
ATOM      2  C   UNL     1       0.686  -0.539   7.099  1.00  0.00     0.000 C 
BRANCH   2   3
ATOM      3  C   UNL     1       0.757   0.917   6.613  1.00  0.00     0.000 C 
BRANCH   3   4
ATOM      4  C   UNL     1      -0.630   1.534   6.378  1.00  0.00     0.000 C 
BRANCH   4   5
ATOM      5  C   UNL     1      -1.030   2.443   7.550  1.00  0.00     0.000 C 
BRANCH   5   6
ATOM      6  C   UNL     1      -2.413   3.085   7.356  1.00  0.00     0.006 C 
BRANCH   6   7
ATOM      7  C   UNL     1      -3.093   2.642   6.054  1.00  0.00     0.053 C 
BRANCH   7   8
ATOM      8  C   UNL     1      -4.581   2.652   6.214  1.00  0.00     0.041 C 
ATOM      9  O   UNL     1      -5.095   2.701   7.363  1.00  0.00    -0.550 OA
ATOM     10  O   UNL     1      -5.401   2.556   5.097  1.00  0.00    -0.550 OA
ENDBRANCH   7   8
ENDBRANCH   6   7
ENDBRANCH   5   6
ENDBRANCH   4   5
ENDBRANCH   3   4
ENDBRANCH   2   3
ENDBRANCH   1   2
BRANCH   1  11
ATOM     11  C   UNL     1       0.695  -2.105   9.133  1.00  0.00     0.000 C 
BRANCH  11  12
ATOM     12  C   UNL     1       0.850  -3.201   8.062  1.00  0.00    -0.000 C 
BRANCH  12  13
ATOM     13  C   UNL     1      -0.418  -4.048   7.881  1.00  0.00    -0.000 C 
BRANCH  13  14
ATOM     14  C   UNL     1      -1.269  -3.521   6.716  1.00  0.00    -0.000 C 
BRANCH  14  15
ATOM     15  C   UNL     1      -2.611  -2.931   7.179  1.00  0.00    -0.000 C 
BRANCH  15  16
ATOM     16  C   UNL     1      -2.830  -1.493   6.675  1.00  0.00    -0.000 C 
BRANCH  16  17
ATOM     17  C   UNL     1      -3.489  -0.594   7.734  1.00  0.00    -0.003 C 
ATOM     18  C   UNL     1      -2.761  -0.629   9.078  1.00  0.00     0.004 C 
ENDBRANCH  16  17
ENDBRANCH  15  16
ENDBRANCH  14  15
ENDBRANCH  13  14
ENDBRANCH  12  13
ENDBRANCH  11  12
ENDBRANCH   1  11
TORSDOF 14
ENDMDL
