MODEL 1
REMARK VINA RESULT:    39.112      0.000      0.000
REMARK INTER + INTRA:          47.396
REMARK INTER:                  47.114
REMARK INTRA:                   0.282
REMARK UNBOUND:                 0.282
REMARK SMILES O=c1c(O)c(-c2ccc(O)c(O)c2)oc2cc(O)cc(O)c12
REMARK SMILES IDX 5 1 3 2 2 3 1 4 22 5 20 6 19 7 17 8 16 9 15 10 14 11 6 12
REMARK SMILES IDX 7 13 8 14 9 15 13 16 11 17 10 18 12 20 4 22 21 24 18 26
REMARK H PARENT 10 19 12 21 4 23 21 25 18 27
REMARK Flexibility Score: inf
ROOT
ATOM      1  C   UNL     1      12.195  12.592   4.505  1.00  0.00     0.180 A 
ATOM      2  C   UNL     1      12.003  11.326   3.926  1.00  0.00     0.208 A 
ATOM      3  C   UNL     1      11.453  11.244   2.637  1.00  0.00     0.238 A 
ATOM      4  O   UNL     1      11.333  10.111   2.101  1.00  0.00    -0.285 OA
ATOM      5  C   UNL     1      11.086  12.427   1.950  1.00  0.00     0.111 A 
ATOM      6  C   UNL     1      10.483  12.459   0.656  1.00  0.00     0.134 A 
ATOM      7  C   UNL     1      10.282  13.689   0.018  1.00  0.00     0.093 A 
ATOM      8  C   UNL     1      10.604  14.891   0.655  1.00  0.00     0.123 A 
ATOM      9  C   UNL     1      11.138  14.871   1.941  1.00  0.00     0.094 A 
ATOM     10  C   UNL     1      11.383  13.659   2.589  1.00  0.00     0.146 A 
ATOM     11  O   UNL     1      11.902  13.686   3.810  1.00  0.00    -0.452 OA
ENDROOT
BRANCH   1  12
ATOM     12  C   UNL     1      12.747  12.758   5.869  1.00  0.00     0.025 A 
ATOM     13  C   UNL     1      12.311  13.828   6.664  1.00  0.00     0.016 A 
ATOM     14  C   UNL     1      12.804  13.992   7.960  1.00  0.00     0.051 A 
ATOM     15  C   UNL     1      13.726  13.085   8.493  1.00  0.00     0.157 A 
ATOM     16  C   UNL     1      13.656  11.833   6.409  1.00  0.00     0.062 A 
ATOM     17  C   UNL     1      14.153  11.987   7.709  1.00  0.00     0.158 A 
BRANCH  15  18
ATOM     18  O   UNL     1      14.185  13.309   9.792  1.00  0.00    -0.504 OA
ATOM     19  H   UNL     1      14.650  14.156  10.090  1.00  0.00     0.293 HD
ENDBRANCH  15  18
BRANCH  17  20
ATOM     20  O   UNL     1      15.055  11.030   8.180  1.00  0.00    -0.504 OA
ATOM     21  H   UNL     1      15.368  10.236   7.641  1.00  0.00     0.293 HD
ENDBRANCH  17  20
ENDBRANCH   1  12
BRANCH   2  22
ATOM     22  O   UNL     1      12.392  10.173   4.613  1.00  0.00    -0.502 OA
ATOM     23  H   UNL     1      11.854   9.315   4.583  1.00  0.00     0.293 HD
ENDBRANCH   2  22
BRANCH   6  24
ATOM     24  O   UNL     1      10.041  11.323  -0.027  1.00  0.00    -0.507 OA
ATOM     25  H   UNL     1       9.235  11.294  -0.635  1.00  0.00     0.293 HD
ENDBRANCH   6  24
BRANCH   8  26
ATOM     26  O   UNL     1      10.387  16.111   0.018  1.00  0.00    -0.508 OA
ATOM     27  H   UNL     1      10.945  16.403  -0.775  1.00  0.00     0.293 HD
ENDBRANCH   8  26
TORSDOF 6
ENDMDL
MODEL 2
REMARK VINA RESULT:    40.412      2.909      4.348
REMARK INTER + INTRA:          48.962
REMARK INTER:                  49.285
REMARK INTRA:                  -0.323
REMARK UNBOUND:                 0.282
REMARK SMILES O=c1c(O)c(-c2ccc(O)c(O)c2)oc2cc(O)cc(O)c12
REMARK SMILES IDX 5 1 3 2 2 3 1 4 22 5 20 6 19 7 17 8 16 9 15 10 14 11 6 12
REMARK SMILES IDX 7 13 8 14 9 15 13 16 11 17 10 18 12 20 4 22 21 24 18 26
REMARK H PARENT 10 19 12 21 4 23 21 25 18 27
REMARK Flexibility Score: inf
ROOT
ATOM      1  C   UNL     1      10.419  13.029   4.441  1.00  0.00     0.180 A 
ATOM      2  C   UNL     1      10.208  14.045   3.493  1.00  0.00     0.208 A 
ATOM      3  C   UNL     1      10.708  13.876   2.192  1.00  0.00     0.238 A 
ATOM      4  O   UNL     1      10.470  14.764   1.333  1.00  0.00    -0.285 OA
ATOM      5  C   UNL     1      11.424  12.701   1.859  1.00  0.00     0.111 A 
ATOM      6  C   UNL     1      12.010  12.443   0.583  1.00  0.00     0.134 A 
ATOM      7  C   UNL     1      12.584  11.192   0.326  1.00  0.00     0.093 A 
ATOM      8  C   UNL     1      12.651  10.213   1.322  1.00  0.00     0.123 A 
ATOM      9  C   UNL     1      12.135  10.478   2.588  1.00  0.00     0.094 A 
ATOM     10  C   UNL     1      11.525  11.703   2.864  1.00  0.00     0.146 A 
ATOM     11  O   UNL     1      11.038  11.910   4.080  1.00  0.00    -0.452 OA
ENDROOT
BRANCH   1  12
ATOM     12  C   UNL     1       9.944  13.145   5.839  1.00  0.00     0.025 A 
ATOM     13  C   UNL     1      10.773  13.736   6.802  1.00  0.00     0.016 A 
ATOM     14  C   UNL     1      10.338  13.873   8.122  1.00  0.00     0.051 A 
ATOM     15  C   UNL     1       9.063  13.439   8.502  1.00  0.00     0.157 A 
ATOM     16  C   UNL     1       8.655  12.728   6.211  1.00  0.00     0.062 A 
ATOM     17  C   UNL     1       8.208  12.864   7.532  1.00  0.00     0.158 A 
BRANCH  15  18
ATOM     18  O   UNL     1       8.691  13.598   9.838  1.00  0.00    -0.504 OA
ATOM     19  H   UNL     1       7.920  13.110  10.271  1.00  0.00     0.293 HD
ENDBRANCH  15  18
BRANCH  17  20
ATOM     20  O   UNL     1       6.916  12.426   7.831  1.00  0.00    -0.504 OA
ATOM     21  H   UNL     1       6.283  12.914   8.448  1.00  0.00     0.293 HD
ENDBRANCH  17  20
ENDBRANCH   1  12
BRANCH   2  22
ATOM     22  O   UNL     1       9.479  15.186   3.837  1.00  0.00    -0.502 OA
ATOM     23  H   UNL     1       9.536  15.611   4.755  1.00  0.00     0.293 HD
ENDBRANCH   2  22
BRANCH   6  24
ATOM     24  O   UNL     1      12.078  13.383  -0.449  1.00  0.00    -0.507 OA
ATOM     25  H   UNL     1      11.428  13.439  -1.220  1.00  0.00     0.293 HD
ENDBRANCH   6  24
BRANCH   8  26
ATOM     26  O   UNL     1      13.238   8.976   1.062  1.00  0.00    -0.508 OA
ATOM     27  H   UNL     1      12.998   8.437   0.238  1.00  0.00     0.293 HD
ENDBRANCH   8  26
TORSDOF 6
ENDMDL
MODEL 3
REMARK VINA RESULT:    41.016      1.420      7.294
REMARK INTER + INTRA:          49.691
REMARK INTER:                  49.611
REMARK INTRA:                   0.079
REMARK UNBOUND:                 0.282
REMARK SMILES O=c1c(O)c(-c2ccc(O)c(O)c2)oc2cc(O)cc(O)c12
REMARK SMILES IDX 5 1 3 2 2 3 1 4 22 5 20 6 19 7 17 8 16 9 15 10 14 11 6 12
REMARK SMILES IDX 7 13 8 14 9 15 13 16 11 17 10 18 12 20 4 22 21 24 18 26
REMARK H PARENT 10 19 12 21 4 23 21 25 18 27
REMARK Flexibility Score: inf
ROOT
ATOM      1  C   UNL     1      11.959  13.023   4.742  1.00  0.00     0.180 A 
ATOM      2  C   UNL     1      11.317  13.841   5.688  1.00  0.00     0.208 A 
ATOM      3  C   UNL     1      11.827  13.898   6.995  1.00  0.00     0.238 A 
ATOM      4  O   UNL     1      11.281  14.673   7.823  1.00  0.00    -0.285 OA
ATOM      5  C   UNL     1      12.960  13.125   7.345  1.00  0.00     0.111 A 
ATOM      6  C   UNL     1      13.536  13.076   8.650  1.00  0.00     0.134 A 
ATOM      7  C   UNL     1      14.734  12.379   8.851  1.00  0.00     0.093 A 
ATOM      8  C   UNL     1      15.341  11.676   7.806  1.00  0.00     0.123 A 
ATOM      9  C   UNL     1      14.755  11.670   6.543  1.00  0.00     0.094 A 
ATOM     10  C   UNL     1      13.580  12.385   6.304  1.00  0.00     0.146 A 
ATOM     11  O   UNL     1      13.060  12.360   5.083  1.00  0.00    -0.452 OA
ENDROOT
BRANCH   1  12
ATOM     12  C   UNL     1      11.468  12.891   3.352  1.00  0.00     0.025 A 
ATOM     13  C   UNL     1      11.316  11.615   2.791  1.00  0.00     0.016 A 
ATOM     14  C   UNL     1      10.835  11.468   1.489  1.00  0.00     0.051 A 
ATOM     15  C   UNL     1      10.481  12.587   0.727  1.00  0.00     0.157 A 
ATOM     16  C   UNL     1      11.093  14.016   2.598  1.00  0.00     0.062 A 
ATOM     17  C   UNL     1      10.606  13.879   1.292  1.00  0.00     0.158 A 
BRANCH  15  18
ATOM     18  O   UNL     1      10.014  12.372  -0.570  1.00  0.00    -0.504 OA
ATOM     19  H   UNL     1       9.651  13.101  -1.168  1.00  0.00     0.293 HD
ENDBRANCH  15  18
BRANCH  17  20
ATOM     20  O   UNL     1      10.255  15.040   0.602  1.00  0.00    -0.504 OA
ATOM     21  H   UNL     1      10.685  15.336  -0.263  1.00  0.00     0.293 HD
ENDBRANCH  17  20
ENDBRANCH   1  12
BRANCH   2  22
ATOM     22  O   UNL     1      10.214  14.612   5.315  1.00  0.00    -0.502 OA
ATOM     23  H   UNL     1      10.269  15.616   5.191  1.00  0.00     0.293 HD
ENDBRANCH   2  22
BRANCH   6  24
ATOM     24  O   UNL     1      12.962  13.665   9.780  1.00  0.00    -0.507 OA
ATOM     25  H   UNL     1      13.362  13.644  10.706  1.00  0.00     0.293 HD
ENDBRANCH   6  24
BRANCH   8  26
ATOM     26  O   UNL     1      16.525  10.973   8.019  1.00  0.00    -0.508 OA
ATOM     27  H   UNL     1      16.998  10.986   8.915  1.00  0.00     0.293 HD
ENDBRANCH   8  26
TORSDOF 6
ENDMDL
MODEL 4
REMARK VINA RESULT:    41.186      2.539      3.041
REMARK INTER + INTRA:          49.894
REMARK INTER:                  50.162
REMARK INTRA:                  -0.268
REMARK UNBOUND:                 0.282
REMARK SMILES O=c1c(O)c(-c2ccc(O)c(O)c2)oc2cc(O)cc(O)c12
REMARK SMILES IDX 5 1 3 2 2 3 1 4 22 5 20 6 19 7 17 8 16 9 15 10 14 11 6 12
REMARK SMILES IDX 7 13 8 14 9 15 13 16 11 17 10 18 12 20 4 22 21 24 18 26
REMARK H PARENT 10 19 12 21 4 23 21 25 18 27
REMARK Flexibility Score: inf
ROOT
ATOM      1  C   UNL     1      10.413  13.204   4.147  1.00  0.00     0.180 A 
ATOM      2  C   UNL     1      10.793  12.017   3.497  1.00  0.00     0.208 A 
ATOM      3  C   UNL     1      11.086  12.056   2.125  1.00  0.00     0.238 A 
ATOM      4  O   UNL     1      11.478  11.002   1.560  1.00  0.00    -0.285 OA
ATOM      5  C   UNL     1      10.980  13.277   1.416  1.00  0.00     0.111 A 
ATOM      6  C   UNL     1      11.214  13.424   0.015  1.00  0.00     0.134 A 
ATOM      7  C   UNL     1      11.207  14.703  -0.556  1.00  0.00     0.093 A 
ATOM      8  C   UNL     1      10.910  15.832   0.212  1.00  0.00     0.123 A 
ATOM      9  C   UNL     1      10.623  15.691   1.568  1.00  0.00     0.094 A 
ATOM     10  C   UNL     1      10.657  14.434   2.173  1.00  0.00     0.146 A 
ATOM     11  O   UNL     1      10.386  14.346   3.469  1.00  0.00    -0.452 OA
ENDROOT
BRANCH   1  12
ATOM     12  C   UNL     1      10.064  13.237   5.586  1.00  0.00     0.025 A 
ATOM     13  C   UNL     1      10.931  13.864   6.491  1.00  0.00     0.016 A 
ATOM     14  C   UNL     1      10.612  13.925   7.849  1.00  0.00     0.051 A 
ATOM     15  C   UNL     1       9.418  13.376   8.327  1.00  0.00     0.157 A 
ATOM     16  C   UNL     1       8.853  12.705   6.058  1.00  0.00     0.062 A 
ATOM     17  C   UNL     1       8.522  12.763   7.418  1.00  0.00     0.158 A 
BRANCH  15  18
ATOM     18  O   UNL     1       9.161  13.463   9.697  1.00  0.00    -0.504 OA
ATOM     19  H   UNL     1       8.926  14.321  10.174  1.00  0.00     0.293 HD
ENDBRANCH  15  18
BRANCH  17  20
ATOM     20  O   UNL     1       7.303  12.213   7.817  1.00  0.00    -0.504 OA
ATOM     21  H   UNL     1       7.075  11.977   8.772  1.00  0.00     0.293 HD
ENDBRANCH  17  20
ENDBRANCH   1  12
BRANCH   2  22
ATOM     22  O   UNL     1      10.912  10.827   4.221  1.00  0.00    -0.502 OA
ATOM     23  H   UNL     1      11.803  10.484   4.559  1.00  0.00     0.293 HD
ENDBRANCH   2  22
BRANCH   6  24
ATOM     24  O   UNL     1      11.428  12.353  -0.857  1.00  0.00    -0.507 OA
ATOM     25  H   UNL     1      12.335  12.037  -1.168  1.00  0.00     0.293 HD
ENDBRANCH   6  24
BRANCH   8  26
ATOM     26  O   UNL     1      10.891  17.099  -0.368  1.00  0.00    -0.508 OA
ATOM     27  H   UNL     1      11.249  17.261  -1.302  1.00  0.00     0.293 HD
ENDBRANCH   8  26
TORSDOF 6
ENDMDL
