MODEL 1
REMARK VINA RESULT:    -6.921      0.000      0.000
REMARK INTER + INTRA:         -11.669
REMARK INTER:                 -10.967
REMARK INTRA:                  -0.703
REMARK UNBOUND:                -0.703
REMARK SMILES CCCCCCCCCCCC(=O)[O-]
REMARK SMILES IDX 7 1 8 2 9 3 10 4 11 5 12 6 13 7 14 8 6 9 5 10 4 11 3 12 2 13
REMARK SMILES IDX 1 14
REMARK H PARENT
REMARK Flexibility Score: inf
ROOT
ATOM      1  C   UNL     1      -7.832  -2.840 -19.685  1.00  0.00     0.000 C 
ENDROOT
BRANCH   1   2
ATOM      2  C   UNL     1      -7.106  -2.324 -20.939  1.00  0.00     0.000 C 
BRANCH   2   3
ATOM      3  C   UNL     1      -5.816  -3.119 -21.233  1.00  0.00     0.000 C 
BRANCH   3   4
ATOM      4  C   UNL     1      -4.527  -2.320 -20.972  1.00  0.00     0.006 C 
BRANCH   4   5
ATOM      5  C   UNL     1      -4.147  -2.268 -19.488  1.00  0.00     0.053 C 
BRANCH   5   6
ATOM      6  C   UNL     1      -4.258  -0.870 -18.969  1.00  0.00     0.041 C 
ATOM      7  O   UNL     1      -3.238  -0.135 -18.906  1.00  0.00    -0.550 OA
ATOM      8  O   UNL     1      -5.496  -0.361 -18.599  1.00  0.00    -0.550 OA
ENDBRANCH   5   6
ENDBRANCH   4   5
ENDBRANCH   3   4
ENDBRANCH   2   3
ENDBRANCH   1   2
BRANCH   1   9
ATOM      9  C   UNL     1      -7.288  -4.193 -19.202  1.00  0.00     0.000 C 
BRANCH   9  10
ATOM     10  C   UNL     1      -8.392  -5.102 -18.629  1.00  0.00    -0.000 C 
BRANCH  10  11
ATOM     11  C   UNL     1      -8.920  -6.109 -19.663  1.00  0.00    -0.000 C 
BRANCH  11  12
ATOM     12  C   UNL     1      -7.921  -7.244 -19.944  1.00  0.00    -0.000 C 
BRANCH  12  13
ATOM     13  C   UNL     1      -8.495  -8.630 -19.609  1.00  0.00    -0.003 C 
ATOM     14  C   UNL     1      -7.978  -9.723 -20.543  1.00  0.00     0.004 C 
ENDBRANCH  12  13
ENDBRANCH  11  12
ENDBRANCH  10  11
ENDBRANCH   9  10
ENDBRANCH   1   9
TORSDOF 10
ENDMDL
MODEL 2
REMARK VINA RESULT:    -6.675      1.365      2.373
REMARK INTER + INTRA:         -11.279
REMARK INTER:                 -10.434
REMARK INTRA:                  -0.846
REMARK UNBOUND:                -0.703
REMARK SMILES CCCCCCCCCCCC(=O)[O-]
REMARK SMILES IDX 7 1 8 2 9 3 10 4 11 5 12 6 13 7 14 8 6 9 5 10 4 11 3 12 2 13
REMARK SMILES IDX 1 14
REMARK H PARENT
REMARK Flexibility Score: inf
ROOT
ATOM      1  C   UNL     1      -7.512  -1.698 -19.766  1.00  0.00     0.000 C 
ENDROOT
BRANCH   1   2
ATOM      2  C   UNL     1      -6.350  -0.941 -19.101  1.00  0.00     0.000 C 
BRANCH   2   3
ATOM      3  C   UNL     1      -4.975  -1.426 -19.607  1.00  0.00     0.000 C 
BRANCH   3   4
ATOM      4  C   UNL     1      -4.073  -1.990 -18.495  1.00  0.00     0.006 C 
BRANCH   4   5
ATOM      5  C   UNL     1      -2.822  -1.139 -18.251  1.00  0.00     0.053 C 
BRANCH   5   6
ATOM      6  C   UNL     1      -3.205   0.235 -17.802  1.00  0.00     0.041 C 
ATOM      7  O   UNL     1      -3.873   0.394 -16.747  1.00  0.00    -0.550 OA
ATOM      8  O   UNL     1      -2.783   1.346 -18.522  1.00  0.00    -0.550 OA
ENDBRANCH   5   6
ENDBRANCH   4   5
ENDBRANCH   3   4
ENDBRANCH   2   3
ENDBRANCH   1   2
BRANCH   1   9
ATOM      9  C   UNL     1      -7.064  -2.510 -20.991  1.00  0.00     0.000 C 
BRANCH   9  10
ATOM     10  C   UNL     1      -7.399  -4.008 -20.859  1.00  0.00    -0.000 C 
BRANCH  10  11
ATOM     11  C   UNL     1      -6.989  -4.585 -19.495  1.00  0.00    -0.000 C 
BRANCH  11  12
ATOM     12  C   UNL     1      -8.147  -5.312 -18.790  1.00  0.00    -0.000 C 
BRANCH  12  13
ATOM     13  C   UNL     1      -8.876  -6.296 -19.718  1.00  0.00    -0.003 C 
ATOM     14  C   UNL     1      -8.277  -7.700 -19.675  1.00  0.00     0.004 C 
ENDBRANCH  12  13
ENDBRANCH  11  12
ENDBRANCH  10  11
ENDBRANCH   9  10
ENDBRANCH   1   9
TORSDOF 10
ENDMDL
MODEL 3
REMARK VINA RESULT:    -6.647      4.132      7.100
REMARK INTER + INTRA:         -11.236
REMARK INTER:                 -10.506
REMARK INTRA:                  -0.729
REMARK UNBOUND:                -0.703
REMARK SMILES CCCCCCCCCCCC(=O)[O-]
REMARK SMILES IDX 7 1 8 2 9 3 10 4 11 5 12 6 13 7 14 8 6 9 5 10 4 11 3 12 2 13
REMARK SMILES IDX 1 14
REMARK H PARENT
REMARK Flexibility Score: inf
ROOT
ATOM      1  C   UNL     1      -7.457  -4.428 -19.349  1.00  0.00     0.000 C 
ENDROOT
BRANCH   1   2
ATOM      2  C   UNL     1      -8.695  -5.267 -18.990  1.00  0.00     0.000 C 
BRANCH   2   3
ATOM      3  C   UNL     1      -8.881  -6.467 -19.942  1.00  0.00     0.000 C 
BRANCH   3   4
ATOM      4  C   UNL     1      -7.896  -7.620 -19.682  1.00  0.00     0.006 C 
BRANCH   4   5
ATOM      5  C   UNL     1      -8.593  -8.975 -19.518  1.00  0.00     0.053 C 
BRANCH   5   6
ATOM      6  C   UNL     1      -8.136  -9.929 -20.575  1.00  0.00     0.041 C 
ATOM      7  O   UNL     1      -8.322  -9.663 -21.791  1.00  0.00    -0.550 OA
ATOM      8  O   UNL     1      -7.460 -11.090 -20.219  1.00  0.00    -0.550 OA
ENDBRANCH   5   6
ENDBRANCH   4   5
ENDBRANCH   3   4
ENDBRANCH   2   3
ENDBRANCH   1   2
BRANCH   1   9
ATOM      9  C   UNL     1      -7.466  -3.957 -20.811  1.00  0.00     0.000 C 
BRANCH   9  10
ATOM     10  C   UNL     1      -7.012  -2.493 -20.962  1.00  0.00    -0.000 C 
BRANCH  10  11
ATOM     11  C   UNL     1      -7.423  -1.624 -19.763  1.00  0.00    -0.000 C 
BRANCH  11  12
ATOM     12  C   UNL     1      -6.214  -0.999 -19.047  1.00  0.00    -0.000 C 
BRANCH  12  13
ATOM     13  C   UNL     1      -4.875  -1.556 -19.556  1.00  0.00    -0.003 C 
ATOM     14  C   UNL     1      -4.265  -2.584 -18.604  1.00  0.00     0.004 C 
ENDBRANCH  12  13
ENDBRANCH  11  12
ENDBRANCH  10  11
ENDBRANCH   9  10
ENDBRANCH   1   9
TORSDOF 10
ENDMDL
MODEL 4
REMARK VINA RESULT:    -6.581      1.051      1.568
REMARK INTER + INTRA:         -11.130
REMARK INTER:                 -10.575
REMARK INTRA:                  -0.556
REMARK UNBOUND:                -0.703
REMARK SMILES CCCCCCCCCCCC(=O)[O-]
REMARK SMILES IDX 7 1 8 2 9 3 10 4 11 5 12 6 13 7 14 8 6 9 5 10 4 11 3 12 2 13
REMARK SMILES IDX 1 14
REMARK H PARENT
REMARK Flexibility Score: inf
ROOT
ATOM      1  C   UNL     1      -7.276  -3.536 -20.879  1.00  0.00     0.000 C 
ENDROOT
BRANCH   1   2
ATOM      2  C   UNL     1      -5.798  -3.111 -20.903  1.00  0.00     0.000 C 
BRANCH   2   3
ATOM      3  C   UNL     1      -5.196  -3.020 -19.485  1.00  0.00     0.000 C 
BRANCH   3   4
ATOM      4  C   UNL     1      -4.149  -1.903 -19.330  1.00  0.00     0.006 C 
BRANCH   4   5
ATOM      5  C   UNL     1      -4.758  -0.575 -18.864  1.00  0.00     0.053 C 
BRANCH   5   6
ATOM      6  C   UNL     1      -3.759   0.209 -18.075  1.00  0.00     0.041 C 
ATOM      7  O   UNL     1      -3.906   0.353 -16.833  1.00  0.00    -0.550 OA
ATOM      8  O   UNL     1      -2.640   0.741 -18.701  1.00  0.00    -0.550 OA
ENDBRANCH   5   6
ENDBRANCH   4   5
ENDBRANCH   3   4
ENDBRANCH   2   3
ENDBRANCH   1   2
BRANCH   1   9
ATOM      9  C   UNL     1      -7.860  -3.564 -19.458  1.00  0.00     0.000 C 
BRANCH   9  10
ATOM     10  C   UNL     1      -8.709  -4.822 -19.194  1.00  0.00    -0.000 C 
BRANCH  10  11
ATOM     11  C   UNL     1      -7.941  -6.122 -19.478  1.00  0.00    -0.000 C 
BRANCH  11  12
ATOM     12  C   UNL     1      -8.849  -7.236 -20.026  1.00  0.00    -0.000 C 
BRANCH  12  13
ATOM     13  C   UNL     1      -8.459  -8.626 -19.499  1.00  0.00    -0.003 C 
ATOM     14  C   UNL     1      -7.969  -9.559 -20.605  1.00  0.00     0.004 C 
ENDBRANCH  12  13
ENDBRANCH  11  12
ENDBRANCH  10  11
ENDBRANCH   9  10
ENDBRANCH   1   9
TORSDOF 10
ENDMDL
MODEL 5
REMARK VINA RESULT:    -6.338      3.140      6.991
REMARK INTER + INTRA:         -10.745
REMARK INTER:                  -9.974
REMARK INTRA:                  -0.772
REMARK UNBOUND:                -0.703
REMARK SMILES CCCCCCCCCCCC(=O)[O-]
REMARK SMILES IDX 7 1 8 2 9 3 10 4 11 5 12 6 13 7 14 8 6 9 5 10 4 11 3 12 2 13
REMARK SMILES IDX 1 14
REMARK H PARENT
REMARK Flexibility Score: inf
ROOT
ATOM      1  C   UNL     1      -6.363  -1.078 -19.015  1.00  0.00     0.000 C 
ENDROOT
BRANCH   1   2
ATOM      2  C   UNL     1      -7.497  -1.906 -19.644  1.00  0.00     0.000 C 
BRANCH   2   3
ATOM      3  C   UNL     1      -7.119  -2.443 -21.041  1.00  0.00     0.000 C 
BRANCH   3   4
ATOM      4  C   UNL     1      -7.092  -3.979 -21.124  1.00  0.00     0.006 C 
BRANCH   4   5
ATOM      5  C   UNL     1      -6.926  -4.648 -19.755  1.00  0.00     0.053 C 
BRANCH   5   6
ATOM      6  C   UNL     1      -8.060  -5.586 -19.491  1.00  0.00     0.041 C 
ATOM      7  O   UNL     1      -9.156  -5.147 -19.053  1.00  0.00    -0.550 OA
ATOM      8  O   UNL     1      -7.924  -6.939 -19.774  1.00  0.00    -0.550 OA
ENDBRANCH   5   6
ENDBRANCH   4   5
ENDBRANCH   3   4
ENDBRANCH   2   3
ENDBRANCH   1   2
BRANCH   1   9
ATOM      9  C   UNL     1      -4.999  -1.353 -19.667  1.00  0.00     0.000 C 
BRANCH   9  10
ATOM     10  C   UNL     1      -4.047  -2.128 -18.737  1.00  0.00    -0.000 C 
BRANCH  10  11
ATOM     11  C   UNL     1      -2.867  -1.271 -18.256  1.00  0.00    -0.000 C 
BRANCH  11  12
ATOM     12  C   UNL     1      -3.032   0.216 -18.616  1.00  0.00    -0.000 C 
BRANCH  12  13
ATOM     13  C   UNL     1      -3.017   1.126 -17.378  1.00  0.00    -0.003 C 
ATOM     14  C   UNL     1      -2.253   2.428 -17.614  1.00  0.00     0.004 C 
ENDBRANCH  12  13
ENDBRANCH  11  12
ENDBRANCH  10  11
ENDBRANCH   9  10
ENDBRANCH   1   9
TORSDOF 10
ENDMDL
MODEL 6
REMARK VINA RESULT:    -6.025      1.407      2.424
REMARK INTER + INTRA:         -10.249
REMARK INTER:                  -9.591
REMARK INTRA:                  -0.658
REMARK UNBOUND:                -0.703
REMARK SMILES CCCCCCCCCCCC(=O)[O-]
REMARK SMILES IDX 7 1 8 2 9 3 10 4 11 5 12 6 13 7 14 8 6 9 5 10 4 11 3 12 2 13
REMARK SMILES IDX 1 14
REMARK H PARENT
REMARK Flexibility Score: inf
ROOT
ATOM      1  C   UNL     1      -7.650  -5.127 -18.356  1.00  0.00     0.000 C 
ENDROOT
BRANCH   1   2
ATOM      2  C   UNL     1      -7.073  -3.736 -18.672  1.00  0.00     0.000 C 
BRANCH   2   3
ATOM      3  C   UNL     1      -7.943  -2.963 -19.686  1.00  0.00     0.000 C 
BRANCH   3   4
ATOM      4  C   UNL     1      -7.153  -2.423 -20.891  1.00  0.00     0.006 C 
BRANCH   4   5
ATOM      5  C   UNL     1      -5.948  -3.298 -21.255  1.00  0.00     0.053 C 
BRANCH   5   6
ATOM      6  C   UNL     1      -4.671  -2.571 -20.976  1.00  0.00     0.041 C 
ATOM      7  O   UNL     1      -4.145  -1.850 -21.864  1.00  0.00    -0.550 OA
ATOM      8  O   UNL     1      -4.085  -2.651 -19.718  1.00  0.00    -0.550 OA
ENDBRANCH   5   6
ENDBRANCH   4   5
ENDBRANCH   3   4
ENDBRANCH   2   3
ENDBRANCH   1   2
BRANCH   1   9
ATOM      9  C   UNL     1      -9.051  -5.334 -18.950  1.00  0.00     0.000 C 
BRANCH   9  10
ATOM     10  C   UNL     1      -9.064  -6.386 -20.075  1.00  0.00    -0.000 C 
BRANCH  10  11
ATOM     11  C   UNL     1      -7.993  -7.470 -19.880  1.00  0.00    -0.000 C 
BRANCH  11  12
ATOM     12  C   UNL     1      -8.596  -8.831 -19.491  1.00  0.00    -0.000 C 
BRANCH  12  13
ATOM     13  C   UNL     1      -7.953 -10.000 -20.254  1.00  0.00    -0.003 C 
ATOM     14  C   UNL     1      -8.169  -9.907 -21.763  1.00  0.00     0.004 C 
ENDBRANCH  12  13
ENDBRANCH  11  12
ENDBRANCH  10  11
ENDBRANCH   9  10
ENDBRANCH   1   9
TORSDOF 10
ENDMDL
MODEL 7
REMARK VINA RESULT:    -6.024      3.871      7.440
REMARK INTER + INTRA:         -10.248
REMARK INTER:                  -9.814
REMARK INTRA:                  -0.434
REMARK UNBOUND:                -0.703
REMARK SMILES CCCCCCCCCCCC(=O)[O-]
REMARK SMILES IDX 7 1 8 2 9 3 10 4 11 5 12 6 13 7 14 8 6 9 5 10 4 11 3 12 2 13
REMARK SMILES IDX 1 14
REMARK H PARENT
REMARK Flexibility Score: inf
ROOT
ATOM      1  C   UNL     1      -6.887  -3.129 -19.574  1.00  0.00     0.000 C 
ENDROOT
BRANCH   1   2
ATOM      2  C   UNL     1      -7.168  -4.552 -19.060  1.00  0.00     0.000 C 
BRANCH   2   3
ATOM      3  C   UNL     1      -8.609  -5.008 -19.372  1.00  0.00     0.000 C 
BRANCH   3   4
ATOM      4  C   UNL     1      -8.820  -6.526 -19.227  1.00  0.00     0.006 C 
BRANCH   4   5
ATOM      5  C   UNL     1      -7.888  -7.346 -20.126  1.00  0.00     0.053 C 
BRANCH   5   6
ATOM      6  C   UNL     1      -8.212  -8.803 -20.023  1.00  0.00     0.041 C 
ATOM      7  O   UNL     1      -8.674  -9.275 -18.951  1.00  0.00    -0.550 OA
ATOM      8  O   UNL     1      -8.050  -9.631 -21.126  1.00  0.00    -0.550 OA
ENDBRANCH   5   6
ENDBRANCH   4   5
ENDBRANCH   3   4
ENDBRANCH   2   3
ENDBRANCH   1   2
BRANCH   1   9
ATOM      9  C   UNL     1      -5.881  -3.109 -20.734  1.00  0.00     0.000 C 
BRANCH   9  10
ATOM     10  C   UNL     1      -4.705  -2.148 -20.477  1.00  0.00    -0.000 C 
BRANCH  10  11
ATOM     11  C   UNL     1      -4.176  -2.236 -19.038  1.00  0.00    -0.000 C 
BRANCH  11  12
ATOM     12  C   UNL     1      -4.279  -0.897 -18.288  1.00  0.00    -0.000 C 
BRANCH  12  13
ATOM     13  C   UNL     1      -2.902  -0.290 -17.975  1.00  0.00    -0.003 C 
ATOM     14  C   UNL     1      -2.824   1.198 -18.311  1.00  0.00     0.004 C 
ENDBRANCH  12  13
ENDBRANCH  11  12
ENDBRANCH  10  11
ENDBRANCH   9  10
ENDBRANCH   1   9
TORSDOF 10
ENDMDL
MODEL 8
REMARK VINA RESULT:    -5.646      3.784      6.043
REMARK INTER + INTRA:          -9.649
REMARK INTER:                  -9.080
REMARK INTRA:                  -0.569
REMARK UNBOUND:                -0.703
REMARK SMILES CCCCCCCCCCCC(=O)[O-]
REMARK SMILES IDX 7 1 8 2 9 3 10 4 11 5 12 6 13 7 14 8 6 9 5 10 4 11 3 12 2 13
REMARK SMILES IDX 1 14
REMARK H PARENT
REMARK Flexibility Score: inf
ROOT
ATOM      1  C   UNL     1      -3.996   0.106 -17.750  1.00  0.00     0.000 C 
ENDROOT
BRANCH   1   2
ATOM      2  C   UNL     1      -2.520   0.118 -17.317  1.00  0.00     0.000 C 
BRANCH   2   3
ATOM      3  C   UNL     1      -1.875   1.510 -17.490  1.00  0.00     0.000 C 
BRANCH   3   4
ATOM      4  C   UNL     1      -2.896   2.659 -17.554  1.00  0.00     0.006 C 
BRANCH   4   5
ATOM      5  C   UNL     1      -2.236   4.043 -17.574  1.00  0.00     0.053 C 
BRANCH   5   6
ATOM      6  C   UNL     1      -3.256   5.111 -17.337  1.00  0.00     0.041 C 
ATOM      7  O   UNL     1      -3.195   5.827 -16.303  1.00  0.00    -0.550 OA
ATOM      8  O   UNL     1      -4.246   5.350 -18.282  1.00  0.00    -0.550 OA
ENDBRANCH   5   6
ENDBRANCH   4   5
ENDBRANCH   3   4
ENDBRANCH   2   3
ENDBRANCH   1   2
BRANCH   1   9
ATOM      9  C   UNL     1      -4.211  -0.610 -19.092  1.00  0.00     0.000 C 
BRANCH   9  10
ATOM     10  C   UNL     1      -4.129  -2.143 -18.962  1.00  0.00    -0.000 C 
BRANCH  10  11
ATOM     11  C   UNL     1      -5.512  -2.811 -18.988  1.00  0.00    -0.000 C 
BRANCH  11  12
ATOM     12  C   UNL     1      -6.634  -1.831 -19.371  1.00  0.00    -0.000 C 
BRANCH  12  13
ATOM     13  C   UNL     1      -7.236  -2.136 -20.751  1.00  0.00    -0.003 C 
ATOM     14  C   UNL     1      -6.683  -3.421 -21.364  1.00  0.00     0.004 C 
ENDBRANCH  12  13
ENDBRANCH  11  12
ENDBRANCH  10  11
ENDBRANCH   9  10
ENDBRANCH   1   9
TORSDOF 10
ENDMDL
