MODEL 1
REMARK VINA RESULT:    -4.704      0.000      0.000
REMARK INTER + INTRA:          -9.436
REMARK INTER:                  -8.004
REMARK INTRA:                  -1.432
REMARK UNBOUND:                -1.432
REMARK SMILES CCCCCCCCCCCCCC(=O)[O-]
REMARK SMILES IDX 8 1 9 2 10 3 11 4 12 5 13 6 14 7 15 8 16 9 7 10 6 11 5 12
REMARK SMILES IDX 4 13 3 14 2 15 1 16
REMARK H PARENT
REMARK Flexibility Score: inf
ROOT
ATOM      1  C   UNL     1       7.577  10.936   8.076  1.00  0.00     0.000 C 
ENDROOT
BRANCH   1   2
ATOM      2  C   UNL     1       7.531  12.369   8.633  1.00  0.00     0.000 C 
BRANCH   2   3
ATOM      3  C   UNL     1       6.158  12.739   9.223  1.00  0.00     0.000 C 
BRANCH   3   4
ATOM      4  C   UNL     1       5.083  11.636   9.132  1.00  0.00     0.000 C 
BRANCH   4   5
ATOM      5  C   UNL     1       3.637  12.141   8.983  1.00  0.00     0.006 C 
BRANCH   5   6
ATOM      6  C   UNL     1       2.616  11.003   8.869  1.00  0.00     0.053 C 
BRANCH   6   7
ATOM      7  C   UNL     1       1.317  11.405   9.493  1.00  0.00     0.041 C 
ATOM      8  O   UNL     1       1.084  11.132  10.700  1.00  0.00    -0.550 OA
ATOM      9  O   UNL     1       0.386  12.127   8.758  1.00  0.00    -0.550 OA
ENDBRANCH   6   7
ENDBRANCH   5   6
ENDBRANCH   4   5
ENDBRANCH   3   4
ENDBRANCH   2   3
ENDBRANCH   1   2
BRANCH   1  10
ATOM     10  C   UNL     1       8.643  10.767   6.972  1.00  0.00     0.000 C 
BRANCH  10  11
ATOM     11  C   UNL     1       9.014  12.080   6.261  1.00  0.00    -0.000 C 
BRANCH  11  12
ATOM     12  C   UNL     1       9.082  11.936   4.732  1.00  0.00    -0.000 C 
BRANCH  12  13
ATOM     13  C   UNL     1       7.965  12.710   4.016  1.00  0.00    -0.000 C 
BRANCH  13  14
ATOM     14  C   UNL     1       6.621  12.627   4.761  1.00  0.00    -0.000 C 
BRANCH  14  15
ATOM     15  C   UNL     1       5.810  11.382   4.375  1.00  0.00    -0.003 C 
ATOM     16  C   UNL     1       4.909  10.890   5.508  1.00  0.00     0.004 C 
ENDBRANCH  14  15
ENDBRANCH  13  14
ENDBRANCH  12  13
ENDBRANCH  11  12
ENDBRANCH  10  11
ENDBRANCH   1  10
TORSDOF 12
ENDMDL
MODEL 2
REMARK VINA RESULT:    -4.613      1.110      3.088
REMARK INTER + INTRA:          -9.282
REMARK INTER:                  -7.786
REMARK INTRA:                  -1.496
REMARK UNBOUND:                -1.432
REMARK SMILES CCCCCCCCCCCCCC(=O)[O-]
REMARK SMILES IDX 8 1 9 2 10 3 11 4 12 5 13 6 14 7 15 8 16 9 7 10 6 11 5 12
REMARK SMILES IDX 4 13 3 14 2 15 1 16
REMARK H PARENT
REMARK Flexibility Score: inf
ROOT
ATOM      1  C   UNL     1       5.641  11.065   4.850  1.00  0.00     0.000 C 
ENDROOT
BRANCH   1   2
ATOM      2  C   UNL     1       4.715  10.880   6.063  1.00  0.00     0.000 C 
BRANCH   2   3
ATOM      3  C   UNL     1       5.179   9.756   7.008  1.00  0.00     0.000 C 
BRANCH   3   4
ATOM      4  C   UNL     1       4.785   9.937   8.489  1.00  0.00     0.000 C 
BRANCH   4   5
ATOM      5  C   UNL     1       3.805  11.089   8.770  1.00  0.00     0.006 C 
BRANCH   5   6
ATOM      6  C   UNL     1       2.625  10.668   9.654  1.00  0.00     0.053 C 
BRANCH   6   7
ATOM      7  C   UNL     1       1.438  11.538   9.389  1.00  0.00     0.041 C 
ATOM      8  O   UNL     1       0.691  11.306   8.401  1.00  0.00    -0.550 OA
ATOM      9  O   UNL     1       1.127  12.574  10.260  1.00  0.00    -0.550 OA
ENDBRANCH   6   7
ENDBRANCH   5   6
ENDBRANCH   4   5
ENDBRANCH   3   4
ENDBRANCH   2   3
ENDBRANCH   1   2
BRANCH   1  10
ATOM     10  C   UNL     1       6.428  12.392   4.906  1.00  0.00     0.000 C 
BRANCH  10  11
ATOM     11  C   UNL     1       7.954  12.208   4.951  1.00  0.00    -0.000 C 
BRANCH  11  12
ATOM     12  C   UNL     1       8.377  10.828   5.480  1.00  0.00    -0.000 C 
BRANCH  12  13
ATOM     13  C   UNL     1       8.665  10.837   6.988  1.00  0.00    -0.000 C 
BRANCH  13  14
ATOM     14  C   UNL     1       9.421  12.101   7.436  1.00  0.00    -0.000 C 
BRANCH  14  15
ATOM     15  C   UNL     1       8.787  12.760   8.669  1.00  0.00    -0.003 C 
ATOM     16  C   UNL     1       7.278  12.528   8.752  1.00  0.00     0.004 C 
ENDBRANCH  14  15
ENDBRANCH  13  14
ENDBRANCH  12  13
ENDBRANCH  11  12
ENDBRANCH  10  11
ENDBRANCH   1  10
TORSDOF 12
ENDMDL
MODEL 3
REMARK VINA RESULT:    -4.610      1.958      2.288
REMARK INTER + INTRA:          -9.276
REMARK INTER:                  -7.606
REMARK INTRA:                  -1.670
REMARK UNBOUND:                -1.432
REMARK SMILES CCCCCCCCCCCCCC(=O)[O-]
REMARK SMILES IDX 8 1 9 2 10 3 11 4 12 5 13 6 14 7 15 8 16 9 7 10 6 11 5 12
REMARK SMILES IDX 4 13 3 14 2 15 1 16
REMARK H PARENT
REMARK Flexibility Score: inf
ROOT
ATOM      1  C   UNL     1       7.465  10.936   7.674  1.00  0.00     0.000 C 
ENDROOT
BRANCH   1   2
ATOM      2  C   UNL     1       7.207  12.250   8.431  1.00  0.00     0.000 C 
BRANCH   2   3
ATOM      3  C   UNL     1       5.933  12.974   7.959  1.00  0.00     0.000 C 
BRANCH   3   4
ATOM      4  C   UNL     1       4.727  12.875   8.917  1.00  0.00     0.000 C 
BRANCH   4   5
ATOM      5  C   UNL     1       4.484  11.481   9.523  1.00  0.00     0.006 C 
BRANCH   5   6
ATOM      6  C   UNL     1       3.322  10.734   8.858  1.00  0.00     0.053 C 
BRANCH   6   7
ATOM      7  C   UNL     1       3.835   9.802   7.807  1.00  0.00     0.041 C 
ATOM      8  O   UNL     1       3.968   8.575   8.061  1.00  0.00    -0.550 OA
ATOM      9  O   UNL     1       4.117  10.277   6.534  1.00  0.00    -0.550 OA
ENDBRANCH   6   7
ENDBRANCH   5   6
ENDBRANCH   4   5
ENDBRANCH   3   4
ENDBRANCH   2   3
ENDBRANCH   1   2
BRANCH   1  10
ATOM     10  C   UNL     1       8.871  10.889   7.038  1.00  0.00     0.000 C 
BRANCH  10  11
ATOM     11  C   UNL     1       9.659  12.203   7.174  1.00  0.00    -0.000 C 
BRANCH  11  12
ATOM     12  C   UNL     1       9.795  12.962   5.844  1.00  0.00    -0.000 C 
BRANCH  12  13
ATOM     13  C   UNL     1       9.687  12.037   4.623  1.00  0.00    -0.000 C 
BRANCH  13  14
ATOM     14  C   UNL     1       8.591  12.487   3.640  1.00  0.00    -0.000 C 
BRANCH  14  15
ATOM     15  C   UNL     1       7.327  12.986   4.356  1.00  0.00    -0.003 C 
ATOM     16  C   UNL     1       6.190  11.965   4.326  1.00  0.00     0.004 C 
ENDBRANCH  14  15
ENDBRANCH  13  14
ENDBRANCH  12  13
ENDBRANCH  11  12
ENDBRANCH  10  11
ENDBRANCH   1  10
TORSDOF 12
ENDMDL
MODEL 4
REMARK VINA RESULT:    -4.592      3.573      6.526
REMARK INTER + INTRA:          -9.246
REMARK INTER:                  -8.115
REMARK INTRA:                  -1.131
REMARK UNBOUND:                -1.432
REMARK SMILES CCCCCCCCCCCCCC(=O)[O-]
REMARK SMILES IDX 8 1 9 2 10 3 11 4 12 5 13 6 14 7 15 8 16 9 7 10 6 11 5 12
REMARK SMILES IDX 4 13 3 14 2 15 1 16
REMARK H PARENT
REMARK Flexibility Score: inf
ROOT
ATOM      1  C   UNL     1       5.927  12.040   7.169  1.00  0.00     0.000 C 
ENDROOT
BRANCH   1   2
ATOM      2  C   UNL     1       6.792  11.697   8.393  1.00  0.00     0.000 C 
BRANCH   2   3
ATOM      3  C   UNL     1       8.296  11.644   8.069  1.00  0.00     0.000 C 
BRANCH   3   4
ATOM      4  C   UNL     1       8.667  10.855   6.796  1.00  0.00     0.000 C 
BRANCH   4   5
ATOM      5  C   UNL     1       9.643  11.569   5.843  1.00  0.00     0.006 C 
BRANCH   5   6
ATOM      6  C   UNL     1       9.032  12.812   5.185  1.00  0.00     0.053 C 
BRANCH   6   7
ATOM      7  C   UNL     1       8.335  12.439   3.915  1.00  0.00     0.041 C 
ATOM      8  O   UNL     1       7.129  12.075   3.939  1.00  0.00    -0.550 OA
ATOM      9  O   UNL     1       8.999  12.541   2.700  1.00  0.00    -0.550 OA
ENDBRANCH   6   7
ENDBRANCH   5   6
ENDBRANCH   4   5
ENDBRANCH   3   4
ENDBRANCH   2   3
ENDBRANCH   1   2
BRANCH   1  10
ATOM     10  C   UNL     1       5.127  10.825   6.653  1.00  0.00     0.000 C 
BRANCH  10  11
ATOM     11  C   UNL     1       4.938   9.715   7.701  1.00  0.00    -0.000 C 
BRANCH  11  12
ATOM     12  C   UNL     1       3.535   9.715   8.329  1.00  0.00    -0.000 C 
BRANCH  12  13
ATOM     13  C   UNL     1       3.440  10.625   9.562  1.00  0.00    -0.000 C 
BRANCH  13  14
ATOM     14  C   UNL     1       2.612  11.896   9.293  1.00  0.00    -0.000 C 
BRANCH  14  15
ATOM     15  C   UNL     1       1.222  11.841   9.943  1.00  0.00    -0.003 C 
ATOM     16  C   UNL     1       0.200  12.722   9.226  1.00  0.00     0.004 C 
ENDBRANCH  14  15
ENDBRANCH  13  14
ENDBRANCH  12  13
ENDBRANCH  11  12
ENDBRANCH  10  11
ENDBRANCH   1  10
TORSDOF 12
ENDMDL
MODEL 5
REMARK VINA RESULT:    -4.531      3.065      6.349
REMARK INTER + INTRA:          -9.141
REMARK INTER:                  -8.181
REMARK INTRA:                  -0.960
REMARK UNBOUND:                -1.432
REMARK SMILES CCCCCCCCCCCCCC(=O)[O-]
REMARK SMILES IDX 8 1 9 2 10 3 11 4 12 5 13 6 14 7 15 8 16 9 7 10 6 11 5 12
REMARK SMILES IDX 4 13 3 14 2 15 1 16
REMARK H PARENT
REMARK Flexibility Score: inf
ROOT
ATOM      1  C   UNL     1       5.043  10.843   5.450  1.00  0.00     0.000 C 
ENDROOT
BRANCH   1   2
ATOM      2  C   UNL     1       5.811  11.509   4.296  1.00  0.00     0.000 C 
BRANCH   2   3
ATOM      3  C   UNL     1       6.702  12.674   4.763  1.00  0.00     0.000 C 
BRANCH   3   4
ATOM      4  C   UNL     1       8.111  12.719   4.134  1.00  0.00     0.000 C 
BRANCH   4   5
ATOM      5  C   UNL     1       9.235  12.128   5.004  1.00  0.00     0.006 C 
BRANCH   5   6
ATOM      6  C   UNL     1       9.376  12.833   6.358  1.00  0.00     0.053 C 
BRANCH   6   7
ATOM      7  C   UNL     1       8.936  11.927   7.464  1.00  0.00     0.041 C 
ATOM      8  O   UNL     1       8.752  10.701   7.242  1.00  0.00    -0.550 OA
ATOM      9  O   UNL     1       8.778  12.425   8.751  1.00  0.00    -0.550 OA
ENDBRANCH   6   7
ENDBRANCH   5   6
ENDBRANCH   4   5
ENDBRANCH   3   4
ENDBRANCH   2   3
ENDBRANCH   1   2
BRANCH   1  10
ATOM     10  C   UNL     1       5.337  11.504   6.814  1.00  0.00     0.000 C 
BRANCH  10  11
ATOM     11  C   UNL     1       5.302  10.524   7.999  1.00  0.00    -0.000 C 
BRANCH  11  12
ATOM     12  C   UNL     1       4.776  11.166   9.293  1.00  0.00    -0.000 C 
BRANCH  12  13
ATOM     13  C   UNL     1       3.595  12.115   9.044  1.00  0.00    -0.000 C 
BRANCH  13  14
ATOM     14  C   UNL     1       2.241  11.385   9.053  1.00  0.00    -0.000 C 
BRANCH  14  15
ATOM     15  C   UNL     1       1.201  12.084   9.941  1.00  0.00    -0.003 C 
ATOM     16  C   UNL     1       0.075  12.731   9.134  1.00  0.00     0.004 C 
ENDBRANCH  14  15
ENDBRANCH  13  14
ENDBRANCH  12  13
ENDBRANCH  11  12
ENDBRANCH  10  11
ENDBRANCH   1  10
TORSDOF 12
ENDMDL
MODEL 6
REMARK VINA RESULT:    -4.465      1.296      3.075
REMARK INTER + INTRA:          -9.029
REMARK INTER:                  -7.477
REMARK INTRA:                  -1.552
REMARK UNBOUND:                -1.432
REMARK SMILES CCCCCCCCCCCCCC(=O)[O-]
REMARK SMILES IDX 8 1 9 2 10 3 11 4 12 5 13 6 14 7 15 8 16 9 7 10 6 11 5 12
REMARK SMILES IDX 4 13 3 14 2 15 1 16
REMARK H PARENT
REMARK Flexibility Score: inf
ROOT
ATOM      1  C   UNL     1       5.870  11.038   6.024  1.00  0.00     0.000 C 
ENDROOT
BRANCH   1   2
ATOM      2  C   UNL     1       4.529  10.468   6.517  1.00  0.00     0.000 C 
BRANCH   2   3
ATOM      3  C   UNL     1       4.691   9.471   7.678  1.00  0.00     0.000 C 
BRANCH   3   4
ATOM      4  C   UNL     1       3.742   9.695   8.875  1.00  0.00     0.000 C 
BRANCH   4   5
ATOM      5  C   UNL     1       3.929  11.029   9.618  1.00  0.00     0.006 C 
BRANCH   5   6
ATOM      6  C   UNL     1       2.870  12.074   9.247  1.00  0.00     0.053 C 
BRANCH   6   7
ATOM      7  C   UNL     1       1.497  11.536   9.500  1.00  0.00     0.041 C 
ATOM      8  O   UNL     1       1.125  11.279  10.676  1.00  0.00    -0.550 OA
ATOM      9  O   UNL     1       0.611  11.366   8.445  1.00  0.00    -0.550 OA
ENDBRANCH   6   7
ENDBRANCH   5   6
ENDBRANCH   4   5
ENDBRANCH   3   4
ENDBRANCH   2   3
ENDBRANCH   1   2
BRANCH   1  10
ATOM     10  C   UNL     1       6.087  12.501   6.468  1.00  0.00     0.000 C 
BRANCH  10  11
ATOM     11  C   UNL     1       6.706  12.641   7.869  1.00  0.00    -0.000 C 
BRANCH  11  12
ATOM     12  C   UNL     1       7.891  11.689   8.099  1.00  0.00    -0.000 C 
BRANCH  12  13
ATOM     13  C   UNL     1       9.247  12.408   8.037  1.00  0.00    -0.000 C 
BRANCH  13  14
ATOM     14  C   UNL     1      10.043  12.055   6.768  1.00  0.00    -0.000 C 
BRANCH  14  15
ATOM     15  C   UNL     1       9.575  12.848   5.540  1.00  0.00    -0.003 C 
ATOM     16  C   UNL     1       9.093  11.946   4.403  1.00  0.00     0.004 C 
ENDBRANCH  14  15
ENDBRANCH  13  14
ENDBRANCH  12  13
ENDBRANCH  11  12
ENDBRANCH  10  11
ENDBRANCH   1  10
TORSDOF 12
ENDMDL
MODEL 7
REMARK VINA RESULT:    -4.364      0.940      1.739
REMARK INTER + INTRA:          -8.857
REMARK INTER:                  -7.479
REMARK INTRA:                  -1.379
REMARK UNBOUND:                -1.432
REMARK SMILES CCCCCCCCCCCCCC(=O)[O-]
REMARK SMILES IDX 8 1 9 2 10 3 11 4 12 5 13 6 14 7 15 8 16 9 7 10 6 11 5 12
REMARK SMILES IDX 4 13 3 14 2 15 1 16
REMARK H PARENT
REMARK Flexibility Score: inf
ROOT
ATOM      1  C   UNL     1       8.753  11.452   7.334  1.00  0.00     0.000 C 
ENDROOT
BRANCH   1   2
ATOM      2  C   UNL     1       8.160  12.798   7.783  1.00  0.00     0.000 C 
BRANCH   2   3
ATOM      3  C   UNL     1       7.412  12.707   9.125  1.00  0.00     0.000 C 
BRANCH   3   4
ATOM      4  C   UNL     1       5.922  13.106   9.076  1.00  0.00     0.000 C 
BRANCH   4   5
ATOM      5  C   UNL     1       4.927  11.955   9.304  1.00  0.00     0.006 C 
BRANCH   5   6
ATOM      6  C   UNL     1       3.476  12.350   9.005  1.00  0.00     0.053 C 
BRANCH   6   7
ATOM      7  C   UNL     1       2.548  11.232   9.361  1.00  0.00     0.041 C 
ATOM      8  O   UNL     1       1.355  11.247   8.956  1.00  0.00    -0.550 OA
ATOM      9  O   UNL     1       3.013  10.149  10.096  1.00  0.00    -0.550 OA
ENDBRANCH   6   7
ENDBRANCH   5   6
ENDBRANCH   4   5
ENDBRANCH   3   4
ENDBRANCH   2   3
ENDBRANCH   1   2
BRANCH   1  10
ATOM     10  C   UNL     1       9.521  11.562   5.999  1.00  0.00     0.000 C 
BRANCH  10  11
ATOM     11  C   UNL     1       8.635  11.373   4.756  1.00  0.00    -0.000 C 
BRANCH  11  12
ATOM     12  C   UNL     1       7.911  12.662   4.334  1.00  0.00    -0.000 C 
BRANCH  12  13
ATOM     13  C   UNL     1       6.413  12.636   4.670  1.00  0.00    -0.000 C 
BRANCH  13  14
ATOM     14  C   UNL     1       5.819  11.217   4.599  1.00  0.00    -0.000 C 
BRANCH  14  15
ATOM     15  C   UNL     1       4.887  10.910   5.780  1.00  0.00    -0.003 C 
ATOM     16  C   UNL     1       5.517   9.957   6.796  1.00  0.00     0.004 C 
ENDBRANCH  14  15
ENDBRANCH  13  14
ENDBRANCH  12  13
ENDBRANCH  11  12
ENDBRANCH  10  11
ENDBRANCH   1  10
TORSDOF 12
ENDMDL
MODEL 8
REMARK VINA RESULT:    -4.337      2.513      5.719
REMARK INTER + INTRA:          -8.811
REMARK INTER:                  -7.779
REMARK INTRA:                  -1.032
REMARK UNBOUND:                -1.432
REMARK SMILES CCCCCCCCCCCCCC(=O)[O-]
REMARK SMILES IDX 8 1 9 2 10 3 11 4 12 5 13 6 14 7 15 8 16 9 7 10 6 11 5 12
REMARK SMILES IDX 4 13 3 14 2 15 1 16
REMARK H PARENT
REMARK Flexibility Score: inf
ROOT
ATOM      1  C   UNL     1       8.318  12.997   7.893  1.00  0.00     0.000 C 
ENDROOT
BRANCH   1   2
ATOM      2  C   UNL     1       9.315  11.989   7.297  1.00  0.00     0.000 C 
BRANCH   2   3
ATOM      3  C   UNL     1      10.023  12.519   6.037  1.00  0.00     0.000 C 
BRANCH   3   4
ATOM      4  C   UNL     1       9.092  13.112   4.959  1.00  0.00     0.000 C 
BRANCH   4   5
ATOM      5  C   UNL     1       8.188  12.094   4.241  1.00  0.00     0.006 C 
BRANCH   5   6
ATOM      6  C   UNL     1       6.702  12.276   4.572  1.00  0.00     0.053 C 
BRANCH   6   7
ATOM      7  C   UNL     1       6.150  11.031   5.189  1.00  0.00     0.041 C 
ATOM      8  O   UNL     1       6.924  10.193   5.725  1.00  0.00    -0.550 OA
ATOM      9  O   UNL     1       4.778  10.818   5.219  1.00  0.00    -0.550 OA
ENDBRANCH   6   7
ENDBRANCH   5   6
ENDBRANCH   4   5
ENDBRANCH   3   4
ENDBRANCH   2   3
ENDBRANCH   1   2
BRANCH   1  10
ATOM     10  C   UNL     1       7.256  12.318   8.784  1.00  0.00     0.000 C 
BRANCH  10  11
ATOM     11  C   UNL     1       5.885  13.015   8.756  1.00  0.00    -0.000 C 
BRANCH  11  12
ATOM     12  C   UNL     1       4.724  12.043   8.486  1.00  0.00    -0.000 C 
BRANCH  12  13
ATOM     13  C   UNL     1       3.439  12.437   9.230  1.00  0.00    -0.000 C 
BRANCH  13  14
ATOM     14  C   UNL     1       2.396  11.305   9.241  1.00  0.00    -0.000 C 
BRANCH  14  15
ATOM     15  C   UNL     1       1.116  11.693   9.996  1.00  0.00    -0.003 C 
ATOM     16  C   UNL     1       0.218  12.633   9.191  1.00  0.00     0.004 C 
ENDBRANCH  14  15
ENDBRANCH  13  14
ENDBRANCH  12  13
ENDBRANCH  11  12
ENDBRANCH  10  11
ENDBRANCH   1  10
TORSDOF 12
ENDMDL
MODEL 9
REMARK VINA RESULT:    -4.149      1.542      3.011
REMARK INTER + INTRA:          -8.491
REMARK INTER:                  -7.549
REMARK INTRA:                  -0.943
REMARK UNBOUND:                -1.432
REMARK SMILES CCCCCCCCCCCCCC(=O)[O-]
REMARK SMILES IDX 8 1 9 2 10 3 11 4 12 5 13 6 14 7 15 8 16 9 7 10 6 11 5 12
REMARK SMILES IDX 4 13 3 14 2 15 1 16
REMARK H PARENT
REMARK Flexibility Score: inf
ROOT
ATOM      1  C   UNL     1       4.652   9.071   8.156  1.00  0.00     0.000 C 
ENDROOT
BRANCH   1   2
ATOM      2  C   UNL     1       3.397   9.760   8.719  1.00  0.00     0.000 C 
BRANCH   2   3
ATOM      3  C   UNL     1       3.722  10.813   9.794  1.00  0.00     0.000 C 
BRANCH   3   4
ATOM      4  C   UNL     1       3.958  12.243   9.263  1.00  0.00     0.000 C 
BRANCH   4   5
ATOM      5  C   UNL     1       2.700  13.125   9.174  1.00  0.00     0.006 C 
BRANCH   5   6
ATOM      6  C   UNL     1       1.518  12.562   9.972  1.00  0.00     0.053 C 
BRANCH   6   7
ATOM      7  C   UNL     1       0.378  12.243   9.059  1.00  0.00     0.041 C 
ATOM      8  O   UNL     1       0.470  11.289   8.241  1.00  0.00    -0.550 OA
ATOM      9  O   UNL     1      -0.805  12.965   9.144  1.00  0.00    -0.550 OA
ENDBRANCH   6   7
ENDBRANCH   5   6
ENDBRANCH   4   5
ENDBRANCH   3   4
ENDBRANCH   2   3
ENDBRANCH   1   2
BRANCH   1  10
ATOM     10  C   UNL     1       5.475  10.001   7.239  1.00  0.00     0.000 C 
BRANCH  10  11
ATOM     11  C   UNL     1       4.699  10.506   6.010  1.00  0.00    -0.000 C 
BRANCH  11  12
ATOM     12  C   UNL     1       5.546  11.405   5.095  1.00  0.00    -0.000 C 
BRANCH  12  13
ATOM     13  C   UNL     1       6.448  12.368   5.881  1.00  0.00    -0.000 C 
BRANCH  13  14
ATOM     14  C   UNL     1       7.600  12.924   5.026  1.00  0.00    -0.000 C 
BRANCH  14  15
ATOM     15  C   UNL     1       8.768  11.934   4.897  1.00  0.00    -0.003 C 
ATOM     16  C   UNL     1       9.196  11.348   6.242  1.00  0.00     0.004 C 
ENDBRANCH  14  15
ENDBRANCH  13  14
ENDBRANCH  12  13
ENDBRANCH  11  12
ENDBRANCH  10  11
ENDBRANCH   1  10
TORSDOF 12
ENDMDL
