MODEL 1
REMARK VINA RESULT:     2.121      0.000      0.000
REMARK INTER + INTRA:           4.309
REMARK INTER:                   5.592
REMARK INTRA:                  -1.283
REMARK UNBOUND:                -1.283
REMARK SMILES CCCCCCCCCCCCCCCCCCCCCCCCCCCCCC(=O)[O-]
REMARK SMILES IDX 16 1 17 2 18 3 19 4 20 5 21 6 22 7 23 8 24 9 25 10 26 11
REMARK SMILES IDX 27 12 28 13 29 14 30 15 31 16 32 17 15 18 14 19 13 20 12 21
REMARK SMILES IDX 11 22 10 23 9 24 8 25 7 26 6 27 5 28 4 29 3 30 2 31 1 32
REMARK H PARENT
REMARK Flexibility Score: inf
ROOT
ATOM      1  C   UNL     1      -3.704 -22.267  15.537  1.00  0.00     0.000 C 
ENDROOT
BRANCH   1   2
ATOM      2  C   UNL     1      -4.823 -21.581  16.347  1.00  0.00     0.000 C 
BRANCH   2   3
ATOM      3  C   UNL     1      -5.604 -22.566  17.238  1.00  0.00     0.000 C 
BRANCH   3   4
ATOM      4  C   UNL     1      -6.935 -22.979  16.590  1.00  0.00     0.000 C 
BRANCH   4   5
ATOM      5  C   UNL     1      -7.204 -22.236  15.262  1.00  0.00     0.000 C 
BRANCH   5   6
ATOM      6  C   UNL     1      -7.797 -20.830  15.475  1.00  0.00     0.000 C 
BRANCH   6   7
ATOM      7  C   UNL     1      -9.215 -20.653  14.894  1.00  0.00     0.000 C 
BRANCH   7   8
ATOM      8  C   UNL     1     -10.236 -19.997  15.848  1.00  0.00     0.000 C 
BRANCH   8   9
ATOM      9  C   UNL     1     -11.124 -21.007  16.608  1.00  0.00     0.000 C 
BRANCH   9  10
ATOM     10  C   UNL     1     -10.482 -22.398  16.768  1.00  0.00     0.000 C 
BRANCH  10  11
ATOM     11  C   UNL     1     -10.954 -23.125  18.037  1.00  0.00     0.000 C 
BRANCH  11  12
ATOM     12  C   UNL     1     -10.836 -22.209  19.262  1.00  0.00     0.000 C 
BRANCH  12  13
ATOM     13  C   UNL     1     -10.120 -22.915  20.423  1.00  0.00     0.006 C 
BRANCH  13  14
ATOM     14  C   UNL     1      -9.005 -22.049  21.027  1.00  0.00     0.053 C 
BRANCH  14  15
ATOM     15  C   UNL     1      -9.415 -21.438  22.334  1.00  0.00     0.041 C 
ATOM     16  O   UNL     1      -9.486 -20.187  22.453  1.00  0.00    -0.550 OA
ATOM     17  O   UNL     1      -9.685 -22.250  23.427  1.00  0.00    -0.550 OA
ENDBRANCH  14  15
ENDBRANCH  13  14
ENDBRANCH  12  13
ENDBRANCH  11  12
ENDBRANCH  10  11
ENDBRANCH   9  10
ENDBRANCH   8   9
ENDBRANCH   7   8
ENDBRANCH   6   7
ENDBRANCH   5   6
ENDBRANCH   4   5
ENDBRANCH   3   4
ENDBRANCH   2   3
ENDBRANCH   1   2
BRANCH   1  18
ATOM     18  C   UNL     1      -2.469 -21.378  15.307  1.00  0.00     0.000 C 
BRANCH  18  19
ATOM     19  C   UNL     1      -1.232 -21.877  16.071  1.00  0.00     0.000 C 
BRANCH  19  20
ATOM     20  C   UNL     1      -0.504 -23.028  15.356  1.00  0.00     0.000 C 
BRANCH  20  21
ATOM     21  C   UNL     1       0.983 -23.125  15.732  1.00  0.00     0.000 C 
BRANCH  21  22
ATOM     22  C   UNL     1       1.616 -21.732  15.875  1.00  0.00     0.000 C 
BRANCH  22  23
ATOM     23  C   UNL     1       2.491 -21.594  17.131  1.00  0.00     0.000 C 
BRANCH  23  24
ATOM     24  C   UNL     1       3.984 -21.319  16.862  1.00  0.00    -0.000 C 
BRANCH  24  25
ATOM     25  C   UNL     1       4.937 -22.472  17.226  1.00  0.00    -0.000 C 
BRANCH  25  26
ATOM     26  C   UNL     1       6.202 -21.992  17.955  1.00  0.00    -0.000 C 
BRANCH  26  27
ATOM     27  C   UNL     1       7.489 -22.560  17.334  1.00  0.00    -0.000 C 
BRANCH  27  28
ATOM     28  C   UNL     1       8.049 -21.667  16.212  1.00  0.00    -0.000 C 
BRANCH  28  29
ATOM     29  C   UNL     1       8.350 -22.466  14.927  1.00  0.00    -0.000 C 
BRANCH  29  30
ATOM     30  C   UNL     1       7.939 -21.750  13.627  1.00  0.00    -0.000 C 
BRANCH  30  31
ATOM     31  C   UNL     1       9.122 -21.362  12.717  1.00  0.00    -0.003 C 
ATOM     32  C   UNL     1       8.670 -20.784  11.376  1.00  0.00     0.004 C 
ENDBRANCH  30  31
ENDBRANCH  29  30
ENDBRANCH  28  29
ENDBRANCH  27  28
ENDBRANCH  26  27
ENDBRANCH  25  26
ENDBRANCH  24  25
ENDBRANCH  23  24
ENDBRANCH  22  23
ENDBRANCH  21  22
ENDBRANCH  20  21
ENDBRANCH  19  20
ENDBRANCH  18  19
ENDBRANCH   1  18
TORSDOF 28
ENDMDL
MODEL 2
REMARK VINA RESULT:     2.142      1.380      3.959
REMARK INTER + INTRA:           4.365
REMARK INTER:                   5.607
REMARK INTRA:                  -1.242
REMARK UNBOUND:                -1.283
REMARK SMILES CCCCCCCCCCCCCCCCCCCCCCCCCCCCCC(=O)[O-]
REMARK SMILES IDX 16 1 17 2 18 3 19 4 20 5 21 6 22 7 23 8 24 9 25 10 26 11
REMARK SMILES IDX 27 12 28 13 29 14 30 15 31 16 32 17 15 18 14 19 13 20 12 21
REMARK SMILES IDX 11 22 10 23 9 24 8 25 7 26 6 27 5 28 4 29 3 30 2 31 1 32
REMARK H PARENT
REMARK Flexibility Score: inf
ROOT
ATOM      1  C   UNL     1       1.757 -22.897  14.986  1.00  0.00     0.000 C 
ENDROOT
BRANCH   1   2
ATOM      2  C   UNL     1       0.391 -23.125  15.667  1.00  0.00     0.000 C 
BRANCH   2   3
ATOM      3  C   UNL     1      -0.673 -22.102  15.226  1.00  0.00     0.000 C 
BRANCH   3   4
ATOM      4  C   UNL     1      -2.050 -22.761  15.052  1.00  0.00     0.000 C 
BRANCH   4   5
ATOM      5  C   UNL     1      -2.901 -22.710  16.342  1.00  0.00     0.000 C 
BRANCH   5   6
ATOM      6  C   UNL     1      -4.388 -23.016  16.087  1.00  0.00     0.000 C 
BRANCH   6   7
ATOM      7  C   UNL     1      -5.343 -21.880  16.510  1.00  0.00     0.000 C 
BRANCH   7   8
ATOM      8  C   UNL     1      -6.798 -22.030  16.018  1.00  0.00     0.000 C 
BRANCH   8   9
ATOM      9  C   UNL     1      -7.773 -22.562  17.093  1.00  0.00     0.000 C 
BRANCH   9  10
ATOM     10  C   UNL     1      -8.919 -21.589  17.426  1.00  0.00     0.000 C 
BRANCH  10  11
ATOM     11  C   UNL     1     -10.191 -22.311  17.896  1.00  0.00     0.000 C 
BRANCH  11  12
ATOM     12  C   UNL     1     -10.713 -21.695  19.202  1.00  0.00     0.000 C 
BRANCH  12  13
ATOM     13  C   UNL     1      -9.562 -21.171  20.073  1.00  0.00     0.006 C 
BRANCH  13  14
ATOM     14  C   UNL     1      -9.247 -22.112  21.244  1.00  0.00     0.053 C 
BRANCH  14  15
ATOM     15  C   UNL     1      -9.358 -21.418  22.568  1.00  0.00     0.041 C 
ATOM     16  O   UNL     1     -10.219 -20.515  22.740  1.00  0.00    -0.550 OA
ATOM     17  O   UNL     1      -8.490 -21.745  23.601  1.00  0.00    -0.550 OA
ENDBRANCH  14  15
ENDBRANCH  13  14
ENDBRANCH  12  13
ENDBRANCH  11  12
ENDBRANCH  10  11
ENDBRANCH   9  10
ENDBRANCH   8   9
ENDBRANCH   7   8
ENDBRANCH   6   7
ENDBRANCH   5   6
ENDBRANCH   4   5
ENDBRANCH   3   4
ENDBRANCH   2   3
ENDBRANCH   1   2
BRANCH   1  18
ATOM     18  C   UNL     1       2.545 -21.705  15.556  1.00  0.00     0.000 C 
BRANCH  18  19
ATOM     19  C   UNL     1       3.467 -22.109  16.718  1.00  0.00     0.000 C 
BRANCH  19  20
ATOM     20  C   UNL     1       4.033 -20.903  17.487  1.00  0.00     0.000 C 
BRANCH  20  21
ATOM     21  C   UNL     1       5.527 -21.048  17.818  1.00  0.00     0.000 C 
BRANCH  21  22
ATOM     22  C   UNL     1       5.930 -22.525  17.943  1.00  0.00     0.000 C 
BRANCH  22  23
ATOM     23  C   UNL     1       6.514 -23.103  16.643  1.00  0.00     0.000 C 
BRANCH  23  24
ATOM     24  C   UNL     1       7.766 -22.379  16.109  1.00  0.00    -0.000 C 
BRANCH  24  25
ATOM     25  C   UNL     1       7.497 -21.323  15.022  1.00  0.00    -0.000 C 
BRANCH  25  26
ATOM     26  C   UNL     1       8.568 -21.314  13.921  1.00  0.00    -0.000 C 
BRANCH  26  27
ATOM     27  C   UNL     1       9.123 -22.718  13.630  1.00  0.00    -0.000 C 
BRANCH  27  28
ATOM     28  C   UNL     1       8.964 -23.125  12.154  1.00  0.00    -0.000 C 
BRANCH  28  29
ATOM     29  C   UNL     1       7.854 -22.322  11.444  1.00  0.00    -0.000 C 
BRANCH  29  30
ATOM     30  C   UNL     1       8.361 -21.406  10.314  1.00  0.00    -0.000 C 
BRANCH  30  31
ATOM     31  C   UNL     1       8.348 -22.058   8.917  1.00  0.00    -0.003 C 
ATOM     32  C   UNL     1       7.091 -22.890   8.665  1.00  0.00     0.004 C 
ENDBRANCH  30  31
ENDBRANCH  29  30
ENDBRANCH  28  29
ENDBRANCH  27  28
ENDBRANCH  26  27
ENDBRANCH  25  26
ENDBRANCH  24  25
ENDBRANCH  23  24
ENDBRANCH  22  23
ENDBRANCH  21  22
ENDBRANCH  20  21
ENDBRANCH  19  20
ENDBRANCH  18  19
ENDBRANCH   1  18
TORSDOF 28
ENDMDL
MODEL 3
REMARK VINA RESULT:     2.970      4.938     14.954
REMARK INTER + INTRA:           6.549
REMARK INTER:                   6.064
REMARK INTRA:                   0.485
REMARK UNBOUND:                -1.283
REMARK SMILES CCCCCCCCCCCCCCCCCCCCCCCCCCCCCC(=O)[O-]
REMARK SMILES IDX 16 1 17 2 18 3 19 4 20 5 21 6 22 7 23 8 24 9 25 10 26 11
REMARK SMILES IDX 27 12 28 13 29 14 30 15 31 16 32 17 15 18 14 19 13 20 12 21
REMARK SMILES IDX 11 22 10 23 9 24 8 25 7 26 6 27 5 28 4 29 3 30 2 31 1 32
REMARK H PARENT
REMARK Flexibility Score: inf
ROOT
ATOM      1  C   UNL     1      -4.701 -21.315  16.179  1.00  0.00     0.000 C 
ENDROOT
BRANCH   1   2
ATOM      2  C   UNL     1      -3.261 -21.499  15.660  1.00  0.00     0.000 C 
BRANCH   2   3
ATOM      3  C   UNL     1      -2.457 -22.525  16.481  1.00  0.00     0.000 C 
BRANCH   3   4
ATOM      4  C   UNL     1      -1.305 -23.125  15.660  1.00  0.00     0.000 C 
BRANCH   4   5
ATOM      5  C   UNL     1      -0.019 -22.270  15.729  1.00  0.00     0.000 C 
BRANCH   5   6
ATOM      6  C   UNL     1       1.259 -23.123  15.834  1.00  0.00     0.000 C 
BRANCH   6   7
ATOM      7  C   UNL     1       2.262 -22.894  14.684  1.00  0.00     0.000 C 
BRANCH   7   8
ATOM      8  C   UNL     1       3.729 -22.698  15.123  1.00  0.00     0.000 C 
BRANCH   8   9
ATOM      9  C   UNL     1       3.891 -21.869  16.417  1.00  0.00     0.000 C 
BRANCH   9  10
ATOM     10  C   UNL     1       4.976 -22.409  17.367  1.00  0.00     0.000 C 
BRANCH  10  11
ATOM     11  C   UNL     1       6.338 -22.575  16.676  1.00  0.00     0.000 C 
BRANCH  11  12
ATOM     12  C   UNL     1       7.015 -21.212  16.477  1.00  0.00     0.000 C 
BRANCH  12  13
ATOM     13  C   UNL     1       8.111 -21.282  15.404  1.00  0.00     0.006 C 
BRANCH  13  14
ATOM     14  C   UNL     1       7.863 -22.413  14.395  1.00  0.00     0.053 C 
BRANCH  14  15
ATOM     15  C   UNL     1       7.197 -21.915  13.147  1.00  0.00     0.041 C 
ATOM     16  O   UNL     1       7.755 -21.038  12.438  1.00  0.00    -0.550 OA
ATOM     17  O   UNL     1       5.946 -22.398  12.786  1.00  0.00    -0.550 OA
ENDBRANCH  14  15
ENDBRANCH  13  14
ENDBRANCH  12  13
ENDBRANCH  11  12
ENDBRANCH  10  11
ENDBRANCH   9  10
ENDBRANCH   8   9
ENDBRANCH   7   8
ENDBRANCH   6   7
ENDBRANCH   5   6
ENDBRANCH   4   5
ENDBRANCH   3   4
ENDBRANCH   2   3
ENDBRANCH   1   2
BRANCH   1  18
ATOM     18  C   UNL     1      -5.784 -21.605  15.125  1.00  0.00     0.000 C 
BRANCH  18  19
ATOM     19  C   UNL     1      -6.233 -20.340  14.377  1.00  0.00     0.000 C 
BRANCH  19  20
ATOM     20  C   UNL     1      -7.687 -19.941  14.682  1.00  0.00     0.000 C 
BRANCH  20  21
ATOM     21  C   UNL     1      -8.381 -20.902  15.661  1.00  0.00     0.000 C 
BRANCH  21  22
ATOM     22  C   UNL     1      -9.836 -20.482  15.920  1.00  0.00     0.000 C 
BRANCH  22  23
ATOM     23  C   UNL     1     -10.841 -21.191  14.997  1.00  0.00     0.000 C 
BRANCH  23  24
ATOM     24  C   UNL     1     -11.125 -22.665  15.348  1.00  0.00    -0.000 C 
BRANCH  24  25
ATOM     25  C   UNL     1     -11.076 -23.000  16.850  1.00  0.00    -0.000 C 
BRANCH  25  26
ATOM     26  C   UNL     1     -10.547 -21.838  17.704  1.00  0.00    -0.000 C 
BRANCH  26  27
ATOM     27  C   UNL     1     -11.109 -21.857  19.135  1.00  0.00    -0.000 C 
BRANCH  27  28
ATOM     28  C   UNL     1     -10.191 -22.599  20.123  1.00  0.00    -0.000 C 
BRANCH  28  29
ATOM     29  C   UNL     1      -9.938 -21.784  21.409  1.00  0.00    -0.000 C 
BRANCH  29  30
ATOM     30  C   UNL     1     -10.805 -22.212  22.608  1.00  0.00    -0.000 C 
BRANCH  30  31
ATOM     31  C   UNL     1     -10.011 -22.465  23.904  1.00  0.00    -0.003 C 
ATOM     32  C   UNL     1      -8.498 -22.429  23.687  1.00  0.00     0.004 C 
ENDBRANCH  30  31
ENDBRANCH  29  30
ENDBRANCH  28  29
ENDBRANCH  27  28
ENDBRANCH  26  27
ENDBRANCH  25  26
ENDBRANCH  24  25
ENDBRANCH  23  24
ENDBRANCH  22  23
ENDBRANCH  21  22
ENDBRANCH  20  21
ENDBRANCH  19  20
ENDBRANCH  18  19
ENDBRANCH   1  18
TORSDOF 28
ENDMDL
MODEL 4
REMARK VINA RESULT:     3.848      4.567     13.927
REMARK INTER + INTRA:           8.865
REMARK INTER:                   8.342
REMARK INTRA:                   0.523
REMARK UNBOUND:                -1.283
REMARK SMILES CCCCCCCCCCCCCCCCCCCCCCCCCCCCCC(=O)[O-]
REMARK SMILES IDX 16 1 17 2 18 3 19 4 20 5 21 6 22 7 23 8 24 9 25 10 26 11
REMARK SMILES IDX 27 12 28 13 29 14 30 15 31 16 32 17 15 18 14 19 13 20 12 21
REMARK SMILES IDX 11 22 10 23 9 24 8 25 7 26 6 27 5 28 4 29 3 30 2 31 1 32
REMARK H PARENT
REMARK Flexibility Score: inf
ROOT
ATOM      1  C   UNL     1      -2.246 -21.539  15.289  1.00  0.00     0.000 C 
ENDROOT
BRANCH   1   2
ATOM      2  C   UNL     1      -1.301 -22.433  16.117  1.00  0.00     0.000 C 
BRANCH   2   3
ATOM      3  C   UNL     1       0.078 -22.616  15.456  1.00  0.00     0.000 C 
BRANCH   3   4
ATOM      4  C   UNL     1       1.164 -22.937  16.495  1.00  0.00     0.000 C 
BRANCH   4   5
ATOM      5  C   UNL     1       2.590 -22.655  15.971  1.00  0.00     0.000 C 
BRANCH   5   6
ATOM      6  C   UNL     1       2.593 -21.930  14.612  1.00  0.00     0.000 C 
BRANCH   6   7
ATOM      7  C   UNL     1       1.920 -22.727  13.475  1.00  0.00     0.000 C 
BRANCH   7   8
ATOM      8  C   UNL     1       2.854 -23.125  12.312  1.00  0.00     0.000 C 
BRANCH   8   9
ATOM      9  C   UNL     1       4.152 -22.290  12.236  1.00  0.00     0.000 C 
BRANCH   9  10
ATOM     10  C   UNL     1       5.365 -22.972  12.896  1.00  0.00     0.000 C 
BRANCH  10  11
ATOM     11  C   UNL     1       6.649 -22.136  12.779  1.00  0.00     0.000 C 
BRANCH  11  12
ATOM     12  C   UNL     1       7.372 -22.061  14.131  1.00  0.00     0.000 C 
BRANCH  12  13
ATOM     13  C   UNL     1       6.841 -23.119  15.109  1.00  0.00     0.006 C 
BRANCH  13  14
ATOM     14  C   UNL     1       5.843 -22.528  16.115  1.00  0.00     0.053 C 
BRANCH  14  15
ATOM     15  C   UNL     1       6.533 -21.911  17.295  1.00  0.00     0.041 C 
ATOM     16  O   UNL     1       7.790 -21.844  17.330  1.00  0.00    -0.550 OA
ATOM     17  O   UNL     1       5.789 -21.439  18.368  1.00  0.00    -0.550 OA
ENDBRANCH  14  15
ENDBRANCH  13  14
ENDBRANCH  12  13
ENDBRANCH  11  12
ENDBRANCH  10  11
ENDBRANCH   9  10
ENDBRANCH   8   9
ENDBRANCH   7   8
ENDBRANCH   6   7
ENDBRANCH   5   6
ENDBRANCH   4   5
ENDBRANCH   3   4
ENDBRANCH   2   3
ENDBRANCH   1   2
BRANCH   1  18
ATOM     18  C   UNL     1      -3.673 -22.099  15.154  1.00  0.00     0.000 C 
BRANCH  18  19
ATOM     19  C   UNL     1      -4.712 -21.261  15.916  1.00  0.00     0.000 C 
BRANCH  19  20
ATOM     20  C   UNL     1      -6.118 -21.336  15.299  1.00  0.00     0.000 C 
BRANCH  20  21
ATOM     21  C   UNL     1      -7.215 -21.628  16.335  1.00  0.00     0.000 C 
BRANCH  21  22
ATOM     22  C   UNL     1      -6.874 -22.869  17.175  1.00  0.00     0.000 C 
BRANCH  22  23
ATOM     23  C   UNL     1      -6.235 -22.523  18.530  1.00  0.00     0.000 C 
BRANCH  23  24
ATOM     24  C   UNL     1      -6.943 -23.125  19.760  1.00  0.00    -0.000 C 
BRANCH  24  25
ATOM     25  C   UNL     1      -7.797 -22.135  20.573  1.00  0.00    -0.000 C 
BRANCH  25  26
ATOM     26  C   UNL     1      -9.256 -22.074  20.095  1.00  0.00    -0.000 C 
BRANCH  26  27
ATOM     27  C   UNL     1      -9.489 -22.888  18.811  1.00  0.00    -0.000 C 
BRANCH  27  28
ATOM     28  C   UNL     1     -10.408 -22.166  17.809  1.00  0.00    -0.000 C 
BRANCH  28  29
ATOM     29  C   UNL     1      -9.766 -20.878  17.252  1.00  0.00    -0.000 C 
BRANCH  29  30
ATOM     30  C   UNL     1     -10.567 -20.213  16.117  1.00  0.00    -0.000 C 
BRANCH  30  31
ATOM     31  C   UNL     1     -10.867 -21.143  14.925  1.00  0.00    -0.003 C 
ATOM     32  C   UNL     1     -10.215 -20.668  13.627  1.00  0.00     0.004 C 
ENDBRANCH  30  31
ENDBRANCH  29  30
ENDBRANCH  28  29
ENDBRANCH  27  28
ENDBRANCH  26  27
ENDBRANCH  25  26
ENDBRANCH  24  25
ENDBRANCH  23  24
ENDBRANCH  22  23
ENDBRANCH  21  22
ENDBRANCH  20  21
ENDBRANCH  19  20
ENDBRANCH  18  19
ENDBRANCH   1  18
TORSDOF 28
ENDMDL
MODEL 5
REMARK VINA RESULT:     4.064      5.224     14.507
REMARK INTER + INTRA:           9.433
REMARK INTER:                  10.222
REMARK INTRA:                  -0.788
REMARK UNBOUND:                -1.283
REMARK SMILES CCCCCCCCCCCCCCCCCCCCCCCCCCCCCC(=O)[O-]
REMARK SMILES IDX 16 1 17 2 18 3 19 4 20 5 21 6 22 7 23 8 24 9 25 10 26 11
REMARK SMILES IDX 27 12 28 13 29 14 30 15 31 16 32 17 15 18 14 19 13 20 12 21
REMARK SMILES IDX 11 22 10 23 9 24 8 25 7 26 6 27 5 28 4 29 3 30 2 31 1 32
REMARK H PARENT
REMARK Flexibility Score: inf
ROOT
ATOM      1  C   UNL     1      -5.643 -20.581  15.640  1.00  0.00     0.000 C 
ENDROOT
BRANCH   1   2
ATOM      2  C   UNL     1      -4.179 -21.029  15.825  1.00  0.00     0.000 C 
BRANCH   2   3
ATOM      3  C   UNL     1      -3.271 -20.595  14.659  1.00  0.00     0.000 C 
BRANCH   3   4
ATOM      4  C   UNL     1      -2.118 -21.588  14.443  1.00  0.00     0.000 C 
BRANCH   4   5
ATOM      5  C   UNL     1      -1.212 -21.728  15.687  1.00  0.00     0.000 C 
BRANCH   5   6
ATOM      6  C   UNL     1      -0.550 -23.114  15.790  1.00  0.00     0.000 C 
BRANCH   6   7
ATOM      7  C   UNL     1       0.948 -23.067  16.155  1.00  0.00     0.000 C 
BRANCH   7   8
ATOM      8  C   UNL     1       1.875 -22.525  15.046  1.00  0.00     0.000 C 
BRANCH   8   9
ATOM      9  C   UNL     1       3.372 -22.837  15.272  1.00  0.00     0.000 C 
BRANCH   9  10
ATOM     10  C   UNL     1       3.811 -22.732  16.744  1.00  0.00     0.000 C 
BRANCH  10  11
ATOM     11  C   UNL     1       5.301 -22.388  16.894  1.00  0.00     0.000 C 
BRANCH  11  12
ATOM     12  C   UNL     1       6.016 -22.474  15.539  1.00  0.00     0.000 C 
BRANCH  12  13
ATOM     13  C   UNL     1       7.505 -22.120  15.668  1.00  0.00     0.006 C 
BRANCH  13  14
ATOM     14  C   UNL     1       8.291 -22.451  14.391  1.00  0.00     0.053 C 
BRANCH  14  15
ATOM     15  C   UNL     1       8.298 -21.305  13.423  1.00  0.00     0.041 C 
ATOM     16  O   UNL     1       7.593 -21.353  12.381  1.00  0.00    -0.550 OA
ATOM     17  O   UNL     1       9.107 -20.202  13.657  1.00  0.00    -0.550 OA
ENDBRANCH  14  15
ENDBRANCH  13  14
ENDBRANCH  12  13
ENDBRANCH  11  12
ENDBRANCH  10  11
ENDBRANCH   9  10
ENDBRANCH   8   9
ENDBRANCH   7   8
ENDBRANCH   6   7
ENDBRANCH   5   6
ENDBRANCH   4   5
ENDBRANCH   3   4
ENDBRANCH   2   3
ENDBRANCH   1   2
BRANCH   1  18
ATOM     18  C   UNL     1      -6.529 -21.622  14.934  1.00  0.00     0.000 C 
BRANCH  18  19
ATOM     19  C   UNL     1      -7.483 -22.339  15.903  1.00  0.00     0.000 C 
BRANCH  19  20
ATOM     20  C   UNL     1      -8.931 -21.829  15.811  1.00  0.00     0.000 C 
BRANCH  20  21
ATOM     21  C   UNL     1      -9.912 -22.647  16.668  1.00  0.00     0.000 C 
BRANCH  21  22
ATOM     22  C   UNL     1     -10.368 -21.856  17.904  1.00  0.00     0.000 C 
BRANCH  22  23
ATOM     23  C   UNL     1     -11.122 -22.721  18.928  1.00  0.00     0.000 C 
BRANCH  23  24
ATOM     24  C   UNL     1     -11.094 -22.195  20.376  1.00  0.00    -0.000 C 
BRANCH  24  25
ATOM     25  C   UNL     1     -10.112 -21.037  20.632  1.00  0.00    -0.000 C 
BRANCH  25  26
ATOM     26  C   UNL     1     -10.301 -20.390  22.013  1.00  0.00    -0.000 C 
BRANCH  26  27
ATOM     27  C   UNL     1     -10.456 -21.431  23.134  1.00  0.00    -0.000 C 
BRANCH  27  28
ATOM     28  C   UNL     1      -9.932 -22.821  22.729  1.00  0.00    -0.000 C 
BRANCH  28  29
ATOM     29  C   UNL     1      -8.549 -23.124  23.341  1.00  0.00    -0.000 C 
BRANCH  29  30
ATOM     30  C   UNL     1      -7.393 -23.125  22.323  1.00  0.00    -0.000 C 
BRANCH  30  31
ATOM     31  C   UNL     1      -7.848 -23.124  20.850  1.00  0.00    -0.003 C 
ATOM     32  C   UNL     1      -6.684 -22.965  19.873  1.00  0.00     0.004 C 
ENDBRANCH  30  31
ENDBRANCH  29  30
ENDBRANCH  28  29
ENDBRANCH  27  28
ENDBRANCH  26  27
ENDBRANCH  25  26
ENDBRANCH  24  25
ENDBRANCH  23  24
ENDBRANCH  22  23
ENDBRANCH  21  22
ENDBRANCH  20  21
ENDBRANCH  19  20
ENDBRANCH  18  19
ENDBRANCH   1  18
TORSDOF 28
ENDMDL
MODEL 6
REMARK VINA RESULT:     4.101      5.529     15.033
REMARK INTER + INTRA:           9.531
REMARK INTER:                   9.172
REMARK INTRA:                   0.360
REMARK UNBOUND:                -1.283
REMARK SMILES CCCCCCCCCCCCCCCCCCCCCCCCCCCCCC(=O)[O-]
REMARK SMILES IDX 16 1 17 2 18 3 19 4 20 5 21 6 22 7 23 8 24 9 25 10 26 11
REMARK SMILES IDX 27 12 28 13 29 14 30 15 31 16 32 17 15 18 14 19 13 20 12 21
REMARK SMILES IDX 11 22 10 23 9 24 8 25 7 26 6 27 5 28 4 29 3 30 2 31 1 32
REMARK H PARENT
REMARK Flexibility Score: inf
ROOT
ATOM      1  C   UNL     1      -1.831 -22.550  16.281  1.00  0.00     0.000 C 
ENDROOT
BRANCH   1   2
ATOM      2  C   UNL     1      -1.180 -21.722  15.154  1.00  0.00     0.000 C 
BRANCH   2   3
ATOM      3  C   UNL     1       0.188 -22.280  14.718  1.00  0.00     0.000 C 
BRANCH   3   4
ATOM      4  C   UNL     1       1.272 -22.006  15.773  1.00  0.00     0.000 C 
BRANCH   4   5
ATOM      5  C   UNL     1       2.341 -23.121  15.829  1.00  0.00     0.000 C 
BRANCH   5   6
ATOM      6  C   UNL     1       3.337 -22.933  16.989  1.00  0.00     0.000 C 
BRANCH   6   7
ATOM      7  C   UNL     1       4.536 -22.025  16.643  1.00  0.00     0.000 C 
BRANCH   7   8
ATOM      8  C   UNL     1       5.553 -21.820  17.786  1.00  0.00     0.000 C 
BRANCH   8   9
ATOM      9  C   UNL     1       6.979 -22.312  17.451  1.00  0.00     0.000 C 
BRANCH   9  10
ATOM     10  C   UNL     1       7.423 -21.991  16.012  1.00  0.00     0.000 C 
BRANCH  10  11
ATOM     11  C   UNL     1       8.253 -23.121  15.383  1.00  0.00     0.000 C 
BRANCH  11  12
ATOM     12  C   UNL     1       8.769 -22.708  13.998  1.00  0.00     0.000 C 
BRANCH  12  13
ATOM     13  C   UNL     1       7.641 -22.718  12.955  1.00  0.00     0.006 C 
BRANCH  13  14
ATOM     14  C   UNL     1       7.544 -21.387  12.196  1.00  0.00     0.053 C 
BRANCH  14  15
ATOM     15  C   UNL     1       8.162 -21.472  10.832  1.00  0.00     0.041 C 
ATOM     16  O   UNL     1       9.114 -20.710  10.520  1.00  0.00    -0.550 OA
ATOM     17  O   UNL     1       7.663 -22.369   9.897  1.00  0.00    -0.550 OA
ENDBRANCH  14  15
ENDBRANCH  13  14
ENDBRANCH  12  13
ENDBRANCH  11  12
ENDBRANCH  10  11
ENDBRANCH   9  10
ENDBRANCH   8   9
ENDBRANCH   7   8
ENDBRANCH   6   7
ENDBRANCH   5   6
ENDBRANCH   4   5
ENDBRANCH   3   4
ENDBRANCH   2   3
ENDBRANCH   1   2
BRANCH   1  18
ATOM     18  C   UNL     1      -3.226 -23.093  15.927  1.00  0.00     0.000 C 
BRANCH  18  19
ATOM     19  C   UNL     1      -4.345 -22.079  16.213  1.00  0.00     0.000 C 
BRANCH  19  20
ATOM     20  C   UNL     1      -5.649 -22.737  16.693  1.00  0.00     0.000 C 
BRANCH  20  21
ATOM     21  C   UNL     1      -6.107 -22.232  18.071  1.00  0.00     0.000 C 
BRANCH  21  22
ATOM     22  C   UNL     1      -7.602 -22.505  18.298  1.00  0.00     0.000 C 
BRANCH  22  23
ATOM     23  C   UNL     1      -8.096 -22.040  19.677  1.00  0.00     0.000 C 
BRANCH  23  24
ATOM     24  C   UNL     1      -9.458 -22.615  20.113  1.00  0.00    -0.000 C 
BRANCH  24  25
ATOM     25  C   UNL     1     -10.439 -22.915  18.964  1.00  0.00    -0.000 C 
BRANCH  25  26
ATOM     26  C   UNL     1     -10.128 -22.115  17.690  1.00  0.00    -0.000 C 
BRANCH  26  27
ATOM     27  C   UNL     1     -10.747 -20.708  17.714  1.00  0.00    -0.000 C 
BRANCH  27  28
ATOM     28  C   UNL     1     -10.335 -19.858  16.498  1.00  0.00    -0.000 C 
BRANCH  28  29
ATOM     29  C   UNL     1      -9.824 -20.724  15.327  1.00  0.00    -0.000 C 
BRANCH  29  30
ATOM     30  C   UNL     1      -8.869 -19.989  14.369  1.00  0.00    -0.000 C 
BRANCH  30  31
ATOM     31  C   UNL     1      -7.432 -20.549  14.355  1.00  0.00    -0.003 C 
ATOM     32  C   UNL     1      -7.360 -22.003  14.823  1.00  0.00     0.004 C 
ENDBRANCH  30  31
ENDBRANCH  29  30
ENDBRANCH  28  29
ENDBRANCH  27  28
ENDBRANCH  26  27
ENDBRANCH  25  26
ENDBRANCH  24  25
ENDBRANCH  23  24
ENDBRANCH  22  23
ENDBRANCH  21  22
ENDBRANCH  20  21
ENDBRANCH  19  20
ENDBRANCH  18  19
ENDBRANCH   1  18
TORSDOF 28
ENDMDL
