MODEL 1
REMARK VINA RESULT:    -4.752      0.000      0.000
REMARK INTER + INTRA:         -14.458
REMARK INTER:                 -10.865
REMARK INTRA:                  -3.593
REMARK UNBOUND:                -3.593
REMARK SMILES CCCCCCCCCCCCCCCCCCCCCCCC(=O)[O-]
REMARK SMILES IDX 13 1 14 2 15 3 16 4 17 5 18 6 19 7 20 8 21 9 22 10 23 11
REMARK SMILES IDX 24 12 25 13 26 14 12 15 11 16 10 17 9 18 8 19 7 20 6 21 5 22
REMARK SMILES IDX 4 23 3 24 2 25 1 26
REMARK H PARENT
REMARK Flexibility Score: inf
ROOT
ATOM      1  C   UNL     1       7.768  -6.127 -32.152  1.00  0.00     0.000 C 
ENDROOT
BRANCH   1   2
ATOM      2  C   UNL     1       7.628  -5.125 -33.311  1.00  0.00     0.000 C 
BRANCH   2   3
ATOM      3  C   UNL     1       7.293  -3.700 -32.834  1.00  0.00     0.000 C 
BRANCH   3   4
ATOM      4  C   UNL     1       6.405  -2.885 -33.792  1.00  0.00     0.000 C 
BRANCH   4   5
ATOM      5  C   UNL     1       5.802  -3.737 -34.923  1.00  0.00     0.000 C 
BRANCH   5   6
ATOM      6  C   UNL     1       6.137  -3.189 -36.318  1.00  0.00     0.000 C 
BRANCH   6   7
ATOM      7  C   UNL     1       7.602  -3.444 -36.716  1.00  0.00     0.000 C 
BRANCH   7   8
ATOM      8  C   UNL     1       8.277  -2.193 -37.300  1.00  0.00     0.000 C 
BRANCH   8   9
ATOM      9  C   UNL     1       9.606  -1.859 -36.602  1.00  0.00     0.000 C 
BRANCH   9  10
ATOM     10  C   UNL     1       9.532  -1.997 -35.071  1.00  0.00     0.006 C 
BRANCH  10  11
ATOM     11  C   UNL     1      10.542  -1.114 -34.316  1.00  0.00     0.053 C 
BRANCH  11  12
ATOM     12  C   UNL     1      11.845  -0.975 -35.042  1.00  0.00     0.041 C 
ATOM     13  O   UNL     1      12.660  -1.934 -35.075  1.00  0.00    -0.550 OA
ATOM     14  O   UNL     1      12.173   0.227 -35.659  1.00  0.00    -0.550 OA
ENDBRANCH  11  12
ENDBRANCH  10  11
ENDBRANCH   9  10
ENDBRANCH   8   9
ENDBRANCH   7   8
ENDBRANCH   6   7
ENDBRANCH   5   6
ENDBRANCH   4   5
ENDBRANCH   3   4
ENDBRANCH   2   3
ENDBRANCH   1   2
BRANCH   1  15
ATOM     15  C   UNL     1       6.429  -6.779 -31.768  1.00  0.00     0.000 C 
BRANCH  15  16
ATOM     16  C   UNL     1       5.423  -6.804 -32.929  1.00  0.00     0.000 C 
BRANCH  16  17
ATOM     17  C   UNL     1       5.047  -8.246 -33.298  1.00  0.00     0.000 C 
BRANCH  17  18
ATOM     18  C   UNL     1       5.283  -8.567 -34.785  1.00  0.00    -0.000 C 
BRANCH  18  19
ATOM     19  C   UNL     1       5.905  -7.426 -35.610  1.00  0.00    -0.000 C 
BRANCH  19  20
ATOM     20  C   UNL     1       4.991  -6.939 -36.748  1.00  0.00    -0.000 C 
BRANCH  20  21
ATOM     21  C   UNL     1       3.552  -6.677 -36.274  1.00  0.00    -0.000 C 
BRANCH  21  22
ATOM     22  C   UNL     1       2.528  -7.578 -36.986  1.00  0.00    -0.000 C 
BRANCH  22  23
ATOM     23  C   UNL     1       1.603  -8.323 -36.005  1.00  0.00    -0.000 C 
BRANCH  23  24
ATOM     24  C   UNL     1       1.225  -7.534 -34.738  1.00  0.00    -0.000 C 
BRANCH  24  25
ATOM     25  C   UNL     1       1.184  -8.410 -33.477  1.00  0.00    -0.003 C 
ATOM     26  C   UNL     1       1.762  -9.796 -33.751  1.00  0.00     0.004 C 
ENDBRANCH  24  25
ENDBRANCH  23  24
ENDBRANCH  22  23
ENDBRANCH  21  22
ENDBRANCH  20  21
ENDBRANCH  19  20
ENDBRANCH  18  19
ENDBRANCH  17  18
ENDBRANCH  16  17
ENDBRANCH  15  16
ENDBRANCH   1  15
TORSDOF 22
ENDMDL
MODEL 2
REMARK VINA RESULT:    -4.582      1.316      2.091
REMARK INTER + INTRA:         -14.069
REMARK INTER:                 -10.818
REMARK INTRA:                  -3.250
REMARK UNBOUND:                -3.593
REMARK SMILES CCCCCCCCCCCCCCCCCCCCCCCC(=O)[O-]
REMARK SMILES IDX 13 1 14 2 15 3 16 4 17 5 18 6 19 7 20 8 21 9 22 10 23 11
REMARK SMILES IDX 24 12 25 13 26 14 12 15 11 16 10 17 9 18 8 19 7 20 6 21 5 22
REMARK SMILES IDX 4 23 3 24 2 25 1 26
REMARK H PARENT
REMARK Flexibility Score: inf
ROOT
ATOM      1  C   UNL     1       8.306  -6.099 -32.466  1.00  0.00     0.000 C 
ENDROOT
BRANCH   1   2
ATOM      2  C   UNL     1       8.402  -5.335 -33.799  1.00  0.00     0.000 C 
BRANCH   2   3
ATOM      3  C   UNL     1       7.855  -6.142 -34.991  1.00  0.00     0.000 C 
BRANCH   3   4
ATOM      4  C   UNL     1       6.678  -5.485 -35.736  1.00  0.00     0.000 C 
BRANCH   4   5
ATOM      5  C   UNL     1       5.992  -4.378 -34.915  1.00  0.00     0.000 C 
BRANCH   5   6
ATOM      6  C   UNL     1       5.818  -3.076 -35.711  1.00  0.00     0.000 C 
BRANCH   6   7
ATOM      7  C   UNL     1       7.159  -2.382 -36.008  1.00  0.00     0.000 C 
BRANCH   7   8
ATOM      8  C   UNL     1       7.461  -2.311 -37.514  1.00  0.00     0.000 C 
BRANCH   8   9
ATOM      9  C   UNL     1       8.953  -2.511 -37.825  1.00  0.00     0.000 C 
BRANCH   9  10
ATOM     10  C   UNL     1       9.874  -1.636 -36.956  1.00  0.00     0.006 C 
BRANCH  10  11
ATOM     11  C   UNL     1      11.373  -1.918 -37.155  1.00  0.00     0.053 C 
BRANCH  11  12
ATOM     12  C   UNL     1      12.138  -1.919 -35.866  1.00  0.00     0.041 C 
ATOM     13  O   UNL     1      13.372  -1.669 -35.860  1.00  0.00    -0.550 OA
ATOM     14  O   UNL     1      11.493  -2.225 -34.674  1.00  0.00    -0.550 OA
ENDBRANCH  11  12
ENDBRANCH  10  11
ENDBRANCH   9  10
ENDBRANCH   8   9
ENDBRANCH   7   8
ENDBRANCH   6   7
ENDBRANCH   5   6
ENDBRANCH   4   5
ENDBRANCH   3   4
ENDBRANCH   2   3
ENDBRANCH   1   2
BRANCH   1  15
ATOM     15  C   UNL     1       6.990  -5.823 -31.720  1.00  0.00     0.000 C 
BRANCH  15  16
ATOM     16  C   UNL     1       6.123  -7.081 -31.557  1.00  0.00     0.000 C 
BRANCH  16  17
ATOM     17  C   UNL     1       5.135  -7.221 -32.724  1.00  0.00     0.000 C 
BRANCH  17  18
ATOM     18  C   UNL     1       5.309  -8.536 -33.505  1.00  0.00    -0.000 C 
BRANCH  18  19
ATOM     19  C   UNL     1       4.781  -8.514 -34.951  1.00  0.00    -0.000 C 
BRANCH  19  20
ATOM     20  C   UNL     1       3.680  -7.462 -35.173  1.00  0.00    -0.000 C 
BRANCH  20  21
ATOM     21  C   UNL     1       2.324  -8.096 -35.523  1.00  0.00    -0.000 C 
BRANCH  21  22
ATOM     22  C   UNL     1       1.268  -7.865 -34.428  1.00  0.00    -0.000 C 
BRANCH  22  23
ATOM     23  C   UNL     1       1.451  -8.794 -33.213  1.00  0.00    -0.000 C 
BRANCH  23  24
ATOM     24  C   UNL     1       1.852 -10.241 -33.554  1.00  0.00    -0.000 C 
BRANCH  24  25
ATOM     25  C   UNL     1       1.922 -11.149 -32.318  1.00  0.00    -0.003 C 
ATOM     26  C   UNL     1       3.369 -11.424 -31.918  1.00  0.00     0.004 C 
ENDBRANCH  24  25
ENDBRANCH  23  24
ENDBRANCH  22  23
ENDBRANCH  21  22
ENDBRANCH  20  21
ENDBRANCH  19  20
ENDBRANCH  18  19
ENDBRANCH  17  18
ENDBRANCH  16  17
ENDBRANCH  15  16
ENDBRANCH   1  15
TORSDOF 22
ENDMDL
MODEL 3
REMARK VINA RESULT:    -4.557      1.175      2.719
REMARK INTER + INTRA:         -14.012
REMARK INTER:                 -10.295
REMARK INTRA:                  -3.717
REMARK UNBOUND:                -3.593
REMARK SMILES CCCCCCCCCCCCCCCCCCCCCCCC(=O)[O-]
REMARK SMILES IDX 13 1 14 2 15 3 16 4 17 5 18 6 19 7 20 8 21 9 22 10 23 11
REMARK SMILES IDX 24 12 25 13 26 14 12 15 11 16 10 17 9 18 8 19 7 20 6 21 5 22
REMARK SMILES IDX 4 23 3 24 2 25 1 26
REMARK H PARENT
REMARK Flexibility Score: inf
ROOT
ATOM      1  C   UNL     1       8.020  -5.836 -32.523  1.00  0.00     0.000 C 
ENDROOT
BRANCH   1   2
ATOM      2  C   UNL     1       8.074  -4.769 -33.631  1.00  0.00     0.000 C 
BRANCH   2   3
ATOM      3  C   UNL     1       7.373  -3.457 -33.233  1.00  0.00     0.000 C 
BRANCH   3   4
ATOM      4  C   UNL     1       6.172  -3.068 -34.114  1.00  0.00     0.000 C 
BRANCH   4   5
ATOM      5  C   UNL     1       5.886  -4.094 -35.225  1.00  0.00     0.000 C 
BRANCH   5   6
ATOM      6  C   UNL     1       5.861  -3.459 -36.624  1.00  0.00     0.000 C 
BRANCH   6   7
ATOM      7  C   UNL     1       7.234  -3.512 -37.319  1.00  0.00     0.000 C 
BRANCH   7   8
ATOM      8  C   UNL     1       7.940  -2.146 -37.326  1.00  0.00     0.000 C 
BRANCH   8   9
ATOM      9  C   UNL     1       9.452  -2.266 -37.575  1.00  0.00     0.000 C 
BRANCH   9  10
ATOM     10  C   UNL     1      10.289  -1.366 -36.648  1.00  0.00     0.006 C 
BRANCH  10  11
ATOM     11  C   UNL     1      10.104  -1.670 -35.151  1.00  0.00     0.053 C 
BRANCH  11  12
ATOM     12  C   UNL     1      11.271  -1.226 -34.322  1.00  0.00     0.041 C 
ATOM     13  O   UNL     1      12.444  -1.534 -34.660  1.00  0.00    -0.550 OA
ATOM     14  O   UNL     1      11.059  -0.496 -33.159  1.00  0.00    -0.550 OA
ENDBRANCH  11  12
ENDBRANCH  10  11
ENDBRANCH   9  10
ENDBRANCH   8   9
ENDBRANCH   7   8
ENDBRANCH   6   7
ENDBRANCH   5   6
ENDBRANCH   4   5
ENDBRANCH   3   4
ENDBRANCH   2   3
ENDBRANCH   1   2
BRANCH   1  15
ATOM     15  C   UNL     1       6.617  -5.982 -31.910  1.00  0.00     0.000 C 
BRANCH  15  16
ATOM     16  C   UNL     1       5.957  -7.328 -32.244  1.00  0.00     0.000 C 
BRANCH  16  17
ATOM     17  C   UNL     1       5.118  -7.224 -33.526  1.00  0.00     0.000 C 
BRANCH  17  18
ATOM     18  C   UNL     1       3.810  -8.032 -33.455  1.00  0.00    -0.000 C 
BRANCH  18  19
ATOM     19  C   UNL     1       3.275  -8.532 -34.810  1.00  0.00    -0.000 C 
BRANCH  19  20
ATOM     20  C   UNL     1       2.222  -7.593 -35.424  1.00  0.00    -0.000 C 
BRANCH  20  21
ATOM     21  C   UNL     1       2.487  -7.303 -36.910  1.00  0.00    -0.000 C 
BRANCH  21  22
ATOM     22  C   UNL     1       3.622  -6.284 -37.114  1.00  0.00    -0.000 C 
BRANCH  22  23
ATOM     23  C   UNL     1       4.681  -6.762 -38.125  1.00  0.00    -0.000 C 
BRANCH  23  24
ATOM     24  C   UNL     1       5.700  -7.774 -37.571  1.00  0.00    -0.000 C 
BRANCH  24  25
ATOM     25  C   UNL     1       7.128  -7.212 -37.507  1.00  0.00    -0.003 C 
ATOM     26  C   UNL     1       7.716  -7.361 -36.107  1.00  0.00     0.004 C 
ENDBRANCH  24  25
ENDBRANCH  23  24
ENDBRANCH  22  23
ENDBRANCH  21  22
ENDBRANCH  20  21
ENDBRANCH  19  20
ENDBRANCH  18  19
ENDBRANCH  17  18
ENDBRANCH  16  17
ENDBRANCH  15  16
ENDBRANCH   1  15
TORSDOF 22
ENDMDL
MODEL 4
REMARK VINA RESULT:    -4.480      2.477      3.788
REMARK INTER + INTRA:         -13.836
REMARK INTER:                  -9.904
REMARK INTRA:                  -3.931
REMARK UNBOUND:                -3.593
REMARK SMILES CCCCCCCCCCCCCCCCCCCCCCCC(=O)[O-]
REMARK SMILES IDX 13 1 14 2 15 3 16 4 17 5 18 6 19 7 20 8 21 9 22 10 23 11
REMARK SMILES IDX 24 12 25 13 26 14 12 15 11 16 10 17 9 18 8 19 7 20 6 21 5 22
REMARK SMILES IDX 4 23 3 24 2 25 1 26
REMARK H PARENT
REMARK Flexibility Score: inf
ROOT
ATOM      1  C   UNL     1       7.924  -5.760 -32.506  1.00  0.00     0.000 C 
ENDROOT
BRANCH   1   2
ATOM      2  C   UNL     1       8.727  -5.999 -33.797  1.00  0.00     0.000 C 
BRANCH   2   3
ATOM      3  C   UNL     1       7.840  -6.041 -35.055  1.00  0.00     0.000 C 
BRANCH   3   4
ATOM      4  C   UNL     1       7.903  -7.356 -35.853  1.00  0.00     0.000 C 
BRANCH   4   5
ATOM      5  C   UNL     1       7.214  -7.258 -37.225  1.00  0.00     0.000 C 
BRANCH   5   6
ATOM      6  C   UNL     1       6.695  -5.844 -37.527  1.00  0.00     0.000 C 
BRANCH   6   7
ATOM      7  C   UNL     1       5.184  -5.820 -37.815  1.00  0.00     0.000 C 
BRANCH   7   8
ATOM      8  C   UNL     1       4.373  -5.240 -36.645  1.00  0.00     0.000 C 
BRANCH   8   9
ATOM      9  C   UNL     1       3.803  -3.846 -36.955  1.00  0.00     0.000 C 
BRANCH   9  10
ATOM     10  C   UNL     1       4.633  -2.706 -36.340  1.00  0.00     0.006 C 
BRANCH  10  11
ATOM     11  C   UNL     1       5.484  -3.135 -35.132  1.00  0.00     0.053 C 
BRANCH  11  12
ATOM     12  C   UNL     1       6.889  -2.620 -35.201  1.00  0.00     0.041 C 
ATOM     13  O   UNL     1       7.553  -2.441 -34.146  1.00  0.00    -0.550 OA
ATOM     14  O   UNL     1       7.457  -2.310 -36.431  1.00  0.00    -0.550 OA
ENDBRANCH  11  12
ENDBRANCH  10  11
ENDBRANCH   9  10
ENDBRANCH   8   9
ENDBRANCH   7   8
ENDBRANCH   6   7
ENDBRANCH   5   6
ENDBRANCH   4   5
ENDBRANCH   3   4
ENDBRANCH   2   3
ENDBRANCH   1   2
BRANCH   1  15
ATOM     15  C   UNL     1       6.405  -5.841 -32.730  1.00  0.00     0.000 C 
BRANCH  15  16
ATOM     16  C   UNL     1       5.744  -6.972 -31.928  1.00  0.00     0.000 C 
BRANCH  16  17
ATOM     17  C   UNL     1       5.330  -8.128 -32.850  1.00  0.00     0.000 C 
BRANCH  17  18
ATOM     18  C   UNL     1       4.611  -7.651 -34.126  1.00  0.00    -0.000 C 
BRANCH  18  19
ATOM     19  C   UNL     1       4.462  -8.715 -35.229  1.00  0.00    -0.000 C 
BRANCH  19  20
ATOM     20  C   UNL     1       3.098  -8.660 -35.938  1.00  0.00    -0.000 C 
BRANCH  20  21
ATOM     21  C   UNL     1       2.073  -9.623 -35.316  1.00  0.00    -0.000 C 
BRANCH  21  22
ATOM     22  C   UNL     1       1.110  -8.911 -34.351  1.00  0.00    -0.000 C 
BRANCH  22  23
ATOM     23  C   UNL     1       1.238  -9.412 -32.900  1.00  0.00    -0.000 C 
BRANCH  23  24
ATOM     24  C   UNL     1       2.319 -10.484 -32.673  1.00  0.00    -0.000 C 
BRANCH  24  25
ATOM     25  C   UNL     1       1.776 -11.746 -31.987  1.00  0.00    -0.003 C 
ATOM     26  C   UNL     1       2.330 -13.009 -32.639  1.00  0.00     0.004 C 
ENDBRANCH  24  25
ENDBRANCH  23  24
ENDBRANCH  22  23
ENDBRANCH  21  22
ENDBRANCH  20  21
ENDBRANCH  19  20
ENDBRANCH  18  19
ENDBRANCH  17  18
ENDBRANCH  16  17
ENDBRANCH  15  16
ENDBRANCH   1  15
TORSDOF 22
ENDMDL
MODEL 5
REMARK VINA RESULT:    -4.377      4.560      8.475
REMARK INTER + INTRA:         -13.600
REMARK INTER:                  -9.288
REMARK INTRA:                  -4.311
REMARK UNBOUND:                -3.593
REMARK SMILES CCCCCCCCCCCCCCCCCCCCCCCC(=O)[O-]
REMARK SMILES IDX 13 1 14 2 15 3 16 4 17 5 18 6 19 7 20 8 21 9 22 10 23 11
REMARK SMILES IDX 24 12 25 13 26 14 12 15 11 16 10 17 9 18 8 19 7 20 6 21 5 22
REMARK SMILES IDX 4 23 3 24 2 25 1 26
REMARK H PARENT
REMARK Flexibility Score: inf
ROOT
ATOM      1  C   UNL     1       4.637  -6.942 -34.901  1.00  0.00     0.000 C 
ENDROOT
BRANCH   1   2
ATOM      2  C   UNL     1       3.971  -6.659 -36.259  1.00  0.00     0.000 C 
BRANCH   2   3
ATOM      3  C   UNL     1       2.462  -6.963 -36.260  1.00  0.00     0.000 C 
BRANCH   3   4
ATOM      4  C   UNL     1       2.005  -7.987 -37.315  1.00  0.00     0.000 C 
BRANCH   4   5
ATOM      5  C   UNL     1       3.179  -8.646 -38.060  1.00  0.00     0.000 C 
BRANCH   5   6
ATOM      6  C   UNL     1       3.441 -10.086 -37.592  1.00  0.00     0.000 C 
BRANCH   6   7
ATOM      7  C   UNL     1       2.184 -10.754 -37.007  1.00  0.00     0.000 C 
BRANCH   7   8
ATOM      8  C   UNL     1       2.409 -11.278 -35.580  1.00  0.00     0.000 C 
BRANCH   8   9
ATOM      9  C   UNL     1       3.518 -10.513 -34.839  1.00  0.00     0.000 C 
BRANCH   9  10
ATOM     10  C   UNL     1       3.032  -9.865 -33.530  1.00  0.00     0.006 C 
BRANCH  10  11
ATOM     11  C   UNL     1       1.802 -10.553 -32.913  1.00  0.00     0.053 C 
BRANCH  11  12
ATOM     12  C   UNL     1       2.169 -11.587 -31.892  1.00  0.00     0.041 C 
ATOM     13  O   UNL     1       1.280 -12.315 -31.377  1.00  0.00    -0.550 OA
ATOM     14  O   UNL     1       3.491 -11.726 -31.486  1.00  0.00    -0.550 OA
ENDBRANCH  11  12
ENDBRANCH  10  11
ENDBRANCH   9  10
ENDBRANCH   8   9
ENDBRANCH   7   8
ENDBRANCH   6   7
ENDBRANCH   5   6
ENDBRANCH   4   5
ENDBRANCH   3   4
ENDBRANCH   2   3
ENDBRANCH   1   2
BRANCH   1  15
ATOM     15  C   UNL     1       5.855  -7.872 -35.021  1.00  0.00     0.000 C 
BRANCH  15  16
ATOM     16  C   UNL     1       6.399  -7.961 -36.455  1.00  0.00     0.000 C 
BRANCH  16  17
ATOM     17  C   UNL     1       7.615  -7.041 -36.638  1.00  0.00     0.000 C 
BRANCH  17  18
ATOM     18  C   UNL     1       7.580  -6.254 -37.962  1.00  0.00    -0.000 C 
BRANCH  18  19
ATOM     19  C   UNL     1       6.887  -4.881 -37.888  1.00  0.00    -0.000 C 
BRANCH  19  20
ATOM     20  C   UNL     1       7.243  -4.096 -36.614  1.00  0.00    -0.000 C 
BRANCH  20  21
ATOM     21  C   UNL     1       6.004  -3.503 -35.924  1.00  0.00    -0.000 C 
BRANCH  21  22
ATOM     22  C   UNL     1       6.120  -3.528 -34.389  1.00  0.00    -0.000 C 
BRANCH  22  23
ATOM     23  C   UNL     1       7.170  -4.536 -33.885  1.00  0.00    -0.000 C 
BRANCH  23  24
ATOM     24  C   UNL     1       7.267  -4.664 -32.354  1.00  0.00    -0.000 C 
BRANCH  24  25
ATOM     25  C   UNL     1       7.572  -6.096 -31.892  1.00  0.00    -0.003 C 
ATOM     26  C   UNL     1       6.318  -6.778 -31.350  1.00  0.00     0.004 C 
ENDBRANCH  24  25
ENDBRANCH  23  24
ENDBRANCH  22  23
ENDBRANCH  21  22
ENDBRANCH  20  21
ENDBRANCH  19  20
ENDBRANCH  18  19
ENDBRANCH  17  18
ENDBRANCH  16  17
ENDBRANCH  15  16
ENDBRANCH   1  15
TORSDOF 22
ENDMDL
MODEL 6
REMARK VINA RESULT:    -4.288     10.345     14.580
REMARK INTER + INTRA:         -13.396
REMARK INTER:                 -10.811
REMARK INTRA:                  -2.584
REMARK UNBOUND:                -3.593
REMARK SMILES CCCCCCCCCCCCCCCCCCCCCCCC(=O)[O-]
REMARK SMILES IDX 13 1 14 2 15 3 16 4 17 5 18 6 19 7 20 8 21 9 22 10 23 11
REMARK SMILES IDX 24 12 25 13 26 14 12 15 11 16 10 17 9 18 8 19 7 20 6 21 5 22
REMARK SMILES IDX 4 23 3 24 2 25 1 26
REMARK H PARENT
REMARK Flexibility Score: inf
ROOT
ATOM      1  C   UNL     1       5.743 -13.970 -21.723  1.00  0.00     0.000 C 
ENDROOT
BRANCH   1   2
ATOM      2  C   UNL     1       5.486 -13.252 -20.387  1.00  0.00     0.000 C 
BRANCH   2   3
ATOM      3  C   UNL     1       4.641 -11.975 -20.547  1.00  0.00     0.000 C 
BRANCH   3   4
ATOM      4  C   UNL     1       3.142 -12.215 -20.807  1.00  0.00     0.000 C 
BRANCH   4   5
ATOM      5  C   UNL     1       2.603 -11.405 -21.999  1.00  0.00     0.000 C 
BRANCH   5   6
ATOM      6  C   UNL     1       1.709 -12.243 -22.926  1.00  0.00     0.000 C 
BRANCH   6   7
ATOM      7  C   UNL     1       2.012 -13.749 -22.834  1.00  0.00     0.000 C 
BRANCH   7   8
ATOM      8  C   UNL     1       1.835 -14.465 -24.183  1.00  0.00     0.000 C 
BRANCH   8   9
ATOM      9  C   UNL     1       1.156 -13.577 -25.238  1.00  0.00     0.000 C 
BRANCH   9  10
ATOM     10  C   UNL     1       1.714 -13.793 -26.657  1.00  0.00     0.006 C 
BRANCH  10  11
ATOM     11  C   UNL     1       2.998 -12.998 -26.950  1.00  0.00     0.053 C 
BRANCH  11  12
ATOM     12  C   UNL     1       3.299 -12.903 -28.414  1.00  0.00     0.041 C 
ATOM     13  O   UNL     1       2.604 -13.542 -29.248  1.00  0.00    -0.550 OA
ATOM     14  O   UNL     1       4.366 -12.132 -28.857  1.00  0.00    -0.550 OA
ENDBRANCH  11  12
ENDBRANCH  10  11
ENDBRANCH   9  10
ENDBRANCH   8   9
ENDBRANCH   7   8
ENDBRANCH   6   7
ENDBRANCH   5   6
ENDBRANCH   4   5
ENDBRANCH   3   4
ENDBRANCH   2   3
ENDBRANCH   1   2
BRANCH   1  15
ATOM     15  C   UNL     1       6.134 -13.001 -22.851  1.00  0.00     0.000 C 
BRANCH  15  16
ATOM     16  C   UNL     1       5.318 -13.220 -24.134  1.00  0.00     0.000 C 
BRANCH  16  17
ATOM     17  C   UNL     1       6.145 -12.861 -25.377  1.00  0.00     0.000 C 
BRANCH  17  18
ATOM     18  C   UNL     1       7.660 -12.830 -25.103  1.00  0.00    -0.000 C 
BRANCH  18  19
ATOM     19  C   UNL     1       8.358 -11.498 -25.437  1.00  0.00    -0.000 C 
BRANCH  19  20
ATOM     20  C   UNL     1       9.783 -11.407 -24.865  1.00  0.00    -0.000 C 
BRANCH  20  21
ATOM     21  C   UNL     1      10.767 -10.744 -25.842  1.00  0.00    -0.000 C 
BRANCH  21  22
ATOM     22  C   UNL     1      11.966 -11.651 -26.172  1.00  0.00    -0.000 C 
BRANCH  22  23
ATOM     23  C   UNL     1      11.913 -12.216 -27.604  1.00  0.00    -0.000 C 
BRANCH  23  24
ATOM     24  C   UNL     1      10.951 -11.485 -28.558  1.00  0.00    -0.000 C 
BRANCH  24  25
ATOM     25  C   UNL     1      11.674 -10.545 -29.534  1.00  0.00    -0.003 C 
ATOM     26  C   UNL     1      12.931 -11.201 -30.099  1.00  0.00     0.004 C 
ENDBRANCH  24  25
ENDBRANCH  23  24
ENDBRANCH  22  23
ENDBRANCH  21  22
ENDBRANCH  20  21
ENDBRANCH  19  20
ENDBRANCH  18  19
ENDBRANCH  17  18
ENDBRANCH  16  17
ENDBRANCH  15  16
ENDBRANCH   1  15
TORSDOF 22
ENDMDL
MODEL 7
REMARK VINA RESULT:    -4.286     10.038     12.925
REMARK INTER + INTRA:         -13.391
REMARK INTER:                 -10.379
REMARK INTRA:                  -3.012
REMARK UNBOUND:                -3.593
REMARK SMILES CCCCCCCCCCCCCCCCCCCCCCCC(=O)[O-]
REMARK SMILES IDX 13 1 14 2 15 3 16 4 17 5 18 6 19 7 20 8 21 9 22 10 23 11
REMARK SMILES IDX 24 12 25 13 26 14 12 15 11 16 10 17 9 18 8 19 7 20 6 21 5 22
REMARK SMILES IDX 4 23 3 24 2 25 1 26
REMARK H PARENT
REMARK Flexibility Score: inf
ROOT
ATOM      1  C   UNL     1       6.422 -13.212 -22.637  1.00  0.00     0.000 C 
ENDROOT
BRANCH   1   2
ATOM      2  C   UNL     1       5.612 -13.186 -23.945  1.00  0.00     0.000 C 
BRANCH   2   3
ATOM      3  C   UNL     1       6.236 -14.056 -25.053  1.00  0.00     0.000 C 
BRANCH   3   4
ATOM      4  C   UNL     1       7.612 -13.582 -25.553  1.00  0.00     0.000 C 
BRANCH   4   5
ATOM      5  C   UNL     1       7.555 -12.222 -26.271  1.00  0.00     0.000 C 
BRANCH   5   6
ATOM      6  C   UNL     1       8.373 -11.139 -25.550  1.00  0.00     0.000 C 
BRANCH   6   7
ATOM      7  C   UNL     1       9.437 -11.733 -24.610  1.00  0.00     0.000 C 
BRANCH   7   8
ATOM      8  C   UNL     1      10.811 -11.862 -25.288  1.00  0.00     0.000 C 
BRANCH   8   9
ATOM      9  C   UNL     1      10.941 -10.968 -26.532  1.00  0.00     0.000 C 
BRANCH   9  10
ATOM     10  C   UNL     1      11.147 -11.768 -27.830  1.00  0.00     0.006 C 
BRANCH  10  11
ATOM     11  C   UNL     1      11.429 -10.893 -29.064  1.00  0.00     0.053 C 
BRANCH  11  12
ATOM     12  C   UNL     1      12.704 -11.264 -29.758  1.00  0.00     0.041 C 
ATOM     13  O   UNL     1      12.795 -11.172 -31.011  1.00  0.00    -0.550 OA
ATOM     14  O   UNL     1      13.783 -11.741 -29.024  1.00  0.00    -0.550 OA
ENDBRANCH  11  12
ENDBRANCH  10  11
ENDBRANCH   9  10
ENDBRANCH   8   9
ENDBRANCH   7   8
ENDBRANCH   6   7
ENDBRANCH   5   6
ENDBRANCH   4   5
ENDBRANCH   3   4
ENDBRANCH   2   3
ENDBRANCH   1   2
BRANCH   1  15
ATOM     15  C   UNL     1       5.726 -14.013 -21.525  1.00  0.00     0.000 C 
BRANCH  15  16
ATOM     16  C   UNL     1       5.434 -13.169 -20.275  1.00  0.00     0.000 C 
BRANCH  16  17
ATOM     17  C   UNL     1       4.575 -11.946 -20.629  1.00  0.00     0.000 C 
BRANCH  17  18
ATOM     18  C   UNL     1       3.096 -12.299 -20.868  1.00  0.00    -0.000 C 
BRANCH  18  19
ATOM     19  C   UNL     1       2.410 -11.511 -21.999  1.00  0.00    -0.000 C 
BRANCH  19  20
ATOM     20  C   UNL     1       2.046 -12.390 -23.209  1.00  0.00    -0.000 C 
BRANCH  20  21
ATOM     21  C   UNL     1       2.195 -13.891 -22.911  1.00  0.00    -0.000 C 
BRANCH  21  22
ATOM     22  C   UNL     1       2.129 -14.750 -24.186  1.00  0.00    -0.000 C 
BRANCH  22  23
ATOM     23  C   UNL     1       1.511 -14.001 -25.381  1.00  0.00    -0.000 C 
BRANCH  23  24
ATOM     24  C   UNL     1       1.721 -14.672 -26.751  1.00  0.00    -0.000 C 
BRANCH  24  25
ATOM     25  C   UNL     1       2.387 -13.744 -27.777  1.00  0.00    -0.003 C 
ATOM     26  C   UNL     1       3.462 -12.881 -27.122  1.00  0.00     0.004 C 
ENDBRANCH  24  25
ENDBRANCH  23  24
ENDBRANCH  22  23
ENDBRANCH  21  22
ENDBRANCH  20  21
ENDBRANCH  19  20
ENDBRANCH  18  19
ENDBRANCH  17  18
ENDBRANCH  16  17
ENDBRANCH  15  16
ENDBRANCH   1  15
TORSDOF 22
ENDMDL
MODEL 8
REMARK VINA RESULT:    -4.270      1.347      3.499
REMARK INTER + INTRA:         -13.354
REMARK INTER:                 -10.242
REMARK INTRA:                  -3.112
REMARK UNBOUND:                -3.593
REMARK SMILES CCCCCCCCCCCCCCCCCCCCCCCC(=O)[O-]
REMARK SMILES IDX 13 1 14 2 15 3 16 4 17 5 18 6 19 7 20 8 21 9 22 10 23 11
REMARK SMILES IDX 24 12 25 13 26 14 12 15 11 16 10 17 9 18 8 19 7 20 6 21 5 22
REMARK SMILES IDX 4 23 3 24 2 25 1 26
REMARK H PARENT
REMARK Flexibility Score: inf
ROOT
ATOM      1  C   UNL     1       5.357  -7.860 -34.033  1.00  0.00     0.000 C 
ENDROOT
BRANCH   1   2
ATOM      2  C   UNL     1       5.103  -6.919 -32.842  1.00  0.00     0.000 C 
BRANCH   2   3
ATOM      3  C   UNL     1       6.144  -7.081 -31.719  1.00  0.00     0.000 C 
BRANCH   3   4
ATOM      4  C   UNL     1       7.180  -5.946 -31.623  1.00  0.00     0.000 C 
BRANCH   4   5
ATOM      5  C   UNL     1       8.328  -6.094 -32.637  1.00  0.00     0.000 C 
BRANCH   5   6
ATOM      6  C   UNL     1       8.356  -4.955 -33.667  1.00  0.00     0.000 C 
BRANCH   6   7
ATOM      7  C   UNL     1       7.313  -3.863 -33.367  1.00  0.00     0.000 C 
BRANCH   7   8
ATOM      8  C   UNL     1       7.535  -2.595 -34.206  1.00  0.00     0.000 C 
BRANCH   8   9
ATOM      9  C   UNL     1       8.869  -2.618 -34.970  1.00  0.00     0.000 C 
BRANCH   9  10
ATOM     10  C   UNL     1       9.864  -1.551 -34.477  1.00  0.00     0.006 C 
BRANCH  10  11
ATOM     11  C   UNL     1      11.335  -1.885 -34.777  1.00  0.00     0.053 C 
BRANCH  11  12
ATOM     12  C   UNL     1      11.681  -1.727 -36.227  1.00  0.00     0.041 C 
ATOM     13  O   UNL     1      12.618  -2.399 -36.733  1.00  0.00    -0.550 OA
ATOM     14  O   UNL     1      10.986  -0.816 -37.012  1.00  0.00    -0.550 OA
ENDBRANCH  11  12
ENDBRANCH  10  11
ENDBRANCH   9  10
ENDBRANCH   8   9
ENDBRANCH   7   8
ENDBRANCH   6   7
ENDBRANCH   5   6
ENDBRANCH   4   5
ENDBRANCH   3   4
ENDBRANCH   2   3
ENDBRANCH   1   2
BRANCH   1  15
ATOM     15  C   UNL     1       5.800  -7.107 -35.298  1.00  0.00     0.000 C 
BRANCH  15  16
ATOM     16  C   UNL     1       4.880  -7.370 -36.501  1.00  0.00     0.000 C 
BRANCH  16  17
ATOM     17  C   UNL     1       3.424  -7.018 -36.165  1.00  0.00     0.000 C 
BRANCH  17  18
ATOM     18  C   UNL     1       2.459  -8.201 -36.361  1.00  0.00    -0.000 C 
BRANCH  18  19
ATOM     19  C   UNL     1       1.251  -8.225 -35.407  1.00  0.00    -0.000 C 
BRANCH  19  20
ATOM     20  C   UNL     1       1.570  -7.648 -34.018  1.00  0.00    -0.000 C 
BRANCH  20  21
ATOM     21  C   UNL     1       1.101  -8.566 -32.878  1.00  0.00    -0.000 C 
BRANCH  21  22
ATOM     22  C   UNL     1       1.357 -10.054 -33.180  1.00  0.00    -0.000 C 
BRANCH  22  23
ATOM     23  C   UNL     1       2.810 -10.480 -32.897  1.00  0.00    -0.000 C 
BRANCH  23  24
ATOM     24  C   UNL     1       3.629 -10.865 -34.142  1.00  0.00    -0.000 C 
BRANCH  24  25
ATOM     25  C   UNL     1       3.143 -12.165 -34.800  1.00  0.00    -0.003 C 
ATOM     26  C   UNL     1       2.624 -11.906 -36.212  1.00  0.00     0.004 C 
ENDBRANCH  24  25
ENDBRANCH  23  24
ENDBRANCH  22  23
ENDBRANCH  21  22
ENDBRANCH  20  21
ENDBRANCH  19  20
ENDBRANCH  18  19
ENDBRANCH  17  18
ENDBRANCH  16  17
ENDBRANCH  15  16
ENDBRANCH   1  15
TORSDOF 22
ENDMDL
MODEL 9
REMARK VINA RESULT:    -3.274      4.127      8.199
REMARK INTER + INTRA:         -11.078
REMARK INTER:                  -7.229
REMARK INTRA:                  -3.850
REMARK UNBOUND:                -3.593
REMARK SMILES CCCCCCCCCCCCCCCCCCCCCCCC(=O)[O-]
REMARK SMILES IDX 13 1 14 2 15 3 16 4 17 5 18 6 19 7 20 8 21 9 22 10 23 11
REMARK SMILES IDX 24 12 25 13 26 14 12 15 11 16 10 17 9 18 8 19 7 20 6 21 5 22
REMARK SMILES IDX 4 23 3 24 2 25 1 26
REMARK H PARENT
REMARK Flexibility Score: inf
ROOT
ATOM      1  C   UNL     1       5.770  -7.880 -34.659  1.00  0.00     0.000 C 
ENDROOT
BRANCH   1   2
ATOM      2  C   UNL     1       4.419  -7.320 -35.139  1.00  0.00     0.000 C 
BRANCH   2   3
ATOM      3  C   UNL     1       3.995  -7.874 -36.511  1.00  0.00     0.000 C 
BRANCH   3   4
ATOM      4  C   UNL     1       2.633  -7.371 -37.023  1.00  0.00     0.000 C 
BRANCH   4   5
ATOM      5  C   UNL     1       1.691  -6.931 -35.889  1.00  0.00     0.000 C 
BRANCH   5   6
ATOM      6  C   UNL     1       0.875  -8.098 -35.312  1.00  0.00     0.000 C 
BRANCH   6   7
ATOM      7  C   UNL     1       0.929  -8.151 -33.775  1.00  0.00     0.000 C 
BRANCH   7   8
ATOM      8  C   UNL     1       1.481  -9.488 -33.254  1.00  0.00     0.000 C 
BRANCH   8   9
ATOM      9  C   UNL     1       2.164 -10.314 -34.357  1.00  0.00     0.000 C 
BRANCH   9  10
ATOM     10  C   UNL     1       3.404 -11.078 -33.858  1.00  0.00     0.006 C 
BRANCH  10  11
ATOM     11  C   UNL     1       4.036 -10.479 -32.590  1.00  0.00     0.053 C 
BRANCH  11  12
ATOM     12  C   UNL     1       4.602 -11.523 -31.676  1.00  0.00     0.041 C 
ATOM     13  O   UNL     1       5.639 -12.158 -32.001  1.00  0.00    -0.550 OA
ATOM     14  O   UNL     1       3.965 -11.816 -30.476  1.00  0.00    -0.550 OA
ENDBRANCH  11  12
ENDBRANCH  10  11
ENDBRANCH   9  10
ENDBRANCH   8   9
ENDBRANCH   7   8
ENDBRANCH   6   7
ENDBRANCH   5   6
ENDBRANCH   4   5
ENDBRANCH   3   4
ENDBRANCH   2   3
ENDBRANCH   1   2
BRANCH   1  15
ATOM     15  C   UNL     1       6.789  -8.027 -35.801  1.00  0.00     0.000 C 
BRANCH  15  16
ATOM     16  C   UNL     1       7.620  -6.755 -36.027  1.00  0.00     0.000 C 
BRANCH  16  17
ATOM     17  C   UNL     1       7.555  -6.312 -37.496  1.00  0.00     0.000 C 
BRANCH  17  18
ATOM     18  C   UNL     1       7.005  -4.885 -37.670  1.00  0.00    -0.000 C 
BRANCH  18  19
ATOM     19  C   UNL     1       5.585  -4.659 -37.118  1.00  0.00    -0.000 C 
BRANCH  19  20
ATOM     20  C   UNL     1       5.443  -3.334 -36.349  1.00  0.00    -0.000 C 
BRANCH  20  21
ATOM     21  C   UNL     1       6.713  -2.471 -36.426  1.00  0.00    -0.000 C 
BRANCH  21  22
ATOM     22  C   UNL     1       7.509  -2.479 -35.109  1.00  0.00    -0.000 C 
BRANCH  22  23
ATOM     23  C   UNL     1       6.760  -3.183 -33.962  1.00  0.00    -0.000 C 
BRANCH  23  24
ATOM     24  C   UNL     1       7.573  -4.255 -33.214  1.00  0.00    -0.000 C 
BRANCH  24  25
ATOM     25  C   UNL     1       6.695  -5.198 -32.379  1.00  0.00    -0.003 C 
ATOM     26  C   UNL     1       7.543  -6.229 -31.638  1.00  0.00     0.004 C 
ENDBRANCH  24  25
ENDBRANCH  23  24
ENDBRANCH  22  23
ENDBRANCH  21  22
ENDBRANCH  20  21
ENDBRANCH  19  20
ENDBRANCH  18  19
ENDBRANCH  17  18
ENDBRANCH  16  17
ENDBRANCH  15  16
ENDBRANCH   1  15
TORSDOF 22
ENDMDL
