MODEL 1
REMARK VINA RESULT:    -4.265      0.000      0.000
REMARK INTER + INTRA:          -8.923
REMARK INTER:                  -7.257
REMARK INTRA:                  -1.666
REMARK UNBOUND:                -1.666
REMARK SMILES CCCCCCCCCCCCCC(=O)[O-]
REMARK SMILES IDX 8 1 9 2 10 3 11 4 12 5 13 6 14 7 15 8 16 9 7 10 6 11 5 12
REMARK SMILES IDX 4 13 3 14 2 15 1 16
REMARK H PARENT
REMARK Flexibility Score: inf
ROOT
ATOM      1  C   UNL     1       4.019  -0.170  -4.089  1.00  0.00     0.000 C 
ENDROOT
BRANCH   1   2
ATOM      2  C   UNL     1       3.785   0.314  -5.528  1.00  0.00     0.000 C 
BRANCH   2   3
ATOM      3  C   UNL     1       2.576   1.256  -5.649  1.00  0.00     0.000 C 
BRANCH   3   4
ATOM      4  C   UNL     1       1.636   1.169  -4.434  1.00  0.00     0.000 C 
BRANCH   4   5
ATOM      5  C   UNL     1       0.214   0.713  -4.813  1.00  0.00     0.006 C 
BRANCH   5   6
ATOM      6  C   UNL     1      -0.205  -0.633  -4.202  1.00  0.00     0.053 C 
BRANCH   6   7
ATOM      7  C   UNL     1       0.749  -1.731  -4.556  1.00  0.00     0.041 C 
ATOM      8  O   UNL     1       1.301  -2.409  -3.650  1.00  0.00    -0.550 OA
ATOM      9  O   UNL     1       1.053  -1.985  -5.888  1.00  0.00    -0.550 OA
ENDBRANCH   6   7
ENDBRANCH   5   6
ENDBRANCH   4   5
ENDBRANCH   3   4
ENDBRANCH   2   3
ENDBRANCH   1   2
BRANCH   1  10
ATOM     10  C   UNL     1       5.492  -0.014  -3.691  1.00  0.00     0.000 C 
BRANCH  10  11
ATOM     11  C   UNL     1       5.770   1.398  -3.155  1.00  0.00    -0.000 C 
BRANCH  11  12
ATOM     12  C   UNL     1       6.480   2.294  -4.183  1.00  0.00    -0.000 C 
BRANCH  12  13
ATOM     13  C   UNL     1       5.596   3.452  -4.669  1.00  0.00    -0.000 C 
BRANCH  13  14
ATOM     14  C   UNL     1       4.410   3.674  -3.721  1.00  0.00    -0.000 C 
BRANCH  14  15
ATOM     15  C   UNL     1       3.584   4.891  -4.149  1.00  0.00    -0.003 C 
ATOM     16  C   UNL     1       3.929   6.116  -3.304  1.00  0.00     0.004 C 
ENDBRANCH  14  15
ENDBRANCH  13  14
ENDBRANCH  12  13
ENDBRANCH  11  12
ENDBRANCH  10  11
ENDBRANCH   1  10
TORSDOF 12
ENDMDL
MODEL 2
REMARK VINA RESULT:    -3.980      1.208      1.857
REMARK INTER + INTRA:          -8.439
REMARK INTER:                  -6.788
REMARK INTRA:                  -1.651
REMARK UNBOUND:                -1.666
REMARK SMILES CCCCCCCCCCCCCC(=O)[O-]
REMARK SMILES IDX 8 1 9 2 10 3 11 4 12 5 13 6 14 7 15 8 16 9 7 10 6 11 5 12
REMARK SMILES IDX 4 13 3 14 2 15 1 16
REMARK H PARENT
REMARK Flexibility Score: inf
ROOT
ATOM      1  C   UNL     1       3.859   1.490  -4.229  1.00  0.00     0.000 C 
ENDROOT
BRANCH   1   2
ATOM      2  C   UNL     1       2.450   2.099  -4.168  1.00  0.00     0.000 C 
BRANCH   2   3
ATOM      3  C   UNL     1       1.719   2.042  -5.519  1.00  0.00     0.000 C 
BRANCH   3   4
ATOM      4  C   UNL     1       0.276   1.521  -5.388  1.00  0.00     0.000 C 
BRANCH   4   5
ATOM      5  C   UNL     1       0.067   0.661  -4.127  1.00  0.00     0.006 C 
BRANCH   5   6
ATOM      6  C   UNL     1      -0.178  -0.830  -4.409  1.00  0.00     0.053 C 
BRANCH   6   7
ATOM      7  C   UNL     1       1.020  -1.491  -5.017  1.00  0.00     0.041 C 
ATOM      8  O   UNL     1       1.016  -1.817  -6.233  1.00  0.00    -0.550 OA
ATOM      9  O   UNL     1       2.130  -1.774  -4.232  1.00  0.00    -0.550 OA
ENDBRANCH   6   7
ENDBRANCH   5   6
ENDBRANCH   4   5
ENDBRANCH   3   4
ENDBRANCH   2   3
ENDBRANCH   1   2
BRANCH   1  10
ATOM     10  C   UNL     1       4.899   2.454  -3.645  1.00  0.00     0.000 C 
BRANCH  10  11
ATOM     11  C   UNL     1       5.960   2.819  -4.694  1.00  0.00    -0.000 C 
BRANCH  11  12
ATOM     12  C   UNL     1       5.379   3.613  -5.875  1.00  0.00    -0.000 C 
BRANCH  12  13
ATOM     13  C   UNL     1       5.143   5.092  -5.534  1.00  0.00    -0.000 C 
BRANCH  13  14
ATOM     14  C   UNL     1       3.655   5.450  -5.643  1.00  0.00    -0.000 C 
BRANCH  14  15
ATOM     15  C   UNL     1       3.130   6.025  -4.323  1.00  0.00    -0.003 C 
ATOM     16  C   UNL     1       4.246   6.135  -3.287  1.00  0.00     0.004 C 
ENDBRANCH  14  15
ENDBRANCH  13  14
ENDBRANCH  12  13
ENDBRANCH  11  12
ENDBRANCH  10  11
ENDBRANCH   1  10
TORSDOF 12
ENDMDL
MODEL 3
REMARK VINA RESULT:    -3.845      1.093      3.142
REMARK INTER + INTRA:          -8.209
REMARK INTER:                  -6.405
REMARK INTRA:                  -1.804
REMARK UNBOUND:                -1.666
REMARK SMILES CCCCCCCCCCCCCC(=O)[O-]
REMARK SMILES IDX 8 1 9 2 10 3 11 4 12 5 13 6 14 7 15 8 16 9 7 10 6 11 5 12
REMARK SMILES IDX 4 13 3 14 2 15 1 16
REMARK H PARENT
REMARK Flexibility Score: inf
ROOT
ATOM      1  C   UNL     1       3.877   4.169  -3.561  1.00  0.00     0.000 C 
ENDROOT
BRANCH   1   2
ATOM      2  C   UNL     1       2.984   2.949  -3.837  1.00  0.00     0.000 C 
BRANCH   2   3
ATOM      3  C   UNL     1       2.703   2.744  -5.334  1.00  0.00     0.000 C 
BRANCH   3   4
ATOM      4  C   UNL     1       1.866   1.483  -5.610  1.00  0.00     0.000 C 
BRANCH   4   5
ATOM      5  C   UNL     1       1.022   1.051  -4.397  1.00  0.00     0.006 C 
BRANCH   5   6
ATOM      6  C   UNL     1       0.252  -0.264  -4.594  1.00  0.00     0.053 C 
BRANCH   6   7
ATOM      7  C   UNL     1       1.157  -1.391  -4.986  1.00  0.00     0.041 C 
ATOM      8  O   UNL     1       0.958  -2.021  -6.057  1.00  0.00    -0.550 OA
ATOM      9  O   UNL     1       2.202  -1.765  -4.151  1.00  0.00    -0.550 OA
ENDBRANCH   6   7
ENDBRANCH   5   6
ENDBRANCH   4   5
ENDBRANCH   3   4
ENDBRANCH   2   3
ENDBRANCH   1   2
BRANCH   1  10
ATOM     10  C   UNL     1       4.538   4.667  -4.852  1.00  0.00     0.000 C 
BRANCH  10  11
ATOM     11  C   UNL     1       6.036   4.326  -4.869  1.00  0.00    -0.000 C 
BRANCH  11  12
ATOM     12  C   UNL     1       6.340   3.024  -5.627  1.00  0.00    -0.000 C 
BRANCH  12  13
ATOM     13  C   UNL     1       6.813   1.896  -4.699  1.00  0.00    -0.000 C 
BRANCH  13  14
ATOM     14  C   UNL     1       5.998   0.617  -4.929  1.00  0.00    -0.000 C 
BRANCH  14  15
ATOM     15  C   UNL     1       5.318   0.157  -3.635  1.00  0.00    -0.003 C 
ATOM     16  C   UNL     1       5.814   0.963  -2.436  1.00  0.00     0.004 C 
ENDBRANCH  14  15
ENDBRANCH  13  14
ENDBRANCH  12  13
ENDBRANCH  11  12
ENDBRANCH  10  11
ENDBRANCH   1  10
TORSDOF 12
ENDMDL
MODEL 4
REMARK VINA RESULT:    -3.774      1.230      2.587
REMARK INTER + INTRA:          -8.088
REMARK INTER:                  -6.768
REMARK INTRA:                  -1.320
REMARK UNBOUND:                -1.666
REMARK SMILES CCCCCCCCCCCCCC(=O)[O-]
REMARK SMILES IDX 8 1 9 2 10 3 11 4 12 5 13 6 14 7 15 8 16 9 7 10 6 11 5 12
REMARK SMILES IDX 4 13 3 14 2 15 1 16
REMARK H PARENT
REMARK Flexibility Score: inf
ROOT
ATOM      1  C   UNL     1       5.834   1.385  -2.949  1.00  0.00     0.000 C 
ENDROOT
BRANCH   1   2
ATOM      2  C   UNL     1       5.366  -0.074  -3.062  1.00  0.00     0.000 C 
BRANCH   2   3
ATOM      3  C   UNL     1       4.812  -0.414  -4.455  1.00  0.00     0.000 C 
BRANCH   3   4
ATOM      4  C   UNL     1       3.274  -0.466  -4.482  1.00  0.00     0.000 C 
BRANCH   4   5
ATOM      5  C   UNL     1       2.650   0.753  -5.189  1.00  0.00     0.006 C 
BRANCH   5   6
ATOM      6  C   UNL     1       1.325   1.232  -4.576  1.00  0.00     0.053 C 
BRANCH   6   7
ATOM      7  C   UNL     1       0.283   0.157  -4.580  1.00  0.00     0.041 C 
ATOM      8  O   UNL     1      -0.016  -0.433  -5.652  1.00  0.00    -0.550 OA
ATOM      9  O   UNL     1      -0.380  -0.173  -3.405  1.00  0.00    -0.550 OA
ENDBRANCH   6   7
ENDBRANCH   5   6
ENDBRANCH   4   5
ENDBRANCH   3   4
ENDBRANCH   2   3
ENDBRANCH   1   2
BRANCH   1  10
ATOM     10  C   UNL     1       6.359   1.898  -4.296  1.00  0.00     0.000 C 
BRANCH  10  11
ATOM     11  C   UNL     1       5.636   3.187  -4.713  1.00  0.00    -0.000 C 
BRANCH  11  12
ATOM     12  C   UNL     1       4.452   3.528  -3.794  1.00  0.00    -0.000 C 
BRANCH  12  13
ATOM     13  C   UNL     1       3.612   4.701  -4.321  1.00  0.00    -0.000 C 
BRANCH  13  14
ATOM     14  C   UNL     1       3.765   5.934  -3.421  1.00  0.00    -0.000 C 
BRANCH  14  15
ATOM     15  C   UNL     1       2.760   7.024  -3.807  1.00  0.00    -0.003 C 
ATOM     16  C   UNL     1       2.320   6.878  -5.262  1.00  0.00     0.004 C 
ENDBRANCH  14  15
ENDBRANCH  13  14
ENDBRANCH  12  13
ENDBRANCH  11  12
ENDBRANCH  10  11
ENDBRANCH   1  10
TORSDOF 12
ENDMDL
MODEL 5
REMARK VINA RESULT:    -3.763      1.383      3.299
REMARK INTER + INTRA:          -8.069
REMARK INTER:                  -6.114
REMARK INTRA:                  -1.955
REMARK UNBOUND:                -1.666
REMARK SMILES CCCCCCCCCCCCCC(=O)[O-]
REMARK SMILES IDX 8 1 9 2 10 3 11 4 12 5 13 6 14 7 15 8 16 9 7 10 6 11 5 12
REMARK SMILES IDX 4 13 3 14 2 15 1 16
REMARK H PARENT
REMARK Flexibility Score: inf
ROOT
ATOM      1  C   UNL     1       3.327   3.143  -3.750  1.00  0.00     0.000 C 
ENDROOT
BRANCH   1   2
ATOM      2  C   UNL     1       2.323   2.100  -4.267  1.00  0.00     0.000 C 
BRANCH   2   3
ATOM      3  C   UNL     1       2.417   1.888  -5.786  1.00  0.00     0.000 C 
BRANCH   3   4
ATOM      4  C   UNL     1       2.508   0.400  -6.170  1.00  0.00     0.000 C 
BRANCH   4   5
ATOM      5  C   UNL     1       1.148  -0.191  -6.587  1.00  0.00     0.006 C 
BRANCH   5   6
ATOM      6  C   UNL     1       0.856  -1.583  -6.005  1.00  0.00     0.053 C 
BRANCH   6   7
ATOM      7  C   UNL     1       0.766  -1.559  -4.510  1.00  0.00     0.041 C 
ATOM      8  O   UNL     1       1.286  -2.481  -3.828  1.00  0.00    -0.550 OA
ATOM      9  O   UNL     1       0.079  -0.534  -3.872  1.00  0.00    -0.550 OA
ENDBRANCH   6   7
ENDBRANCH   5   6
ENDBRANCH   4   5
ENDBRANCH   3   4
ENDBRANCH   2   3
ENDBRANCH   1   2
BRANCH   1  10
ATOM     10  C   UNL     1       3.982   3.897  -4.913  1.00  0.00     0.000 C 
BRANCH  10  11
ATOM     11  C   UNL     1       5.512   3.769  -4.859  1.00  0.00    -0.000 C 
BRANCH  11  12
ATOM     12  C   UNL     1       5.975   2.430  -4.265  1.00  0.00    -0.000 C 
BRANCH  12  13
ATOM     13  C   UNL     1       6.422   1.428  -5.340  1.00  0.00    -0.000 C 
BRANCH  13  14
ATOM     14  C   UNL     1       5.998   0.001  -4.971  1.00  0.00    -0.000 C 
BRANCH  14  15
ATOM     15  C   UNL     1       5.363  -0.041  -3.577  1.00  0.00    -0.003 C 
ATOM     16  C   UNL     1       4.482  -1.277  -3.409  1.00  0.00     0.004 C 
ENDBRANCH  14  15
ENDBRANCH  13  14
ENDBRANCH  12  13
ENDBRANCH  11  12
ENDBRANCH  10  11
ENDBRANCH   1  10
TORSDOF 12
ENDMDL
MODEL 6
REMARK VINA RESULT:    -3.755      1.247      3.406
REMARK INTER + INTRA:          -8.056
REMARK INTER:                  -6.267
REMARK INTRA:                  -1.789
REMARK UNBOUND:                -1.666
REMARK SMILES CCCCCCCCCCCCCC(=O)[O-]
REMARK SMILES IDX 8 1 9 2 10 3 11 4 12 5 13 6 14 7 15 8 16 9 7 10 6 11 5 12
REMARK SMILES IDX 4 13 3 14 2 15 1 16
REMARK H PARENT
REMARK Flexibility Score: inf
ROOT
ATOM      1  C   UNL     1       4.488   4.708  -4.114  1.00  0.00     0.000 C 
ENDROOT
BRANCH   1   2
ATOM      2  C   UNL     1       3.429   3.687  -3.671  1.00  0.00     0.000 C 
BRANCH   2   3
ATOM      3  C   UNL     1       2.715   3.018  -4.856  1.00  0.00     0.000 C 
BRANCH   3   4
ATOM      4  C   UNL     1       1.999   1.716  -4.455  1.00  0.00     0.000 C 
BRANCH   4   5
ATOM      5  C   UNL     1       2.277   0.559  -5.433  1.00  0.00     0.006 C 
BRANCH   5   6
ATOM      6  C   UNL     1       1.066  -0.350  -5.701  1.00  0.00     0.053 C 
BRANCH   6   7
ATOM      7  C   UNL     1       0.883  -1.373  -4.624  1.00  0.00     0.041 C 
ATOM      8  O   UNL     1       0.088  -1.156  -3.671  1.00  0.00    -0.550 OA
ATOM      9  O   UNL     1       1.613  -2.554  -4.655  1.00  0.00    -0.550 OA
ENDBRANCH   6   7
ENDBRANCH   5   6
ENDBRANCH   4   5
ENDBRANCH   3   4
ENDBRANCH   2   3
ENDBRANCH   1   2
BRANCH   1  10
ATOM     10  C   UNL     1       5.128   4.293  -5.444  1.00  0.00     0.000 C 
BRANCH  10  11
ATOM     11  C   UNL     1       6.315   3.347  -5.212  1.00  0.00    -0.000 C 
BRANCH  11  12
ATOM     12  C   UNL     1       6.178   2.022  -5.980  1.00  0.00    -0.000 C 
BRANCH  12  13
ATOM     13  C   UNL     1       6.067   0.807  -5.048  1.00  0.00    -0.000 C 
BRANCH  13  14
ATOM     14  C   UNL     1       5.969   1.246  -3.581  1.00  0.00    -0.000 C 
BRANCH  14  15
ATOM     15  C   UNL     1       5.393   0.125  -2.709  1.00  0.00    -0.003 C 
ATOM     16  C   UNL     1       4.787  -0.985  -3.566  1.00  0.00     0.004 C 
ENDBRANCH  14  15
ENDBRANCH  13  14
ENDBRANCH  12  13
ENDBRANCH  11  12
ENDBRANCH  10  11
ENDBRANCH   1  10
TORSDOF 12
ENDMDL
MODEL 7
REMARK VINA RESULT:    -3.736      1.898      5.447
REMARK INTER + INTRA:          -8.023
REMARK INTER:                  -6.544
REMARK INTRA:                  -1.479
REMARK UNBOUND:                -1.666
REMARK SMILES CCCCCCCCCCCCCC(=O)[O-]
REMARK SMILES IDX 8 1 9 2 10 3 11 4 12 5 13 6 14 7 15 8 16 9 7 10 6 11 5 12
REMARK SMILES IDX 4 13 3 14 2 15 1 16
REMARK H PARENT
REMARK Flexibility Score: inf
ROOT
ATOM      1  C   UNL     1       2.870   3.494  -6.341  1.00  0.00     0.000 C 
ENDROOT
BRANCH   1   2
ATOM      2  C   UNL     1       3.114   4.255  -5.028  1.00  0.00     0.000 C 
BRANCH   2   3
ATOM      3  C   UNL     1       3.628   3.345  -3.901  1.00  0.00     0.000 C 
BRANCH   3   4
ATOM      4  C   UNL     1       5.050   2.821  -4.168  1.00  0.00     0.000 C 
BRANCH   4   5
ATOM      5  C   UNL     1       5.080   1.311  -4.475  1.00  0.00     0.006 C 
BRANCH   5   6
ATOM      6  C   UNL     1       5.336   0.420  -3.249  1.00  0.00     0.053 C 
BRANCH   6   7
ATOM      7  C   UNL     1       4.915  -0.997  -3.489  1.00  0.00     0.041 C 
ATOM      8  O   UNL     1       5.231  -1.581  -4.559  1.00  0.00    -0.550 OA
ATOM      9  O   UNL     1       4.146  -1.663  -2.543  1.00  0.00    -0.550 OA
ENDBRANCH   6   7
ENDBRANCH   5   6
ENDBRANCH   4   5
ENDBRANCH   3   4
ENDBRANCH   2   3
ENDBRANCH   1   2
BRANCH   1  10
ATOM     10  C   UNL     1       1.381   3.500  -6.709  1.00  0.00     0.000 C 
BRANCH  10  11
ATOM     11  C   UNL     1       0.815   2.073  -6.734  1.00  0.00    -0.000 C 
BRANCH  11  12
ATOM     12  C   UNL     1      -0.019   1.743  -5.485  1.00  0.00    -0.000 C 
BRANCH  12  13
ATOM     13  C   UNL     1       0.791   1.001  -4.412  1.00  0.00    -0.000 C 
BRANCH  13  14
ATOM     14  C   UNL     1       1.680  -0.078  -5.043  1.00  0.00    -0.000 C 
BRANCH  14  15
ATOM     15  C   UNL     1       0.887  -1.364  -5.298  1.00  0.00    -0.003 C 
ATOM     16  C   UNL     1       1.254  -2.448  -4.288  1.00  0.00     0.004 C 
ENDBRANCH  14  15
ENDBRANCH  13  14
ENDBRANCH  12  13
ENDBRANCH  11  12
ENDBRANCH  10  11
ENDBRANCH   1  10
TORSDOF 12
ENDMDL
MODEL 8
REMARK VINA RESULT:    -3.698      1.559      2.585
REMARK INTER + INTRA:          -7.959
REMARK INTER:                  -6.696
REMARK INTRA:                  -1.262
REMARK UNBOUND:                -1.666
REMARK SMILES CCCCCCCCCCCCCC(=O)[O-]
REMARK SMILES IDX 8 1 9 2 10 3 11 4 12 5 13 6 14 7 15 8 16 9 7 10 6 11 5 12
REMARK SMILES IDX 4 13 3 14 2 15 1 16
REMARK H PARENT
REMARK Flexibility Score: inf
ROOT
ATOM      1  C   UNL     1       5.434   1.721  -3.368  1.00  0.00     0.000 C 
ENDROOT
BRANCH   1   2
ATOM      2  C   UNL     1       5.436   0.228  -3.005  1.00  0.00     0.000 C 
BRANCH   2   3
ATOM      3  C   UNL     1       4.962  -0.665  -4.163  1.00  0.00     0.000 C 
BRANCH   3   4
ATOM      4  C   UNL     1       4.047   0.082  -5.149  1.00  0.00     0.000 C 
BRANCH   4   5
ATOM      5  C   UNL     1       2.551  -0.114  -4.839  1.00  0.00     0.006 C 
BRANCH   5   6
ATOM      6  C   UNL     1       1.802   1.180  -4.485  1.00  0.00     0.053 C 
BRANCH   6   7
ATOM      7  C   UNL     1       0.320   0.973  -4.429  1.00  0.00     0.041 C 
ATOM      8  O   UNL     1      -0.189   0.282  -3.507  1.00  0.00    -0.550 OA
ATOM      9  O   UNL     1      -0.496   1.517  -5.412  1.00  0.00    -0.550 OA
ENDBRANCH   6   7
ENDBRANCH   5   6
ENDBRANCH   4   5
ENDBRANCH   3   4
ENDBRANCH   2   3
ENDBRANCH   1   2
BRANCH   1  10
ATOM     10  C   UNL     1       6.724   2.110  -4.100  1.00  0.00     0.000 C 
BRANCH  10  11
ATOM     11  C   UNL     1       6.424   3.022  -5.298  1.00  0.00    -0.000 C 
BRANCH  11  12
ATOM     12  C   UNL     1       6.764   4.495  -5.023  1.00  0.00    -0.000 C 
BRANCH  12  13
ATOM     13  C   UNL     1       5.582   5.437  -5.297  1.00  0.00    -0.000 C 
BRANCH  13  14
ATOM     14  C   UNL     1       4.247   4.694  -5.173  1.00  0.00    -0.000 C 
BRANCH  14  15
ATOM     15  C   UNL     1       3.608   4.934  -3.801  1.00  0.00    -0.003 C 
ATOM     16  C   UNL     1       4.045   6.276  -3.218  1.00  0.00     0.004 C 
ENDBRANCH  14  15
ENDBRANCH  13  14
ENDBRANCH  12  13
ENDBRANCH  11  12
ENDBRANCH  10  11
ENDBRANCH   1  10
TORSDOF 12
ENDMDL
MODEL 9
REMARK VINA RESULT:    -3.635      1.273      1.632
REMARK INTER + INTRA:          -7.852
REMARK INTER:                  -5.982
REMARK INTRA:                  -1.870
REMARK UNBOUND:                -1.666
REMARK SMILES CCCCCCCCCCCCCC(=O)[O-]
REMARK SMILES IDX 8 1 9 2 10 3 11 4 12 5 13 6 14 7 15 8 16 9 7 10 6 11 5 12
REMARK SMILES IDX 4 13 3 14 2 15 1 16
REMARK H PARENT
REMARK Flexibility Score: inf
ROOT
ATOM      1  C   UNL     1       4.013   0.606  -4.151  1.00  0.00     0.000 C 
ENDROOT
BRANCH   1   2
ATOM      2  C   UNL     1       2.908   1.662  -4.314  1.00  0.00     0.000 C 
BRANCH   2   3
ATOM      3  C   UNL     1       2.368   1.739  -5.751  1.00  0.00     0.000 C 
BRANCH   3   4
ATOM      4  C   UNL     1       2.453   0.390  -6.487  1.00  0.00     0.000 C 
BRANCH   4   5
ATOM      5  C   UNL     1       1.068  -0.224  -6.767  1.00  0.00     0.006 C 
BRANCH   5   6
ATOM      6  C   UNL     1       0.851  -1.611  -6.142  1.00  0.00     0.053 C 
BRANCH   6   7
ATOM      7  C   UNL     1       0.991  -1.583  -4.651  1.00  0.00     0.041 C 
ATOM      8  O   UNL     1       1.880  -2.270  -4.085  1.00  0.00    -0.550 OA
ATOM      9  O   UNL     1       0.117  -0.821  -3.885  1.00  0.00    -0.550 OA
ENDBRANCH   6   7
ENDBRANCH   5   6
ENDBRANCH   4   5
ENDBRANCH   3   4
ENDBRANCH   2   3
ENDBRANCH   1   2
BRANCH   1  10
ATOM     10  C   UNL     1       5.245   1.205  -3.462  1.00  0.00     0.000 C 
BRANCH  10  11
ATOM     11  C   UNL     1       6.337   1.548  -4.486  1.00  0.00    -0.000 C 
BRANCH  11  12
ATOM     12  C   UNL     1       6.531   3.062  -4.661  1.00  0.00    -0.000 C 
BRANCH  12  13
ATOM     13  C   UNL     1       5.930   3.589  -5.973  1.00  0.00    -0.000 C 
BRANCH  13  14
ATOM     14  C   UNL     1       4.812   4.602  -5.697  1.00  0.00    -0.000 C 
BRANCH  14  15
ATOM     15  C   UNL     1       4.934   5.184  -4.285  1.00  0.00    -0.003 C 
ATOM     16  C   UNL     1       3.561   5.356  -3.639  1.00  0.00     0.004 C 
ENDBRANCH  14  15
ENDBRANCH  13  14
ENDBRANCH  12  13
ENDBRANCH  11  12
ENDBRANCH  10  11
ENDBRANCH   1  10
TORSDOF 12
ENDMDL
