MODEL 1
REMARK VINA RESULT:    -5.717      0.000      0.000
REMARK INTER + INTRA:         -12.955
REMARK INTER:                 -11.065
REMARK INTRA:                  -1.891
REMARK UNBOUND:                -1.891
REMARK SMILES CCCCCCCCCCCCCCCCCC(=O)[O-]
REMARK SMILES IDX 10 1 11 2 12 3 13 4 14 5 15 6 16 7 17 8 18 9 19 10 20 11
REMARK SMILES IDX 9 12 8 13 7 14 6 15 5 16 4 17 3 18 2 19 1 20
REMARK H PARENT
REMARK Flexibility Score: inf
ROOT
ATOM      1  C   UNL     1      12.358   5.389  52.737  1.00  0.00     0.000 C 
ENDROOT
BRANCH   1   2
ATOM      2  C   UNL     1      11.970   3.947  53.103  1.00  0.00     0.000 C 
BRANCH   2   3
ATOM      3  C   UNL     1      11.211   3.857  54.435  1.00  0.00     0.000 C 
BRANCH   3   4
ATOM      4  C   UNL     1      12.130   3.358  55.558  1.00  0.00     0.000 C 
BRANCH   4   5
ATOM      5  C   UNL     1      13.182   4.418  55.917  1.00  0.00     0.000 C 
BRANCH   5   6
ATOM      6  C   UNL     1      14.622   3.949  55.647  1.00  0.00     0.000 C 
BRANCH   6   7
ATOM      7  C   UNL     1      14.974   2.554  56.198  1.00  0.00     0.006 C 
BRANCH   7   8
ATOM      8  C   UNL     1      16.253   1.945  55.596  1.00  0.00     0.053 C 
BRANCH   8   9
ATOM      9  C   UNL     1      16.576   0.600  56.174  1.00  0.00     0.041 C 
ATOM     10  O   UNL     1      16.461  -0.438  55.469  1.00  0.00    -0.550 OA
ATOM     11  O   UNL     1      16.965   0.486  57.502  1.00  0.00    -0.550 OA
ENDBRANCH   8   9
ENDBRANCH   7   8
ENDBRANCH   6   7
ENDBRANCH   5   6
ENDBRANCH   4   5
ENDBRANCH   3   4
ENDBRANCH   2   3
ENDBRANCH   1   2
BRANCH   1  12
ATOM     12  C   UNL     1      11.209   6.386  52.967  1.00  0.00     0.000 C 
BRANCH  12  13
ATOM     13  C   UNL     1      11.624   7.567  53.861  1.00  0.00    -0.000 C 
BRANCH  13  14
ATOM     14  C   UNL     1      10.967   7.518  55.252  1.00  0.00    -0.000 C 
BRANCH  14  15
ATOM     15  C   UNL     1       9.436   7.400  55.181  1.00  0.00    -0.000 C 
BRANCH  15  16
ATOM     16  C   UNL     1       8.731   8.758  55.350  1.00  0.00    -0.000 C 
BRANCH  16  17
ATOM     17  C   UNL     1       8.024   9.219  54.066  1.00  0.00    -0.000 C 
BRANCH  17  18
ATOM     18  C   UNL     1       8.006   8.137  52.975  1.00  0.00    -0.000 C 
BRANCH  18  19
ATOM     19  C   UNL     1       7.925   8.768  51.580  1.00  0.00    -0.003 C 
ATOM     20  C   UNL     1       9.290   8.778  50.899  1.00  0.00     0.004 C 
ENDBRANCH  18  19
ENDBRANCH  17  18
ENDBRANCH  16  17
ENDBRANCH  15  16
ENDBRANCH  14  15
ENDBRANCH  13  14
ENDBRANCH  12  13
ENDBRANCH   1  12
TORSDOF 16
ENDMDL
MODEL 2
REMARK VINA RESULT:    -5.637      4.265      8.475
REMARK INTER + INTRA:         -12.801
REMARK INTER:                 -10.970
REMARK INTRA:                  -1.832
REMARK UNBOUND:                -1.891
REMARK SMILES CCCCCCCCCCCCCCCCCC(=O)[O-]
REMARK SMILES IDX 10 1 11 2 12 3 13 4 14 5 15 6 16 7 17 8 18 9 19 10 20 11
REMARK SMILES IDX 9 12 8 13 7 14 6 15 5 16 4 17 3 18 2 19 1 20
REMARK H PARENT
REMARK Flexibility Score: inf
ROOT
ATOM      1  C   UNL     1      12.477   5.437  53.208  1.00  0.00     0.000 C 
ENDROOT
BRANCH   1   2
ATOM      2  C   UNL     1      11.658   6.709  52.936  1.00  0.00     0.000 C 
BRANCH   2   3
ATOM      3  C   UNL     1      11.730   7.720  54.091  1.00  0.00     0.000 C 
BRANCH   3   4
ATOM      4  C   UNL     1      11.035   7.172  55.344  1.00  0.00     0.000 C 
BRANCH   4   5
ATOM      5  C   UNL     1       9.547   6.904  55.073  1.00  0.00     0.000 C 
BRANCH   5   6
ATOM      6  C   UNL     1       8.658   8.130  55.341  1.00  0.00     0.000 C 
BRANCH   6   7
ATOM      7  C   UNL     1       7.944   8.707  54.102  1.00  0.00     0.006 C 
BRANCH   7   8
ATOM      8  C   UNL     1       8.119   7.863  52.827  1.00  0.00     0.053 C 
BRANCH   8   9
ATOM      9  C   UNL     1       8.335   8.705  51.607  1.00  0.00     0.041 C 
ATOM     10  O   UNL     1       7.369   9.317  51.078  1.00  0.00    -0.550 OA
ATOM     11  O   UNL     1       9.595   8.785  51.027  1.00  0.00    -0.550 OA
ENDBRANCH   8   9
ENDBRANCH   7   8
ENDBRANCH   6   7
ENDBRANCH   5   6
ENDBRANCH   4   5
ENDBRANCH   3   4
ENDBRANCH   2   3
ENDBRANCH   1   2
BRANCH   1  12
ATOM     12  C   UNL     1      11.662   4.152  52.989  1.00  0.00     0.000 C 
BRANCH  12  13
ATOM     13  C   UNL     1      11.401   3.390  54.300  1.00  0.00    -0.000 C 
BRANCH  13  14
ATOM     14  C   UNL     1      12.355   3.813  55.432  1.00  0.00    -0.000 C 
BRANCH  14  15
ATOM     15  C   UNL     1      11.839   3.410  56.823  1.00  0.00    -0.000 C 
BRANCH  15  16
ATOM     16  C   UNL     1      12.818   2.488  57.571  1.00  0.00    -0.000 C 
BRANCH  16  17
ATOM     17  C   UNL     1      14.113   2.239  56.782  1.00  0.00    -0.000 C 
BRANCH  17  18
ATOM     18  C   UNL     1      14.813   0.932  57.185  1.00  0.00    -0.000 C 
BRANCH  18  19
ATOM     19  C   UNL     1      16.122   0.749  56.408  1.00  0.00    -0.003 C 
ATOM     20  C   UNL     1      16.437   1.980  55.563  1.00  0.00     0.004 C 
ENDBRANCH  18  19
ENDBRANCH  17  18
ENDBRANCH  16  17
ENDBRANCH  15  16
ENDBRANCH  14  15
ENDBRANCH  13  14
ENDBRANCH  12  13
ENDBRANCH   1  12
TORSDOF 16
ENDMDL
MODEL 3
REMARK VINA RESULT:    -5.600      2.044      2.724
REMARK INTER + INTRA:         -12.730
REMARK INTER:                 -10.365
REMARK INTRA:                  -2.365
REMARK UNBOUND:                -1.891
REMARK SMILES CCCCCCCCCCCCCCCCCC(=O)[O-]
REMARK SMILES IDX 10 1 11 2 12 3 13 4 14 5 15 6 16 7 17 8 18 9 19 10 20 11
REMARK SMILES IDX 9 12 8 13 7 14 6 15 5 16 4 17 3 18 2 19 1 20
REMARK H PARENT
REMARK Flexibility Score: inf
ROOT
ATOM      1  C   UNL     1      11.809   6.275  52.685  1.00  0.00     0.000 C 
ENDROOT
BRANCH   1   2
ATOM      2  C   UNL     1      12.399   5.114  53.501  1.00  0.00     0.000 C 
BRANCH   2   3
ATOM      3  C   UNL     1      11.827   3.749  53.090  1.00  0.00     0.000 C 
BRANCH   3   4
ATOM      4  C   UNL     1      10.912   3.185  54.185  1.00  0.00     0.000 C 
BRANCH   4   5
ATOM      5  C   UNL     1       9.989   4.277  54.745  1.00  0.00     0.000 C 
BRANCH   5   6
ATOM      6  C   UNL     1      10.037   4.375  56.279  1.00  0.00     0.000 C 
BRANCH   6   7
ATOM      7  C   UNL     1      11.446   4.537  56.884  1.00  0.00     0.006 C 
BRANCH   7   8
ATOM      8  C   UNL     1      11.907   3.337  57.729  1.00  0.00     0.053 C 
BRANCH   8   9
ATOM      9  C   UNL     1      13.135   2.681  57.173  1.00  0.00     0.041 C 
ATOM     10  O   UNL     1      13.772   3.224  56.230  1.00  0.00    -0.550 OA
ATOM     11  O   UNL     1      13.556   1.453  57.665  1.00  0.00    -0.550 OA
ENDBRANCH   8   9
ENDBRANCH   7   8
ENDBRANCH   6   7
ENDBRANCH   5   6
ENDBRANCH   4   5
ENDBRANCH   3   4
ENDBRANCH   2   3
ENDBRANCH   1   2
BRANCH   1  12
ATOM     12  C   UNL     1      11.975   7.634  53.386  1.00  0.00     0.000 C 
BRANCH  12  13
ATOM     13  C   UNL     1      11.543   7.592  54.861  1.00  0.00    -0.000 C 
BRANCH  13  14
ATOM     14  C   UNL     1      11.037   8.953  55.371  1.00  0.00    -0.000 C 
BRANCH  14  15
ATOM     15  C   UNL     1       9.507   9.085  55.290  1.00  0.00    -0.000 C 
BRANCH  15  16
ATOM     16  C   UNL     1       8.820   7.757  54.926  1.00  0.00    -0.000 C 
BRANCH  16  17
ATOM     17  C   UNL     1       8.262   7.755  53.493  1.00  0.00    -0.000 C 
BRANCH  17  18
ATOM     18  C   UNL     1       8.176   9.165  52.887  1.00  0.00    -0.000 C 
BRANCH  18  19
ATOM     19  C   UNL     1       8.195   9.103  51.355  1.00  0.00    -0.003 C 
ATOM     20  C   UNL     1       9.325   8.210  50.853  1.00  0.00     0.004 C 
ENDBRANCH  18  19
ENDBRANCH  17  18
ENDBRANCH  16  17
ENDBRANCH  15  16
ENDBRANCH  14  15
ENDBRANCH  13  14
ENDBRANCH  12  13
ENDBRANCH   1  12
TORSDOF 16
ENDMDL
MODEL 4
REMARK VINA RESULT:    -5.567      4.019      8.842
REMARK INTER + INTRA:         -12.665
REMARK INTER:                 -11.414
REMARK INTRA:                  -1.251
REMARK UNBOUND:                -1.891
REMARK SMILES CCCCCCCCCCCCCCCCCC(=O)[O-]
REMARK SMILES IDX 10 1 11 2 12 3 13 4 14 5 15 6 16 7 17 8 18 9 19 10 20 11
REMARK SMILES IDX 9 12 8 13 7 14 6 15 5 16 4 17 3 18 2 19 1 20
REMARK H PARENT
REMARK Flexibility Score: inf
ROOT
ATOM      1  C   UNL     1      10.849   3.185  54.457  1.00  0.00     0.000 C 
ENDROOT
BRANCH   1   2
ATOM      2  C   UNL     1       9.666   3.900  55.132  1.00  0.00     0.000 C 
BRANCH   2   3
ATOM      3  C   UNL     1       9.440   5.317  54.585  1.00  0.00     0.000 C 
BRANCH   3   4
ATOM      4  C   UNL     1       9.544   6.360  55.706  1.00  0.00     0.000 C 
BRANCH   4   5
ATOM      5  C   UNL     1       9.699   7.774  55.127  1.00  0.00     0.000 C 
BRANCH   5   6
ATOM      6  C   UNL     1       8.362   8.525  55.008  1.00  0.00     0.000 C 
BRANCH   6   7
ATOM      7  C   UNL     1       8.028   9.056  53.600  1.00  0.00     0.006 C 
BRANCH   7   8
ATOM      8  C   UNL     1       8.271   8.037  52.472  1.00  0.00     0.053 C 
BRANCH   8   9
ATOM      9  C   UNL     1       9.275   8.521  51.469  1.00  0.00     0.041 C 
ATOM     10  O   UNL     1       9.737   9.691  51.547  1.00  0.00    -0.550 OA
ATOM     11  O   UNL     1       9.670   7.697  50.423  1.00  0.00    -0.550 OA
ENDBRANCH   8   9
ENDBRANCH   7   8
ENDBRANCH   6   7
ENDBRANCH   5   6
ENDBRANCH   4   5
ENDBRANCH   3   4
ENDBRANCH   2   3
ENDBRANCH   1   2
BRANCH   1  12
ATOM     12  C   UNL     1      11.753   4.151  53.673  1.00  0.00     0.000 C 
BRANCH  12  13
ATOM     13  C   UNL     1      13.036   4.510  54.442  1.00  0.00    -0.000 C 
BRANCH  13  14
ATOM     14  C   UNL     1      12.967   4.117  55.929  1.00  0.00    -0.000 C 
BRANCH  14  15
ATOM     15  C   UNL     1      14.077   3.133  56.334  1.00  0.00    -0.000 C 
BRANCH  15  16
ATOM     16  C   UNL     1      15.398   3.395  55.588  1.00  0.00    -0.000 C 
BRANCH  16  17
ATOM     17  C   UNL     1      16.274   2.137  55.481  1.00  0.00    -0.000 C 
BRANCH  17  18
ATOM     18  C   UNL     1      15.883   1.052  56.497  1.00  0.00    -0.000 C 
BRANCH  18  19
ATOM     19  C   UNL     1      16.978  -0.015  56.606  1.00  0.00    -0.003 C 
ATOM     20  C   UNL     1      17.613  -0.013  57.993  1.00  0.00     0.004 C 
ENDBRANCH  18  19
ENDBRANCH  17  18
ENDBRANCH  16  17
ENDBRANCH  15  16
ENDBRANCH  14  15
ENDBRANCH  13  14
ENDBRANCH  12  13
ENDBRANCH   1  12
TORSDOF 16
ENDMDL
MODEL 5
REMARK VINA RESULT:    -5.500      4.236      8.274
REMARK INTER + INTRA:         -12.535
REMARK INTER:                 -10.375
REMARK INTRA:                  -2.160
REMARK UNBOUND:                -1.891
REMARK SMILES CCCCCCCCCCCCCCCCCC(=O)[O-]
REMARK SMILES IDX 10 1 11 2 12 3 13 4 14 5 15 6 16 7 17 8 18 9 19 10 20 11
REMARK SMILES IDX 9 12 8 13 7 14 6 15 5 16 4 17 3 18 2 19 1 20
REMARK H PARENT
REMARK Flexibility Score: inf
ROOT
ATOM      1  C   UNL     1      10.818   3.062  54.149  1.00  0.00     0.000 C 
ENDROOT
BRANCH   1   2
ATOM      2  C   UNL     1       9.563   3.872  54.514  1.00  0.00     0.000 C 
BRANCH   2   3
ATOM      3  C   UNL     1       9.460   4.161  56.019  1.00  0.00     0.000 C 
BRANCH   3   4
ATOM      4  C   UNL     1       9.608   5.662  56.301  1.00  0.00     0.000 C 
BRANCH   4   5
ATOM      5  C   UNL     1       9.614   6.468  54.994  1.00  0.00     0.000 C 
BRANCH   5   6
ATOM      6  C   UNL     1       9.057   7.891  55.163  1.00  0.00     0.000 C 
BRANCH   6   7
ATOM      7  C   UNL     1       8.126   8.372  54.033  1.00  0.00     0.006 C 
BRANCH   7   8
ATOM      8  C   UNL     1       8.420   7.733  52.664  1.00  0.00     0.053 C 
BRANCH   8   9
ATOM      9  C   UNL     1       9.063   8.693  51.709  1.00  0.00     0.041 C 
ATOM     10  O   UNL     1       9.226   8.374  50.501  1.00  0.00    -0.550 OA
ATOM     11  O   UNL     1       9.519   9.926  52.159  1.00  0.00    -0.550 OA
ENDBRANCH   8   9
ENDBRANCH   7   8
ENDBRANCH   6   7
ENDBRANCH   5   6
ENDBRANCH   4   5
ENDBRANCH   3   4
ENDBRANCH   2   3
ENDBRANCH   1   2
BRANCH   1  12
ATOM     12  C   UNL     1      11.864   3.901  53.396  1.00  0.00     0.000 C 
BRANCH  12  13
ATOM     13  C   UNL     1      12.769   4.703  54.346  1.00  0.00    -0.000 C 
BRANCH  13  14
ATOM     14  C   UNL     1      13.589   3.802  55.288  1.00  0.00    -0.000 C 
BRANCH  14  15
ATOM     15  C   UNL     1      13.266   4.045  56.771  1.00  0.00    -0.000 C 
BRANCH  15  16
ATOM     16  C   UNL     1      12.658   2.806  57.452  1.00  0.00    -0.000 C 
BRANCH  16  17
ATOM     17  C   UNL     1      13.295   1.494  56.967  1.00  0.00    -0.000 C 
BRANCH  17  18
ATOM     18  C   UNL     1      14.583   1.142  57.726  1.00  0.00    -0.000 C 
BRANCH  18  19
ATOM     19  C   UNL     1      15.631   0.544  56.779  1.00  0.00    -0.003 C 
ATOM     20  C   UNL     1      16.277   1.626  55.918  1.00  0.00     0.004 C 
ENDBRANCH  18  19
ENDBRANCH  17  18
ENDBRANCH  16  17
ENDBRANCH  15  16
ENDBRANCH  14  15
ENDBRANCH  13  14
ENDBRANCH  12  13
ENDBRANCH   1  12
TORSDOF 16
ENDMDL
MODEL 6
REMARK VINA RESULT:    -5.426      4.406      9.116
REMARK INTER + INTRA:         -12.391
REMARK INTER:                 -10.871
REMARK INTRA:                  -1.520
REMARK UNBOUND:                -1.891
REMARK SMILES CCCCCCCCCCCCCCCCCC(=O)[O-]
REMARK SMILES IDX 10 1 11 2 12 3 13 4 14 5 15 6 16 7 17 8 18 9 19 10 20 11
REMARK SMILES IDX 9 12 8 13 7 14 6 15 5 16 4 17 3 18 2 19 1 20
REMARK H PARENT
REMARK Flexibility Score: inf
ROOT
ATOM      1  C   UNL     1      11.943   3.942  53.800  1.00  0.00     0.000 C 
ENDROOT
BRANCH   1   2
ATOM      2  C   UNL     1      10.859   3.368  54.726  1.00  0.00     0.000 C 
BRANCH   2   3
ATOM      3  C   UNL     1       9.557   4.180  54.691  1.00  0.00     0.000 C 
BRANCH   3   4
ATOM      4  C   UNL     1       9.479   5.145  55.881  1.00  0.00     0.000 C 
BRANCH   4   5
ATOM      5  C   UNL     1       9.930   6.555  55.476  1.00  0.00     0.000 C 
BRANCH   5   6
ATOM      6  C   UNL     1       9.250   7.057  54.191  1.00  0.00     0.000 C 
BRANCH   6   7
ATOM      7  C   UNL     1      10.149   7.883  53.250  1.00  0.00     0.006 C 
BRANCH   7   8
ATOM      8  C   UNL     1      10.009   7.512  51.763  1.00  0.00     0.053 C 
BRANCH   8   9
ATOM      9  C   UNL     1       9.128   8.466  51.014  1.00  0.00     0.041 C 
ATOM     10  O   UNL     1       9.591   9.136  50.052  1.00  0.00    -0.550 OA
ATOM     11  O   UNL     1       7.807   8.648  51.401  1.00  0.00    -0.550 OA
ENDBRANCH   8   9
ENDBRANCH   7   8
ENDBRANCH   6   7
ENDBRANCH   5   6
ENDBRANCH   4   5
ENDBRANCH   3   4
ENDBRANCH   2   3
ENDBRANCH   1   2
BRANCH   1  12
ATOM     12  C   UNL     1      13.051   4.678  54.572  1.00  0.00     0.000 C 
BRANCH  12  13
ATOM     13  C   UNL     1      13.167   4.204  56.030  1.00  0.00    -0.000 C 
BRANCH  13  14
ATOM     14  C   UNL     1      14.160   3.039  56.199  1.00  0.00    -0.000 C 
BRANCH  14  15
ATOM     15  C   UNL     1      15.500   3.296  55.492  1.00  0.00    -0.000 C 
BRANCH  15  16
ATOM     16  C   UNL     1      16.541   2.202  55.785  1.00  0.00    -0.000 C 
BRANCH  16  17
ATOM     17  C   UNL     1      15.895   0.864  56.180  1.00  0.00    -0.000 C 
BRANCH  17  18
ATOM     18  C   UNL     1      16.908  -0.140  56.750  1.00  0.00    -0.000 C 
BRANCH  18  19
ATOM     19  C   UNL     1      17.796   0.521  57.811  1.00  0.00    -0.003 C 
ATOM     20  C   UNL     1      17.774  -0.267  59.117  1.00  0.00     0.004 C 
ENDBRANCH  18  19
ENDBRANCH  17  18
ENDBRANCH  16  17
ENDBRANCH  15  16
ENDBRANCH  14  15
ENDBRANCH  13  14
ENDBRANCH  12  13
ENDBRANCH   1  12
TORSDOF 16
ENDMDL
MODEL 7
REMARK VINA RESULT:    -5.368      1.734      2.344
REMARK INTER + INTRA:         -12.281
REMARK INTER:                 -10.117
REMARK INTRA:                  -2.164
REMARK UNBOUND:                -1.891
REMARK SMILES CCCCCCCCCCCCCCCCCC(=O)[O-]
REMARK SMILES IDX 10 1 11 2 12 3 13 4 14 5 15 6 16 7 17 8 18 9 19 10 20 11
REMARK SMILES IDX 9 12 8 13 7 14 6 15 5 16 4 17 3 18 2 19 1 20
REMARK H PARENT
REMARK Flexibility Score: inf
ROOT
ATOM      1  C   UNL     1       9.552   3.948  54.788  1.00  0.00     0.000 C 
ENDROOT
BRANCH   1   2
ATOM      2  C   UNL     1      10.833   3.193  54.397  1.00  0.00     0.000 C 
BRANCH   2   3
ATOM      3  C   UNL     1      11.689   3.964  53.381  1.00  0.00     0.000 C 
BRANCH   3   4
ATOM      4  C   UNL     1      12.852   4.683  54.077  1.00  0.00     0.000 C 
BRANCH   4   5
ATOM      5  C   UNL     1      13.481   3.791  55.157  1.00  0.00     0.000 C 
BRANCH   5   6
ATOM      6  C   UNL     1      13.364   4.387  56.571  1.00  0.00     0.000 C 
BRANCH   6   7
ATOM      7  C   UNL     1      12.706   3.468  57.619  1.00  0.00     0.006 C 
BRANCH   7   8
ATOM      8  C   UNL     1      12.775   1.970  57.272  1.00  0.00     0.053 C 
BRANCH   8   9
ATOM      9  C   UNL     1      13.903   1.270  57.968  1.00  0.00     0.041 C 
ATOM     10  O   UNL     1      14.839   0.754  57.301  1.00  0.00    -0.550 OA
ATOM     11  O   UNL     1      13.903   1.152  59.352  1.00  0.00    -0.550 OA
ENDBRANCH   8   9
ENDBRANCH   7   8
ENDBRANCH   6   7
ENDBRANCH   5   6
ENDBRANCH   4   5
ENDBRANCH   3   4
ENDBRANCH   2   3
ENDBRANCH   1   2
BRANCH   1  12
ATOM     12  C   UNL     1       9.782   4.949  55.933  1.00  0.00     0.000 C 
BRANCH  12  13
ATOM     13  C   UNL     1       9.479   6.398  55.517  1.00  0.00    -0.000 C 
BRANCH  13  14
ATOM     14  C   UNL     1      10.754   7.214  55.238  1.00  0.00    -0.000 C 
BRANCH  14  15
ATOM     15  C   UNL     1      10.523   8.730  55.348  1.00  0.00    -0.000 C 
BRANCH  15  16
ATOM     16  C   UNL     1       9.035   9.109  55.246  1.00  0.00    -0.000 C 
BRANCH  16  17
ATOM     17  C   UNL     1       8.700   9.831  53.931  1.00  0.00    -0.000 C 
BRANCH  17  18
ATOM     18  C   UNL     1       7.777   9.008  53.019  1.00  0.00    -0.000 C 
BRANCH  18  19
ATOM     19  C   UNL     1       8.569   7.932  52.267  1.00  0.00    -0.003 C 
ATOM     20  C   UNL     1       9.336   8.533  51.093  1.00  0.00     0.004 C 
ENDBRANCH  18  19
ENDBRANCH  17  18
ENDBRANCH  16  17
ENDBRANCH  15  16
ENDBRANCH  14  15
ENDBRANCH  13  14
ENDBRANCH  12  13
ENDBRANCH   1  12
TORSDOF 16
ENDMDL
MODEL 8
REMARK VINA RESULT:    -5.349      1.764      3.261
REMARK INTER + INTRA:         -12.243
REMARK INTER:                 -10.710
REMARK INTRA:                  -1.533
REMARK UNBOUND:                -1.891
REMARK SMILES CCCCCCCCCCCCCCCCCC(=O)[O-]
REMARK SMILES IDX 10 1 11 2 12 3 13 4 14 5 15 6 16 7 17 8 18 9 19 10 20 11
REMARK SMILES IDX 9 12 8 13 7 14 6 15 5 16 4 17 3 18 2 19 1 20
REMARK H PARENT
REMARK Flexibility Score: inf
ROOT
ATOM      1  C   UNL     1      10.915   4.292  55.927  1.00  0.00     0.000 C 
ENDROOT
BRANCH   1   2
ATOM      2  C   UNL     1      11.759   3.353  56.804  1.00  0.00     0.000 C 
BRANCH   2   3
ATOM      3  C   UNL     1      13.242   3.751  56.843  1.00  0.00     0.000 C 
BRANCH   3   4
ATOM      4  C   UNL     1      14.140   2.554  56.505  1.00  0.00     0.000 C 
BRANCH   4   5
ATOM      5  C   UNL     1      15.335   2.990  55.644  1.00  0.00     0.000 C 
BRANCH   5   6
ATOM      6  C   UNL     1      16.442   1.925  55.570  1.00  0.00     0.000 C 
BRANCH   6   7
ATOM      7  C   UNL     1      16.201   0.665  56.425  1.00  0.00     0.006 C 
BRANCH   7   8
ATOM      8  C   UNL     1      17.348   0.338  57.398  1.00  0.00     0.053 C 
BRANCH   8   9
ATOM      9  C   UNL     1      16.871   0.155  58.807  1.00  0.00     0.041 C 
ATOM     10  O   UNL     1      15.748   0.605  59.161  1.00  0.00    -0.550 OA
ATOM     11  O   UNL     1      17.680  -0.477  59.743  1.00  0.00    -0.550 OA
ENDBRANCH   8   9
ENDBRANCH   7   8
ENDBRANCH   6   7
ENDBRANCH   5   6
ENDBRANCH   4   5
ENDBRANCH   3   4
ENDBRANCH   2   3
ENDBRANCH   1   2
BRANCH   1  12
ATOM     12  C   UNL     1      10.591   3.683  54.552  1.00  0.00     0.000 C 
BRANCH  12  13
ATOM     13  C   UNL     1      11.726   3.888  53.535  1.00  0.00    -0.000 C 
BRANCH  13  14
ATOM     14  C   UNL     1      12.363   5.286  53.631  1.00  0.00    -0.000 C 
BRANCH  14  15
ATOM     15  C   UNL     1      11.763   6.281  52.624  1.00  0.00    -0.000 C 
BRANCH  15  16
ATOM     16  C   UNL     1      11.097   7.486  53.312  1.00  0.00    -0.000 C 
BRANCH  16  17
ATOM     17  C   UNL     1       9.714   7.146  53.888  1.00  0.00    -0.000 C 
BRANCH  17  18
ATOM     18  C   UNL     1       9.229   8.177  54.919  1.00  0.00    -0.000 C 
BRANCH  18  19
ATOM     19  C   UNL     1       9.963   9.512  54.744  1.00  0.00    -0.003 C 
ATOM     20  C   UNL     1      10.774   9.862  55.987  1.00  0.00     0.004 C 
ENDBRANCH  18  19
ENDBRANCH  17  18
ENDBRANCH  16  17
ENDBRANCH  15  16
ENDBRANCH  14  15
ENDBRANCH  13  14
ENDBRANCH  12  13
ENDBRANCH   1  12
TORSDOF 16
ENDMDL
MODEL 9
REMARK VINA RESULT:    -5.226      1.221      1.713
REMARK INTER + INTRA:         -12.004
REMARK INTER:                 -10.468
REMARK INTRA:                  -1.536
REMARK UNBOUND:                -1.891
REMARK SMILES CCCCCCCCCCCCCCCCCC(=O)[O-]
REMARK SMILES IDX 10 1 11 2 12 3 13 4 14 5 15 6 16 7 17 8 18 9 19 10 20 11
REMARK SMILES IDX 9 12 8 13 7 14 6 15 5 16 4 17 3 18 2 19 1 20
REMARK H PARENT
REMARK Flexibility Score: inf
ROOT
ATOM      1  C   UNL     1       9.734   4.944  54.911  1.00  0.00     0.000 C 
ENDROOT
BRANCH   1   2
ATOM      2  C   UNL     1      10.543   4.154  55.953  1.00  0.00     0.000 C 
BRANCH   2   3
ATOM      3  C   UNL     1      11.728   3.398  55.335  1.00  0.00     0.000 C 
BRANCH   3   4
ATOM      4  C   UNL     1      12.972   4.293  55.262  1.00  0.00     0.000 C 
BRANCH   4   5
ATOM      5  C   UNL     1      14.125   3.698  56.083  1.00  0.00     0.000 C 
BRANCH   5   6
ATOM      6  C   UNL     1      15.476   3.751  55.349  1.00  0.00     0.000 C 
BRANCH   6   7
ATOM      7  C   UNL     1      16.358   2.497  55.503  1.00  0.00     0.006 C 
BRANCH   7   8
ATOM      8  C   UNL     1      15.757   1.416  56.419  1.00  0.00     0.053 C 
BRANCH   8   9
ATOM      9  C   UNL     1      16.632   0.203  56.527  1.00  0.00     0.041 C 
ATOM     10  O   UNL     1      16.591  -0.690  55.638  1.00  0.00    -0.550 OA
ATOM     11  O   UNL     1      17.463   0.037  57.627  1.00  0.00    -0.550 OA
ENDBRANCH   8   9
ENDBRANCH   7   8
ENDBRANCH   6   7
ENDBRANCH   5   6
ENDBRANCH   4   5
ENDBRANCH   3   4
ENDBRANCH   2   3
ENDBRANCH   1   2
BRANCH   1  12
ATOM     12  C   UNL     1       9.460   6.393  55.350  1.00  0.00     0.000 C 
BRANCH  12  13
ATOM     13  C   UNL     1      10.660   7.321  55.100  1.00  0.00    -0.000 C 
BRANCH  13  14
ATOM     14  C   UNL     1      10.305   8.809  55.271  1.00  0.00    -0.000 C 
BRANCH  14  15
ATOM     15  C   UNL     1       8.789   9.054  55.331  1.00  0.00    -0.000 C 
BRANCH  15  16
ATOM     16  C   UNL     1       8.251   9.740  54.063  1.00  0.00    -0.000 C 
BRANCH  16  17
ATOM     17  C   UNL     1       7.429   8.787  53.181  1.00  0.00    -0.000 C 
BRANCH  17  18
ATOM     18  C   UNL     1       7.720   8.964  51.682  1.00  0.00    -0.000 C 
BRANCH  18  19
ATOM     19  C   UNL     1       9.230   8.981  51.417  1.00  0.00    -0.003 C 
ATOM     20  C   UNL     1       9.816   7.573  51.481  1.00  0.00     0.004 C 
ENDBRANCH  18  19
ENDBRANCH  17  18
ENDBRANCH  16  17
ENDBRANCH  15  16
ENDBRANCH  14  15
ENDBRANCH  13  14
ENDBRANCH  12  13
ENDBRANCH   1  12
TORSDOF 16
ENDMDL
