MODEL 1
REMARK VINA RESULT:    11.184      0.000      0.000
REMARK INTER + INTRA:          27.318
REMARK INTER:                  28.182
REMARK INTRA:                  -0.864
REMARK UNBOUND:                -0.864
REMARK SMILES CCCCCCCCCCCCCCCCCCCCCCCCCCCC(=O)[O-]
REMARK SMILES IDX 15 1 16 2 17 3 18 4 19 5 20 6 21 7 22 8 23 9 24 10 25 11
REMARK SMILES IDX 26 12 27 13 28 14 29 15 30 16 14 17 13 18 12 19 11 20 10 21
REMARK SMILES IDX 9 22 8 23 7 24 6 25 5 26 4 27 3 28 2 29 1 30
REMARK H PARENT
REMARK Flexibility Score: inf
ROOT
ATOM      1  C   UNL     1      -3.231  35.117  22.229  1.00  0.00     0.000 C 
ENDROOT
BRANCH   1   2
ATOM      2  C   UNL     1      -4.513  34.612  22.913  1.00  0.00     0.000 C 
BRANCH   2   3
ATOM      3  C   UNL     1      -5.010  35.561  24.018  1.00  0.00     0.000 C 
BRANCH   3   4
ATOM      4  C   UNL     1      -5.063  37.025  23.553  1.00  0.00     0.000 C 
BRANCH   4   5
ATOM      5  C   UNL     1      -4.690  38.009  24.676  1.00  0.00     0.000 C 
BRANCH   5   6
ATOM      6  C   UNL     1      -5.118  37.507  26.065  1.00  0.00     0.000 C 
BRANCH   6   7
ATOM      7  C   UNL     1      -4.060  37.793  27.144  1.00  0.00     0.000 C 
BRANCH   7   8
ATOM      8  C   UNL     1      -2.735  38.301  26.553  1.00  0.00     0.000 C 
BRANCH   8   9
ATOM      9  C   UNL     1      -1.532  37.427  26.950  1.00  0.00     0.000 C 
BRANCH   9  10
ATOM     10  C   UNL     1      -1.950  35.987  27.321  1.00  0.00     0.000 C 
BRANCH  10  11
ATOM     11  C   UNL     1      -1.684  35.622  28.795  1.00  0.00     0.000 C 
BRANCH  11  12
ATOM     12  C   UNL     1      -1.349  34.140  29.050  1.00  0.00     0.006 C 
BRANCH  12  13
ATOM     13  C   UNL     1      -0.286  33.911  30.138  1.00  0.00     0.053 C 
BRANCH  13  14
ATOM     14  C   UNL     1       0.940  33.250  29.588  1.00  0.00     0.041 C 
ATOM     15  O   UNL     1       1.083  32.002  29.683  1.00  0.00    -0.550 OA
ATOM     16  O   UNL     1       1.908  34.007  28.943  1.00  0.00    -0.550 OA
ENDBRANCH  13  14
ENDBRANCH  12  13
ENDBRANCH  11  12
ENDBRANCH  10  11
ENDBRANCH   9  10
ENDBRANCH   8   9
ENDBRANCH   7   8
ENDBRANCH   6   7
ENDBRANCH   5   6
ENDBRANCH   4   5
ENDBRANCH   3   4
ENDBRANCH   2   3
ENDBRANCH   1   2
BRANCH   1  17
ATOM     17  C   UNL     1      -3.410  35.577  20.768  1.00  0.00     0.000 C 
BRANCH  17  18
ATOM     18  C   UNL     1      -4.821  35.374  20.187  1.00  0.00     0.000 C 
BRANCH  18  19
ATOM     19  C   UNL     1      -4.917  35.757  18.703  1.00  0.00     0.000 C 
BRANCH  19  20
ATOM     20  C   UNL     1      -4.832  34.512  17.807  1.00  0.00     0.000 C 
BRANCH  20  21
ATOM     21  C   UNL     1      -3.599  34.530  16.888  1.00  0.00     0.000 C 
BRANCH  21  22
ATOM     22  C   UNL     1      -3.798  35.422  15.649  1.00  0.00    -0.000 C 
BRANCH  22  23
ATOM     23  C   UNL     1      -2.488  35.673  14.885  1.00  0.00    -0.000 C 
BRANCH  23  24
ATOM     24  C   UNL     1      -2.358  37.129  14.404  1.00  0.00    -0.000 C 
BRANCH  24  25
ATOM     25  C   UNL     1      -3.302  38.083  15.154  1.00  0.00    -0.000 C 
BRANCH  25  26
ATOM     26  C   UNL     1      -3.036  38.103  16.669  1.00  0.00    -0.000 C 
BRANCH  26  27
ATOM     27  C   UNL     1      -1.731  37.381  17.056  1.00  0.00    -0.000 C 
BRANCH  27  28
ATOM     28  C   UNL     1      -0.839  38.134  18.063  1.00  0.00    -0.000 C 
BRANCH  28  29
ATOM     29  C   UNL     1      -1.296  38.045  19.530  1.00  0.00    -0.003 C 
ATOM     30  C   UNL     1      -0.351  37.215  20.398  1.00  0.00     0.004 C 
ENDBRANCH  28  29
ENDBRANCH  27  28
ENDBRANCH  26  27
ENDBRANCH  25  26
ENDBRANCH  24  25
ENDBRANCH  23  24
ENDBRANCH  22  23
ENDBRANCH  21  22
ENDBRANCH  20  21
ENDBRANCH  19  20
ENDBRANCH  18  19
ENDBRANCH  17  18
ENDBRANCH   1  17
TORSDOF 26
ENDMDL
MODEL 2
REMARK VINA RESULT:    12.048      2.943     10.627
REMARK INTER + INTRA:          29.496
REMARK INTER:                  29.347
REMARK INTRA:                   0.150
REMARK UNBOUND:                -0.864
REMARK SMILES CCCCCCCCCCCCCCCCCCCCCCCCCCCC(=O)[O-]
REMARK SMILES IDX 15 1 16 2 17 3 18 4 19 5 20 6 21 7 22 8 23 9 24 10 25 11
REMARK SMILES IDX 26 12 27 13 28 14 29 15 30 16 14 17 13 18 12 19 11 20 10 21
REMARK SMILES IDX 9 22 8 23 7 24 6 25 5 26 4 27 3 28 2 29 1 30
REMARK H PARENT
REMARK Flexibility Score: inf
ROOT
ATOM      1  C   UNL     1      -4.966  36.749  23.335  1.00  0.00     0.000 C 
ENDROOT
BRANCH   1   2
ATOM      2  C   UNL     1      -4.862  36.170  21.914  1.00  0.00     0.000 C 
BRANCH   2   3
ATOM      3  C   UNL     1      -5.123  37.222  20.822  1.00  0.00     0.000 C 
BRANCH   3   4
ATOM      4  C   UNL     1      -4.503  36.831  19.471  1.00  0.00     0.000 C 
BRANCH   4   5
ATOM      5  C   UNL     1      -4.683  35.336  19.156  1.00  0.00     0.000 C 
BRANCH   5   6
ATOM      6  C   UNL     1      -4.853  35.067  17.652  1.00  0.00     0.000 C 
BRANCH   6   7
ATOM      7  C   UNL     1      -3.539  35.249  16.872  1.00  0.00     0.000 C 
BRANCH   7   8
ATOM      8  C   UNL     1      -3.758  35.857  15.477  1.00  0.00     0.000 C 
BRANCH   8   9
ATOM      9  C   UNL     1      -3.274  37.315  15.381  1.00  0.00     0.000 C 
BRANCH   9  10
ATOM     10  C   UNL     1      -1.759  37.449  15.646  1.00  0.00     0.000 C 
BRANCH  10  11
ATOM     11  C   UNL     1      -1.326  36.970  17.045  1.00  0.00     0.000 C 
BRANCH  11  12
ATOM     12  C   UNL     1      -0.110  37.705  17.640  1.00  0.00     0.006 C 
BRANCH  12  13
ATOM     13  C   UNL     1      -0.018  37.635  19.174  1.00  0.00     0.053 C 
BRANCH  13  14
ATOM     14  C   UNL     1      -1.371  37.633  19.814  1.00  0.00     0.041 C 
ATOM     15  O   UNL     1      -2.033  38.701  19.899  1.00  0.00    -0.550 OA
ATOM     16  O   UNL     1      -1.914  36.446  20.287  1.00  0.00    -0.550 OA
ENDBRANCH  13  14
ENDBRANCH  12  13
ENDBRANCH  11  12
ENDBRANCH  10  11
ENDBRANCH   9  10
ENDBRANCH   8   9
ENDBRANCH   7   8
ENDBRANCH   6   7
ENDBRANCH   5   6
ENDBRANCH   4   5
ENDBRANCH   3   4
ENDBRANCH   2   3
ENDBRANCH   1   2
BRANCH   1  17
ATOM     17  C   UNL     1      -5.124  35.702  24.456  1.00  0.00     0.000 C 
BRANCH  17  18
ATOM     18  C   UNL     1      -4.937  36.243  25.886  1.00  0.00     0.000 C 
BRANCH  18  19
ATOM     19  C   UNL     1      -4.674  37.755  25.924  1.00  0.00     0.000 C 
BRANCH  19  20
ATOM     20  C   UNL     1      -3.768  38.127  27.106  1.00  0.00     0.000 C 
BRANCH  20  21
ATOM     21  C   UNL     1      -2.286  37.821  26.834  1.00  0.00     0.000 C 
BRANCH  21  22
ATOM     22  C   UNL     1      -1.898  36.383  27.225  1.00  0.00    -0.000 C 
BRANCH  22  23
ATOM     23  C   UNL     1      -1.984  36.138  28.740  1.00  0.00    -0.000 C 
BRANCH  23  24
ATOM     24  C   UNL     1      -1.836  34.650  29.104  1.00  0.00    -0.000 C 
BRANCH  24  25
ATOM     25  C   UNL     1      -0.516  34.351  29.834  1.00  0.00    -0.000 C 
BRANCH  25  26
ATOM     26  C   UNL     1      -0.013  32.920  29.577  1.00  0.00    -0.000 C 
BRANCH  26  27
ATOM     27  C   UNL     1       1.513  32.849  29.384  1.00  0.00    -0.000 C 
BRANCH  27  28
ATOM     28  C   UNL     1       2.223  34.211  29.260  1.00  0.00    -0.000 C 
BRANCH  28  29
ATOM     29  C   UNL     1       3.367  34.443  30.262  1.00  0.00    -0.003 C 
ATOM     30  C   UNL     1       4.305  33.243  30.380  1.00  0.00     0.004 C 
ENDBRANCH  28  29
ENDBRANCH  27  28
ENDBRANCH  26  27
ENDBRANCH  25  26
ENDBRANCH  24  25
ENDBRANCH  23  24
ENDBRANCH  22  23
ENDBRANCH  21  22
ENDBRANCH  20  21
ENDBRANCH  19  20
ENDBRANCH  18  19
ENDBRANCH  17  18
ENDBRANCH   1  17
TORSDOF 26
ENDMDL
MODEL 3
REMARK VINA RESULT:    12.242      2.712     10.218
REMARK INTER + INTRA:          29.986
REMARK INTER:                  29.828
REMARK INTRA:                   0.158
REMARK UNBOUND:                -0.864
REMARK SMILES CCCCCCCCCCCCCCCCCCCCCCCCCCCC(=O)[O-]
REMARK SMILES IDX 15 1 16 2 17 3 18 4 19 5 20 6 21 7 22 8 23 9 24 10 25 11
REMARK SMILES IDX 26 12 27 13 28 14 29 15 30 16 14 17 13 18 12 19 11 20 10 21
REMARK SMILES IDX 9 22 8 23 7 24 6 25 5 26 4 27 3 28 2 29 1 30
REMARK H PARENT
REMARK Flexibility Score: inf
ROOT
ATOM      1  C   UNL     1      -4.176  37.795  21.620  1.00  0.00     0.000 C 
ENDROOT
BRANCH   1   2
ATOM      2  C   UNL     1      -4.984  36.750  20.831  1.00  0.00     0.000 C 
BRANCH   2   3
ATOM      3  C   UNL     1      -4.758  36.849  19.312  1.00  0.00     0.000 C 
BRANCH   3   4
ATOM      4  C   UNL     1      -4.585  35.469  18.655  1.00  0.00     0.000 C 
BRANCH   4   5
ATOM      5  C   UNL     1      -4.126  35.573  17.190  1.00  0.00     0.000 C 
BRANCH   5   6
ATOM      6  C   UNL     1      -3.898  37.027  16.746  1.00  0.00     0.000 C 
BRANCH   6   7
ATOM      7  C   UNL     1      -4.049  37.207  15.225  1.00  0.00     0.000 C 
BRANCH   7   8
ATOM      8  C   UNL     1      -3.168  36.235  14.425  1.00  0.00     0.000 C 
BRANCH   8   9
ATOM      9  C   UNL     1      -1.664  36.485  14.635  1.00  0.00     0.000 C 
BRANCH   9  10
ATOM     10  C   UNL     1      -1.224  36.230  16.093  1.00  0.00     0.000 C 
BRANCH  10  11
ATOM     11  C   UNL     1      -1.240  37.492  16.978  1.00  0.00     0.000 C 
BRANCH  11  12
ATOM     12  C   UNL     1      -0.358  37.417  18.239  1.00  0.00     0.006 C 
BRANCH  12  13
ATOM     13  C   UNL     1      -1.030  37.955  19.513  1.00  0.00     0.053 C 
BRANCH  13  14
ATOM     14  C   UNL     1      -0.791  37.061  20.690  1.00  0.00     0.041 C 
ATOM     15  O   UNL     1      -1.631  36.174  20.993  1.00  0.00    -0.550 OA
ATOM     16  O   UNL     1       0.376  37.187  21.431  1.00  0.00    -0.550 OA
ENDBRANCH  13  14
ENDBRANCH  12  13
ENDBRANCH  11  12
ENDBRANCH  10  11
ENDBRANCH   9  10
ENDBRANCH   8   9
ENDBRANCH   7   8
ENDBRANCH   6   7
ENDBRANCH   5   6
ENDBRANCH   4   5
ENDBRANCH   3   4
ENDBRANCH   2   3
ENDBRANCH   1   2
BRANCH   1  17
ATOM     17  C   UNL     1      -4.749  39.227  21.581  1.00  0.00     0.000 C 
BRANCH  17  18
ATOM     18  C   UNL     1      -5.124  39.819  22.952  1.00  0.00     0.000 C 
BRANCH  18  19
ATOM     19  C   UNL     1      -5.069  38.784  24.084  1.00  0.00     0.000 C 
BRANCH  19  20
ATOM     20  C   UNL     1      -4.486  39.399  25.364  1.00  0.00     0.000 C 
BRANCH  20  21
ATOM     21  C   UNL     1      -4.470  38.410  26.541  1.00  0.00     0.000 C 
BRANCH  21  22
ATOM     22  C   UNL     1      -3.565  37.193  26.278  1.00  0.00    -0.000 C 
BRANCH  22  23
ATOM     23  C   UNL     1      -2.292  37.205  27.140  1.00  0.00    -0.000 C 
BRANCH  23  24
ATOM     24  C   UNL     1      -1.811  35.788  27.499  1.00  0.00    -0.000 C 
BRANCH  24  25
ATOM     25  C   UNL     1      -2.178  35.389  28.938  1.00  0.00    -0.000 C 
BRANCH  25  26
ATOM     26  C   UNL     1      -1.656  33.990  29.311  1.00  0.00    -0.000 C 
BRANCH  26  27
ATOM     27  C   UNL     1      -0.394  34.040  30.193  1.00  0.00    -0.000 C 
BRANCH  27  28
ATOM     28  C   UNL     1       0.905  34.426  29.458  1.00  0.00    -0.000 C 
BRANCH  28  29
ATOM     29  C   UNL     1       1.965  33.313  29.383  1.00  0.00    -0.003 C 
ATOM     30  C   UNL     1       1.428  31.951  29.819  1.00  0.00     0.004 C 
ENDBRANCH  28  29
ENDBRANCH  27  28
ENDBRANCH  26  27
ENDBRANCH  25  26
ENDBRANCH  24  25
ENDBRANCH  23  24
ENDBRANCH  22  23
ENDBRANCH  21  22
ENDBRANCH  20  21
ENDBRANCH  19  20
ENDBRANCH  18  19
ENDBRANCH  17  18
ENDBRANCH   1  17
TORSDOF 26
ENDMDL
MODEL 4
REMARK VINA RESULT:    12.583      4.175     10.765
REMARK INTER + INTRA:          30.844
REMARK INTER:                  31.916
REMARK INTRA:                  -1.073
REMARK UNBOUND:                -0.864
REMARK SMILES CCCCCCCCCCCCCCCCCCCCCCCCCCCC(=O)[O-]
REMARK SMILES IDX 15 1 16 2 17 3 18 4 19 5 20 6 21 7 22 8 23 9 24 10 25 11
REMARK SMILES IDX 26 12 27 13 28 14 29 15 30 16 14 17 13 18 12 19 11 20 10 21
REMARK SMILES IDX 9 22 8 23 7 24 6 25 5 26 4 27 3 28 2 29 1 30
REMARK H PARENT
REMARK Flexibility Score: inf
ROOT
ATOM      1  C   UNL     1      -4.958  35.041  24.490  1.00  0.00     0.000 C 
ENDROOT
BRANCH   1   2
ATOM      2  C   UNL     1      -4.605  34.520  23.086  1.00  0.00     0.000 C 
BRANCH   2   3
ATOM      3  C   UNL     1      -5.117  35.441  21.965  1.00  0.00     0.000 C 
BRANCH   3   4
ATOM      4  C   UNL     1      -4.535  35.071  20.590  1.00  0.00     0.000 C 
BRANCH   4   5
ATOM      5  C   UNL     1      -4.578  36.248  19.600  1.00  0.00     0.000 C 
BRANCH   5   6
ATOM      6  C   UNL     1      -4.941  37.577  20.282  1.00  0.00     0.000 C 
BRANCH   6   7
ATOM      7  C   UNL     1      -3.769  38.160  21.092  1.00  0.00     0.000 C 
BRANCH   7   8
ATOM      8  C   UNL     1      -2.623  38.658  20.198  1.00  0.00     0.000 C 
BRANCH   8   9
ATOM      9  C   UNL     1      -1.849  37.510  19.527  1.00  0.00     0.000 C 
BRANCH   9  10
ATOM     10  C   UNL     1      -1.421  37.855  18.083  1.00  0.00     0.000 C 
BRANCH  10  11
ATOM     11  C   UNL     1      -1.020  36.627  17.242  1.00  0.00     0.000 C 
BRANCH  11  12
ATOM     12  C   UNL     1      -1.073  36.835  15.717  1.00  0.00     0.006 C 
BRANCH  12  13
ATOM     13  C   UNL     1      -2.258  36.140  15.025  1.00  0.00     0.053 C 
BRANCH  13  14
ATOM     14  C   UNL     1      -3.568  36.535  15.632  1.00  0.00     0.041 C 
ATOM     15  O   UNL     1      -4.207  35.719  16.346  1.00  0.00    -0.550 OA
ATOM     16  O   UNL     1      -4.067  37.816  15.435  1.00  0.00    -0.550 OA
ENDBRANCH  13  14
ENDBRANCH  12  13
ENDBRANCH  11  12
ENDBRANCH  10  11
ENDBRANCH   9  10
ENDBRANCH   8   9
ENDBRANCH   7   8
ENDBRANCH   6   7
ENDBRANCH   5   6
ENDBRANCH   4   5
ENDBRANCH   3   4
ENDBRANCH   2   3
ENDBRANCH   1   2
BRANCH   1  17
ATOM     17  C   UNL     1      -4.938  36.576  24.640  1.00  0.00     0.000 C 
BRANCH  17  18
ATOM     18  C   UNL     1      -4.959  37.091  26.091  1.00  0.00     0.000 C 
BRANCH  18  19
ATOM     19  C   UNL     1      -4.021  38.285  26.315  1.00  0.00     0.000 C 
BRANCH  19  20
ATOM     20  C   UNL     1      -2.664  37.823  26.864  1.00  0.00     0.000 C 
BRANCH  20  21
ATOM     21  C   UNL     1      -2.653  36.330  27.232  1.00  0.00     0.000 C 
BRANCH  21  22
ATOM     22  C   UNL     1      -1.523  35.971  28.214  1.00  0.00    -0.000 C 
BRANCH  22  23
ATOM     23  C   UNL     1      -1.697  34.574  28.831  1.00  0.00    -0.000 C 
BRANCH  23  24
ATOM     24  C   UNL     1      -0.501  34.166  29.708  1.00  0.00    -0.000 C 
BRANCH  24  25
ATOM     25  C   UNL     1       0.768  33.892  28.884  1.00  0.00    -0.000 C 
BRANCH  25  26
ATOM     26  C   UNL     1       1.913  33.320  29.739  1.00  0.00    -0.000 C 
BRANCH  26  27
ATOM     27  C   UNL     1       3.119  34.272  29.836  1.00  0.00    -0.000 C 
BRANCH  27  28
ATOM     28  C   UNL     1       3.238  35.299  28.691  1.00  0.00    -0.000 C 
BRANCH  28  29
ATOM     29  C   UNL     1       4.493  35.151  27.814  1.00  0.00    -0.003 C 
ATOM     30  C   UNL     1       5.636  34.432  28.528  1.00  0.00     0.004 C 
ENDBRANCH  28  29
ENDBRANCH  27  28
ENDBRANCH  26  27
ENDBRANCH  25  26
ENDBRANCH  24  25
ENDBRANCH  23  24
ENDBRANCH  22  23
ENDBRANCH  21  22
ENDBRANCH  20  21
ENDBRANCH  19  20
ENDBRANCH  18  19
ENDBRANCH  17  18
ENDBRANCH   1  17
TORSDOF 26
ENDMDL
MODEL 5
REMARK VINA RESULT:    12.804      4.601     11.981
REMARK INTER + INTRA:          31.401
REMARK INTER:                  30.715
REMARK INTRA:                   0.686
REMARK UNBOUND:                -0.864
REMARK SMILES CCCCCCCCCCCCCCCCCCCCCCCCCCCC(=O)[O-]
REMARK SMILES IDX 15 1 16 2 17 3 18 4 19 5 20 6 21 7 22 8 23 9 24 10 25 11
REMARK SMILES IDX 26 12 27 13 28 14 29 15 30 16 14 17 13 18 12 19 11 20 10 21
REMARK SMILES IDX 9 22 8 23 7 24 6 25 5 26 4 27 3 28 2 29 1 30
REMARK H PARENT
REMARK Flexibility Score: inf
ROOT
ATOM      1  C   UNL     1      -4.531  35.473  24.431  1.00  0.00     0.000 C 
ENDROOT
BRANCH   1   2
ATOM      2  C   UNL     1      -5.124  34.971  23.103  1.00  0.00     0.000 C 
BRANCH   2   3
ATOM      3  C   UNL     1      -4.874  35.941  21.936  1.00  0.00     0.000 C 
BRANCH   3   4
ATOM      4  C   UNL     1      -4.940  35.241  20.568  1.00  0.00     0.000 C 
BRANCH   4   5
ATOM      5  C   UNL     1      -4.911  36.240  19.398  1.00  0.00     0.000 C 
BRANCH   5   6
ATOM      6  C   UNL     1      -4.353  37.612  19.810  1.00  0.00     0.000 C 
BRANCH   6   7
ATOM      7  C   UNL     1      -2.864  37.549  20.193  1.00  0.00     0.000 C 
BRANCH   7   8
ATOM      8  C   UNL     1      -1.934  37.804  18.996  1.00  0.00     0.000 C 
BRANCH   8   9
ATOM      9  C   UNL     1      -2.677  37.779  17.649  1.00  0.00     0.000 C 
BRANCH   9  10
ATOM     10  C   UNL     1      -2.048  36.783  16.650  1.00  0.00     0.000 C 
BRANCH  10  11
ATOM     11  C   UNL     1      -3.065  35.815  16.012  1.00  0.00     0.000 C 
BRANCH  11  12
ATOM     12  C   UNL     1      -3.102  35.830  14.472  1.00  0.00     0.006 C 
BRANCH  12  13
ATOM     13  C   UNL     1      -4.200  36.726  13.875  1.00  0.00     0.053 C 
BRANCH  13  14
ATOM     14  C   UNL     1      -4.067  38.147  14.327  1.00  0.00     0.041 C 
ATOM     15  O   UNL     1      -5.029  38.948  14.191  1.00  0.00    -0.550 OA
ATOM     16  O   UNL     1      -2.891  38.578  14.927  1.00  0.00    -0.550 OA
ENDBRANCH  13  14
ENDBRANCH  12  13
ENDBRANCH  11  12
ENDBRANCH  10  11
ENDBRANCH   9  10
ENDBRANCH   8   9
ENDBRANCH   7   8
ENDBRANCH   6   7
ENDBRANCH   5   6
ENDBRANCH   4   5
ENDBRANCH   3   4
ENDBRANCH   2   3
ENDBRANCH   1   2
BRANCH   1  17
ATOM     17  C   UNL     1      -5.093  36.821  24.927  1.00  0.00     0.000 C 
BRANCH  17  18
ATOM     18  C   UNL     1      -4.579  37.275  26.307  1.00  0.00     0.000 C 
BRANCH  18  19
ATOM     19  C   UNL     1      -3.187  36.719  26.638  1.00  0.00     0.000 C 
BRANCH  19  20
ATOM     20  C   UNL     1      -3.250  35.753  27.830  1.00  0.00     0.000 C 
BRANCH  20  21
ATOM     21  C   UNL     1      -1.857  35.288  28.287  1.00  0.00     0.000 C 
BRANCH  21  22
ATOM     22  C   UNL     1      -1.866  34.707  29.712  1.00  0.00    -0.000 C 
BRANCH  22  23
ATOM     23  C   UNL     1      -0.802  33.617  29.914  1.00  0.00    -0.000 C 
BRANCH  23  24
ATOM     24  C   UNL     1       0.604  34.084  29.496  1.00  0.00    -0.000 C 
BRANCH  24  25
ATOM     25  C   UNL     1       1.585  32.912  29.320  1.00  0.00    -0.000 C 
BRANCH  25  26
ATOM     26  C   UNL     1       0.974  31.565  29.746  1.00  0.00    -0.000 C 
BRANCH  26  27
ATOM     27  C   UNL     1       2.003  30.623  30.398  1.00  0.00    -0.000 C 
BRANCH  27  28
ATOM     28  C   UNL     1       3.326  31.290  30.825  1.00  0.00    -0.000 C 
BRANCH  28  29
ATOM     29  C   UNL     1       4.593  30.679  30.201  1.00  0.00    -0.003 C 
ATOM     30  C   UNL     1       4.562  29.152  30.169  1.00  0.00     0.004 C 
ENDBRANCH  28  29
ENDBRANCH  27  28
ENDBRANCH  26  27
ENDBRANCH  25  26
ENDBRANCH  24  25
ENDBRANCH  23  24
ENDBRANCH  22  23
ENDBRANCH  21  22
ENDBRANCH  20  21
ENDBRANCH  19  20
ENDBRANCH  18  19
ENDBRANCH  17  18
ENDBRANCH   1  17
TORSDOF 26
ENDMDL
