MODEL 1
REMARK VINA RESULT:    -4.849      0.000      0.000
REMARK INTER + INTRA:         -17.788
REMARK INTER:                 -12.786
REMARK INTRA:                  -5.002
REMARK UNBOUND:                -5.002
REMARK SMILES CCCCCCCCCCCCCCCCCCCCCCCCCCCCCC(=O)[O-]
REMARK SMILES IDX 16 1 17 2 18 3 19 4 20 5 21 6 22 7 23 8 24 9 25 10 26 11
REMARK SMILES IDX 27 12 28 13 29 14 30 15 31 16 32 17 15 18 14 19 13 20 12 21
REMARK SMILES IDX 11 22 10 23 9 24 8 25 7 26 6 27 5 28 4 29 3 30 2 31 1 32
REMARK H PARENT
REMARK Flexibility Score: inf
ROOT
ATOM      1  C   UNL     1      18.793  16.352  46.349  1.00  0.00     0.000 C 
ENDROOT
BRANCH   1   2
ATOM      2  C   UNL     1      20.169  16.016  46.960  1.00  0.00     0.000 C 
BRANCH   2   3
ATOM      3  C   UNL     1      20.555  16.855  48.192  1.00  0.00     0.000 C 
BRANCH   3   4
ATOM      4  C   UNL     1      21.243  18.176  47.820  1.00  0.00     0.000 C 
BRANCH   4   5
ATOM      5  C   UNL     1      20.473  19.376  48.391  1.00  0.00     0.000 C 
BRANCH   5   6
ATOM      6  C   UNL     1      20.095  20.406  47.312  1.00  0.00     0.000 C 
BRANCH   6   7
ATOM      7  C   UNL     1      18.580  20.668  47.252  1.00  0.00     0.000 C 
BRANCH   7   8
ATOM      8  C   UNL     1      17.969  20.289  45.894  1.00  0.00     0.000 C 
BRANCH   8   9
ATOM      9  C   UNL     1      19.030  19.834  44.875  1.00  0.00     0.000 C 
BRANCH   9  10
ATOM     10  C   UNL     1      18.413  19.313  43.565  1.00  0.00     0.000 C 
BRANCH  10  11
ATOM     11  C   UNL     1      17.554  18.045  43.717  1.00  0.00     0.000 C 
BRANCH  11  12
ATOM     12  C   UNL     1      16.679  17.703  42.495  1.00  0.00     0.000 C 
BRANCH  12  13
ATOM     13  C   UNL     1      15.165  17.853  42.757  1.00  0.00     0.006 C 
BRANCH  13  14
ATOM     14  C   UNL     1      14.869  18.524  44.105  1.00  0.00     0.053 C 
BRANCH  14  15
ATOM     15  C   UNL     1      13.634  17.944  44.716  1.00  0.00     0.041 C 
ATOM     16  O   UNL     1      12.912  18.643  45.474  1.00  0.00    -0.550 OA
ATOM     17  O   UNL     1      13.255  16.643  44.414  1.00  0.00    -0.550 OA
ENDBRANCH  14  15
ENDBRANCH  13  14
ENDBRANCH  12  13
ENDBRANCH  11  12
ENDBRANCH  10  11
ENDBRANCH   9  10
ENDBRANCH   8   9
ENDBRANCH   7   8
ENDBRANCH   6   7
ENDBRANCH   5   6
ENDBRANCH   4   5
ENDBRANCH   3   4
ENDBRANCH   2   3
ENDBRANCH   1   2
BRANCH   1  18
ATOM     18  C   UNL     1      17.758  16.914  47.340  1.00  0.00     0.000 C 
BRANCH  18  19
ATOM     19  C   UNL     1      16.319  16.500  46.996  1.00  0.00     0.000 C 
BRANCH  19  20
ATOM     20  C   UNL     1      16.298  15.434  45.895  1.00  0.00     0.000 C 
BRANCH  20  21
ATOM     21  C   UNL     1      15.433  14.237  46.309  1.00  0.00     0.000 C 
BRANCH  21  22
ATOM     22  C   UNL     1      16.008  12.923  45.763  1.00  0.00     0.000 C 
BRANCH  22  23
ATOM     23  C   UNL     1      16.357  11.932  46.887  1.00  0.00     0.000 C 
BRANCH  23  24
ATOM     24  C   UNL     1      17.854  11.569  46.896  1.00  0.00    -0.000 C 
BRANCH  24  25
ATOM     25  C   UNL     1      18.724  12.586  46.127  1.00  0.00    -0.000 C 
BRANCH  25  26
ATOM     26  C   UNL     1      20.235  12.291  46.181  1.00  0.00    -0.000 C 
BRANCH  26  27
ATOM     27  C   UNL     1      20.785  11.893  47.564  1.00  0.00    -0.000 C 
BRANCH  27  28
ATOM     28  C   UNL     1      21.518  13.017  48.320  1.00  0.00    -0.000 C 
BRANCH  28  29
ATOM     29  C   UNL     1      22.948  13.248  47.804  1.00  0.00    -0.000 C 
BRANCH  29  30
ATOM     30  C   UNL     1      23.512  14.625  48.199  1.00  0.00    -0.000 C 
BRANCH  30  31
ATOM     31  C   UNL     1      24.034  14.715  49.645  1.00  0.00    -0.003 C 
ATOM     32  C   UNL     1      23.049  15.393  50.598  1.00  0.00     0.004 C 
ENDBRANCH  30  31
ENDBRANCH  29  30
ENDBRANCH  28  29
ENDBRANCH  27  28
ENDBRANCH  26  27
ENDBRANCH  25  26
ENDBRANCH  24  25
ENDBRANCH  23  24
ENDBRANCH  22  23
ENDBRANCH  21  22
ENDBRANCH  20  21
ENDBRANCH  19  20
ENDBRANCH  18  19
ENDBRANCH   1  18
TORSDOF 28
ENDMDL
MODEL 2
REMARK VINA RESULT:    -4.821      1.379      2.783
REMARK INTER + INTRA:         -17.716
REMARK INTER:                 -13.251
REMARK INTRA:                  -4.465
REMARK UNBOUND:                -5.002
REMARK SMILES CCCCCCCCCCCCCCCCCCCCCCCCCCCCCC(=O)[O-]
REMARK SMILES IDX 16 1 17 2 18 3 19 4 20 5 21 6 22 7 23 8 24 9 25 10 26 11
REMARK SMILES IDX 27 12 28 13 29 14 30 15 31 16 32 17 15 18 14 19 13 20 12 21
REMARK SMILES IDX 11 22 10 23 9 24 8 25 7 26 6 27 5 28 4 29 3 30 2 31 1 32
REMARK H PARENT
REMARK Flexibility Score: inf
ROOT
ATOM      1  C   UNL     1      17.659  17.153  47.256  1.00  0.00     0.000 C 
ENDROOT
BRANCH   1   2
ATOM      2  C   UNL     1      18.968  17.096  46.442  1.00  0.00     0.000 C 
BRANCH   2   3
ATOM      3  C   UNL     1      20.174  16.502  47.191  1.00  0.00     0.000 C 
BRANCH   3   4
ATOM      4  C   UNL     1      20.287  17.010  48.635  1.00  0.00     0.000 C 
BRANCH   4   5
ATOM      5  C   UNL     1      21.025  18.356  48.688  1.00  0.00     0.000 C 
BRANCH   5   6
ATOM      6  C   UNL     1      20.084  19.537  48.981  1.00  0.00     0.000 C 
BRANCH   6   7
ATOM      7  C   UNL     1      20.051  20.564  47.836  1.00  0.00     0.000 C 
BRANCH   7   8
ATOM      8  C   UNL     1      18.655  20.703  47.208  1.00  0.00     0.000 C 
BRANCH   8   9
ATOM      9  C   UNL     1      18.697  21.352  45.813  1.00  0.00     0.000 C 
BRANCH   9  10
ATOM     10  C   UNL     1      19.266  20.413  44.736  1.00  0.00     0.000 C 
BRANCH  10  11
ATOM     11  C   UNL     1      18.463  20.376  43.423  1.00  0.00     0.000 C 
BRANCH  11  12
ATOM     12  C   UNL     1      17.143  19.585  43.490  1.00  0.00     0.000 C 
BRANCH  12  13
ATOM     13  C   UNL     1      17.337  18.054  43.447  1.00  0.00     0.006 C 
BRANCH  13  14
ATOM     14  C   UNL     1      16.761  17.428  42.170  1.00  0.00     0.053 C 
BRANCH  14  15
ATOM     15  C   UNL     1      15.745  16.386  42.513  1.00  0.00     0.041 C 
ATOM     16  O   UNL     1      15.900  15.198  42.128  1.00  0.00    -0.550 OA
ATOM     17  O   UNL     1      14.647  16.717  43.296  1.00  0.00    -0.550 OA
ENDBRANCH  14  15
ENDBRANCH  13  14
ENDBRANCH  12  13
ENDBRANCH  11  12
ENDBRANCH  10  11
ENDBRANCH   9  10
ENDBRANCH   8   9
ENDBRANCH   7   8
ENDBRANCH   6   7
ENDBRANCH   5   6
ENDBRANCH   4   5
ENDBRANCH   3   4
ENDBRANCH   2   3
ENDBRANCH   1   2
BRANCH   1  18
ATOM     18  C   UNL     1      16.591  16.122  46.849  1.00  0.00     0.000 C 
BRANCH  18  19
ATOM     19  C   UNL     1      17.056  15.201  45.711  1.00  0.00     0.000 C 
BRANCH  19  20
ATOM     20  C   UNL     1      17.147  13.745  46.180  1.00  0.00     0.000 C 
BRANCH  20  21
ATOM     21  C   UNL     1      18.604  13.265  46.192  1.00  0.00     0.000 C 
BRANCH  21  22
ATOM     22  C   UNL     1      18.731  11.898  46.880  1.00  0.00     0.000 C 
BRANCH  22  23
ATOM     23  C   UNL     1      20.088  11.730  47.586  1.00  0.00     0.000 C 
BRANCH  23  24
ATOM     24  C   UNL     1      21.073  12.858  47.224  1.00  0.00    -0.000 C 
BRANCH  24  25
ATOM     25  C   UNL     1      22.550  12.419  47.316  1.00  0.00    -0.000 C 
BRANCH  25  26
ATOM     26  C   UNL     1      23.433  13.352  48.166  1.00  0.00    -0.000 C 
BRANCH  26  27
ATOM     27  C   UNL     1      23.149  14.858  48.012  1.00  0.00    -0.000 C 
BRANCH  27  28
ATOM     28  C   UNL     1      24.005  15.776  48.906  1.00  0.00    -0.000 C 
BRANCH  28  29
ATOM     29  C   UNL     1      24.689  15.017  50.055  1.00  0.00    -0.000 C 
BRANCH  29  30
ATOM     30  C   UNL     1      23.909  15.107  51.379  1.00  0.00    -0.000 C 
BRANCH  30  31
ATOM     31  C   UNL     1      22.890  16.259  51.448  1.00  0.00    -0.003 C 
ATOM     32  C   UNL     1      21.467  15.785  51.744  1.00  0.00     0.004 C 
ENDBRANCH  30  31
ENDBRANCH  29  30
ENDBRANCH  28  29
ENDBRANCH  27  28
ENDBRANCH  26  27
ENDBRANCH  25  26
ENDBRANCH  24  25
ENDBRANCH  23  24
ENDBRANCH  22  23
ENDBRANCH  21  22
ENDBRANCH  20  21
ENDBRANCH  19  20
ENDBRANCH  18  19
ENDBRANCH   1  18
TORSDOF 28
ENDMDL
MODEL 3
REMARK VINA RESULT:    -4.806      2.624      6.484
REMARK INTER + INTRA:         -17.674
REMARK INTER:                 -11.694
REMARK INTRA:                  -5.980
REMARK UNBOUND:                -5.002
REMARK SMILES CCCCCCCCCCCCCCCCCCCCCCCCCCCCCC(=O)[O-]
REMARK SMILES IDX 16 1 17 2 18 3 19 4 20 5 21 6 22 7 23 8 24 9 25 10 26 11
REMARK SMILES IDX 27 12 28 13 29 14 30 15 31 16 32 17 15 18 14 19 13 20 12 21
REMARK SMILES IDX 11 22 10 23 9 24 8 25 7 26 6 27 5 28 4 29 3 30 2 31 1 32
REMARK H PARENT
REMARK Flexibility Score: inf
ROOT
ATOM      1  C   UNL     1      18.486  19.556  43.878  1.00  0.00     0.000 C 
ENDROOT
BRANCH   1   2
ATOM      2  C   UNL     1      17.019  19.489  44.350  1.00  0.00     0.000 C 
BRANCH   2   3
ATOM      3  C   UNL     1      16.222  18.280  43.827  1.00  0.00     0.000 C 
BRANCH   3   4
ATOM      4  C   UNL     1      17.029  17.415  42.849  1.00  0.00     0.000 C 
BRANCH   4   5
ATOM      5  C   UNL     1      16.615  15.939  42.950  1.00  0.00     0.000 C 
BRANCH   5   6
ATOM      6  C   UNL     1      15.089  15.748  42.906  1.00  0.00     0.000 C 
BRANCH   6   7
ATOM      7  C   UNL     1      14.674  14.494  42.116  1.00  0.00     0.000 C 
BRANCH   7   8
ATOM      8  C   UNL     1      14.728  14.710  40.596  1.00  0.00     0.000 C 
BRANCH   8   9
ATOM      9  C   UNL     1      13.673  15.718  40.105  1.00  0.00     0.000 C 
BRANCH   9  10
ATOM     10  C   UNL     1      14.276  16.841  39.244  1.00  0.00     0.000 C 
BRANCH  10  11
ATOM     11  C   UNL     1      14.891  18.006  40.042  1.00  0.00     0.000 C 
BRANCH  11  12
ATOM     12  C   UNL     1      13.922  18.714  41.007  1.00  0.00     0.000 C 
BRANCH  12  13
ATOM     13  C   UNL     1      14.263  20.201  41.245  1.00  0.00     0.006 C 
BRANCH  13  14
ATOM     14  C   UNL     1      15.712  20.535  40.867  1.00  0.00     0.053 C 
BRANCH  14  15
ATOM     15  C   UNL     1      16.148  21.797  41.541  1.00  0.00     0.041 C 
ATOM     16  O   UNL     1      17.372  22.074  41.639  1.00  0.00    -0.550 OA
ATOM     17  O   UNL     1      15.200  22.690  42.023  1.00  0.00    -0.550 OA
ENDBRANCH  14  15
ENDBRANCH  13  14
ENDBRANCH  12  13
ENDBRANCH  11  12
ENDBRANCH  10  11
ENDBRANCH   9  10
ENDBRANCH   8   9
ENDBRANCH   7   8
ENDBRANCH   6   7
ENDBRANCH   5   6
ENDBRANCH   4   5
ENDBRANCH   3   4
ENDBRANCH   2   3
ENDBRANCH   1   2
BRANCH   1  18
ATOM     18  C   UNL     1      19.492  20.035  44.939  1.00  0.00     0.000 C 
BRANCH  18  19
ATOM     19  C   UNL     1      18.843  20.274  46.311  1.00  0.00     0.000 C 
BRANCH  19  20
ATOM     20  C   UNL     1      19.802  19.903  47.448  1.00  0.00     0.000 C 
BRANCH  20  21
ATOM     21  C   UNL     1      21.105  19.315  46.894  1.00  0.00     0.000 C 
BRANCH  21  22
ATOM     22  C   UNL     1      21.504  18.040  47.651  1.00  0.00     0.000 C 
BRANCH  22  23
ATOM     23  C   UNL     1      20.283  17.175  48.010  1.00  0.00     0.000 C 
BRANCH  23  24
ATOM     24  C   UNL     1      19.940  16.167  46.897  1.00  0.00    -0.000 C 
BRANCH  24  25
ATOM     25  C   UNL     1      18.664  16.544  46.115  1.00  0.00    -0.000 C 
BRANCH  25  26
ATOM     26  C   UNL     1      17.420  16.754  47.001  1.00  0.00    -0.000 C 
BRANCH  26  27
ATOM     27  C   UNL     1      16.230  15.821  46.705  1.00  0.00    -0.000 C 
BRANCH  27  28
ATOM     28  C   UNL     1      16.608  14.351  46.440  1.00  0.00    -0.000 C 
BRANCH  28  29
ATOM     29  C   UNL     1      15.471  13.555  45.776  1.00  0.00    -0.000 C 
BRANCH  29  30
ATOM     30  C   UNL     1      15.969  12.288  45.058  1.00  0.00    -0.000 C 
BRANCH  30  31
ATOM     31  C   UNL     1      17.207  12.498  44.168  1.00  0.00    -0.003 C 
ATOM     32  C   UNL     1      18.448  11.769  44.684  1.00  0.00     0.004 C 
ENDBRANCH  30  31
ENDBRANCH  29  30
ENDBRANCH  28  29
ENDBRANCH  27  28
ENDBRANCH  26  27
ENDBRANCH  25  26
ENDBRANCH  24  25
ENDBRANCH  23  24
ENDBRANCH  22  23
ENDBRANCH  21  22
ENDBRANCH  20  21
ENDBRANCH  19  20
ENDBRANCH  18  19
ENDBRANCH   1  18
TORSDOF 28
ENDMDL
MODEL 4
REMARK VINA RESULT:    -4.787      1.648      5.709
REMARK INTER + INTRA:         -17.626
REMARK INTER:                 -12.143
REMARK INTRA:                  -5.483
REMARK UNBOUND:                -5.002
REMARK SMILES CCCCCCCCCCCCCCCCCCCCCCCCCCCCCC(=O)[O-]
REMARK SMILES IDX 16 1 17 2 18 3 19 4 20 5 21 6 22 7 23 8 24 9 25 10 26 11
REMARK SMILES IDX 27 12 28 13 29 14 30 15 31 16 32 17 15 18 14 19 13 20 12 21
REMARK SMILES IDX 11 22 10 23 9 24 8 25 7 26 6 27 5 28 4 29 3 30 2 31 1 32
REMARK H PARENT
REMARK Flexibility Score: inf
ROOT
ATOM      1  C   UNL     1      18.735  16.182  46.385  1.00  0.00     0.000 C 
ENDROOT
BRANCH   1   2
ATOM      2  C   UNL     1      18.409  14.723  46.009  1.00  0.00     0.000 C 
BRANCH   2   3
ATOM      3  C   UNL     1      19.476  13.692  46.418  1.00  0.00     0.000 C 
BRANCH   3   4
ATOM      4  C   UNL     1      19.235  12.308  45.799  1.00  0.00     0.000 C 
BRANCH   4   5
ATOM      5  C   UNL     1      18.118  12.365  44.746  1.00  0.00     0.000 C 
BRANCH   5   6
ATOM      6  C   UNL     1      16.958  11.404  45.059  1.00  0.00     0.000 C 
BRANCH   6   7
ATOM      7  C   UNL     1      16.748  11.206  46.570  1.00  0.00     0.000 C 
BRANCH   7   8
ATOM      8  C   UNL     1      15.451  11.857  47.076  1.00  0.00     0.000 C 
BRANCH   8   9
ATOM      9  C   UNL     1      14.800  12.773  46.024  1.00  0.00     0.000 C 
BRANCH   9  10
ATOM     10  C   UNL     1      14.932  14.266  46.370  1.00  0.00     0.000 C 
BRANCH  10  11
ATOM     11  C   UNL     1      14.879  15.216  45.160  1.00  0.00     0.000 C 
BRANCH  11  12
ATOM     12  C   UNL     1      14.676  14.524  43.799  1.00  0.00     0.000 C 
BRANCH  12  13
ATOM     13  C   UNL     1      15.926  14.558  42.895  1.00  0.00     0.006 C 
BRANCH  13  14
ATOM     14  C   UNL     1      16.479  15.978  42.717  1.00  0.00     0.053 C 
BRANCH  14  15
ATOM     15  C   UNL     1      15.483  16.841  42.011  1.00  0.00     0.041 C 
ATOM     16  O   UNL     1      15.173  17.967  42.480  1.00  0.00    -0.550 OA
ATOM     17  O   UNL     1      14.929  16.420  40.809  1.00  0.00    -0.550 OA
ENDBRANCH  14  15
ENDBRANCH  13  14
ENDBRANCH  12  13
ENDBRANCH  11  12
ENDBRANCH  10  11
ENDBRANCH   9  10
ENDBRANCH   8   9
ENDBRANCH   7   8
ENDBRANCH   6   7
ENDBRANCH   5   6
ENDBRANCH   4   5
ENDBRANCH   3   4
ENDBRANCH   2   3
ENDBRANCH   1   2
BRANCH   1  18
ATOM     18  C   UNL     1      17.667  16.891  47.237  1.00  0.00     0.000 C 
BRANCH  18  19
ATOM     19  C   UNL     1      16.975  18.041  46.489  1.00  0.00     0.000 C 
BRANCH  19  20
ATOM     20  C   UNL     1      17.588  18.245  45.099  1.00  0.00     0.000 C 
BRANCH  20  21
ATOM     21  C   UNL     1      17.665  19.735  44.749  1.00  0.00     0.000 C 
BRANCH  21  22
ATOM     22  C   UNL     1      19.079  20.287  44.984  1.00  0.00     0.000 C 
BRANCH  22  23
ATOM     23  C   UNL     1      19.197  21.019  46.332  1.00  0.00     0.000 C 
BRANCH  23  24
ATOM     24  C   UNL     1      20.119  20.275  47.316  1.00  0.00    -0.000 C 
BRANCH  24  25
ATOM     25  C   UNL     1      20.868  19.095  46.663  1.00  0.00    -0.000 C 
BRANCH  25  26
ATOM     26  C   UNL     1      21.733  18.277  47.642  1.00  0.00    -0.000 C 
BRANCH  26  27
ATOM     27  C   UNL     1      21.011  17.782  48.910  1.00  0.00    -0.000 C 
BRANCH  27  28
ATOM     28  C   UNL     1      21.183  16.280  49.210  1.00  0.00    -0.000 C 
BRANCH  28  29
ATOM     29  C   UNL     1      22.010  15.550  48.139  1.00  0.00    -0.000 C 
BRANCH  29  30
ATOM     30  C   UNL     1      23.231  14.817  48.724  1.00  0.00    -0.000 C 
BRANCH  30  31
ATOM     31  C   UNL     1      24.077  15.655  49.700  1.00  0.00    -0.003 C 
ATOM     32  C   UNL     1      24.151  15.050  51.102  1.00  0.00     0.004 C 
ENDBRANCH  30  31
ENDBRANCH  29  30
ENDBRANCH  28  29
ENDBRANCH  27  28
ENDBRANCH  26  27
ENDBRANCH  25  26
ENDBRANCH  24  25
ENDBRANCH  23  24
ENDBRANCH  22  23
ENDBRANCH  21  22
ENDBRANCH  20  21
ENDBRANCH  19  20
ENDBRANCH  18  19
ENDBRANCH   1  18
TORSDOF 28
ENDMDL
MODEL 5
REMARK VINA RESULT:    -4.785      3.415      8.977
REMARK INTER + INTRA:         -17.620
REMARK INTER:                 -13.128
REMARK INTRA:                  -4.492
REMARK UNBOUND:                -5.002
REMARK SMILES CCCCCCCCCCCCCCCCCCCCCCCCCCCCCC(=O)[O-]
REMARK SMILES IDX 16 1 17 2 18 3 19 4 20 5 21 6 22 7 23 8 24 9 25 10 26 11
REMARK SMILES IDX 27 12 28 13 29 14 30 15 31 16 32 17 15 18 14 19 13 20 12 21
REMARK SMILES IDX 11 22 10 23 9 24 8 25 7 26 6 27 5 28 4 29 3 30 2 31 1 32
REMARK H PARENT
REMARK Flexibility Score: inf
ROOT
ATOM      1  C   UNL     1      18.618  16.372  46.239  1.00  0.00     0.000 C 
ENDROOT
BRANCH   1   2
ATOM      2  C   UNL     1      17.477  16.769  47.197  1.00  0.00     0.000 C 
BRANCH   2   3
ATOM      3  C   UNL     1      16.078  16.282  46.780  1.00  0.00     0.000 C 
BRANCH   3   4
ATOM      4  C   UNL     1      16.127  15.156  45.737  1.00  0.00     0.000 C 
BRANCH   4   5
ATOM      5  C   UNL     1      15.640  13.829  46.338  1.00  0.00     0.000 C 
BRANCH   5   6
ATOM      6  C   UNL     1      16.754  12.772  46.424  1.00  0.00     0.000 C 
BRANCH   6   7
ATOM      7  C   UNL     1      17.805  12.930  45.311  1.00  0.00     0.000 C 
BRANCH   7   8
ATOM      8  C   UNL     1      19.232  12.638  45.800  1.00  0.00     0.000 C 
BRANCH   8   9
ATOM      9  C   UNL     1      19.254  11.808  47.096  1.00  0.00     0.000 C 
BRANCH   9  10
ATOM     10  C   UNL     1      20.563  11.973  47.887  1.00  0.00     0.000 C 
BRANCH  10  11
ATOM     11  C   UNL     1      21.537  13.018  47.312  1.00  0.00     0.000 C 
BRANCH  11  12
ATOM     12  C   UNL     1      22.846  13.192  48.105  1.00  0.00     0.000 C 
BRANCH  12  13
ATOM     13  C   UNL     1      23.105  14.644  48.559  1.00  0.00     0.006 C 
BRANCH  13  14
ATOM     14  C   UNL     1      22.404  14.976  49.883  1.00  0.00     0.053 C 
BRANCH  14  15
ATOM     15  C   UNL     1      23.411  15.284  50.944  1.00  0.00     0.041 C 
ATOM     16  O   UNL     1      23.125  16.074  51.881  1.00  0.00    -0.550 OA
ATOM     17  O   UNL     1      24.653  14.664  50.923  1.00  0.00    -0.550 OA
ENDBRANCH  14  15
ENDBRANCH  13  14
ENDBRANCH  12  13
ENDBRANCH  11  12
ENDBRANCH  10  11
ENDBRANCH   9  10
ENDBRANCH   8   9
ENDBRANCH   7   8
ENDBRANCH   6   7
ENDBRANCH   5   6
ENDBRANCH   4   5
ENDBRANCH   3   4
ENDBRANCH   2   3
ENDBRANCH   1   2
BRANCH   1  18
ATOM     18  C   UNL     1      19.993  16.178  46.904  1.00  0.00     0.000 C 
BRANCH  18  19
ATOM     19  C   UNL     1      20.239  17.161  48.059  1.00  0.00     0.000 C 
BRANCH  19  20
ATOM     20  C   UNL     1      21.411  18.099  47.747  1.00  0.00     0.000 C 
BRANCH  20  21
ATOM     21  C   UNL     1      21.014  19.134  46.687  1.00  0.00     0.000 C 
BRANCH  21  22
ATOM     22  C   UNL     1      20.137  20.240  47.294  1.00  0.00     0.000 C 
BRANCH  22  23
ATOM     23  C   UNL     1      18.713  20.233  46.713  1.00  0.00     0.000 C 
BRANCH  23  24
ATOM     24  C   UNL     1      18.628  20.995  45.378  1.00  0.00    -0.000 C 
BRANCH  24  25
ATOM     25  C   UNL     1      18.483  20.059  44.159  1.00  0.00    -0.000 C 
BRANCH  25  26
ATOM     26  C   UNL     1      17.210  19.191  44.178  1.00  0.00    -0.000 C 
BRANCH  26  27
ATOM     27  C   UNL     1      17.287  17.883  43.367  1.00  0.00    -0.000 C 
BRANCH  27  28
ATOM     28  C   UNL     1      15.944  17.400  42.785  1.00  0.00    -0.000 C 
BRANCH  28  29
ATOM     29  C   UNL     1      15.117  18.542  42.170  1.00  0.00    -0.000 C 
BRANCH  29  30
ATOM     30  C   UNL     1      15.344  18.695  40.655  1.00  0.00    -0.000 C 
BRANCH  30  31
ATOM     31  C   UNL     1      14.239  18.084  39.775  1.00  0.00    -0.003 C 
ATOM     32  C   UNL     1      14.476  16.609  39.451  1.00  0.00     0.004 C 
ENDBRANCH  30  31
ENDBRANCH  29  30
ENDBRANCH  28  29
ENDBRANCH  27  28
ENDBRANCH  26  27
ENDBRANCH  25  26
ENDBRANCH  24  25
ENDBRANCH  23  24
ENDBRANCH  22  23
ENDBRANCH  21  22
ENDBRANCH  20  21
ENDBRANCH  19  20
ENDBRANCH  18  19
ENDBRANCH   1  18
TORSDOF 28
ENDMDL
MODEL 6
REMARK VINA RESULT:    -4.718      2.231      6.014
REMARK INTER + INTRA:         -17.441
REMARK INTER:                 -11.957
REMARK INTRA:                  -5.484
REMARK UNBOUND:                -5.002
REMARK SMILES CCCCCCCCCCCCCCCCCCCCCCCCCCCCCC(=O)[O-]
REMARK SMILES IDX 16 1 17 2 18 3 19 4 20 5 21 6 22 7 23 8 24 9 25 10 26 11
REMARK SMILES IDX 27 12 28 13 29 14 30 15 31 16 32 17 15 18 14 19 13 20 12 21
REMARK SMILES IDX 11 22 10 23 9 24 8 25 7 26 6 27 5 28 4 29 3 30 2 31 1 32
REMARK H PARENT
REMARK Flexibility Score: inf
ROOT
ATOM      1  C   UNL     1      20.242  13.678  46.786  1.00  0.00     0.000 C 
ENDROOT
BRANCH   1   2
ATOM      2  C   UNL     1      20.310  15.175  47.150  1.00  0.00     0.000 C 
BRANCH   2   3
ATOM      3  C   UNL     1      21.544  15.589  47.974  1.00  0.00     0.000 C 
BRANCH   3   4
ATOM      4  C   UNL     1      21.717  17.112  48.061  1.00  0.00     0.000 C 
BRANCH   4   5
ATOM      5  C   UNL     1      21.112  17.660  49.363  1.00  0.00     0.000 C 
BRANCH   5   6
ATOM      6  C   UNL     1      20.589  19.098  49.213  1.00  0.00     0.000 C 
BRANCH   6   7
ATOM      7  C   UNL     1      19.583  19.244  48.059  1.00  0.00     0.000 C 
BRANCH   7   8
ATOM      8  C   UNL     1      19.602  20.647  47.433  1.00  0.00     0.000 C 
BRANCH   8   9
ATOM      9  C   UNL     1      18.190  21.172  47.116  1.00  0.00     0.000 C 
BRANCH   9  10
ATOM     10  C   UNL     1      18.063  21.712  45.681  1.00  0.00     0.000 C 
BRANCH  10  11
ATOM     11  C   UNL     1      18.995  21.042  44.655  1.00  0.00     0.000 C 
BRANCH  11  12
ATOM     12  C   UNL     1      18.687  21.376  43.182  1.00  0.00     0.000 C 
BRANCH  12  13
ATOM     13  C   UNL     1      17.334  22.092  42.981  1.00  0.00     0.006 C 
BRANCH  13  14
ATOM     14  C   UNL     1      16.575  21.571  41.754  1.00  0.00     0.053 C 
BRANCH  14  15
ATOM     15  C   UNL     1      15.149  22.019  41.794  1.00  0.00     0.041 C 
ATOM     16  O   UNL     1      14.222  21.214  41.512  1.00  0.00    -0.550 OA
ATOM     17  O   UNL     1      14.839  23.314  42.186  1.00  0.00    -0.550 OA
ENDBRANCH  14  15
ENDBRANCH  13  14
ENDBRANCH  12  13
ENDBRANCH  11  12
ENDBRANCH  10  11
ENDBRANCH   9  10
ENDBRANCH   8   9
ENDBRANCH   7   8
ENDBRANCH   6   7
ENDBRANCH   5   6
ENDBRANCH   4   5
ENDBRANCH   3   4
ENDBRANCH   2   3
ENDBRANCH   1   2
BRANCH   1  18
ATOM     18  C   UNL     1      18.910  13.215  46.170  1.00  0.00     0.000 C 
BRANCH  18  19
ATOM     19  C   UNL     1      17.997  14.387  45.776  1.00  0.00     0.000 C 
BRANCH  19  20
ATOM     20  C   UNL     1      16.557  14.147  46.242  1.00  0.00     0.000 C 
BRANCH  20  21
ATOM     21  C   UNL     1      15.876  15.470  46.614  1.00  0.00     0.000 C 
BRANCH  21  22
ATOM     22  C   UNL     1      16.893  16.481  47.162  1.00  0.00     0.000 C 
BRANCH  22  23
ATOM     23  C   UNL     1      16.834  17.824  46.413  1.00  0.00     0.000 C 
BRANCH  23  24
ATOM     24  C   UNL     1      17.593  17.774  45.074  1.00  0.00    -0.000 C 
BRANCH  24  25
ATOM     25  C   UNL     1      16.732  18.232  43.877  1.00  0.00    -0.000 C 
BRANCH  25  26
ATOM     26  C   UNL     1      15.529  19.112  44.266  1.00  0.00    -0.000 C 
BRANCH  26  27
ATOM     27  C   UNL     1      14.147  18.563  43.863  1.00  0.00    -0.000 C 
BRANCH  27  28
ATOM     28  C   UNL     1      13.381  17.842  44.990  1.00  0.00    -0.000 C 
BRANCH  28  29
ATOM     29  C   UNL     1      12.964  16.413  44.606  1.00  0.00    -0.000 C 
BRANCH  29  30
ATOM     30  C   UNL     1      13.521  15.975  43.239  1.00  0.00    -0.000 C 
BRANCH  30  31
ATOM     31  C   UNL     1      14.473  14.766  43.290  1.00  0.00    -0.003 C 
ATOM     32  C   UNL     1      15.792  15.010  42.557  1.00  0.00     0.004 C 
ENDBRANCH  30  31
ENDBRANCH  29  30
ENDBRANCH  28  29
ENDBRANCH  27  28
ENDBRANCH  26  27
ENDBRANCH  25  26
ENDBRANCH  24  25
ENDBRANCH  23  24
ENDBRANCH  22  23
ENDBRANCH  21  22
ENDBRANCH  20  21
ENDBRANCH  19  20
ENDBRANCH  18  19
ENDBRANCH   1  18
TORSDOF 28
ENDMDL
MODEL 7
REMARK VINA RESULT:    -4.696      1.725      6.349
REMARK INTER + INTRA:         -17.384
REMARK INTER:                 -12.472
REMARK INTRA:                  -4.911
REMARK UNBOUND:                -5.002
REMARK SMILES CCCCCCCCCCCCCCCCCCCCCCCCCCCCCC(=O)[O-]
REMARK SMILES IDX 16 1 17 2 18 3 19 4 20 5 21 6 22 7 23 8 24 9 25 10 26 11
REMARK SMILES IDX 27 12 28 13 29 14 30 15 31 16 32 17 15 18 14 19 13 20 12 21
REMARK SMILES IDX 11 22 10 23 9 24 8 25 7 26 6 27 5 28 4 29 3 30 2 31 1 32
REMARK H PARENT
REMARK Flexibility Score: inf
ROOT
ATOM      1  C   UNL     1      21.304  17.274  48.757  1.00  0.00     0.000 C 
ENDROOT
BRANCH   1   2
ATOM      2  C   UNL     1      21.970  15.965  49.228  1.00  0.00     0.000 C 
BRANCH   2   3
ATOM      3  C   UNL     1      23.338  15.665  48.590  1.00  0.00     0.000 C 
BRANCH   3   4
ATOM      4  C   UNL     1      23.447  14.226  48.065  1.00  0.00     0.000 C 
BRANCH   4   5
ATOM      5  C   UNL     1      22.084  13.518  48.118  1.00  0.00     0.000 C 
BRANCH   5   6
ATOM      6  C   UNL     1      21.983  12.354  47.117  1.00  0.00     0.000 C 
BRANCH   6   7
ATOM      7  C   UNL     1      20.627  12.317  46.390  1.00  0.00     0.000 C 
BRANCH   7   8
ATOM      8  C   UNL     1      19.467  11.935  47.323  1.00  0.00     0.000 C 
BRANCH   8   9
ATOM      9  C   UNL     1      18.116  11.870  46.589  1.00  0.00     0.000 C 
BRANCH   9  10
ATOM     10  C   UNL     1      17.612  13.254  46.144  1.00  0.00     0.000 C 
BRANCH  10  11
ATOM     11  C   UNL     1      16.105  13.490  46.355  1.00  0.00     0.000 C 
BRANCH  11  12
ATOM     12  C   UNL     1      15.418  14.322  45.256  1.00  0.00     0.000 C 
BRANCH  12  13
ATOM     13  C   UNL     1      15.626  13.761  43.833  1.00  0.00     0.006 C 
BRANCH  13  14
ATOM     14  C   UNL     1      16.217  14.803  42.875  1.00  0.00     0.053 C 
BRANCH  14  15
ATOM     15  C   UNL     1      15.281  15.052  41.735  1.00  0.00     0.041 C 
ATOM     16  O   UNL     1      14.750  16.184  41.586  1.00  0.00    -0.550 OA
ATOM     17  O   UNL     1      15.029  14.047  40.811  1.00  0.00    -0.550 OA
ENDBRANCH  14  15
ENDBRANCH  13  14
ENDBRANCH  12  13
ENDBRANCH  11  12
ENDBRANCH  10  11
ENDBRANCH   9  10
ENDBRANCH   8   9
ENDBRANCH   7   8
ENDBRANCH   6   7
ENDBRANCH   5   6
ENDBRANCH   4   5
ENDBRANCH   3   4
ENDBRANCH   2   3
ENDBRANCH   1   2
BRANCH   1  18
ATOM     18  C   UNL     1      20.929  17.316  47.265  1.00  0.00     0.000 C 
BRANCH  18  19
ATOM     19  C   UNL     1      19.870  16.270  46.887  1.00  0.00     0.000 C 
BRANCH  19  20
ATOM     20  C   UNL     1      18.453  16.823  47.079  1.00  0.00     0.000 C 
BRANCH  20  21
ATOM     21  C   UNL     1      17.741  16.981  45.730  1.00  0.00     0.000 C 
BRANCH  21  22
ATOM     22  C   UNL     1      16.523  17.907  45.852  1.00  0.00     0.000 C 
BRANCH  22  23
ATOM     23  C   UNL     1      15.731  17.999  44.536  1.00  0.00     0.000 C 
BRANCH  23  24
ATOM     24  C   UNL     1      15.440  19.457  44.135  1.00  0.00    -0.000 C 
BRANCH  24  25
ATOM     25  C   UNL     1      16.387  19.978  43.032  1.00  0.00    -0.000 C 
BRANCH  25  26
ATOM     26  C   UNL     1      17.624  20.727  43.565  1.00  0.00    -0.000 C 
BRANCH  26  27
ATOM     27  C   UNL     1      18.905  19.883  43.698  1.00  0.00    -0.000 C 
BRANCH  27  28
ATOM     28  C   UNL     1      19.598  19.965  45.072  1.00  0.00    -0.000 C 
BRANCH  28  29
ATOM     29  C   UNL     1      18.988  21.045  45.982  1.00  0.00    -0.000 C 
BRANCH  29  30
ATOM     30  C   UNL     1      18.739  20.546  47.417  1.00  0.00    -0.000 C 
BRANCH  30  31
ATOM     31  C   UNL     1      19.979  20.563  48.328  1.00  0.00    -0.003 C 
ATOM     32  C   UNL     1      19.652  20.908  49.781  1.00  0.00     0.004 C 
ENDBRANCH  30  31
ENDBRANCH  29  30
ENDBRANCH  28  29
ENDBRANCH  27  28
ENDBRANCH  26  27
ENDBRANCH  25  26
ENDBRANCH  24  25
ENDBRANCH  23  24
ENDBRANCH  22  23
ENDBRANCH  21  22
ENDBRANCH  20  21
ENDBRANCH  19  20
ENDBRANCH  18  19
ENDBRANCH   1  18
TORSDOF 28
ENDMDL
MODEL 8
REMARK VINA RESULT:    -4.677      3.147      8.317
REMARK INTER + INTRA:         -17.334
REMARK INTER:                 -12.706
REMARK INTRA:                  -4.628
REMARK UNBOUND:                -5.002
REMARK SMILES CCCCCCCCCCCCCCCCCCCCCCCCCCCCCC(=O)[O-]
REMARK SMILES IDX 16 1 17 2 18 3 19 4 20 5 21 6 22 7 23 8 24 9 25 10 26 11
REMARK SMILES IDX 27 12 28 13 29 14 30 15 31 16 32 17 15 18 14 19 13 20 12 21
REMARK SMILES IDX 11 22 10 23 9 24 8 25 7 26 6 27 5 28 4 29 3 30 2 31 1 32
REMARK H PARENT
REMARK Flexibility Score: inf
ROOT
ATOM      1  C   UNL     1      20.630  19.364  46.869  1.00  0.00     0.000 C 
ENDROOT
BRANCH   1   2
ATOM      2  C   UNL     1      21.189  18.087  47.529  1.00  0.00     0.000 C 
BRANCH   2   3
ATOM      3  C   UNL     1      20.328  16.826  47.337  1.00  0.00     0.000 C 
BRANCH   3   4
ATOM      4  C   UNL     1      19.087  17.079  46.469  1.00  0.00     0.000 C 
BRANCH   4   5
ATOM      5  C   UNL     1      18.387  15.759  46.113  1.00  0.00     0.000 C 
BRANCH   5   6
ATOM      6  C   UNL     1      16.922  15.720  46.580  1.00  0.00     0.000 C 
BRANCH   6   7
ATOM      7  C   UNL     1      16.268  14.345  46.358  1.00  0.00     0.000 C 
BRANCH   7   8
ATOM      8  C   UNL     1      17.157  13.393  45.543  1.00  0.00     0.000 C 
BRANCH   8   9
ATOM      9  C   UNL     1      17.680  12.212  46.379  1.00  0.00     0.000 C 
BRANCH   9  10
ATOM     10  C   UNL     1      19.217  12.160  46.441  1.00  0.00     0.000 C 
BRANCH  10  11
ATOM     11  C   UNL     1      19.788  11.451  47.683  1.00  0.00     0.000 C 
BRANCH  11  12
ATOM     12  C   UNL     1      21.226  11.858  48.059  1.00  0.00     0.000 C 
BRANCH  12  13
ATOM     13  C   UNL     1      21.570  13.319  47.698  1.00  0.00     0.006 C 
BRANCH  13  14
ATOM     14  C   UNL     1      23.007  13.692  48.081  1.00  0.00     0.053 C 
BRANCH  14  15
ATOM     15  C   UNL     1      23.016  14.906  48.954  1.00  0.00     0.041 C 
ATOM     16  O   UNL     1      22.287  14.956  49.980  1.00  0.00    -0.550 OA
ATOM     17  O   UNL     1      23.862  15.967  48.660  1.00  0.00    -0.550 OA
ENDBRANCH  14  15
ENDBRANCH  13  14
ENDBRANCH  12  13
ENDBRANCH  11  12
ENDBRANCH  10  11
ENDBRANCH   9  10
ENDBRANCH   8   9
ENDBRANCH   7   8
ENDBRANCH   6   7
ENDBRANCH   5   6
ENDBRANCH   4   5
ENDBRANCH   3   4
ENDBRANCH   2   3
ENDBRANCH   1   2
BRANCH   1  18
ATOM     18  C   UNL     1      19.815  20.278  47.802  1.00  0.00     0.000 C 
BRANCH  18  19
ATOM     19  C   UNL     1      18.411  20.585  47.259  1.00  0.00     0.000 C 
BRANCH  19  20
ATOM     20  C   UNL     1      18.459  21.687  46.195  1.00  0.00     0.000 C 
BRANCH  20  21
ATOM     21  C   UNL     1      17.767  21.230  44.904  1.00  0.00     0.000 C 
BRANCH  21  22
ATOM     22  C   UNL     1      18.706  20.369  44.047  1.00  0.00     0.000 C 
BRANCH  22  23
ATOM     23  C   UNL     1      18.004  19.114  43.502  1.00  0.00     0.000 C 
BRANCH  23  24
ATOM     24  C   UNL     1      16.587  18.945  44.081  1.00  0.00    -0.000 C 
BRANCH  24  25
ATOM     25  C   UNL     1      15.949  17.585  43.725  1.00  0.00    -0.000 C 
BRANCH  25  26
ATOM     26  C   UNL     1      16.851  16.669  42.876  1.00  0.00    -0.000 C 
BRANCH  26  27
ATOM     27  C   UNL     1      16.303  15.253  42.617  1.00  0.00    -0.000 C 
BRANCH  27  28
ATOM     28  C   UNL     1      14.769  15.160  42.508  1.00  0.00    -0.000 C 
BRANCH  28  29
ATOM     29  C   UNL     1      14.267  15.275  41.059  1.00  0.00    -0.000 C 
BRANCH  29  30
ATOM     30  C   UNL     1      13.816  16.701  40.694  1.00  0.00    -0.000 C 
BRANCH  30  31
ATOM     31  C   UNL     1      14.716  17.418  39.670  1.00  0.00    -0.003 C 
ATOM     32  C   UNL     1      15.275  18.743  40.187  1.00  0.00     0.004 C 
ENDBRANCH  30  31
ENDBRANCH  29  30
ENDBRANCH  28  29
ENDBRANCH  27  28
ENDBRANCH  26  27
ENDBRANCH  25  26
ENDBRANCH  24  25
ENDBRANCH  23  24
ENDBRANCH  22  23
ENDBRANCH  21  22
ENDBRANCH  20  21
ENDBRANCH  19  20
ENDBRANCH  18  19
ENDBRANCH   1  18
TORSDOF 28
ENDMDL
MODEL 9
REMARK VINA RESULT:    -4.673      1.549      2.311
REMARK INTER + INTRA:         -17.323
REMARK INTER:                 -12.983
REMARK INTRA:                  -4.340
REMARK UNBOUND:                -5.002
REMARK SMILES CCCCCCCCCCCCCCCCCCCCCCCCCCCCCC(=O)[O-]
REMARK SMILES IDX 16 1 17 2 18 3 19 4 20 5 21 6 22 7 23 8 24 9 25 10 26 11
REMARK SMILES IDX 27 12 28 13 29 14 30 15 31 16 32 17 15 18 14 19 13 20 12 21
REMARK SMILES IDX 11 22 10 23 9 24 8 25 7 26 6 27 5 28 4 29 3 30 2 31 1 32
REMARK H PARENT
REMARK Flexibility Score: inf
ROOT
ATOM      1  C   UNL     1      21.286  17.319  47.643  1.00  0.00     0.000 C 
ENDROOT
BRANCH   1   2
ATOM      2  C   UNL     1      20.858  18.798  47.545  1.00  0.00     0.000 C 
BRANCH   2   3
ATOM      3  C   UNL     1      20.384  19.427  48.867  1.00  0.00     0.000 C 
BRANCH   3   4
ATOM      4  C   UNL     1      19.538  20.690  48.656  1.00  0.00     0.000 C 
BRANCH   4   5
ATOM      5  C   UNL     1      18.453  20.453  47.595  1.00  0.00     0.000 C 
BRANCH   5   6
ATOM      6  C   UNL     1      18.036  21.746  46.874  1.00  0.00     0.000 C 
BRANCH   6   7
ATOM      7  C   UNL     1      18.097  21.614  45.342  1.00  0.00     0.000 C 
BRANCH   7   8
ATOM      8  C   UNL     1      19.233  20.692  44.874  1.00  0.00     0.000 C 
BRANCH   8   9
ATOM      9  C   UNL     1      18.729  19.535  43.993  1.00  0.00     0.000 C 
BRANCH   9  10
ATOM     10  C   UNL     1      17.249  19.198  44.242  1.00  0.00     0.000 C 
BRANCH  10  11
ATOM     11  C   UNL     1      16.366  19.204  42.980  1.00  0.00     0.000 C 
BRANCH  11  12
ATOM     12  C   UNL     1      15.755  20.572  42.622  1.00  0.00     0.000 C 
BRANCH  12  13
ATOM     13  C   UNL     1      14.783  21.115  43.692  1.00  0.00     0.006 C 
BRANCH  13  14
ATOM     14  C   UNL     1      13.622  20.151  43.967  1.00  0.00     0.053 C 
BRANCH  14  15
ATOM     15  C   UNL     1      12.764  20.007  42.751  1.00  0.00     0.041 C 
ATOM     16  O   UNL     1      12.135  20.997  42.296  1.00  0.00    -0.550 OA
ATOM     17  O   UNL     1      12.694  18.786  42.092  1.00  0.00    -0.550 OA
ENDBRANCH  14  15
ENDBRANCH  13  14
ENDBRANCH  12  13
ENDBRANCH  11  12
ENDBRANCH  10  11
ENDBRANCH   9  10
ENDBRANCH   8   9
ENDBRANCH   7   8
ENDBRANCH   6   7
ENDBRANCH   5   6
ENDBRANCH   4   5
ENDBRANCH   3   4
ENDBRANCH   2   3
ENDBRANCH   1   2
BRANCH   1  18
ATOM     18  C   UNL     1      20.204  16.298  47.248  1.00  0.00     0.000 C 
BRANCH  18  19
ATOM     19  C   UNL     1      19.004  16.945  46.540  1.00  0.00     0.000 C 
BRANCH  19  20
ATOM     20  C   UNL     1      17.765  16.950  47.442  1.00  0.00     0.000 C 
BRANCH  20  21
ATOM     21  C   UNL     1      16.537  16.430  46.686  1.00  0.00     0.000 C 
BRANCH  21  22
ATOM     22  C   UNL     1      16.930  15.352  45.665  1.00  0.00     0.000 C 
BRANCH  22  23
ATOM     23  C   UNL     1      16.778  13.932  46.237  1.00  0.00     0.000 C 
BRANCH  23  24
ATOM     24  C   UNL     1      17.828  12.962  45.664  1.00  0.00    -0.000 C 
BRANCH  24  25
ATOM     25  C   UNL     1      18.083  11.744  46.578  1.00  0.00    -0.000 C 
BRANCH  25  26
ATOM     26  C   UNL     1      19.440  11.774  47.306  1.00  0.00    -0.000 C 
BRANCH  26  27
ATOM     27  C   UNL     1      20.457  12.801  46.773  1.00  0.00    -0.000 C 
BRANCH  27  28
ATOM     28  C   UNL     1      21.895  12.622  47.295  1.00  0.00    -0.000 C 
BRANCH  28  29
ATOM     29  C   UNL     1      22.272  13.657  48.369  1.00  0.00    -0.000 C 
BRANCH  29  30
ATOM     30  C   UNL     1      23.680  14.244  48.165  1.00  0.00    -0.000 C 
BRANCH  30  31
ATOM     31  C   UNL     1      23.996  15.474  49.035  1.00  0.00    -0.003 C 
ATOM     32  C   UNL     1      23.272  15.459  50.381  1.00  0.00     0.004 C 
ENDBRANCH  30  31
ENDBRANCH  29  30
ENDBRANCH  28  29
ENDBRANCH  27  28
ENDBRANCH  26  27
ENDBRANCH  25  26
ENDBRANCH  24  25
ENDBRANCH  23  24
ENDBRANCH  22  23
ENDBRANCH  21  22
ENDBRANCH  20  21
ENDBRANCH  19  20
ENDBRANCH  18  19
ENDBRANCH   1  18
TORSDOF 28
ENDMDL
