MODEL 1
REMARK VINA RESULT:    28.125      0.000      0.000
REMARK INTER + INTRA:          69.371
REMARK INTER:                  70.873
REMARK INTRA:                  -1.502
REMARK UNBOUND:                -1.502
REMARK SMILES CCCCCCCCCCCCCCCCCCCCCCCCCCCC(=O)[O-]
REMARK SMILES IDX 15 1 16 2 17 3 18 4 19 5 20 6 21 7 22 8 23 9 24 10 25 11
REMARK SMILES IDX 26 12 27 13 28 14 29 15 30 16 14 17 13 18 12 19 11 20 10 21
REMARK SMILES IDX 9 22 8 23 7 24 6 25 5 26 4 27 3 28 2 29 1 30
REMARK H PARENT
REMARK Flexibility Score: inf
ROOT
ATOM      1  C   UNL     1      -8.054  13.908 -19.005  1.00  0.00     0.000 C 
ENDROOT
BRANCH   1   2
ATOM      2  C   UNL     1      -8.664  14.199 -20.388  1.00  0.00     0.000 C 
BRANCH   2   3
ATOM      3  C   UNL     1      -9.196  12.934 -21.084  1.00  0.00     0.000 C 
BRANCH   3   4
ATOM      4  C   UNL     1      -8.156  12.161 -21.916  1.00  0.00     0.000 C 
BRANCH   4   5
ATOM      5  C   UNL     1      -7.163  13.086 -22.643  1.00  0.00     0.000 C 
BRANCH   5   6
ATOM      6  C   UNL     1      -6.238  12.315 -23.605  1.00  0.00     0.000 C 
BRANCH   6   7
ATOM      7  C   UNL     1      -6.830  12.096 -25.012  1.00  0.00     0.000 C 
BRANCH   7   8
ATOM      8  C   UNL     1      -6.684  13.307 -25.955  1.00  0.00     0.000 C 
BRANCH   8   9
ATOM      9  C   UNL     1      -5.217  13.741 -26.130  1.00  0.00     0.000 C 
BRANCH   9  10
ATOM     10  C   UNL     1      -4.974  15.189 -25.652  1.00  0.00     0.000 C 
BRANCH  10  11
ATOM     11  C   UNL     1      -5.331  16.255 -26.701  1.00  0.00     0.000 C 
BRANCH  11  12
ATOM     12  C   UNL     1      -4.847  17.662 -26.311  1.00  0.00     0.006 C 
BRANCH  12  13
ATOM     13  C   UNL     1      -5.961  18.503 -25.673  1.00  0.00     0.053 C 
BRANCH  13  14
ATOM     14  C   UNL     1      -5.934  18.418 -24.178  1.00  0.00     0.041 C 
ATOM     15  O   UNL     1      -6.873  18.908 -23.496  1.00  0.00    -0.550 OA
ATOM     16  O   UNL     1      -4.864  17.807 -23.535  1.00  0.00    -0.550 OA
ENDBRANCH  13  14
ENDBRANCH  12  13
ENDBRANCH  11  12
ENDBRANCH  10  11
ENDBRANCH   9  10
ENDBRANCH   8   9
ENDBRANCH   7   8
ENDBRANCH   6   7
ENDBRANCH   5   6
ENDBRANCH   4   5
ENDBRANCH   3   4
ENDBRANCH   2   3
ENDBRANCH   1   2
BRANCH   1  17
ATOM     17  C   UNL     1      -9.109  13.490 -17.968  1.00  0.00     0.000 C 
BRANCH  17  18
ATOM     18  C   UNL     1     -10.123  14.603 -17.666  1.00  0.00     0.000 C 
BRANCH  18  19
ATOM     19  C   UNL     1      -9.417  15.858 -17.131  1.00  0.00     0.000 C 
BRANCH  19  20
ATOM     20  C   UNL     1      -9.597  17.079 -18.045  1.00  0.00     0.000 C 
BRANCH  20  21
ATOM     21  C   UNL     1     -10.369  18.219 -17.363  1.00  0.00     0.000 C 
BRANCH  21  22
ATOM     22  C   UNL     1      -9.409  19.262 -16.777  1.00  0.00    -0.000 C 
BRANCH  22  23
ATOM     23  C   UNL     1      -7.952  18.793 -16.894  1.00  0.00    -0.000 C 
BRANCH  23  24
ATOM     24  C   UNL     1      -6.959  19.770 -16.242  1.00  0.00    -0.000 C 
BRANCH  24  25
ATOM     25  C   UNL     1      -6.586  19.392 -14.792  1.00  0.00    -0.000 C 
BRANCH  25  26
ATOM     26  C   UNL     1      -7.828  19.091 -13.932  1.00  0.00    -0.000 C 
BRANCH  26  27
ATOM     27  C   UNL     1      -8.663  20.357 -13.648  1.00  0.00    -0.000 C 
BRANCH  27  28
ATOM     28  C   UNL     1     -10.149  20.070 -13.371  1.00  0.00    -0.000 C 
BRANCH  28  29
ATOM     29  C   UNL     1     -10.938  21.329 -12.978  1.00  0.00    -0.003 C 
ATOM     30  C   UNL     1     -11.861  21.775 -14.109  1.00  0.00     0.004 C 
ENDBRANCH  28  29
ENDBRANCH  27  28
ENDBRANCH  26  27
ENDBRANCH  25  26
ENDBRANCH  24  25
ENDBRANCH  23  24
ENDBRANCH  22  23
ENDBRANCH  21  22
ENDBRANCH  20  21
ENDBRANCH  19  20
ENDBRANCH  18  19
ENDBRANCH  17  18
ENDBRANCH   1  17
TORSDOF 26
ENDMDL
MODEL 2
REMARK VINA RESULT:    28.728      1.532      2.211
REMARK INTER + INTRA:          70.891
REMARK INTER:                  71.571
REMARK INTRA:                  -0.680
REMARK UNBOUND:                -1.502
REMARK SMILES CCCCCCCCCCCCCCCCCCCCCCCCCCCC(=O)[O-]
REMARK SMILES IDX 15 1 16 2 17 3 18 4 19 5 20 6 21 7 22 8 23 9 24 10 25 11
REMARK SMILES IDX 26 12 27 13 28 14 29 15 30 16 14 17 13 18 12 19 11 20 10 21
REMARK SMILES IDX 9 22 8 23 7 24 6 25 5 26 4 27 3 28 2 29 1 30
REMARK H PARENT
REMARK Flexibility Score: inf
ROOT
ATOM      1  C   UNL     1      -8.640  14.200 -20.009  1.00  0.00     0.000 C 
ENDROOT
BRANCH   1   2
ATOM      2  C   UNL     1      -8.785  13.109 -21.084  1.00  0.00     0.000 C 
BRANCH   2   3
ATOM      3  C   UNL     1      -7.630  13.117 -22.102  1.00  0.00     0.000 C 
BRANCH   3   4
ATOM      4  C   UNL     1      -7.081  11.728 -22.475  1.00  0.00     0.000 C 
BRANCH   4   5
ATOM      5  C   UNL     1      -6.413  11.701 -23.863  1.00  0.00     0.000 C 
BRANCH   5   6
ATOM      6  C   UNL     1      -5.999  13.107 -24.342  1.00  0.00     0.000 C 
BRANCH   6   7
ATOM      7  C   UNL     1      -6.250  13.363 -25.841  1.00  0.00     0.000 C 
BRANCH   7   8
ATOM      8  C   UNL     1      -5.055  13.992 -26.585  1.00  0.00     0.000 C 
BRANCH   8   9
ATOM      9  C   UNL     1      -4.665  15.367 -26.013  1.00  0.00     0.000 C 
BRANCH   9  10
ATOM     10  C   UNL     1      -5.521  16.509 -26.601  1.00  0.00     0.000 C 
BRANCH  10  11
ATOM     11  C   UNL     1      -5.082  17.910 -26.143  1.00  0.00     0.000 C 
BRANCH  11  12
ATOM     12  C   UNL     1      -6.266  18.804 -25.738  1.00  0.00     0.006 C 
BRANCH  12  13
ATOM     13  C   UNL     1      -6.163  19.281 -24.283  1.00  0.00     0.053 C 
BRANCH  13  14
ATOM     14  C   UNL     1      -5.647  18.202 -23.381  1.00  0.00     0.041 C 
ATOM     15  O   UNL     1      -4.486  17.739 -23.542  1.00  0.00    -0.550 OA
ATOM     16  O   UNL     1      -6.454  17.698 -22.367  1.00  0.00    -0.550 OA
ENDBRANCH  13  14
ENDBRANCH  12  13
ENDBRANCH  11  12
ENDBRANCH  10  11
ENDBRANCH   9  10
ENDBRANCH   8   9
ENDBRANCH   7   8
ENDBRANCH   6   7
ENDBRANCH   5   6
ENDBRANCH   4   5
ENDBRANCH   3   4
ENDBRANCH   2   3
ENDBRANCH   1   2
BRANCH   1  17
ATOM     17  C   UNL     1      -8.777  13.649 -18.581  1.00  0.00     0.000 C 
BRANCH  17  18
ATOM     18  C   UNL     1      -8.648  14.737 -17.506  1.00  0.00     0.000 C 
BRANCH  18  19
ATOM     19  C   UNL     1      -9.919  15.597 -17.441  1.00  0.00     0.000 C 
BRANCH  19  20
ATOM     20  C   UNL     1      -9.873  16.801 -18.395  1.00  0.00     0.000 C 
BRANCH  20  21
ATOM     21  C   UNL     1     -10.726  17.979 -17.903  1.00  0.00     0.000 C 
BRANCH  21  22
ATOM     22  C   UNL     1      -9.917  18.899 -16.981  1.00  0.00    -0.000 C 
BRANCH  22  23
ATOM     23  C   UNL     1      -8.474  18.395 -16.833  1.00  0.00    -0.000 C 
BRANCH  23  24
ATOM     24  C   UNL     1      -7.431  19.450 -17.239  1.00  0.00    -0.000 C 
BRANCH  24  25
ATOM     25  C   UNL     1      -6.258  19.571 -16.242  1.00  0.00    -0.000 C 
BRANCH  25  26
ATOM     26  C   UNL     1      -6.232  20.941 -15.539  1.00  0.00    -0.000 C 
BRANCH  26  27
ATOM     27  C   UNL     1      -6.698  20.853 -14.070  1.00  0.00    -0.000 C 
BRANCH  27  28
ATOM     28  C   UNL     1      -5.702  20.131 -13.146  1.00  0.00    -0.000 C 
BRANCH  28  29
ATOM     29  C   UNL     1      -6.206  18.755 -12.684  1.00  0.00    -0.003 C 
ATOM     30  C   UNL     1      -7.593  18.459 -13.249  1.00  0.00     0.004 C 
ENDBRANCH  28  29
ENDBRANCH  27  28
ENDBRANCH  26  27
ENDBRANCH  25  26
ENDBRANCH  24  25
ENDBRANCH  23  24
ENDBRANCH  22  23
ENDBRANCH  21  22
ENDBRANCH  20  21
ENDBRANCH  19  20
ENDBRANCH  18  19
ENDBRANCH  17  18
ENDBRANCH   1  17
TORSDOF 26
ENDMDL
MODEL 3
REMARK VINA RESULT:    28.851      4.287     12.049
REMARK INTER + INTRA:          71.201
REMARK INTER:                  72.730
REMARK INTRA:                  -1.529
REMARK UNBOUND:                -1.502
REMARK SMILES CCCCCCCCCCCCCCCCCCCCCCCCCCCC(=O)[O-]
REMARK SMILES IDX 15 1 16 2 17 3 18 4 19 5 20 6 21 7 22 8 23 9 24 10 25 11
REMARK SMILES IDX 26 12 27 13 28 14 29 15 30 16 14 17 13 18 12 19 11 20 10 21
REMARK SMILES IDX 9 22 8 23 7 24 6 25 5 26 4 27 3 28 2 29 1 30
REMARK H PARENT
REMARK Flexibility Score: inf
ROOT
ATOM      1  C   UNL     1      -9.983  16.486 -18.398  1.00  0.00     0.000 C 
ENDROOT
BRANCH   1   2
ATOM      2  C   UNL     1     -10.079  17.857 -17.707  1.00  0.00     0.000 C 
BRANCH   2   3
ATOM      3  C   UNL     1      -8.948  18.093 -16.690  1.00  0.00     0.000 C 
BRANCH   3   4
ATOM      4  C   UNL     1      -8.075  19.332 -16.961  1.00  0.00     0.000 C 
BRANCH   4   5
ATOM      5  C   UNL     1      -7.135  19.671 -15.790  1.00  0.00     0.000 C 
BRANCH   5   6
ATOM      6  C   UNL     1      -7.591  19.025 -14.466  1.00  0.00     0.000 C 
BRANCH   6   7
ATOM      7  C   UNL     1      -8.239  20.011 -13.473  1.00  0.00     0.000 C 
BRANCH   7   8
ATOM      8  C   UNL     1      -9.641  20.499 -13.891  1.00  0.00     0.000 C 
BRANCH   8   9
ATOM      9  C   UNL     1     -10.528  20.843 -12.680  1.00  0.00     0.000 C 
BRANCH   9  10
ATOM     10  C   UNL     1     -10.955  22.326 -12.671  1.00  0.00     0.000 C 
BRANCH  10  11
ATOM     11  C   UNL     1      -9.785  23.306 -12.474  1.00  0.00     0.000 C 
BRANCH  11  12
ATOM     12  C   UNL     1      -9.517  23.627 -10.995  1.00  0.00     0.006 C 
BRANCH  12  13
ATOM     13  C   UNL     1     -10.427  24.746 -10.470  1.00  0.00     0.053 C 
BRANCH  13  14
ATOM     14  C   UNL     1      -9.743  26.078 -10.499  1.00  0.00     0.041 C 
ATOM     15  O   UNL     1      -9.438  26.660  -9.424  1.00  0.00    -0.550 OA
ATOM     16  O   UNL     1      -9.450  26.683 -11.716  1.00  0.00    -0.550 OA
ENDBRANCH  13  14
ENDBRANCH  12  13
ENDBRANCH  11  12
ENDBRANCH  10  11
ENDBRANCH   9  10
ENDBRANCH   8   9
ENDBRANCH   7   8
ENDBRANCH   6   7
ENDBRANCH   5   6
ENDBRANCH   4   5
ENDBRANCH   3   4
ENDBRANCH   2   3
ENDBRANCH   1   2
BRANCH   1  17
ATOM     17  C   UNL     1      -9.097  15.494 -17.629  1.00  0.00     0.000 C 
BRANCH  17  18
ATOM     18  C   UNL     1      -8.836  14.197 -18.409  1.00  0.00     0.000 C 
BRANCH  18  19
ATOM     19  C   UNL     1      -9.237  14.355 -19.884  1.00  0.00     0.000 C 
BRANCH  19  20
ATOM     20  C   UNL     1      -8.118  13.941 -20.853  1.00  0.00     0.000 C 
BRANCH  20  21
ATOM     21  C   UNL     1      -8.441  12.644 -21.610  1.00  0.00     0.000 C 
BRANCH  21  22
ATOM     22  C   UNL     1      -7.193  12.086 -22.306  1.00  0.00    -0.000 C 
BRANCH  22  23
ATOM     23  C   UNL     1      -7.262  12.317 -23.822  1.00  0.00    -0.000 C 
BRANCH  23  24
ATOM     24  C   UNL     1      -5.880  12.573 -24.448  1.00  0.00    -0.000 C 
BRANCH  24  25
ATOM     25  C   UNL     1      -5.925  13.507 -25.676  1.00  0.00    -0.000 C 
BRANCH  25  26
ATOM     26  C   UNL     1      -4.953  14.694 -25.539  1.00  0.00    -0.000 C 
BRANCH  26  27
ATOM     27  C   UNL     1      -5.112  15.714 -26.686  1.00  0.00    -0.000 C 
BRANCH  27  28
ATOM     28  C   UNL     1      -5.175  17.176 -26.211  1.00  0.00    -0.000 C 
BRANCH  28  29
ATOM     29  C   UNL     1      -5.215  17.306 -24.681  1.00  0.00    -0.003 C 
ATOM     30  C   UNL     1      -5.578  18.727 -24.259  1.00  0.00     0.004 C 
ENDBRANCH  28  29
ENDBRANCH  27  28
ENDBRANCH  26  27
ENDBRANCH  25  26
ENDBRANCH  24  25
ENDBRANCH  23  24
ENDBRANCH  22  23
ENDBRANCH  21  22
ENDBRANCH  20  21
ENDBRANCH  19  20
ENDBRANCH  18  19
ENDBRANCH  17  18
ENDBRANCH   1  17
TORSDOF 26
ENDMDL
MODEL 4
REMARK VINA RESULT:    29.120      4.185      5.723
REMARK INTER + INTRA:          71.879
REMARK INTER:                  72.736
REMARK INTRA:                  -0.857
REMARK UNBOUND:                -1.502
REMARK SMILES CCCCCCCCCCCCCCCCCCCCCCCCCCCC(=O)[O-]
REMARK SMILES IDX 15 1 16 2 17 3 18 4 19 5 20 6 21 7 22 8 23 9 24 10 25 11
REMARK SMILES IDX 26 12 27 13 28 14 29 15 30 16 14 17 13 18 12 19 11 20 10 21
REMARK SMILES IDX 9 22 8 23 7 24 6 25 5 26 4 27 3 28 2 29 1 30
REMARK H PARENT
REMARK Flexibility Score: inf
ROOT
ATOM      1  C   UNL     1      -8.276  13.561 -20.153  1.00  0.00     0.000 C 
ENDROOT
BRANCH   1   2
ATOM      2  C   UNL     1      -8.752  12.914 -21.466  1.00  0.00     0.000 C 
BRANCH   2   3
ATOM      3  C   UNL     1      -7.643  12.118 -22.177  1.00  0.00     0.000 C 
BRANCH   3   4
ATOM      4  C   UNL     1      -6.990  12.836 -23.372  1.00  0.00     0.000 C 
BRANCH   4   5
ATOM      5  C   UNL     1      -6.495  11.862 -24.457  1.00  0.00     0.000 C 
BRANCH   5   6
ATOM      6  C   UNL     1      -5.723  10.666 -23.866  1.00  0.00     0.000 C 
BRANCH   6   7
ATOM      7  C   UNL     1      -5.620   9.451 -24.810  1.00  0.00     0.000 C 
BRANCH   7   8
ATOM      8  C   UNL     1      -4.187   9.144 -25.291  1.00  0.00     0.000 C 
BRANCH   8   9
ATOM      9  C   UNL     1      -3.412   8.256 -24.301  1.00  0.00     0.000 C 
BRANCH   9  10
ATOM     10  C   UNL     1      -2.122   8.933 -23.794  1.00  0.00     0.000 C 
BRANCH  10  11
ATOM     11  C   UNL     1      -1.234   8.012 -22.939  1.00  0.00     0.000 C 
BRANCH  11  12
ATOM     12  C   UNL     1      -1.517   8.139 -21.434  1.00  0.00     0.006 C 
BRANCH  12  13
ATOM     13  C   UNL     1      -2.680   7.245 -20.984  1.00  0.00     0.053 C 
BRANCH  13  14
ATOM     14  C   UNL     1      -3.145   7.592 -19.603  1.00  0.00     0.041 C 
ATOM     15  O   UNL     1      -2.329   7.601 -18.642  1.00  0.00    -0.550 OA
ATOM     16  O   UNL     1      -4.481   7.895 -19.373  1.00  0.00    -0.550 OA
ENDBRANCH  13  14
ENDBRANCH  12  13
ENDBRANCH  11  12
ENDBRANCH  10  11
ENDBRANCH   9  10
ENDBRANCH   8   9
ENDBRANCH   7   8
ENDBRANCH   6   7
ENDBRANCH   5   6
ENDBRANCH   4   5
ENDBRANCH   3   4
ENDBRANCH   2   3
ENDBRANCH   1   2
BRANCH   1  17
ATOM     17  C   UNL     1      -9.439  14.014 -19.258  1.00  0.00     0.000 C 
BRANCH  17  18
ATOM     18  C   UNL     1      -9.051  14.109 -17.776  1.00  0.00     0.000 C 
BRANCH  18  19
ATOM     19  C   UNL     1      -8.808  15.570 -17.366  1.00  0.00     0.000 C 
BRANCH  19  20
ATOM     20  C   UNL     1      -9.753  16.553 -18.074  1.00  0.00     0.000 C 
BRANCH  20  21
ATOM     21  C   UNL     1     -10.202  17.704 -17.161  1.00  0.00     0.000 C 
BRANCH  21  22
ATOM     22  C   UNL     1      -9.339  18.952 -17.381  1.00  0.00    -0.000 C 
BRANCH  22  23
ATOM     23  C   UNL     1      -8.003  18.833 -16.633  1.00  0.00    -0.000 C 
BRANCH  23  24
ATOM     24  C   UNL     1      -7.612  20.130 -15.905  1.00  0.00    -0.000 C 
BRANCH  24  25
ATOM     25  C   UNL     1      -6.274  20.028 -15.141  1.00  0.00    -0.000 C 
BRANCH  25  26
ATOM     26  C   UNL     1      -6.481  19.878 -13.623  1.00  0.00    -0.000 C 
BRANCH  26  27
ATOM     27  C   UNL     1      -7.310  18.626 -13.267  1.00  0.00    -0.000 C 
BRANCH  27  28
ATOM     28  C   UNL     1      -8.824  18.887 -13.188  1.00  0.00    -0.000 C 
BRANCH  28  29
ATOM     29  C   UNL     1      -9.174  20.383 -13.188  1.00  0.00    -0.003 C 
ATOM     30  C   UNL     1     -10.576  20.620 -13.742  1.00  0.00     0.004 C 
ENDBRANCH  28  29
ENDBRANCH  27  28
ENDBRANCH  26  27
ENDBRANCH  25  26
ENDBRANCH  24  25
ENDBRANCH  23  24
ENDBRANCH  22  23
ENDBRANCH  21  22
ENDBRANCH  20  21
ENDBRANCH  19  20
ENDBRANCH  18  19
ENDBRANCH  17  18
ENDBRANCH   1  17
TORSDOF 26
ENDMDL
MODEL 5
REMARK VINA RESULT:    29.251      4.368     11.952
REMARK INTER + INTRA:          72.209
REMARK INTER:                  73.284
REMARK INTRA:                  -1.075
REMARK UNBOUND:                -1.502
REMARK SMILES CCCCCCCCCCCCCCCCCCCCCCCCCCCC(=O)[O-]
REMARK SMILES IDX 15 1 16 2 17 3 18 4 19 5 20 6 21 7 22 8 23 9 24 10 25 11
REMARK SMILES IDX 26 12 27 13 28 14 29 15 30 16 14 17 13 18 12 19 11 20 10 21
REMARK SMILES IDX 9 22 8 23 7 24 6 25 5 26 4 27 3 28 2 29 1 30
REMARK H PARENT
REMARK Flexibility Score: inf
ROOT
ATOM      1  C   UNL     1      -9.545  13.523 -20.716  1.00  0.00     0.000 C 
ENDROOT
BRANCH   1   2
ATOM      2  C   UNL     1      -8.438  14.382 -20.081  1.00  0.00     0.000 C 
BRANCH   2   3
ATOM      3  C   UNL     1      -8.196  14.044 -18.599  1.00  0.00     0.000 C 
BRANCH   3   4
ATOM      4  C   UNL     1      -9.401  13.429 -17.864  1.00  0.00     0.000 C 
BRANCH   4   5
ATOM      5  C   UNL     1     -10.293  14.486 -17.188  1.00  0.00     0.000 C 
BRANCH   5   6
ATOM      6  C   UNL     1      -9.626  15.876 -17.145  1.00  0.00     0.000 C 
BRANCH   6   7
ATOM      7  C   UNL     1     -10.081  16.829 -18.268  1.00  0.00     0.000 C 
BRANCH   7   8
ATOM      8  C   UNL     1     -10.223  18.301 -17.830  1.00  0.00     0.000 C 
BRANCH   8   9
ATOM      9  C   UNL     1      -9.352  18.636 -16.605  1.00  0.00     0.000 C 
BRANCH   9  10
ATOM     10  C   UNL     1      -8.120  19.487 -16.978  1.00  0.00     0.000 C 
BRANCH  10  11
ATOM     11  C   UNL     1      -6.903  19.245 -16.070  1.00  0.00     0.000 C 
BRANCH  11  12
ATOM     12  C   UNL     1      -6.300  20.547 -15.519  1.00  0.00     0.006 C 
BRANCH  12  13
ATOM     13  C   UNL     1      -6.530  20.702 -14.010  1.00  0.00     0.053 C 
BRANCH  13  14
ATOM     14  C   UNL     1      -6.884  19.397 -13.366  1.00  0.00     0.041 C 
ATOM     15  O   UNL     1      -5.978  18.628 -12.947  1.00  0.00    -0.550 OA
ATOM     16  O   UNL     1      -8.217  19.023 -13.237  1.00  0.00    -0.550 OA
ENDBRANCH  13  14
ENDBRANCH  12  13
ENDBRANCH  11  12
ENDBRANCH  10  11
ENDBRANCH   9  10
ENDBRANCH   8   9
ENDBRANCH   7   8
ENDBRANCH   6   7
ENDBRANCH   5   6
ENDBRANCH   4   5
ENDBRANCH   3   4
ENDBRANCH   2   3
ENDBRANCH   1   2
BRANCH   1  17
ATOM     17  C   UNL     1      -8.987  12.403 -21.608  1.00  0.00     0.000 C 
BRANCH  17  18
ATOM     18  C   UNL     1      -7.586  12.715 -22.153  1.00  0.00     0.000 C 
BRANCH  18  19
ATOM     19  C   UNL     1      -7.395  12.110 -23.552  1.00  0.00     0.000 C 
BRANCH  19  20
ATOM     20  C   UNL     1      -6.052  12.497 -24.190  1.00  0.00     0.000 C 
BRANCH  20  21
ATOM     21  C   UNL     1      -4.930  11.502 -23.857  1.00  0.00     0.000 C 
BRANCH  21  22
ATOM     22  C   UNL     1      -5.477  10.075 -23.732  1.00  0.00    -0.000 C 
BRANCH  22  23
ATOM     23  C   UNL     1      -4.749   9.123 -24.691  1.00  0.00    -0.000 C 
BRANCH  23  24
ATOM     24  C   UNL     1      -3.815   8.143 -23.961  1.00  0.00    -0.000 C 
BRANCH  24  25
ATOM     25  C   UNL     1      -2.342   8.606 -23.930  1.00  0.00    -0.000 C 
BRANCH  25  26
ATOM     26  C   UNL     1      -1.865   9.121 -25.301  1.00  0.00    -0.000 C 
BRANCH  26  27
ATOM     27  C   UNL     1      -0.470   9.778 -25.226  1.00  0.00    -0.000 C 
BRANCH  27  28
ATOM     28  C   UNL     1       0.452   9.408 -26.400  1.00  0.00    -0.000 C 
BRANCH  28  29
ATOM     29  C   UNL     1       0.840   7.922 -26.410  1.00  0.00    -0.003 C 
ATOM     30  C   UNL     1       0.684   7.303 -25.024  1.00  0.00     0.004 C 
ENDBRANCH  28  29
ENDBRANCH  27  28
ENDBRANCH  26  27
ENDBRANCH  25  26
ENDBRANCH  24  25
ENDBRANCH  23  24
ENDBRANCH  22  23
ENDBRANCH  21  22
ENDBRANCH  20  21
ENDBRANCH  19  20
ENDBRANCH  18  19
ENDBRANCH  17  18
ENDBRANCH   1  17
TORSDOF 26
ENDMDL
MODEL 6
REMARK VINA RESULT:    29.343      4.575     11.277
REMARK INTER + INTRA:          72.442
REMARK INTER:                  73.519
REMARK INTRA:                  -1.077
REMARK UNBOUND:                -1.502
REMARK SMILES CCCCCCCCCCCCCCCCCCCCCCCCCCCC(=O)[O-]
REMARK SMILES IDX 15 1 16 2 17 3 18 4 19 5 20 6 21 7 22 8 23 9 24 10 25 11
REMARK SMILES IDX 26 12 27 13 28 14 29 15 30 16 14 17 13 18 12 19 11 20 10 21
REMARK SMILES IDX 9 22 8 23 7 24 6 25 5 26 4 27 3 28 2 29 1 30
REMARK H PARENT
REMARK Flexibility Score: inf
ROOT
ATOM      1  C   UNL     1      -8.076  12.275 -21.514  1.00  0.00     0.000 C 
ENDROOT
BRANCH   1   2
ATOM      2  C   UNL     1      -9.075  13.267 -20.891  1.00  0.00     0.000 C 
BRANCH   2   3
ATOM      3  C   UNL     1      -8.397  14.299 -19.972  1.00  0.00     0.000 C 
BRANCH   3   4
ATOM      4  C   UNL     1      -8.299  13.889 -18.491  1.00  0.00     0.000 C 
BRANCH   4   5
ATOM      5  C   UNL     1      -9.657  13.935 -17.767  1.00  0.00     0.000 C 
BRANCH   5   6
ATOM      6  C   UNL     1      -9.996  15.345 -17.243  1.00  0.00     0.000 C 
BRANCH   6   7
ATOM      7  C   UNL     1      -9.722  16.477 -18.254  1.00  0.00     0.000 C 
BRANCH   7   8
ATOM      8  C   UNL     1     -10.446  17.800 -17.934  1.00  0.00     0.000 C 
BRANCH   8   9
ATOM      9  C   UNL     1      -9.470  18.920 -17.527  1.00  0.00     0.000 C 
BRANCH   9  10
ATOM     10  C   UNL     1      -8.614  18.533 -16.303  1.00  0.00     0.000 C 
BRANCH  10  11
ATOM     11  C   UNL     1      -8.389  19.690 -15.314  1.00  0.00     0.000 C 
BRANCH  11  12
ATOM     12  C   UNL     1      -7.074  20.445 -15.568  1.00  0.00     0.006 C 
BRANCH  12  13
ATOM     13  C   UNL     1      -5.861  19.717 -14.971  1.00  0.00     0.053 C 
BRANCH  13  14
ATOM     14  C   UNL     1      -5.799  19.871 -13.482  1.00  0.00     0.041 C 
ATOM     15  O   UNL     1      -5.591  21.003 -12.969  1.00  0.00    -0.550 OA
ATOM     16  O   UNL     1      -5.962  18.763 -12.660  1.00  0.00    -0.550 OA
ENDBRANCH  13  14
ENDBRANCH  12  13
ENDBRANCH  11  12
ENDBRANCH  10  11
ENDBRANCH   9  10
ENDBRANCH   8   9
ENDBRANCH   7   8
ENDBRANCH   6   7
ENDBRANCH   5   6
ENDBRANCH   4   5
ENDBRANCH   3   4
ENDBRANCH   2   3
ENDBRANCH   1   2
BRANCH   1  17
ATOM     17  C   UNL     1      -7.842  12.531 -23.011  1.00  0.00     0.000 C 
BRANCH  17  18
ATOM     18  C   UNL     1      -6.424  12.155 -23.466  1.00  0.00     0.000 C 
BRANCH  18  19
ATOM     19  C   UNL     1      -6.423  11.690 -24.930  1.00  0.00     0.000 C 
BRANCH  19  20
ATOM     20  C   UNL     1      -5.894  10.257 -25.100  1.00  0.00     0.000 C 
BRANCH  20  21
ATOM     21  C   UNL     1      -4.765   9.923 -24.114  1.00  0.00     0.000 C 
BRANCH  21  22
ATOM     22  C   UNL     1      -3.847   8.830 -24.676  1.00  0.00    -0.000 C 
BRANCH  22  23
ATOM     23  C   UNL     1      -2.393   9.317 -24.745  1.00  0.00    -0.000 C 
BRANCH  23  24
ATOM     24  C   UNL     1      -1.385   8.245 -24.295  1.00  0.00    -0.000 C 
BRANCH  24  25
ATOM     25  C   UNL     1      -0.751   8.537 -22.918  1.00  0.00    -0.000 C 
BRANCH  25  26
ATOM     26  C   UNL     1      -1.568   7.932 -21.762  1.00  0.00    -0.000 C 
BRANCH  26  27
ATOM     27  C   UNL     1      -1.010   8.334 -20.379  1.00  0.00    -0.000 C 
BRANCH  27  28
ATOM     28  C   UNL     1      -2.066   8.329 -19.260  1.00  0.00    -0.000 C 
BRANCH  28  29
ATOM     29  C   UNL     1      -3.172   7.289 -19.487  1.00  0.00    -0.003 C 
ATOM     30  C   UNL     1      -4.551   7.945 -19.497  1.00  0.00     0.004 C 
ENDBRANCH  28  29
ENDBRANCH  27  28
ENDBRANCH  26  27
ENDBRANCH  25  26
ENDBRANCH  24  25
ENDBRANCH  23  24
ENDBRANCH  22  23
ENDBRANCH  21  22
ENDBRANCH  20  21
ENDBRANCH  19  20
ENDBRANCH  18  19
ENDBRANCH  17  18
ENDBRANCH   1  17
TORSDOF 26
ENDMDL
MODEL 7
REMARK VINA RESULT:    30.010      1.695      2.715
REMARK INTER + INTRA:          74.121
REMARK INTER:                  75.020
REMARK INTRA:                  -0.899
REMARK UNBOUND:                -1.502
REMARK SMILES CCCCCCCCCCCCCCCCCCCCCCCCCCCC(=O)[O-]
REMARK SMILES IDX 15 1 16 2 17 3 18 4 19 5 20 6 21 7 22 8 23 9 24 10 25 11
REMARK SMILES IDX 26 12 27 13 28 14 29 15 30 16 14 17 13 18 12 19 11 20 10 21
REMARK SMILES IDX 9 22 8 23 7 24 6 25 5 26 4 27 3 28 2 29 1 30
REMARK H PARENT
REMARK Flexibility Score: inf
ROOT
ATOM      1  C   UNL     1      -8.480  14.572 -18.044  1.00  0.00     0.000 C 
ENDROOT
BRANCH   1   2
ATOM      2  C   UNL     1      -9.624  13.601 -18.388  1.00  0.00     0.000 C 
BRANCH   2   3
ATOM      3  C   UNL     1      -9.577  13.118 -19.848  1.00  0.00     0.000 C 
BRANCH   3   4
ATOM      4  C   UNL     1      -8.301  13.498 -20.621  1.00  0.00     0.000 C 
BRANCH   4   5
ATOM      5  C   UNL     1      -7.803  12.372 -21.545  1.00  0.00     0.000 C 
BRANCH   5   6
ATOM      6  C   UNL     1      -7.725  12.814 -23.020  1.00  0.00     0.000 C 
BRANCH   6   7
ATOM      7  C   UNL     1      -6.413  12.420 -23.729  1.00  0.00     0.000 C 
BRANCH   7   8
ATOM      8  C   UNL     1      -6.261  13.004 -25.148  1.00  0.00     0.000 C 
BRANCH   8   9
ATOM      9  C   UNL     1      -4.987  13.856 -25.298  1.00  0.00     0.000 C 
BRANCH   9  10
ATOM     10  C   UNL     1      -5.061  14.811 -26.508  1.00  0.00     0.000 C 
BRANCH  10  11
ATOM     11  C   UNL     1      -4.704  16.268 -26.169  1.00  0.00     0.000 C 
BRANCH  11  12
ATOM     12  C   UNL     1      -5.918  17.210 -26.230  1.00  0.00     0.006 C 
BRANCH  12  13
ATOM     13  C   UNL     1      -5.645  18.555 -25.544  1.00  0.00     0.053 C 
BRANCH  13  14
ATOM     14  C   UNL     1      -5.778  18.456 -24.055  1.00  0.00     0.041 C 
ATOM     15  O   UNL     1      -6.729  19.034 -23.462  1.00  0.00    -0.550 OA
ATOM     16  O   UNL     1      -4.847  17.733 -23.319  1.00  0.00    -0.550 OA
ENDBRANCH  13  14
ENDBRANCH  12  13
ENDBRANCH  11  12
ENDBRANCH  10  11
ENDBRANCH   9  10
ENDBRANCH   8   9
ENDBRANCH   7   8
ENDBRANCH   6   7
ENDBRANCH   5   6
ENDBRANCH   4   5
ENDBRANCH   3   4
ENDBRANCH   2   3
ENDBRANCH   1   2
BRANCH   1  17
ATOM     17  C   UNL     1      -8.944  15.752 -17.176  1.00  0.00     0.000 C 
BRANCH  17  18
ATOM     18  C   UNL     1     -10.037  16.594 -17.849  1.00  0.00     0.000 C 
BRANCH  18  19
ATOM     19  C   UNL     1      -9.591  18.058 -17.993  1.00  0.00     0.000 C 
BRANCH  19  20
ATOM     20  C   UNL     1      -9.451  18.773 -16.640  1.00  0.00     0.000 C 
BRANCH  20  21
ATOM     21  C   UNL     1      -7.987  18.948 -16.212  1.00  0.00     0.000 C 
BRANCH  21  22
ATOM     22  C   UNL     1      -7.880  19.816 -14.952  1.00  0.00    -0.000 C 
BRANCH  22  23
ATOM     23  C   UNL     1      -9.042  19.530 -13.990  1.00  0.00    -0.000 C 
BRANCH  23  24
ATOM     24  C   UNL     1     -10.126  20.620 -14.026  1.00  0.00    -0.000 C 
BRANCH  24  25
ATOM     25  C   UNL     1     -10.579  21.085 -12.625  1.00  0.00    -0.000 C 
BRANCH  25  26
ATOM     26  C   UNL     1     -10.765  22.612 -12.551  1.00  0.00    -0.000 C 
BRANCH  26  27
ATOM     27  C   UNL     1     -10.795  23.128 -11.097  1.00  0.00    -0.000 C 
BRANCH  27  28
ATOM     28  C   UNL     1      -9.421  23.579 -10.571  1.00  0.00    -0.000 C 
BRANCH  28  29
ATOM     29  C   UNL     1      -9.357  25.087 -10.283  1.00  0.00    -0.003 C 
ATOM     30  C   UNL     1      -9.764  25.898 -11.510  1.00  0.00     0.004 C 
ENDBRANCH  28  29
ENDBRANCH  27  28
ENDBRANCH  26  27
ENDBRANCH  25  26
ENDBRANCH  24  25
ENDBRANCH  23  24
ENDBRANCH  22  23
ENDBRANCH  21  22
ENDBRANCH  20  21
ENDBRANCH  19  20
ENDBRANCH  18  19
ENDBRANCH  17  18
ENDBRANCH   1  17
TORSDOF 26
ENDMDL
MODEL 8
REMARK VINA RESULT:    30.021      6.650     14.017
REMARK INTER + INTRA:          74.149
REMARK INTER:                  75.243
REMARK INTRA:                  -1.094
REMARK UNBOUND:                -1.502
REMARK SMILES CCCCCCCCCCCCCCCCCCCCCCCCCCCC(=O)[O-]
REMARK SMILES IDX 15 1 16 2 17 3 18 4 19 5 20 6 21 7 22 8 23 9 24 10 25 11
REMARK SMILES IDX 26 12 27 13 28 14 29 15 30 16 14 17 13 18 12 19 11 20 10 21
REMARK SMILES IDX 9 22 8 23 7 24 6 25 5 26 4 27 3 28 2 29 1 30
REMARK H PARENT
REMARK Flexibility Score: inf
ROOT
ATOM      1  C   UNL     1      -8.358  13.991 -20.715  1.00  0.00     0.000 C 
ENDROOT
BRANCH   1   2
ATOM      2  C   UNL     1      -9.200  14.059 -19.429  1.00  0.00     0.000 C 
BRANCH   2   3
ATOM      3  C   UNL     1      -8.342  14.033 -18.151  1.00  0.00     0.000 C 
BRANCH   3   4
ATOM      4  C   UNL     1      -8.960  14.749 -16.936  1.00  0.00     0.000 C 
BRANCH   4   5
ATOM      5  C   UNL     1     -10.252  14.077 -16.439  1.00  0.00     0.000 C 
BRANCH   5   6
ATOM      6  C   UNL     1      -9.989  13.063 -15.307  1.00  0.00     0.000 C 
BRANCH   6   7
ATOM      7  C   UNL     1      -8.756  13.390 -14.441  1.00  0.00     0.000 C 
BRANCH   7   8
ATOM      8  C   UNL     1      -8.914  13.023 -12.951  1.00  0.00     0.000 C 
BRANCH   8   9
ATOM      9  C   UNL     1     -10.200  13.606 -12.337  1.00  0.00     0.000 C 
BRANCH   9  10
ATOM     10  C   UNL     1     -11.055  12.528 -11.638  1.00  0.00     0.000 C 
BRANCH  10  11
ATOM     11  C   UNL     1     -12.153  13.103 -10.727  1.00  0.00     0.000 C 
BRANCH  11  12
ATOM     12  C   UNL     1     -12.197  12.428  -9.346  1.00  0.00     0.006 C 
BRANCH  12  13
ATOM     13  C   UNL     1     -12.191  13.448  -8.200  1.00  0.00     0.053 C 
BRANCH  13  14
ATOM     14  C   UNL     1     -13.332  14.412  -8.310  1.00  0.00     0.041 C 
ATOM     15  O   UNL     1     -14.494  13.996  -8.564  1.00  0.00    -0.550 OA
ATOM     16  O   UNL     1     -13.112  15.774  -8.140  1.00  0.00    -0.550 OA
ENDBRANCH  13  14
ENDBRANCH  12  13
ENDBRANCH  11  12
ENDBRANCH  10  11
ENDBRANCH   9  10
ENDBRANCH   8   9
ENDBRANCH   7   8
ENDBRANCH   6   7
ENDBRANCH   5   6
ENDBRANCH   4   5
ENDBRANCH   3   4
ENDBRANCH   2   3
ENDBRANCH   1   2
BRANCH   1  17
ATOM     17  C   UNL     1      -8.822  12.881 -21.670  1.00  0.00     0.000 C 
BRANCH  17  18
ATOM     18  C   UNL     1      -7.657  12.061 -22.245  1.00  0.00     0.000 C 
BRANCH  18  19
ATOM     19  C   UNL     1      -6.680  12.963 -23.014  1.00  0.00     0.000 C 
BRANCH  19  20
ATOM     20  C   UNL     1      -6.238  12.355 -24.354  1.00  0.00     0.000 C 
BRANCH  20  21
ATOM     21  C   UNL     1      -6.409  10.829 -24.397  1.00  0.00     0.000 C 
BRANCH  21  22
ATOM     22  C   UNL     1      -5.302  10.172 -25.231  1.00  0.00    -0.000 C 
BRANCH  22  23
ATOM     23  C   UNL     1      -4.869   8.836 -24.611  1.00  0.00    -0.000 C 
BRANCH  23  24
ATOM     24  C   UNL     1      -3.376   8.535 -24.830  1.00  0.00    -0.000 C 
BRANCH  24  25
ATOM     25  C   UNL     1      -2.594   8.309 -23.518  1.00  0.00    -0.000 C 
BRANCH  25  26
ATOM     26  C   UNL     1      -1.095   8.625 -23.672  1.00  0.00    -0.000 C 
BRANCH  26  27
ATOM     27  C   UNL     1      -0.838   9.750 -24.698  1.00  0.00    -0.000 C 
BRANCH  27  28
ATOM     28  C   UNL     1      -0.547   9.237 -26.119  1.00  0.00    -0.000 C 
BRANCH  28  29
ATOM     29  C   UNL     1       0.902   8.761 -26.299  1.00  0.00    -0.003 C 
ATOM     30  C   UNL     1       0.962   7.252 -26.519  1.00  0.00     0.004 C 
ENDBRANCH  28  29
ENDBRANCH  27  28
ENDBRANCH  26  27
ENDBRANCH  25  26
ENDBRANCH  24  25
ENDBRANCH  23  24
ENDBRANCH  22  23
ENDBRANCH  21  22
ENDBRANCH  20  21
ENDBRANCH  19  20
ENDBRANCH  18  19
ENDBRANCH  17  18
ENDBRANCH   1  17
TORSDOF 26
ENDMDL
MODEL 9
REMARK VINA RESULT:    30.078      2.733      9.811
REMARK INTER + INTRA:          74.292
REMARK INTER:                  75.451
REMARK INTRA:                  -1.159
REMARK UNBOUND:                -1.502
REMARK SMILES CCCCCCCCCCCCCCCCCCCCCCCCCCCC(=O)[O-]
REMARK SMILES IDX 15 1 16 2 17 3 18 4 19 5 20 6 21 7 22 8 23 9 24 10 25 11
REMARK SMILES IDX 26 12 27 13 28 14 29 15 30 16 14 17 13 18 12 19 11 20 10 21
REMARK SMILES IDX 9 22 8 23 7 24 6 25 5 26 4 27 3 28 2 29 1 30
REMARK H PARENT
REMARK Flexibility Score: inf
ROOT
ATOM      1  C   UNL     1      -9.361  12.897 -21.323  1.00  0.00     0.000 C 
ENDROOT
BRANCH   1   2
ATOM      2  C   UNL     1      -8.968  14.110 -20.463  1.00  0.00     0.000 C 
BRANCH   2   3
ATOM      3  C   UNL     1      -8.196  13.716 -19.191  1.00  0.00     0.000 C 
BRANCH   3   4
ATOM      4  C   UNL     1      -9.028  13.720 -17.896  1.00  0.00     0.000 C 
BRANCH   4   5
ATOM      5  C   UNL     1      -8.759  14.954 -17.016  1.00  0.00     0.000 C 
BRANCH   5   6
ATOM      6  C   UNL     1      -9.941  15.945 -17.017  1.00  0.00     0.000 C 
BRANCH   6   7
ATOM      7  C   UNL     1      -9.941  16.925 -18.207  1.00  0.00     0.000 C 
BRANCH   7   8
ATOM      8  C   UNL     1     -10.194  18.395 -17.815  1.00  0.00     0.000 C 
BRANCH   8   9
ATOM      9  C   UNL     1      -9.149  18.925 -16.817  1.00  0.00     0.000 C 
BRANCH   9  10
ATOM     10  C   UNL     1      -9.796  19.473 -15.527  1.00  0.00     0.000 C 
BRANCH  10  11
ATOM     11  C   UNL     1      -8.797  19.696 -14.379  1.00  0.00     0.000 C 
BRANCH  11  12
ATOM     12  C   UNL     1      -7.518  18.856 -14.530  1.00  0.00     0.006 C 
BRANCH  12  13
ATOM     13  C   UNL     1      -6.429  19.273 -13.532  1.00  0.00     0.053 C 
BRANCH  13  14
ATOM     14  C   UNL     1      -5.913  20.649 -13.816  1.00  0.00     0.041 C 
ATOM     15  O   UNL     1      -6.134  21.194 -14.931  1.00  0.00    -0.550 OA
ATOM     16  O   UNL     1      -5.177  21.330 -12.853  1.00  0.00    -0.550 OA
ENDBRANCH  13  14
ENDBRANCH  12  13
ENDBRANCH  11  12
ENDBRANCH  10  11
ENDBRANCH   9  10
ENDBRANCH   8   9
ENDBRANCH   7   8
ENDBRANCH   6   7
ENDBRANCH   5   6
ENDBRANCH   4   5
ENDBRANCH   3   4
ENDBRANCH   2   3
ENDBRANCH   1   2
BRANCH   1  17
ATOM     17  C   UNL     1      -8.144  12.094 -21.809  1.00  0.00     0.000 C 
BRANCH  17  18
ATOM     18  C   UNL     1      -7.241  12.895 -22.759  1.00  0.00     0.000 C 
BRANCH  18  19
ATOM     19  C   UNL     1      -6.227  11.975 -23.456  1.00  0.00     0.000 C 
BRANCH  19  20
ATOM     20  C   UNL     1      -6.591  11.690 -24.922  1.00  0.00     0.000 C 
BRANCH  20  21
ATOM     21  C   UNL     1      -6.599  12.959 -25.787  1.00  0.00     0.000 C 
BRANCH  21  22
ATOM     22  C   UNL     1      -5.415  13.871 -25.440  1.00  0.00    -0.000 C 
BRANCH  22  23
ATOM     23  C   UNL     1      -4.954  14.663 -26.672  1.00  0.00    -0.000 C 
BRANCH  23  24
ATOM     24  C   UNL     1      -4.707  16.150 -26.365  1.00  0.00    -0.000 C 
BRANCH  24  25
ATOM     25  C   UNL     1      -5.984  17.015 -26.446  1.00  0.00    -0.000 C 
BRANCH  25  26
ATOM     26  C   UNL     1      -5.677  18.518 -26.311  1.00  0.00    -0.000 C 
BRANCH  26  27
ATOM     27  C   UNL     1      -5.264  18.903 -24.874  1.00  0.00    -0.000 C 
BRANCH  27  28
ATOM     28  C   UNL     1      -5.149  17.702 -23.919  1.00  0.00    -0.000 C 
BRANCH  28  29
ATOM     29  C   UNL     1      -6.059  17.829 -22.688  1.00  0.00    -0.003 C 
ATOM     30  C   UNL     1      -7.135  18.889 -22.906  1.00  0.00     0.004 C 
ENDBRANCH  28  29
ENDBRANCH  27  28
ENDBRANCH  26  27
ENDBRANCH  25  26
ENDBRANCH  24  25
ENDBRANCH  23  24
ENDBRANCH  22  23
ENDBRANCH  21  22
ENDBRANCH  20  21
ENDBRANCH  19  20
ENDBRANCH  18  19
ENDBRANCH  17  18
ENDBRANCH   1  17
TORSDOF 26
ENDMDL
