MODEL 1
REMARK VINA RESULT:    -2.767      0.000      0.000
REMARK INTER + INTRA:          -6.270
REMARK INTER:                  -5.032
REMARK INTRA:                  -1.239
REMARK UNBOUND:                -1.239
REMARK SMILES CCCCCCCCCCCCCCCC(=O)[O-]
REMARK SMILES IDX 9 1 10 2 11 3 12 4 13 5 14 6 15 7 16 8 17 9 18 10 8 11 7 12
REMARK SMILES IDX 6 13 5 14 4 15 3 16 2 17 1 18
REMARK H PARENT
REMARK Flexibility Score: inf
ROOT
ATOM      1  C   UNL     1       9.505 -34.695  13.929  1.00  0.00     0.000 C 
ENDROOT
BRANCH   1   2
ATOM      2  C   UNL     1       8.172 -34.780  13.157  1.00  0.00     0.000 C 
BRANCH   2   3
ATOM      3  C   UNL     1       7.454 -33.437  12.930  1.00  0.00     0.000 C 
BRANCH   3   4
ATOM      4  C   UNL     1       6.128 -33.329  13.702  1.00  0.00     0.000 C 
BRANCH   4   5
ATOM      5  C   UNL     1       6.325 -33.286  15.229  1.00  0.00     0.000 C 
BRANCH   5   6
ATOM      6  C   UNL     1       7.303 -32.207  15.737  1.00  0.00     0.006 C 
BRANCH   6   7
ATOM      7  C   UNL     1       8.489 -32.750  16.549  1.00  0.00     0.053 C 
BRANCH   7   8
ATOM      8  C   UNL     1       8.830 -31.858  17.703  1.00  0.00     0.041 C 
ATOM      9  O   UNL     1       8.165 -31.920  18.771  1.00  0.00    -0.550 OA
ATOM     10  O   UNL     1       9.863 -30.937  17.588  1.00  0.00    -0.550 OA
ENDBRANCH   7   8
ENDBRANCH   6   7
ENDBRANCH   5   6
ENDBRANCH   4   5
ENDBRANCH   3   4
ENDBRANCH   2   3
ENDBRANCH   1   2
BRANCH   1  11
ATOM     11  C   UNL     1      10.766 -34.922  13.077  1.00  0.00     0.000 C 
BRANCH  11  12
ATOM     12  C   UNL     1      11.616 -33.649  12.923  1.00  0.00    -0.000 C 
BRANCH  12  13
ATOM     13  C   UNL     1      10.882 -32.390  13.408  1.00  0.00    -0.000 C 
BRANCH  13  14
ATOM     14  C   UNL     1      11.792 -31.457  14.226  1.00  0.00    -0.000 C 
BRANCH  14  15
ATOM     15  C   UNL     1      13.284 -31.639  13.895  1.00  0.00    -0.000 C 
BRANCH  15  16
ATOM     16  C   UNL     1      14.236 -30.673  14.628  1.00  0.00    -0.000 C 
BRANCH  16  17
ATOM     17  C   UNL     1      14.499 -29.343  13.899  1.00  0.00    -0.003 C 
ATOM     18  C   UNL     1      15.318 -28.359  14.731  1.00  0.00     0.004 C 
ENDBRANCH  16  17
ENDBRANCH  15  16
ENDBRANCH  14  15
ENDBRANCH  13  14
ENDBRANCH  12  13
ENDBRANCH  11  12
ENDBRANCH   1  11
TORSDOF 14
ENDMDL
MODEL 2
REMARK VINA RESULT:    -2.618      2.064      5.229
REMARK INTER + INTRA:          -6.000
REMARK INTER:                  -4.383
REMARK INTRA:                  -1.617
REMARK UNBOUND:                -1.239
REMARK SMILES CCCCCCCCCCCCCCCC(=O)[O-]
REMARK SMILES IDX 9 1 10 2 11 3 12 4 13 5 14 6 15 7 16 8 17 9 18 10 8 11 7 12
REMARK SMILES IDX 6 13 5 14 4 15 3 16 2 17 1 18
REMARK H PARENT
REMARK Flexibility Score: inf
ROOT
ATOM      1  C   UNL     1       7.626 -35.631  14.852  1.00  0.00     0.000 C 
ENDROOT
BRANCH   1   2
ATOM      2  C   UNL     1       8.127 -36.507  13.684  1.00  0.00     0.000 C 
BRANCH   2   3
ATOM      3  C   UNL     1       9.339 -35.951  12.915  1.00  0.00     0.000 C 
BRANCH   3   4
ATOM      4  C   UNL     1      10.120 -34.893  13.713  1.00  0.00     0.000 C 
BRANCH   4   5
ATOM      5  C   UNL     1      10.474 -33.650  12.875  1.00  0.00     0.000 C 
BRANCH   5   6
ATOM      6  C   UNL     1      11.033 -32.455  13.674  1.00  0.00     0.006 C 
BRANCH   6   7
ATOM      7  C   UNL     1      12.567 -32.383  13.725  1.00  0.00     0.053 C 
BRANCH   7   8
ATOM      8  C   UNL     1      13.045 -31.106  14.347  1.00  0.00     0.041 C 
ATOM      9  O   UNL     1      12.599 -30.738  15.466  1.00  0.00    -0.550 OA
ATOM     10  O   UNL     1      13.960 -30.306  13.674  1.00  0.00    -0.550 OA
ENDBRANCH   7   8
ENDBRANCH   6   7
ENDBRANCH   5   6
ENDBRANCH   4   5
ENDBRANCH   3   4
ENDBRANCH   2   3
ENDBRANCH   1   2
BRANCH   1  11
ATOM     11  C   UNL     1       6.263 -34.956  14.622  1.00  0.00     0.000 C 
BRANCH  11  12
ATOM     12  C   UNL     1       6.309 -33.885  13.518  1.00  0.00    -0.000 C 
BRANCH  12  13
ATOM     13  C   UNL     1       7.158 -32.668  13.915  1.00  0.00    -0.000 C 
BRANCH  13  14
ATOM     14  C   UNL     1       7.011 -32.309  15.404  1.00  0.00    -0.000 C 
BRANCH  14  15
ATOM     15  C   UNL     1       8.365 -32.194  16.126  1.00  0.00    -0.000 C 
BRANCH  15  16
ATOM     16  C   UNL     1       8.343 -32.585  17.617  1.00  0.00    -0.000 C 
BRANCH  16  17
ATOM     17  C   UNL     1       8.428 -31.404  18.600  1.00  0.00    -0.003 C 
ATOM     18  C   UNL     1       9.637 -31.487  19.529  1.00  0.00     0.004 C 
ENDBRANCH  16  17
ENDBRANCH  15  16
ENDBRANCH  14  15
ENDBRANCH  13  14
ENDBRANCH  12  13
ENDBRANCH  11  12
ENDBRANCH   1  11
TORSDOF 14
ENDMDL
MODEL 3
REMARK VINA RESULT:    -2.318      2.019      5.320
REMARK INTER + INTRA:          -5.454
REMARK INTER:                  -4.506
REMARK INTRA:                  -0.948
REMARK UNBOUND:                -1.239
REMARK SMILES CCCCCCCCCCCCCCCC(=O)[O-]
REMARK SMILES IDX 9 1 10 2 11 3 12 4 13 5 14 6 15 7 16 8 17 9 18 10 8 11 7 12
REMARK SMILES IDX 6 13 5 14 4 15 3 16 2 17 1 18
REMARK H PARENT
REMARK Flexibility Score: inf
ROOT
ATOM      1  C   UNL     1       8.522 -35.897  13.142  1.00  0.00     0.000 C 
ENDROOT
BRANCH   1   2
ATOM      2  C   UNL     1       9.544 -37.022  12.875  1.00  0.00     0.000 C 
BRANCH   2   3
ATOM      3  C   UNL     1      10.913 -36.845  13.555  1.00  0.00     0.000 C 
BRANCH   3   4
ATOM      4  C   UNL     1      11.704 -35.646  13.006  1.00  0.00     0.000 C 
BRANCH   4   5
ATOM      5  C   UNL     1      11.048 -34.292  13.337  1.00  0.00     0.000 C 
BRANCH   5   6
ATOM      6  C   UNL     1      11.984 -33.069  13.254  1.00  0.00     0.006 C 
BRANCH   6   7
ATOM      7  C   UNL     1      11.354 -31.749  13.723  1.00  0.00     0.053 C 
BRANCH   7   8
ATOM      8  C   UNL     1      12.090 -31.162  14.889  1.00  0.00     0.041 C 
ATOM      9  O   UNL     1      11.477 -30.894  15.957  1.00  0.00    -0.550 OA
ATOM     10  O   UNL     1      13.446 -30.884  14.785  1.00  0.00    -0.550 OA
ENDBRANCH   7   8
ENDBRANCH   6   7
ENDBRANCH   5   6
ENDBRANCH   4   5
ENDBRANCH   3   4
ENDBRANCH   2   3
ENDBRANCH   1   2
BRANCH   1  11
ATOM     11  C   UNL     1       7.462 -36.220  14.209  1.00  0.00     0.000 C 
BRANCH  11  12
ATOM     12  C   UNL     1       6.379 -35.133  14.319  1.00  0.00    -0.000 C 
BRANCH  12  13
ATOM     13  C   UNL     1       6.364 -34.193  13.104  1.00  0.00    -0.000 C 
BRANCH  13  14
ATOM     14  C   UNL     1       6.453 -32.710  13.507  1.00  0.00    -0.000 C 
BRANCH  14  15
ATOM     15  C   UNL     1       7.710 -32.394  14.337  1.00  0.00    -0.000 C 
BRANCH  15  16
ATOM     16  C   UNL     1       7.454 -32.150  15.838  1.00  0.00    -0.000 C 
BRANCH  16  17
ATOM     17  C   UNL     1       8.529 -32.718  16.781  1.00  0.00    -0.003 C 
ATOM     18  C   UNL     1       8.619 -31.965  18.106  1.00  0.00     0.004 C 
ENDBRANCH  16  17
ENDBRANCH  15  16
ENDBRANCH  14  15
ENDBRANCH  13  14
ENDBRANCH  12  13
ENDBRANCH  11  12
ENDBRANCH   1  11
TORSDOF 14
ENDMDL
MODEL 4
REMARK VINA RESULT:    -2.277      0.956      1.586
REMARK INTER + INTRA:          -5.378
REMARK INTER:                  -4.513
REMARK INTRA:                  -0.865
REMARK UNBOUND:                -1.239
REMARK SMILES CCCCCCCCCCCCCCCC(=O)[O-]
REMARK SMILES IDX 9 1 10 2 11 3 12 4 13 5 14 6 15 7 16 8 17 9 18 10 8 11 7 12
REMARK SMILES IDX 6 13 5 14 4 15 3 16 2 17 1 18
REMARK H PARENT
REMARK Flexibility Score: inf
ROOT
ATOM      1  C   UNL     1      10.261 -32.729  13.867  1.00  0.00     0.000 C 
ENDROOT
BRANCH   1   2
ATOM      2  C   UNL     1       9.348 -31.977  12.876  1.00  0.00     0.000 C 
BRANCH   2   3
ATOM      3  C   UNL     1       7.839 -32.237  13.040  1.00  0.00     0.000 C 
BRANCH   3   4
ATOM      4  C   UNL     1       7.532 -33.621  13.635  1.00  0.00     0.000 C 
BRANCH   4   5
ATOM      5  C   UNL     1       6.855 -33.544  15.016  1.00  0.00     0.000 C 
BRANCH   5   6
ATOM      6  C   UNL     1       7.377 -32.427  15.944  1.00  0.00     0.006 C 
BRANCH   6   7
ATOM      7  C   UNL     1       8.466 -32.873  16.931  1.00  0.00     0.053 C 
BRANCH   7   8
ATOM      8  C   UNL     1       8.882 -31.760  17.844  1.00  0.00     0.041 C 
ATOM      9  O   UNL     1       8.228 -31.522  18.894  1.00  0.00    -0.550 OA
ATOM     10  O   UNL     1       9.973 -30.966  17.518  1.00  0.00    -0.550 OA
ENDBRANCH   7   8
ENDBRANCH   6   7
ENDBRANCH   5   6
ENDBRANCH   4   5
ENDBRANCH   3   4
ENDBRANCH   2   3
ENDBRANCH   1   2
BRANCH   1  11
ATOM     11  C   UNL     1      11.156 -33.809  13.236  1.00  0.00     0.000 C 
BRANCH  11  12
ATOM     12  C   UNL     1      12.613 -33.346  13.064  1.00  0.00    -0.000 C 
BRANCH  12  13
ATOM     13  C   UNL     1      12.897 -32.018  13.782  1.00  0.00    -0.000 C 
BRANCH  13  14
ATOM     14  C   UNL     1      14.325 -31.504  13.526  1.00  0.00    -0.000 C 
BRANCH  14  15
ATOM     15  C   UNL     1      14.414 -29.968  13.530  1.00  0.00    -0.000 C 
BRANCH  15  16
ATOM     16  C   UNL     1      14.888 -29.347  14.860  1.00  0.00    -0.000 C 
BRANCH  16  17
ATOM     17  C   UNL     1      15.356 -27.884  14.764  1.00  0.00    -0.003 C 
ATOM     18  C   UNL     1      15.992 -27.375  16.056  1.00  0.00     0.004 C 
ENDBRANCH  16  17
ENDBRANCH  15  16
ENDBRANCH  14  15
ENDBRANCH  13  14
ENDBRANCH  12  13
ENDBRANCH  11  12
ENDBRANCH   1  11
TORSDOF 14
ENDMDL
MODEL 5
REMARK VINA RESULT:    -2.099      3.068      6.783
REMARK INTER + INTRA:          -5.055
REMARK INTER:                  -3.739
REMARK INTRA:                  -1.316
REMARK UNBOUND:                -1.239
REMARK SMILES CCCCCCCCCCCCCCCC(=O)[O-]
REMARK SMILES IDX 9 1 10 2 11 3 12 4 13 5 14 6 15 7 16 8 17 9 18 10 8 11 7 12
REMARK SMILES IDX 6 13 5 14 4 15 3 16 2 17 1 18
REMARK H PARENT
REMARK Flexibility Score: inf
ROOT
ATOM      1  C   UNL     1       9.999 -31.020  17.603  1.00  0.00     0.000 C 
ENDROOT
BRANCH   1   2
ATOM      2  C   UNL     1      10.155 -30.893  16.073  1.00  0.00     0.000 C 
BRANCH   2   3
ATOM      3  C   UNL     1      11.561 -31.197  15.526  1.00  0.00     0.000 C 
BRANCH   3   4
ATOM      4  C   UNL     1      11.563 -31.510  14.020  1.00  0.00     0.000 C 
BRANCH   4   5
ATOM      5  C   UNL     1      10.218 -32.070  13.522  1.00  0.00     0.000 C 
BRANCH   5   6
ATOM      6  C   UNL     1      10.285 -33.470  12.878  1.00  0.00     0.006 C 
BRANCH   6   7
ATOM      7  C   UNL     1      11.492 -34.316  13.312  1.00  0.00     0.053 C 
BRANCH   7   8
ATOM      8  C   UNL     1      11.283 -35.773  13.031  1.00  0.00     0.041 C 
ATOM      9  O   UNL     1      12.271 -36.538  12.875  1.00  0.00    -0.550 OA
ATOM     10  O   UNL     1       9.995 -36.279  12.912  1.00  0.00    -0.550 OA
ENDBRANCH   7   8
ENDBRANCH   6   7
ENDBRANCH   5   6
ENDBRANCH   4   5
ENDBRANCH   3   4
ENDBRANCH   2   3
ENDBRANCH   1   2
BRANCH   1  11
ATOM     11  C   UNL     1       9.102 -32.178  18.073  1.00  0.00     0.000 C 
BRANCH  11  12
ATOM     12  C   UNL     1       8.485 -32.964  16.903  1.00  0.00    -0.000 C 
BRANCH  12  13
ATOM     13  C   UNL     1       7.298 -32.229  16.262  1.00  0.00    -0.000 C 
BRANCH  13  14
ATOM     14  C   UNL     1       7.056 -32.661  14.805  1.00  0.00    -0.000 C 
BRANCH  14  15
ATOM     15  C   UNL     1       6.349 -34.023  14.697  1.00  0.00    -0.000 C 
BRANCH  15  16
ATOM     16  C   UNL     1       7.249 -35.189  14.242  1.00  0.00    -0.000 C 
BRANCH  16  17
ATOM     17  C   UNL     1       6.824 -36.576  14.757  1.00  0.00    -0.003 C 
ATOM     18  C   UNL     1       6.896 -36.695  16.278  1.00  0.00     0.004 C 
ENDBRANCH  16  17
ENDBRANCH  15  16
ENDBRANCH  14  15
ENDBRANCH  13  14
ENDBRANCH  12  13
ENDBRANCH  11  12
ENDBRANCH   1  11
TORSDOF 14
ENDMDL
MODEL 6
REMARK VINA RESULT:    -2.099      2.770      6.509
REMARK INTER + INTRA:          -5.055
REMARK INTER:                  -3.849
REMARK INTRA:                  -1.206
REMARK UNBOUND:                -1.239
REMARK SMILES CCCCCCCCCCCCCCCC(=O)[O-]
REMARK SMILES IDX 9 1 10 2 11 3 12 4 13 5 14 6 15 7 16 8 17 9 18 10 8 11 7 12
REMARK SMILES IDX 6 13 5 14 4 15 3 16 2 17 1 18
REMARK H PARENT
REMARK Flexibility Score: inf
ROOT
ATOM      1  C   UNL     1       9.153 -31.885  18.057  1.00  0.00     0.000 C 
ENDROOT
BRANCH   1   2
ATOM      2  C   UNL     1      10.092 -30.849  17.403  1.00  0.00     0.000 C 
BRANCH   2   3
ATOM      3  C   UNL     1      10.300 -31.013  15.886  1.00  0.00     0.000 C 
BRANCH   3   4
ATOM      4  C   UNL     1      11.783 -31.126  15.494  1.00  0.00     0.000 C 
BRANCH   4   5
ATOM      5  C   UNL     1      11.992 -31.283  13.977  1.00  0.00     0.000 C 
BRANCH   5   6
ATOM      6  C   UNL     1      11.282 -32.493  13.336  1.00  0.00     0.006 C 
BRANCH   6   7
ATOM      7  C   UNL     1      12.197 -33.694  13.051  1.00  0.00     0.053 C 
BRANCH   7   8
ATOM      8  C   UNL     1      11.480 -34.998  13.226  1.00  0.00     0.041 C 
ATOM      9  O   UNL     1      10.222 -35.039  13.194  1.00  0.00    -0.550 OA
ATOM     10  O   UNL     1      12.202 -36.162  13.457  1.00  0.00    -0.550 OA
ENDBRANCH   7   8
ENDBRANCH   6   7
ENDBRANCH   5   6
ENDBRANCH   4   5
ENDBRANCH   3   4
ENDBRANCH   2   3
ENDBRANCH   1   2
BRANCH   1  11
ATOM     11  C   UNL     1       8.065 -32.453  17.130  1.00  0.00     0.000 C 
BRANCH  11  12
ATOM     12  C   UNL     1       8.508 -33.739  16.412  1.00  0.00    -0.000 C 
BRANCH  12  13
ATOM     13  C   UNL     1       7.353 -34.734  16.219  1.00  0.00    -0.000 C 
BRANCH  13  14
ATOM     14  C   UNL     1       7.410 -35.445  14.856  1.00  0.00    -0.000 C 
BRANCH  14  15
ATOM     15  C   UNL     1       6.095 -35.325  14.066  1.00  0.00    -0.000 C 
BRANCH  15  16
ATOM     16  C   UNL     1       6.139 -34.344  12.877  1.00  0.00    -0.000 C 
BRANCH  16  17
ATOM     17  C   UNL     1       6.246 -32.858  13.264  1.00  0.00    -0.003 C 
ATOM     18  C   UNL     1       7.591 -32.240  12.889  1.00  0.00     0.004 C 
ENDBRANCH  16  17
ENDBRANCH  15  16
ENDBRANCH  14  15
ENDBRANCH  13  14
ENDBRANCH  12  13
ENDBRANCH  11  12
ENDBRANCH   1  11
TORSDOF 14
ENDMDL
MODEL 7
REMARK VINA RESULT:    -1.903      2.360      4.006
REMARK INTER + INTRA:          -4.699
REMARK INTER:                  -3.569
REMARK INTRA:                  -1.129
REMARK UNBOUND:                -1.239
REMARK SMILES CCCCCCCCCCCCCCCC(=O)[O-]
REMARK SMILES IDX 9 1 10 2 11 3 12 4 13 5 14 6 15 7 16 8 17 9 18 10 8 11 7 12
REMARK SMILES IDX 6 13 5 14 4 15 3 16 2 17 1 18
REMARK H PARENT
REMARK Flexibility Score: inf
ROOT
ATOM      1  C   UNL     1       9.570 -31.511  18.299  1.00  0.00     0.000 C 
ENDROOT
BRANCH   1   2
ATOM      2  C   UNL     1       8.199 -32.104  17.911  1.00  0.00     0.000 C 
BRANCH   2   3
ATOM      3  C   UNL     1       8.195 -32.983  16.647  1.00  0.00     0.000 C 
BRANCH   3   4
ATOM      4  C   UNL     1       7.304 -32.418  15.529  1.00  0.00     0.000 C 
BRANCH   4   5
ATOM      5  C   UNL     1       6.276 -33.439  15.007  1.00  0.00     0.000 C 
BRANCH   5   6
ATOM      6  C   UNL     1       6.844 -34.523  14.067  1.00  0.00     0.006 C 
BRANCH   6   7
ATOM      7  C   UNL     1       8.043 -34.069  13.220  1.00  0.00     0.053 C 
BRANCH   7   8
ATOM      8  C   UNL     1       9.190 -35.029  13.317  1.00  0.00     0.041 C 
ATOM      9  O   UNL     1      10.356 -34.604  13.527  1.00  0.00    -0.550 OA
ATOM     10  O   UNL     1       8.973 -36.390  13.144  1.00  0.00    -0.550 OA
ENDBRANCH   7   8
ENDBRANCH   6   7
ENDBRANCH   5   6
ENDBRANCH   4   5
ENDBRANCH   3   4
ENDBRANCH   2   3
ENDBRANCH   1   2
BRANCH   1  11
ATOM     11  C   UNL     1      10.051 -30.348  17.415  1.00  0.00     0.000 C 
BRANCH  11  12
ATOM     12  C   UNL     1      11.237 -30.735  16.516  1.00  0.00    -0.000 C 
BRANCH  12  13
ATOM     13  C   UNL     1      10.798 -31.514  15.266  1.00  0.00    -0.000 C 
BRANCH  13  14
ATOM     14  C   UNL     1      11.592 -31.109  14.012  1.00  0.00    -0.000 C 
BRANCH  14  15
ATOM     15  C   UNL     1      12.770 -32.056  13.721  1.00  0.00    -0.000 C 
BRANCH  15  16
ATOM     16  C   UNL     1      14.166 -31.460  13.992  1.00  0.00    -0.000 C 
BRANCH  16  17
ATOM     17  C   UNL     1      14.350 -30.002  13.536  1.00  0.00    -0.003 C 
ATOM     18  C   UNL     1      14.923 -29.103  14.629  1.00  0.00     0.004 C 
ENDBRANCH  16  17
ENDBRANCH  15  16
ENDBRANCH  14  15
ENDBRANCH  13  14
ENDBRANCH  12  13
ENDBRANCH  11  12
ENDBRANCH   1  11
TORSDOF 14
ENDMDL
MODEL 8
REMARK VINA RESULT:    -1.888      2.523      4.352
REMARK INTER + INTRA:          -4.673
REMARK INTER:                  -3.876
REMARK INTRA:                  -0.797
REMARK UNBOUND:                -1.239
REMARK SMILES CCCCCCCCCCCCCCCC(=O)[O-]
REMARK SMILES IDX 9 1 10 2 11 3 12 4 13 5 14 6 15 7 16 8 17 9 18 10 8 11 7 12
REMARK SMILES IDX 6 13 5 14 4 15 3 16 2 17 1 18
REMARK H PARENT
REMARK Flexibility Score: inf
ROOT
ATOM      1  C   UNL     1       8.689 -32.147  13.552  1.00  0.00     0.000 C 
ENDROOT
BRANCH   1   2
ATOM      2  C   UNL     1       7.284 -32.376  12.957  1.00  0.00     0.000 C 
BRANCH   2   3
ATOM      3  C   UNL     1       6.332 -33.225  13.819  1.00  0.00     0.000 C 
BRANCH   3   4
ATOM      4  C   UNL     1       5.937 -34.550  13.146  1.00  0.00     0.000 C 
BRANCH   4   5
ATOM      5  C   UNL     1       7.141 -35.474  12.888  1.00  0.00     0.000 C 
BRANCH   5   6
ATOM      6  C   UNL     1       7.177 -36.761  13.737  1.00  0.00     0.006 C 
BRANCH   6   7
ATOM      7  C   UNL     1       6.209 -36.766  14.930  1.00  0.00     0.053 C 
BRANCH   7   8
ATOM      8  C   UNL     1       6.884 -36.336  16.197  1.00  0.00     0.041 C 
ATOM      9  O   UNL     1       7.570 -35.281  16.224  1.00  0.00    -0.550 OA
ATOM     10  O   UNL     1       6.778 -37.118  17.341  1.00  0.00    -0.550 OA
ENDBRANCH   7   8
ENDBRANCH   6   7
ENDBRANCH   5   6
ENDBRANCH   4   5
ENDBRANCH   3   4
ENDBRANCH   2   3
ENDBRANCH   1   2
BRANCH   1  11
ATOM     11  C   UNL     1       9.725 -33.234  13.213  1.00  0.00     0.000 C 
BRANCH  11  12
ATOM     12  C   UNL     1      11.174 -32.735  13.344  1.00  0.00    -0.000 C 
BRANCH  12  13
ATOM     13  C   UNL     1      11.253 -31.282  13.837  1.00  0.00    -0.000 C 
BRANCH  13  14
ATOM     14  C   UNL     1      11.619 -31.185  15.328  1.00  0.00    -0.000 C 
BRANCH  14  15
ATOM     15  C   UNL     1      10.439 -31.528  16.254  1.00  0.00    -0.000 C 
BRANCH  15  16
ATOM     16  C   UNL     1      10.280 -30.600  17.476  1.00  0.00    -0.000 C 
BRANCH  16  17
ATOM     17  C   UNL     1       9.487 -31.202  18.649  1.00  0.00    -0.003 C 
ATOM     18  C   UNL     1       8.305 -32.056  18.195  1.00  0.00     0.004 C 
ENDBRANCH  16  17
ENDBRANCH  15  16
ENDBRANCH  14  15
ENDBRANCH  13  14
ENDBRANCH  12  13
ENDBRANCH  11  12
ENDBRANCH   1  11
TORSDOF 14
ENDMDL
MODEL 9
REMARK VINA RESULT:    -0.803      1.748      5.371
REMARK INTER + INTRA:          -2.699
REMARK INTER:                  -1.085
REMARK INTRA:                  -1.613
REMARK UNBOUND:                -1.239
REMARK SMILES CCCCCCCCCCCCCCCC(=O)[O-]
REMARK SMILES IDX 9 1 10 2 11 3 12 4 13 5 14 6 15 7 16 8 17 9 18 10 8 11 7 12
REMARK SMILES IDX 6 13 5 14 4 15 3 16 2 17 1 18
REMARK H PARENT
REMARK Flexibility Score: inf
ROOT
ATOM      1  C   UNL     1      11.703 -33.661  13.253  1.00  0.00     0.000 C 
ENDROOT
BRANCH   1   2
ATOM      2  C   UNL     1      10.639 -32.556  13.090  1.00  0.00     0.000 C 
BRANCH   2   3
ATOM      3  C   UNL     1      11.083 -31.144  13.515  1.00  0.00     0.000 C 
BRANCH   3   4
ATOM      4  C   UNL     1      12.049 -31.156  14.711  1.00  0.00     0.000 C 
BRANCH   4   5
ATOM      5  C   UNL     1      11.497 -30.403  15.936  1.00  0.00     0.000 C 
BRANCH   5   6
ATOM      6  C   UNL     1      10.719 -31.271  16.946  1.00  0.00     0.006 C 
BRANCH   6   7
ATOM      7  C   UNL     1       9.254 -31.535  16.566  1.00  0.00     0.053 C 
BRANCH   7   8
ATOM      8  C   UNL     1       8.535 -32.319  17.623  1.00  0.00     0.041 C 
ATOM      9  O   UNL     1       8.489 -33.575  17.560  1.00  0.00    -0.550 OA
ATOM     10  O   UNL     1       7.891 -31.657  18.660  1.00  0.00    -0.550 OA
ENDBRANCH   7   8
ENDBRANCH   6   7
ENDBRANCH   5   6
ENDBRANCH   4   5
ENDBRANCH   3   4
ENDBRANCH   2   3
ENDBRANCH   1   2
BRANCH   1  11
ATOM     11  C   UNL     1      11.187 -35.096  13.053  1.00  0.00     0.000 C 
BRANCH  11  12
ATOM     12  C   UNL     1       9.660 -35.160  12.875  1.00  0.00    -0.000 C 
BRANCH  12  13
ATOM     13  C   UNL     1       9.101 -36.575  13.090  1.00  0.00    -0.000 C 
BRANCH  13  14
ATOM     14  C   UNL     1       7.716 -36.565  13.759  1.00  0.00    -0.000 C 
BRANCH  14  15
ATOM     15  C   UNL     1       7.522 -35.369  14.707  1.00  0.00    -0.000 C 
BRANCH  15  16
ATOM     16  C   UNL     1       6.078 -34.832  14.790  1.00  0.00    -0.000 C 
BRANCH  16  17
ATOM     17  C   UNL     1       5.947 -33.302  14.681  1.00  0.00    -0.003 C 
ATOM     18  C   UNL     1       6.969 -32.683  13.730  1.00  0.00     0.004 C 
ENDBRANCH  16  17
ENDBRANCH  15  16
ENDBRANCH  14  15
ENDBRANCH  13  14
ENDBRANCH  12  13
ENDBRANCH  11  12
ENDBRANCH   1  11
TORSDOF 14
ENDMDL
