MODEL 1
REMARK VINA RESULT:    -4.819      0.000      0.000
REMARK INTER + INTRA:          -9.527
REMARK INTER:                  -8.199
REMARK INTRA:                  -1.328
REMARK UNBOUND:                -1.328
REMARK SMILES CCCCCCCCCCCCCC(=O)[O-]
REMARK SMILES IDX 8 1 9 2 10 3 11 4 12 5 13 6 14 7 15 8 16 9 7 10 6 11 5 12
REMARK SMILES IDX 4 13 3 14 2 15 1 16
REMARK H PARENT
REMARK Flexibility Score: inf
ROOT
ATOM      1  C   UNL     1      12.216  13.422   4.432  1.00  0.00     0.000 C 
ENDROOT
BRANCH   1   2
ATOM      2  C   UNL     1      12.074  12.117   3.635  1.00  0.00     0.000 C 
BRANCH   2   3
ATOM      3  C   UNL     1      10.662  11.535   3.778  1.00  0.00     0.000 C 
BRANCH   3   4
ATOM      4  C   UNL     1      10.635  10.412   4.826  1.00  0.00     0.000 C 
BRANCH   4   5
ATOM      5  C   UNL     1       9.547  10.624   5.891  1.00  0.00     0.006 C 
BRANCH   5   6
ATOM      6  C   UNL     1       8.276  11.266   5.318  1.00  0.00     0.053 C 
BRANCH   6   7
ATOM      7  C   UNL     1       7.699  12.242   6.295  1.00  0.00     0.041 C 
ATOM      8  O   UNL     1       6.525  12.088   6.724  1.00  0.00    -0.550 OA
ATOM      9  O   UNL     1       8.440  13.346   6.697  1.00  0.00    -0.550 OA
ENDBRANCH   6   7
ENDBRANCH   5   6
ENDBRANCH   4   5
ENDBRANCH   3   4
ENDBRANCH   2   3
ENDBRANCH   1   2
BRANCH   1  10
ATOM     10  C   UNL     1      13.349  13.370   5.472  1.00  0.00     0.000 C 
BRANCH  10  11
ATOM     11  C   UNL     1      14.624  12.642   5.009  1.00  0.00    -0.000 C 
BRANCH  11  12
ATOM     12  C   UNL     1      15.578  13.552   4.214  1.00  0.00    -0.000 C 
BRANCH  12  13
ATOM     13  C   UNL     1      15.582  13.213   2.713  1.00  0.00    -0.000 C 
BRANCH  13  14
ATOM     14  C   UNL     1      14.888  14.288   1.845  1.00  0.00    -0.000 C 
BRANCH  14  15
ATOM     15  C   UNL     1      13.893  13.704   0.828  1.00  0.00    -0.003 C 
ATOM     16  C   UNL     1      12.690  14.612   0.584  1.00  0.00     0.004 C 
ENDBRANCH  14  15
ENDBRANCH  13  14
ENDBRANCH  12  13
ENDBRANCH  11  12
ENDBRANCH  10  11
ENDBRANCH   1  10
TORSDOF 12
ENDMDL
MODEL 2
REMARK VINA RESULT:    -4.755      3.646      6.811
REMARK INTER + INTRA:          -9.419
REMARK INTER:                  -7.883
REMARK INTRA:                  -1.536
REMARK UNBOUND:                -1.328
REMARK SMILES CCCCCCCCCCCCCC(=O)[O-]
REMARK SMILES IDX 8 1 9 2 10 3 11 4 12 5 13 6 14 7 15 8 16 9 7 10 6 11 5 12
REMARK SMILES IDX 4 13 3 14 2 15 1 16
REMARK H PARENT
REMARK Flexibility Score: inf
ROOT
ATOM      1  C   UNL     1      10.261  11.361   3.828  1.00  0.00     0.000 C 
ENDROOT
BRANCH   1   2
ATOM      2  C   UNL     1      11.536  12.154   3.508  1.00  0.00     0.000 C 
BRANCH   2   3
ATOM      3  C   UNL     1      12.732  11.619   4.305  1.00  0.00     0.000 C 
BRANCH   3   4
ATOM      4  C   UNL     1      13.919  12.590   4.234  1.00  0.00     0.000 C 
BRANCH   4   5
ATOM      5  C   UNL     1      14.128  13.168   2.825  1.00  0.00     0.006 C 
BRANCH   5   6
ATOM      6  C   UNL     1      15.591  13.095   2.367  1.00  0.00     0.053 C 
BRANCH   6   7
ATOM      7  C   UNL     1      16.447  13.987   3.212  1.00  0.00     0.041 C 
ATOM      8  O   UNL     1      16.123  15.191   3.389  1.00  0.00    -0.550 OA
ATOM      9  O   UNL     1      17.624  13.501   3.765  1.00  0.00    -0.550 OA
ENDBRANCH   6   7
ENDBRANCH   5   6
ENDBRANCH   4   5
ENDBRANCH   3   4
ENDBRANCH   2   3
ENDBRANCH   1   2
BRANCH   1  10
ATOM     10  C   UNL     1      10.443  10.376   4.997  1.00  0.00     0.000 C 
BRANCH  10  11
ATOM     11  C   UNL     1       9.410  10.511   6.129  1.00  0.00    -0.000 C 
BRANCH  11  12
ATOM     12  C   UNL     1       8.425  11.674   5.907  1.00  0.00    -0.000 C 
BRANCH  12  13
ATOM     13  C   UNL     1       8.641  12.814   6.917  1.00  0.00    -0.000 C 
BRANCH  13  14
ATOM     14  C   UNL     1       9.983  12.707   7.677  1.00  0.00    -0.000 C 
BRANCH  14  15
ATOM     15  C   UNL     1      11.131  13.476   7.003  1.00  0.00    -0.003 C 
ATOM     16  C   UNL     1      10.643  14.640   6.145  1.00  0.00     0.004 C 
ENDBRANCH  14  15
ENDBRANCH  13  14
ENDBRANCH  12  13
ENDBRANCH  11  12
ENDBRANCH  10  11
ENDBRANCH   1  10
TORSDOF 12
ENDMDL
MODEL 3
REMARK VINA RESULT:    -4.641      3.762      6.753
REMARK INTER + INTRA:          -9.225
REMARK INTER:                  -7.510
REMARK INTRA:                  -1.714
REMARK UNBOUND:                -1.328
REMARK SMILES CCCCCCCCCCCCCC(=O)[O-]
REMARK SMILES IDX 8 1 9 2 10 3 11 4 12 5 13 6 14 7 15 8 16 9 7 10 6 11 5 12
REMARK SMILES IDX 4 13 3 14 2 15 1 16
REMARK H PARENT
REMARK Flexibility Score: inf
ROOT
ATOM      1  C   UNL     1      10.683  14.320   6.440  1.00  0.00     0.000 C 
ENDROOT
BRANCH   1   2
ATOM      2  C   UNL     1      11.668  14.020   5.301  1.00  0.00     0.000 C 
BRANCH   2   3
ATOM      3  C   UNL     1      12.545  12.807   5.637  1.00  0.00     0.000 C 
BRANCH   3   4
ATOM      4  C   UNL     1      13.278  12.296   4.388  1.00  0.00     0.000 C 
BRANCH   4   5
ATOM      5  C   UNL     1      13.818  13.437   3.511  1.00  0.00     0.006 C 
BRANCH   5   6
ATOM      6  C   UNL     1      15.131  14.024   4.048  1.00  0.00     0.053 C 
BRANCH   6   7
ATOM      7  C   UNL     1      16.288  13.557   3.221  1.00  0.00     0.041 C 
ATOM      8  O   UNL     1      16.090  12.842   2.204  1.00  0.00    -0.550 OA
ATOM      9  O   UNL     1      17.586  13.874   3.600  1.00  0.00    -0.550 OA
ENDBRANCH   6   7
ENDBRANCH   5   6
ENDBRANCH   4   5
ENDBRANCH   3   4
ENDBRANCH   2   3
ENDBRANCH   1   2
BRANCH   1  10
ATOM     10  C   UNL     1      10.396  13.094   7.325  1.00  0.00     0.000 C 
BRANCH  10  11
ATOM     11  C   UNL     1       8.916  12.892   7.696  1.00  0.00    -0.000 C 
BRANCH  11  12
ATOM     12  C   UNL     1       7.974  12.990   6.482  1.00  0.00    -0.000 C 
BRANCH  12  13
ATOM     13  C   UNL     1       8.005  11.713   5.624  1.00  0.00    -0.000 C 
BRANCH  13  14
ATOM     14  C   UNL     1       8.752  11.900   4.283  1.00  0.00    -0.000 C 
BRANCH  14  15
ATOM     15  C   UNL     1       9.880  10.878   4.063  1.00  0.00    -0.003 C 
ATOM     16  C   UNL     1      10.112   9.979   5.275  1.00  0.00     0.004 C 
ENDBRANCH  14  15
ENDBRANCH  13  14
ENDBRANCH  12  13
ENDBRANCH  11  12
ENDBRANCH  10  11
ENDBRANCH   1  10
TORSDOF 12
ENDMDL
MODEL 4
REMARK VINA RESULT:    -4.602      1.739      3.192
REMARK INTER + INTRA:          -9.158
REMARK INTER:                  -7.555
REMARK INTRA:                  -1.603
REMARK UNBOUND:                -1.328
REMARK SMILES CCCCCCCCCCCCCC(=O)[O-]
REMARK SMILES IDX 8 1 9 2 10 3 11 4 12 5 13 6 14 7 15 8 16 9 7 10 6 11 5 12
REMARK SMILES IDX 4 13 3 14 2 15 1 16
REMARK H PARENT
REMARK Flexibility Score: inf
ROOT
ATOM      1  C   UNL     1      12.367  11.815   4.616  1.00  0.00     0.000 C 
ENDROOT
BRANCH   1   2
ATOM      2  C   UNL     1      11.054  11.334   3.984  1.00  0.00     0.000 C 
BRANCH   2   3
ATOM      3  C   UNL     1      10.463  10.157   4.770  1.00  0.00     0.000 C 
BRANCH   3   4
ATOM      4  C   UNL     1       9.210  10.588   5.546  1.00  0.00     0.000 C 
BRANCH   4   5
ATOM      5  C   UNL     1       9.528  11.035   6.982  1.00  0.00     0.006 C 
BRANCH   5   6
ATOM      6  C   UNL     1       8.700  12.251   7.419  1.00  0.00     0.053 C 
BRANCH   6   7
ATOM      7  C   UNL     1       7.251  11.888   7.516  1.00  0.00     0.041 C 
ATOM      8  O   UNL     1       6.439  12.285   6.639  1.00  0.00    -0.550 OA
ATOM      9  O   UNL     1       6.789  11.150   8.598  1.00  0.00    -0.550 OA
ENDBRANCH   6   7
ENDBRANCH   5   6
ENDBRANCH   4   5
ENDBRANCH   3   4
ENDBRANCH   2   3
ENDBRANCH   1   2
BRANCH   1  10
ATOM     10  C   UNL     1      13.367  12.362   3.581  1.00  0.00     0.000 C 
BRANCH  10  11
ATOM     11  C   UNL     1      12.738  13.169   2.432  1.00  0.00    -0.000 C 
BRANCH  11  12
ATOM     12  C   UNL     1      12.902  14.690   2.607  1.00  0.00    -0.000 C 
BRANCH  12  13
ATOM     13  C   UNL     1      11.864  15.273   3.582  1.00  0.00    -0.000 C 
BRANCH  13  14
ATOM     14  C   UNL     1      10.409  14.904   3.214  1.00  0.00    -0.000 C 
BRANCH  14  15
ATOM     15  C   UNL     1       9.504  14.685   4.438  1.00  0.00    -0.003 C 
ATOM     16  C   UNL     1       8.258  13.864   4.117  1.00  0.00     0.004 C 
ENDBRANCH  14  15
ENDBRANCH  13  14
ENDBRANCH  12  13
ENDBRANCH  11  12
ENDBRANCH  10  11
ENDBRANCH   1  10
TORSDOF 12
ENDMDL
MODEL 5
REMARK VINA RESULT:    -4.585      2.223      4.844
REMARK INTER + INTRA:          -9.129
REMARK INTER:                  -7.378
REMARK INTRA:                  -1.750
REMARK UNBOUND:                -1.328
REMARK SMILES CCCCCCCCCCCCCC(=O)[O-]
REMARK SMILES IDX 8 1 9 2 10 3 11 4 12 5 13 6 14 7 15 8 16 9 7 10 6 11 5 12
REMARK SMILES IDX 4 13 3 14 2 15 1 16
REMARK H PARENT
REMARK Flexibility Score: inf
ROOT
ATOM      1  C   UNL     1      13.164  13.732   5.335  1.00  0.00     0.000 C 
ENDROOT
BRANCH   1   2
ATOM      2  C   UNL     1      12.671  13.791   6.789  1.00  0.00     0.000 C 
BRANCH   2   3
ATOM      3  C   UNL     1      11.169  13.492   6.874  1.00  0.00     0.000 C 
BRANCH   3   4
ATOM      4  C   UNL     1      10.365  14.464   5.997  1.00  0.00     0.000 C 
BRANCH   4   5
ATOM      5  C   UNL     1       9.648  15.547   6.819  1.00  0.00     0.006 C 
BRANCH   5   6
ATOM      6  C   UNL     1       8.170  15.219   7.069  1.00  0.00     0.053 C 
BRANCH   6   7
ATOM      7  C   UNL     1       7.926  14.991   8.528  1.00  0.00     0.041 C 
ATOM      8  O   UNL     1       7.605  15.953   9.273  1.00  0.00    -0.550 OA
ATOM      9  O   UNL     1       8.097  13.725   9.072  1.00  0.00    -0.550 OA
ENDBRANCH   6   7
ENDBRANCH   5   6
ENDBRANCH   4   5
ENDBRANCH   3   4
ENDBRANCH   2   3
ENDBRANCH   1   2
BRANCH   1  10
ATOM     10  C   UNL     1      13.122  12.311   4.745  1.00  0.00     0.000 C 
BRANCH  10  11
ATOM     11  C   UNL     1      12.335  12.175   3.429  1.00  0.00    -0.000 C 
BRANCH  11  12
ATOM     12  C   UNL     1      10.888  11.697   3.644  1.00  0.00    -0.000 C 
BRANCH  12  13
ATOM     13  C   UNL     1      10.816  10.477   4.580  1.00  0.00    -0.000 C 
BRANCH  13  14
ATOM     14  C   UNL     1       9.647  10.553   5.588  1.00  0.00    -0.000 C 
BRANCH  14  15
ATOM     15  C   UNL     1       8.433  11.335   5.059  1.00  0.00    -0.003 C 
ATOM     16  C   UNL     1       7.490  11.791   6.170  1.00  0.00     0.004 C 
ENDBRANCH  14  15
ENDBRANCH  13  14
ENDBRANCH  12  13
ENDBRANCH  11  12
ENDBRANCH  10  11
ENDBRANCH   1  10
TORSDOF 12
ENDMDL
MODEL 6
REMARK VINA RESULT:    -4.577      3.459      6.507
REMARK INTER + INTRA:          -9.115
REMARK INTER:                  -7.404
REMARK INTRA:                  -1.711
REMARK UNBOUND:                -1.328
REMARK SMILES CCCCCCCCCCCCCC(=O)[O-]
REMARK SMILES IDX 8 1 9 2 10 3 11 4 12 5 13 6 14 7 15 8 16 9 7 10 6 11 5 12
REMARK SMILES IDX 4 13 3 14 2 15 1 16
REMARK H PARENT
REMARK Flexibility Score: inf
ROOT
ATOM      1  C   UNL     1      11.376  10.822   4.413  1.00  0.00     0.000 C 
ENDROOT
BRANCH   1   2
ATOM      2  C   UNL     1      12.357  12.004   4.393  1.00  0.00     0.000 C 
BRANCH   2   3
ATOM      3  C   UNL     1      12.604  12.490   2.960  1.00  0.00     0.000 C 
BRANCH   3   4
ATOM      4  C   UNL     1      12.872  14.002   2.930  1.00  0.00     0.000 C 
BRANCH   4   5
ATOM      5  C   UNL     1      14.270  14.344   2.390  1.00  0.00     0.006 C 
BRANCH   5   6
ATOM      6  C   UNL     1      15.256  13.175   2.522  1.00  0.00     0.053 C 
BRANCH   6   7
ATOM      7  C   UNL     1      16.178  13.399   3.680  1.00  0.00     0.041 C 
ATOM      8  O   UNL     1      15.783  13.179   4.855  1.00  0.00    -0.550 OA
ATOM      9  O   UNL     1      17.458  13.894   3.465  1.00  0.00    -0.550 OA
ENDBRANCH   6   7
ENDBRANCH   5   6
ENDBRANCH   4   5
ENDBRANCH   3   4
ENDBRANCH   2   3
ENDBRANCH   1   2
BRANCH   1  10
ATOM     10  C   UNL     1       9.968  11.201   3.920  1.00  0.00     0.000 C 
BRANCH  10  11
ATOM     11  C   UNL     1       8.889  11.262   5.015  1.00  0.00    -0.000 C 
BRANCH  11  12
ATOM     12  C   UNL     1       8.265  12.662   5.165  1.00  0.00    -0.000 C 
BRANCH  12  13
ATOM     13  C   UNL     1       8.665  13.597   4.010  1.00  0.00    -0.000 C 
BRANCH  13  14
ATOM     14  C   UNL     1       9.510  14.806   4.472  1.00  0.00    -0.000 C 
BRANCH  14  15
ATOM     15  C   UNL     1       9.882  14.758   5.964  1.00  0.00    -0.003 C 
ATOM     16  C   UNL     1      11.379  14.932   6.210  1.00  0.00     0.004 C 
ENDBRANCH  14  15
ENDBRANCH  13  14
ENDBRANCH  12  13
ENDBRANCH  11  12
ENDBRANCH  10  11
ENDBRANCH   1  10
TORSDOF 12
ENDMDL
MODEL 7
REMARK VINA RESULT:    -4.576      3.783      6.649
REMARK INTER + INTRA:          -9.114
REMARK INTER:                  -7.439
REMARK INTRA:                  -1.675
REMARK UNBOUND:                -1.328
REMARK SMILES CCCCCCCCCCCCCC(=O)[O-]
REMARK SMILES IDX 8 1 9 2 10 3 11 4 12 5 13 6 14 7 15 8 16 9 7 10 6 11 5 12
REMARK SMILES IDX 4 13 3 14 2 15 1 16
REMARK H PARENT
REMARK Flexibility Score: inf
ROOT
ATOM      1  C   UNL     1      11.602  14.463   4.074  1.00  0.00     0.000 C 
ENDROOT
BRANCH   1   2
ATOM      2  C   UNL     1      12.324  15.268   2.983  1.00  0.00     0.000 C 
BRANCH   2   3
ATOM      3  C   UNL     1      12.127  14.627   1.604  1.00  0.00     0.000 C 
BRANCH   3   4
ATOM      4  C   UNL     1      13.376  13.841   1.180  1.00  0.00     0.000 C 
BRANCH   4   5
ATOM      5  C   UNL     1      14.676  14.459   1.721  1.00  0.00     0.006 C 
BRANCH   5   6
ATOM      6  C   UNL     1      15.528  13.450   2.502  1.00  0.00     0.053 C 
BRANCH   6   7
ATOM      7  C   UNL     1      16.670  14.144   3.176  1.00  0.00     0.041 C 
ATOM      8  O   UNL     1      17.580  13.473   3.731  1.00  0.00    -0.550 OA
ATOM      9  O   UNL     1      16.707  15.532   3.230  1.00  0.00    -0.550 OA
ENDBRANCH   6   7
ENDBRANCH   5   6
ENDBRANCH   4   5
ENDBRANCH   3   4
ENDBRANCH   2   3
ENDBRANCH   1   2
BRANCH   1  10
ATOM     10  C   UNL     1      12.569  13.820   5.084  1.00  0.00     0.000 C 
BRANCH  10  11
ATOM     11  C   UNL     1      12.914  12.346   4.808  1.00  0.00    -0.000 C 
BRANCH  11  12
ATOM     12  C   UNL     1      11.946  11.681   3.812  1.00  0.00    -0.000 C 
BRANCH  12  13
ATOM     13  C   UNL     1      11.043  10.638   4.494  1.00  0.00    -0.000 C 
BRANCH  13  14
ATOM     14  C   UNL     1       9.564  11.080   4.581  1.00  0.00    -0.000 C 
BRANCH  14  15
ATOM     15  C   UNL     1       9.012  11.086   6.016  1.00  0.00    -0.003 C 
ATOM     16  C   UNL     1       9.773  12.031   6.943  1.00  0.00     0.004 C 
ENDBRANCH  14  15
ENDBRANCH  13  14
ENDBRANCH  12  13
ENDBRANCH  11  12
ENDBRANCH  10  11
ENDBRANCH   1  10
TORSDOF 12
ENDMDL
MODEL 8
REMARK VINA RESULT:    -4.542      2.459      3.568
REMARK INTER + INTRA:          -9.055
REMARK INTER:                  -6.766
REMARK INTRA:                  -2.289
REMARK UNBOUND:                -1.328
REMARK SMILES CCCCCCCCCCCCCC(=O)[O-]
REMARK SMILES IDX 8 1 9 2 10 3 11 4 12 5 13 6 14 7 15 8 16 9 7 10 6 11 5 12
REMARK SMILES IDX 4 13 3 14 2 15 1 16
REMARK H PARENT
REMARK Flexibility Score: inf
ROOT
ATOM      1  C   UNL     1      10.758  10.943   4.549  1.00  0.00     0.000 C 
ENDROOT
BRANCH   1   2
ATOM      2  C   UNL     1       9.387  11.316   3.967  1.00  0.00     0.000 C 
BRANCH   2   3
ATOM      3  C   UNL     1       8.322  11.386   5.068  1.00  0.00     0.000 C 
BRANCH   3   4
ATOM      4  C   UNL     1       8.962  11.263   6.460  1.00  0.00     0.000 C 
BRANCH   4   5
ATOM      5  C   UNL     1       8.149  11.983   7.549  1.00  0.00     0.006 C 
BRANCH   5   6
ATOM      6  C   UNL     1       7.074  12.911   6.968  1.00  0.00     0.053 C 
BRANCH   6   7
ATOM      7  C   UNL     1       7.031  14.199   7.728  1.00  0.00     0.041 C 
ATOM      8  O   UNL     1       7.288  14.215   8.961  1.00  0.00    -0.550 OA
ATOM      9  O   UNL     1       6.664  15.374   7.086  1.00  0.00    -0.550 OA
ENDBRANCH   6   7
ENDBRANCH   5   6
ENDBRANCH   4   5
ENDBRANCH   3   4
ENDBRANCH   2   3
ENDBRANCH   1   2
BRANCH   1  10
ATOM     10  C   UNL     1      11.924  11.668   3.853  1.00  0.00     0.000 C 
BRANCH  10  11
ATOM     11  C   UNL     1      12.974  12.272   4.803  1.00  0.00    -0.000 C 
BRANCH  11  12
ATOM     12  C   UNL     1      12.349  13.109   5.934  1.00  0.00    -0.000 C 
BRANCH  12  13
ATOM     13  C   UNL     1      11.750  14.427   5.412  1.00  0.00    -0.000 C 
BRANCH  13  14
ATOM     14  C   UNL     1      10.282  14.641   5.848  1.00  0.00    -0.000 C 
BRANCH  14  15
ATOM     15  C   UNL     1       9.344  14.999   4.683  1.00  0.00    -0.003 C 
ATOM     16  C   UNL     1      10.019  14.882   3.319  1.00  0.00     0.004 C 
ENDBRANCH  14  15
ENDBRANCH  13  14
ENDBRANCH  12  13
ENDBRANCH  11  12
ENDBRANCH  10  11
ENDBRANCH   1  10
TORSDOF 12
ENDMDL
MODEL 9
REMARK VINA RESULT:    -4.531      3.078      5.770
REMARK INTER + INTRA:          -9.038
REMARK INTER:                  -7.045
REMARK INTRA:                  -1.994
REMARK UNBOUND:                -1.328
REMARK SMILES CCCCCCCCCCCCCC(=O)[O-]
REMARK SMILES IDX 8 1 9 2 10 3 11 4 12 5 13 6 14 7 15 8 16 9 7 10 6 11 5 12
REMARK SMILES IDX 4 13 3 14 2 15 1 16
REMARK H PARENT
REMARK Flexibility Score: inf
ROOT
ATOM      1  C   UNL     1      13.401  13.426   5.942  1.00  0.00     0.000 C 
ENDROOT
BRANCH   1   2
ATOM      2  C   UNL     1      13.970  12.843   4.640  1.00  0.00     0.000 C 
BRANCH   2   3
ATOM      3  C   UNL     1      12.945  11.935   3.949  1.00  0.00     0.000 C 
BRANCH   3   4
ATOM      4  C   UNL     1      12.449  12.565   2.639  1.00  0.00     0.000 C 
BRANCH   4   5
ATOM      5  C   UNL     1      13.005  13.980   2.415  1.00  0.00     0.006 C 
BRANCH   5   6
ATOM      6  C   UNL     1      11.901  15.042   2.328  1.00  0.00     0.053 C 
BRANCH   6   7
ATOM      7  C   UNL     1      11.568  15.333   0.898  1.00  0.00     0.041 C 
ATOM      8  O   UNL     1      10.570  16.045   0.613  1.00  0.00    -0.550 OA
ATOM      9  O   UNL     1      12.333  14.780  -0.121  1.00  0.00    -0.550 OA
ENDBRANCH   6   7
ENDBRANCH   5   6
ENDBRANCH   4   5
ENDBRANCH   3   4
ENDBRANCH   2   3
ENDBRANCH   1   2
BRANCH   1  10
ATOM     10  C   UNL     1      11.929  13.045   6.177  1.00  0.00     0.000 C 
BRANCH  10  11
ATOM     11  C   UNL     1      10.910  14.149   5.843  1.00  0.00    -0.000 C 
BRANCH  11  12
ATOM     12  C   UNL     1       9.486  13.605   5.625  1.00  0.00    -0.000 C 
BRANCH  12  13
ATOM     13  C   UNL     1       9.219  13.262   4.149  1.00  0.00    -0.000 C 
BRANCH  13  14
ATOM     14  C   UNL     1       9.023  11.749   3.902  1.00  0.00    -0.000 C 
BRANCH  14  15
ATOM     15  C   UNL     1       9.021  10.914   5.194  1.00  0.00    -0.003 C 
ATOM     16  C   UNL     1      10.133   9.868   5.227  1.00  0.00     0.004 C 
ENDBRANCH  14  15
ENDBRANCH  13  14
ENDBRANCH  12  13
ENDBRANCH  11  12
ENDBRANCH  10  11
ENDBRANCH   1  10
TORSDOF 12
ENDMDL
