MODEL 1
REMARK VINA RESULT:    -7.163      0.000      0.000
REMARK INTER + INTRA:         -14.353
REMARK INTER:                 -11.769
REMARK INTRA:                  -2.585
REMARK UNBOUND:                -2.585
REMARK SMILES C[C@H]1O[C@@H](OC[C@H]2O[C@H](Oc3c(-c4ccc(O)c(O)c4)oc4cc(O)cc(O)c4c3=O)[C@@H](O)[C@@H](O)[C@H]2O)[C@H](O)[C@@H](O)[C@@H]1O
REMARK SMILES IDX 7 1 36 2 34 3 32 4 9 5 8 6 6 7 5 8 4 9 1 10 2 11 42 12 3 13
REMARK SMILES IDX 40 14 38 15 43 16 41 18 39 20 37 22 35 24 10 26 11 27 12 28
REMARK SMILES IDX 30 29 21 30 29 31 31 32 22 33 27 34 23 35 26 36 24 37 13 38
REMARK SMILES IDX 20 39 14 40 18 41 15 42 16 43 19 44 17 46 28 48 25 50 33 52
REMARK H PARENT 43 17 41 19 39 21 37 23 35 25 19 45 17 47 28 49 25 51 33 53
REMARK Flexibility Score: inf
ROOT
ATOM      1  C   UNL     1      15.105  24.503  41.045  1.00  0.00     0.180 C 
ATOM      2  C   UNL     1      13.726  23.824  40.895  1.00  0.00     0.177 C 
ATOM      3  C   UNL     1      13.399  23.062  42.192  1.00  0.00     0.180 C 
ATOM      4  C   UNL     1      13.568  23.977  43.424  1.00  0.00     0.214 C 
ATOM      5  C   UNL     1      14.934  24.692  43.375  1.00  0.00     0.339 C 
ATOM      6  O   UNL     1      15.105  25.392  42.152  1.00  0.00    -0.332 OA
ENDROOT
BRANCH   1   7
ATOM      7  C   UNL     1      15.503  25.284  39.785  1.00  0.00     0.198 C 
BRANCH   7   8
ATOM      8  O   UNL     1      16.802  24.899  39.376  1.00  0.00    -0.347 OA
BRANCH   8   9
ATOM      9  C   UNL     1      17.710  25.984  39.492  1.00  0.00     0.281 C 
ATOM     10  C   UNL     1      19.126  23.424  38.398  1.00  0.00     0.041 C 
ATOM     11  C   UNL     1      19.680  24.782  38.855  1.00  0.00     0.150 C 
ATOM     12  C   UNL     1      20.221  24.775  40.307  1.00  0.00     0.174 C 
ATOM     13  O   UNL     1      18.791  25.859  38.575  1.00  0.00    -0.344 OA
ATOM     14  C   UNL     1      19.099  24.958  41.348  1.00  0.00     0.179 C 
ATOM     15  C   UNL     1      18.185  26.124  40.949  1.00  0.00     0.202 C 
BRANCH  12  16
ATOM     16  O   UNL     1      21.169  25.804  40.443  1.00  0.00    -0.388 OA
ATOM     17  H   UNL     1      21.197  26.044  41.406  1.00  0.00     0.211 HD
ENDBRANCH  12  16
BRANCH  14  18
ATOM     18  O   UNL     1      18.337  23.785  41.473  1.00  0.00    -0.387 OA
ATOM     19  H   UNL     1      18.399  23.499  42.423  1.00  0.00     0.211 HD
ENDBRANCH  14  18
BRANCH  15  20
ATOM     20  O   UNL     1      18.863  27.347  41.097  1.00  0.00    -0.385 OA
ATOM     21  H   UNL     1      18.213  28.064  40.876  1.00  0.00     0.211 HD
ENDBRANCH  15  20
ENDBRANCH   8   9
ENDBRANCH   7   8
ENDBRANCH   1   7
BRANCH   2  22
ATOM     22  O   UNL     1      12.741  24.792  40.632  1.00  0.00    -0.387 OA
ATOM     23  H   UNL     1      13.206  25.665  40.545  1.00  0.00     0.211 HD
ENDBRANCH   2  22
BRANCH   3  24
ATOM     24  O   UNL     1      12.097  22.541  42.129  1.00  0.00    -0.387 OA
ATOM     25  H   UNL     1      11.826  22.561  41.172  1.00  0.00     0.211 HD
ENDBRANCH   3  24
BRANCH   5  26
ATOM     26  O   UNL     1      16.013  23.772  43.581  1.00  0.00    -0.454 OA
BRANCH  26  27
ATOM     27  C   UNL     1      16.251  23.122  44.798  1.00  0.00     0.214 A 
ATOM     28  C   UNL     1      16.692  23.817  45.942  1.00  0.00     0.180 A 
ATOM     29  C   UNL     1      16.069  21.737  44.877  1.00  0.00     0.239 A 
ATOM     30  O   UNL     1      16.867  23.159  47.083  1.00  0.00    -0.452 OA
ATOM     31  C   UNL     1      16.227  21.071  46.114  1.00  0.00     0.111 A 
ATOM     32  O   UNL     1      15.787  21.111  43.823  1.00  0.00    -0.285 OA
ATOM     33  C   UNL     1      16.666  21.852  47.213  1.00  0.00     0.146 A 
ATOM     34  C   UNL     1      15.999  19.675  46.318  1.00  0.00     0.134 A 
ATOM     35  C   UNL     1      16.920  21.258  48.452  1.00  0.00     0.094 A 
ATOM     36  C   UNL     1      16.304  19.101  47.558  1.00  0.00     0.093 A 
ATOM     37  C   UNL     1      16.761  19.885  48.622  1.00  0.00     0.123 A 
BRANCH  28  38
ATOM     38  C   UNL     1      17.010  25.262  45.921  1.00  0.00     0.025 A 
ATOM     39  C   UNL     1      17.962  25.748  45.014  1.00  0.00     0.062 A 
ATOM     40  C   UNL     1      16.338  26.168  46.756  1.00  0.00     0.016 A 
ATOM     41  C   UNL     1      18.267  27.113  44.950  1.00  0.00     0.158 A 
ATOM     42  C   UNL     1      16.636  27.531  46.702  1.00  0.00     0.051 A 
ATOM     43  C   UNL     1      17.593  28.019  45.803  1.00  0.00     0.157 A 
BRANCH  41  44
ATOM     44  O   UNL     1      19.237  27.523  44.034  1.00  0.00    -0.504 OA
ATOM     45  H   UNL     1      20.228  27.530  44.226  1.00  0.00     0.293 HD
ENDBRANCH  41  44
BRANCH  43  46
ATOM     46  O   UNL     1      17.830  29.394  45.783  1.00  0.00    -0.504 OA
ATOM     47  H   UNL     1      18.414  29.854  45.097  1.00  0.00     0.293 HD
ENDBRANCH  43  46
ENDBRANCH  28  38
BRANCH  34  48
ATOM     48  O   UNL     1      15.452  18.825  45.352  1.00  0.00    -0.507 OA
ATOM     49  H   UNL     1      14.696  18.178  45.518  1.00  0.00     0.293 HD
ENDBRANCH  34  48
BRANCH  37  50
ATOM     50  O   UNL     1      17.053  19.306  49.855  1.00  0.00    -0.508 OA
ATOM     51  H   UNL     1      16.423  19.387  50.642  1.00  0.00     0.293 HD
ENDBRANCH  37  50
ENDBRANCH  26  27
ENDBRANCH   5  26
BRANCH   4  52
ATOM     52  O   UNL     1      12.548  24.943  43.467  1.00  0.00    -0.384 OA
ATOM     53  H   UNL     1      12.912  25.726  43.956  1.00  0.00     0.211 HD
ENDBRANCH   4  52
TORSDOF 16
ENDMDL
MODEL 2
REMARK VINA RESULT:    -6.846      2.131      8.073
REMARK INTER + INTRA:         -13.834
REMARK INTER:                 -11.468
REMARK INTRA:                  -2.366
REMARK UNBOUND:                -2.585
REMARK SMILES C[C@H]1O[C@@H](OC[C@H]2O[C@H](Oc3c(-c4ccc(O)c(O)c4)oc4cc(O)cc(O)c4c3=O)[C@@H](O)[C@@H](O)[C@H]2O)[C@H](O)[C@@H](O)[C@@H]1O
REMARK SMILES IDX 7 1 36 2 34 3 32 4 9 5 8 6 6 7 5 8 4 9 1 10 2 11 42 12 3 13
REMARK SMILES IDX 40 14 38 15 43 16 41 18 39 20 37 22 35 24 10 26 11 27 12 28
REMARK SMILES IDX 30 29 21 30 29 31 31 32 22 33 27 34 23 35 26 36 24 37 13 38
REMARK SMILES IDX 20 39 14 40 18 41 15 42 16 43 19 44 17 46 28 48 25 50 33 52
REMARK H PARENT 43 17 41 19 39 21 37 23 35 25 19 45 17 47 28 49 25 51 33 53
REMARK Flexibility Score: inf
ROOT
ATOM      1  C   UNL     1      14.552  23.061  47.224  1.00  0.00     0.180 C 
ATOM      2  C   UNL     1      14.490  23.861  48.543  1.00  0.00     0.177 C 
ATOM      3  C   UNL     1      15.346  25.133  48.399  1.00  0.00     0.180 C 
ATOM      4  C   UNL     1      14.962  25.911  47.122  1.00  0.00     0.214 C 
ATOM      5  C   UNL     1      14.935  24.962  45.906  1.00  0.00     0.339 C 
ATOM      6  O   UNL     1      14.084  23.850  46.141  1.00  0.00    -0.332 OA
ENDROOT
BRANCH   1   7
ATOM      7  C   UNL     1      13.722  21.772  47.291  1.00  0.00     0.198 C 
BRANCH   7   8
ATOM      8  O   UNL     1      14.476  20.692  46.776  1.00  0.00    -0.347 OA
BRANCH   8   9
ATOM      9  C   UNL     1      15.862  20.881  47.022  1.00  0.00     0.281 C 
ATOM     10  C   UNL     1      15.317  18.148  45.612  1.00  0.00     0.041 C 
ATOM     11  C   UNL     1      16.592  18.742  46.232  1.00  0.00     0.150 C 
ATOM     12  C   UNL     1      16.876  18.237  47.669  1.00  0.00     0.174 C 
ATOM     13  O   UNL     1      16.660  20.158  46.092  1.00  0.00    -0.344 OA
ATOM     14  C   UNL     1      16.075  19.020  48.730  1.00  0.00     0.179 C 
ATOM     15  C   UNL     1      16.194  20.529  48.484  1.00  0.00     0.202 C 
BRANCH  12  16
ATOM     16  O   UNL     1      18.252  18.357  47.928  1.00  0.00    -0.388 OA
ATOM     17  H   UNL     1      18.588  17.445  48.130  1.00  0.00     0.211 HD
ENDBRANCH  12  16
BRANCH  14  18
ATOM     18  O   UNL     1      14.722  18.645  48.712  1.00  0.00    -0.387 OA
ATOM     19  H   UNL     1      14.623  17.950  48.008  1.00  0.00     0.211 HD
ENDBRANCH  14  18
BRANCH  15  20
ATOM     20  O   UNL     1      17.496  20.970  48.779  1.00  0.00    -0.385 OA
ATOM     21  H   UNL     1      17.505  21.953  48.638  1.00  0.00     0.211 HD
ENDBRANCH  15  20
ENDBRANCH   8   9
ENDBRANCH   7   8
ENDBRANCH   1   7
BRANCH   2  22
ATOM     22  O   UNL     1      13.157  24.197  48.838  1.00  0.00    -0.387 OA
ATOM     23  H   UNL     1      12.639  24.096  47.998  1.00  0.00     0.211 HD
ENDBRANCH   2  22
BRANCH   3  24
ATOM     24  O   UNL     1      15.204  25.940  49.539  1.00  0.00    -0.387 OA
ATOM     25  H   UNL     1      15.860  25.607  50.209  1.00  0.00     0.211 HD
ENDBRANCH   3  24
BRANCH   5  26
ATOM     26  O   UNL     1      16.253  24.519  45.558  1.00  0.00    -0.454 OA
BRANCH  26  27
ATOM     27  C   UNL     1      16.879  24.838  44.347  1.00  0.00     0.214 A 
ATOM     28  C   UNL     1      16.459  24.283  43.122  1.00  0.00     0.180 A 
ATOM     29  C   UNL     1      17.969  25.716  44.354  1.00  0.00     0.239 A 
ATOM     30  O   UNL     1      17.063  24.647  41.995  1.00  0.00    -0.452 OA
ATOM     31  C   UNL     1      18.566  26.113  43.136  1.00  0.00     0.111 A 
ATOM     32  O   UNL     1      18.406  26.115  45.463  1.00  0.00    -0.285 OA
ATOM     33  C   UNL     1      18.074  25.508  41.951  1.00  0.00     0.146 A 
ATOM     34  C   UNL     1      19.636  27.054  43.026  1.00  0.00     0.134 A 
ATOM     35  C   UNL     1      18.658  25.788  40.713  1.00  0.00     0.094 A 
ATOM     36  C   UNL     1      20.230  27.280  41.779  1.00  0.00     0.093 A 
ATOM     37  C   UNL     1      19.746  26.654  40.626  1.00  0.00     0.123 A 
BRANCH  28  38
ATOM     38  C   UNL     1      15.384  23.270  43.034  1.00  0.00     0.025 A 
ATOM     39  C   UNL     1      14.131  23.632  42.521  1.00  0.00     0.062 A 
ATOM     40  C   UNL     1      15.610  21.936  43.407  1.00  0.00     0.016 A 
ATOM     41  C   UNL     1      13.102  22.691  42.400  1.00  0.00     0.158 A 
ATOM     42  C   UNL     1      14.589  20.989  43.292  1.00  0.00     0.051 A 
ATOM     43  C   UNL     1      13.334  21.350  42.787  1.00  0.00     0.157 A 
BRANCH  41  44
ATOM     44  O   UNL     1      11.875  23.126  41.895  1.00  0.00    -0.504 OA
ATOM     45  H   UNL     1      11.542  24.077  41.963  1.00  0.00     0.293 HD
ENDBRANCH  41  44
BRANCH  43  46
ATOM     46  O   UNL     1      12.362  20.354  42.678  1.00  0.00    -0.504 OA
ATOM     47  H   UNL     1      11.734  20.096  43.428  1.00  0.00     0.293 HD
ENDBRANCH  43  46
ENDBRANCH  28  38
BRANCH  34  48
ATOM     48  O   UNL     1      20.126  27.805  44.099  1.00  0.00    -0.507 OA
ATOM     49  H   UNL     1      20.935  28.406  44.058  1.00  0.00     0.293 HD
ENDBRANCH  34  48
BRANCH  37  50
ATOM     50  O   UNL     1      20.338  26.893  39.388  1.00  0.00    -0.508 OA
ATOM     51  H   UNL     1      19.785  27.101  38.567  1.00  0.00     0.293 HD
ENDBRANCH  37  50
ENDBRANCH  26  27
ENDBRANCH   5  26
BRANCH   4  52
ATOM     52  O   UNL     1      13.697  26.505  47.265  1.00  0.00    -0.384 OA
ATOM     53  H   UNL     1      13.171  25.923  47.872  1.00  0.00     0.211 HD
ENDBRANCH   4  52
TORSDOF 16
ENDMDL
MODEL 3
REMARK VINA RESULT:    -6.788      1.891      6.905
REMARK INTER + INTRA:         -13.738
REMARK INTER:                 -12.247
REMARK INTRA:                  -1.491
REMARK UNBOUND:                -2.585
REMARK SMILES C[C@H]1O[C@@H](OC[C@H]2O[C@H](Oc3c(-c4ccc(O)c(O)c4)oc4cc(O)cc(O)c4c3=O)[C@@H](O)[C@@H](O)[C@H]2O)[C@H](O)[C@@H](O)[C@@H]1O
REMARK SMILES IDX 7 1 36 2 34 3 32 4 9 5 8 6 6 7 5 8 4 9 1 10 2 11 42 12 3 13
REMARK SMILES IDX 40 14 38 15 43 16 41 18 39 20 37 22 35 24 10 26 11 27 12 28
REMARK SMILES IDX 30 29 21 30 29 31 31 32 22 33 27 34 23 35 26 36 24 37 13 38
REMARK SMILES IDX 20 39 14 40 18 41 15 42 16 43 19 44 17 46 28 48 25 50 33 52
REMARK H PARENT 43 17 41 19 39 21 37 23 35 25 19 45 17 47 28 49 25 51 33 53
REMARK Flexibility Score: inf
ROOT
ATOM      1  C   UNL     1      14.155  21.902  43.639  1.00  0.00     0.180 C 
ATOM      2  C   UNL     1      13.029  22.760  44.255  1.00  0.00     0.177 C 
ATOM      3  C   UNL     1      13.511  24.218  44.362  1.00  0.00     0.180 C 
ATOM      4  C   UNL     1      14.071  24.712  43.011  1.00  0.00     0.214 C 
ATOM      5  C   UNL     1      15.085  23.695  42.449  1.00  0.00     0.339 C 
ATOM      6  O   UNL     1      14.516  22.397  42.358  1.00  0.00    -0.332 OA
ENDROOT
BRANCH   1   7
ATOM      7  C   UNL     1      13.749  20.428  43.502  1.00  0.00     0.198 C 
BRANCH   7   8
ATOM      8  O   UNL     1      14.705  19.608  44.145  1.00  0.00    -0.347 OA
BRANCH   8   9
ATOM      9  C   UNL     1      15.325  20.301  45.218  1.00  0.00     0.281 C 
ATOM     10  C   UNL     1      16.743  17.578  44.650  1.00  0.00     0.041 C 
ATOM     11  C   UNL     1      16.912  18.600  45.784  1.00  0.00     0.150 C 
ATOM     12  C   UNL     1      16.145  18.226  47.077  1.00  0.00     0.174 C 
ATOM     13  O   UNL     1      16.695  19.940  45.349  1.00  0.00    -0.344 OA
ATOM     14  C   UNL     1      14.661  18.640  47.014  1.00  0.00     0.179 C 
ATOM     15  C   UNL     1      14.530  20.086  46.518  1.00  0.00     0.202 C 
BRANCH  12  16
ATOM     16  O   UNL     1      16.768  18.851  48.170  1.00  0.00    -0.388 OA
ATOM     17  H   UNL     1      16.048  19.263  48.716  1.00  0.00     0.211 HD
ENDBRANCH  12  16
BRANCH  14  18
ATOM     18  O   UNL     1      13.939  17.784  46.167  1.00  0.00    -0.387 OA
ATOM     19  H   UNL     1      14.535  17.019  45.952  1.00  0.00     0.211 HD
ENDBRANCH  14  18
BRANCH  15  20
ATOM     20  O   UNL     1      14.997  20.981  47.497  1.00  0.00    -0.385 OA
ATOM     21  H   UNL     1      15.777  20.549  47.933  1.00  0.00     0.211 HD
ENDBRANCH  15  20
ENDBRANCH   8   9
ENDBRANCH   7   8
ENDBRANCH   1   7
BRANCH   2  22
ATOM     22  O   UNL     1      11.875  22.682  43.455  1.00  0.00    -0.387 OA
ATOM     23  H   UNL     1      11.855  23.499  42.893  1.00  0.00     0.211 HD
ENDBRANCH   2  22
BRANCH   3  24
ATOM     24  O   UNL     1      12.462  25.041  44.801  1.00  0.00    -0.387 OA
ATOM     25  H   UNL     1      12.842  25.954  44.913  1.00  0.00     0.211 HD
ENDBRANCH   3  24
BRANCH   5  26
ATOM     26  O   UNL     1      16.284  23.662  43.234  1.00  0.00    -0.454 OA
BRANCH  26  27
ATOM     27  C   UNL     1      17.316  24.600  43.105  1.00  0.00     0.214 A 
ATOM     28  C   UNL     1      17.700  25.436  44.172  1.00  0.00     0.180 A 
ATOM     29  C   UNL     1      17.970  24.727  41.875  1.00  0.00     0.239 A 
ATOM     30  O   UNL     1      18.711  26.284  44.009  1.00  0.00    -0.452 OA
ATOM     31  C   UNL     1      19.066  25.611  41.743  1.00  0.00     0.111 A 
ATOM     32  O   UNL     1      17.543  24.058  40.899  1.00  0.00    -0.285 OA
ATOM     33  C   UNL     1      19.386  26.409  42.872  1.00  0.00     0.146 A 
ATOM     34  C   UNL     1      19.844  25.767  40.556  1.00  0.00     0.134 A 
ATOM     35  C   UNL     1      20.407  27.362  42.803  1.00  0.00     0.094 A 
ATOM     36  C   UNL     1      20.830  26.760  40.502  1.00  0.00     0.093 A 
ATOM     37  C   UNL     1      21.114  27.554  41.618  1.00  0.00     0.123 A 
BRANCH  28  38
ATOM     38  C   UNL     1      16.996  25.441  45.473  1.00  0.00     0.025 A 
ATOM     39  C   UNL     1      16.722  26.662  46.107  1.00  0.00     0.062 A 
ATOM     40  C   UNL     1      16.549  24.250  46.064  1.00  0.00     0.016 A 
ATOM     41  C   UNL     1      16.033  26.703  47.325  1.00  0.00     0.158 A 
ATOM     42  C   UNL     1      15.863  24.280  47.280  1.00  0.00     0.051 A 
ATOM     43  C   UNL     1      15.595  25.497  47.919  1.00  0.00     0.157 A 
BRANCH  41  44
ATOM     44  O   UNL     1      15.809  27.953  47.905  1.00  0.00    -0.504 OA
ATOM     45  H   UNL     1      16.331  28.312  48.691  1.00  0.00     0.293 HD
ENDBRANCH  41  44
BRANCH  43  46
ATOM     46  O   UNL     1      14.887  25.461  49.122  1.00  0.00    -0.504 OA
ATOM     47  H   UNL     1      14.994  24.733  49.816  1.00  0.00     0.293 HD
ENDBRANCH  43  46
ENDBRANCH  28  38
BRANCH  34  48
ATOM     48  O   UNL     1      19.707  24.959  39.423  1.00  0.00    -0.507 OA
ATOM     49  H   UNL     1      19.211  24.082  39.399  1.00  0.00     0.293 HD
ENDBRANCH  34  48
BRANCH  37  50
ATOM     50  O   UNL     1      22.102  28.533  41.558  1.00  0.00    -0.508 OA
ATOM     51  H   UNL     1      23.018  28.339  41.174  1.00  0.00     0.293 HD
ENDBRANCH  37  50
ENDBRANCH  26  27
ENDBRANCH   5  26
BRANCH   4  52
ATOM     52  O   UNL     1      13.034  24.885  42.079  1.00  0.00    -0.384 OA
ATOM     53  H   UNL     1      13.458  25.128  41.215  1.00  0.00     0.211 HD
ENDBRANCH   4  52
TORSDOF 16
ENDMDL
MODEL 4
REMARK VINA RESULT:    -6.622      2.438      8.921
REMARK INTER + INTRA:         -13.466
REMARK INTER:                 -10.421
REMARK INTRA:                  -3.045
REMARK UNBOUND:                -2.585
REMARK SMILES C[C@H]1O[C@@H](OC[C@H]2O[C@H](Oc3c(-c4ccc(O)c(O)c4)oc4cc(O)cc(O)c4c3=O)[C@@H](O)[C@@H](O)[C@H]2O)[C@H](O)[C@@H](O)[C@@H]1O
REMARK SMILES IDX 7 1 36 2 34 3 32 4 9 5 8 6 6 7 5 8 4 9 1 10 2 11 42 12 3 13
REMARK SMILES IDX 40 14 38 15 43 16 41 18 39 20 37 22 35 24 10 26 11 27 12 28
REMARK SMILES IDX 30 29 21 30 29 31 31 32 22 33 27 34 23 35 26 36 24 37 13 38
REMARK SMILES IDX 20 39 14 40 18 41 15 42 16 43 19 44 17 46 28 48 25 50 33 52
REMARK H PARENT 43 17 41 19 39 21 37 23 35 25 19 45 17 47 28 49 25 51 33 53
REMARK Flexibility Score: inf
ROOT
ATOM      1  C   UNL     1      14.834  22.736  47.216  1.00  0.00     0.180 C 
ATOM      2  C   UNL     1      14.736  23.676  48.437  1.00  0.00     0.177 C 
ATOM      3  C   UNL     1      15.557  24.948  48.157  1.00  0.00     0.180 C 
ATOM      4  C   UNL     1      15.164  25.568  46.798  1.00  0.00     0.214 C 
ATOM      5  C   UNL     1      15.176  24.489  45.696  1.00  0.00     0.339 C 
ATOM      6  O   UNL     1      14.354  23.385  46.048  1.00  0.00    -0.332 OA
ENDROOT
BRANCH   1   7
ATOM      7  C   UNL     1      14.040  21.439  47.421  1.00  0.00     0.198 C 
BRANCH   7   8
ATOM      8  O   UNL     1      14.242  20.959  48.736  1.00  0.00    -0.347 OA
BRANCH   8   9
ATOM      9  C   UNL     1      15.357  20.080  48.787  1.00  0.00     0.281 C 
ATOM     10  C   UNL     1      12.661  18.511  48.933  1.00  0.00     0.041 C 
ATOM     11  C   UNL     1      14.118  18.058  49.116  1.00  0.00     0.150 C 
ATOM     12  C   UNL     1      14.555  17.957  50.599  1.00  0.00     0.174 C 
ATOM     13  O   UNL     1      15.025  18.788  48.294  1.00  0.00    -0.344 OA
ATOM     14  C   UNL     1      14.977  19.323  51.176  1.00  0.00     0.179 C 
ATOM     15  C   UNL     1      15.934  20.038  50.214  1.00  0.00     0.202 C 
BRANCH  12  16
ATOM     16  O   UNL     1      15.623  17.049  50.695  1.00  0.00    -0.388 OA
ATOM     17  H   UNL     1      15.652  16.736  51.637  1.00  0.00     0.211 HD
ENDBRANCH  12  16
BRANCH  14  18
ATOM     18  O   UNL     1      13.855  20.133  51.413  1.00  0.00    -0.387 OA
ATOM     19  H   UNL     1      13.234  20.000  50.648  1.00  0.00     0.211 HD
ENDBRANCH  14  18
BRANCH  15  20
ATOM     20  O   UNL     1      17.178  19.384  50.188  1.00  0.00    -0.385 OA
ATOM     21  H   UNL     1      17.381  19.190  49.235  1.00  0.00     0.211 HD
ENDBRANCH  15  20
ENDBRANCH   8   9
ENDBRANCH   7   8
ENDBRANCH   1   7
BRANCH   2  22
ATOM     22  O   UNL     1      13.391  24.004  48.683  1.00  0.00    -0.387 OA
ATOM     23  H   UNL     1      13.159  23.630  49.573  1.00  0.00     0.211 HD
ENDBRANCH   2  22
BRANCH   3  24
ATOM     24  O   UNL     1      15.381  25.873  49.199  1.00  0.00    -0.387 OA
ATOM     25  H   UNL     1      16.282  26.041  49.587  1.00  0.00     0.211 HD
ENDBRANCH   3  24
BRANCH   5  26
ATOM     26  O   UNL     1      16.510  24.048  45.409  1.00  0.00    -0.454 OA
BRANCH  26  27
ATOM     27  C   UNL     1      17.034  23.972  44.113  1.00  0.00     0.214 A 
ATOM     28  C   UNL     1      16.900  22.815  43.321  1.00  0.00     0.180 A 
ATOM     29  C   UNL     1      17.732  25.069  43.596  1.00  0.00     0.239 A 
ATOM     30  O   UNL     1      17.384  22.807  42.083  1.00  0.00    -0.452 OA
ATOM     31  C   UNL     1      18.202  25.045  42.262  1.00  0.00     0.111 A 
ATOM     32  O   UNL     1      17.944  26.052  44.351  1.00  0.00    -0.285 OA
ATOM     33  C   UNL     1      18.017  23.839  41.538  1.00  0.00     0.146 A 
ATOM     34  C   UNL     1      18.864  26.133  41.616  1.00  0.00     0.134 A 
ATOM     35  C   UNL     1      18.518  23.705  40.240  1.00  0.00     0.094 A 
ATOM     36  C   UNL     1      19.394  25.954  40.333  1.00  0.00     0.093 A 
ATOM     37  C   UNL     1      19.223  24.749  39.645  1.00  0.00     0.123 A 
BRANCH  28  38
ATOM     38  C   UNL     1      16.269  21.575  43.825  1.00  0.00     0.025 A 
ATOM     39  C   UNL     1      16.970  20.758  44.724  1.00  0.00     0.062 A 
ATOM     40  C   UNL     1      14.960  21.224  43.461  1.00  0.00     0.016 A 
ATOM     41  C   UNL     1      16.392  19.592  45.240  1.00  0.00     0.158 A 
ATOM     42  C   UNL     1      14.375  20.062  43.970  1.00  0.00     0.051 A 
ATOM     43  C   UNL     1      15.075  19.240  44.861  1.00  0.00     0.157 A 
BRANCH  41  44
ATOM     44  O   UNL     1      17.154  18.819  46.118  1.00  0.00    -0.504 OA
ATOM     45  H   UNL     1      18.111  19.024  46.365  1.00  0.00     0.293 HD
ENDBRANCH  41  44
BRANCH  43  46
ATOM     46  O   UNL     1      14.428  18.103  45.349  1.00  0.00    -0.504 OA
ATOM     47  H   UNL     1      14.040  18.033  46.280  1.00  0.00     0.293 HD
ENDBRANCH  43  46
ENDBRANCH  28  38
BRANCH  34  48
ATOM     48  O   UNL     1      19.000  27.407  42.177  1.00  0.00    -0.507 OA
ATOM     49  H   UNL     1      18.395  28.189  41.980  1.00  0.00     0.293 HD
ENDBRANCH  34  48
BRANCH  37  50
ATOM     50  O   UNL     1      19.746  24.584  38.364  1.00  0.00    -0.508 OA
ATOM     51  H   UNL     1      20.681  24.893  38.129  1.00  0.00     0.293 HD
ENDBRANCH  37  50
ENDBRANCH  26  27
ENDBRANCH   5  26
BRANCH   4  52
ATOM     52  O   UNL     1      13.881  26.137  46.866  1.00  0.00    -0.384 OA
ATOM     53  H   UNL     1      13.837  26.651  47.714  1.00  0.00     0.211 HD
ENDBRANCH   4  52
TORSDOF 16
ENDMDL
MODEL 5
REMARK VINA RESULT:    -6.509      1.195      2.194
REMARK INTER + INTRA:         -13.280
REMARK INTER:                 -11.625
REMARK INTRA:                  -1.655
REMARK UNBOUND:                -2.585
REMARK SMILES C[C@H]1O[C@@H](OC[C@H]2O[C@H](Oc3c(-c4ccc(O)c(O)c4)oc4cc(O)cc(O)c4c3=O)[C@@H](O)[C@@H](O)[C@H]2O)[C@H](O)[C@@H](O)[C@@H]1O
REMARK SMILES IDX 7 1 36 2 34 3 32 4 9 5 8 6 6 7 5 8 4 9 1 10 2 11 42 12 3 13
REMARK SMILES IDX 40 14 38 15 43 16 41 18 39 20 37 22 35 24 10 26 11 27 12 28
REMARK SMILES IDX 30 29 21 30 29 31 31 32 22 33 27 34 23 35 26 36 24 37 13 38
REMARK SMILES IDX 20 39 14 40 18 41 15 42 16 43 19 44 17 46 28 48 25 50 33 52
REMARK H PARENT 43 17 41 19 39 21 37 23 35 25 19 45 17 47 28 49 25 51 33 53
REMARK Flexibility Score: inf
ROOT
ATOM      1  C   UNL     1      14.969  24.555  40.954  1.00  0.00     0.180 C 
ATOM      2  C   UNL     1      13.599  23.861  40.797  1.00  0.00     0.177 C 
ATOM      3  C   UNL     1      13.292  23.062  42.077  1.00  0.00     0.180 C 
ATOM      4  C   UNL     1      13.458  23.949  43.331  1.00  0.00     0.214 C 
ATOM      5  C   UNL     1      14.814  24.683  43.290  1.00  0.00     0.339 C 
ATOM      6  O   UNL     1      14.966  25.416  42.083  1.00  0.00    -0.332 OA
ENDROOT
BRANCH   1   7
ATOM      7  C   UNL     1      15.348  25.372  39.711  1.00  0.00     0.198 C 
BRANCH   7   8
ATOM      8  O   UNL     1      16.753  25.372  39.550  1.00  0.00    -0.347 OA
BRANCH   8   9
ATOM      9  C   UNL     1      17.211  24.098  39.119  1.00  0.00     0.281 C 
ATOM     10  C   UNL     1      19.571  26.126  39.391  1.00  0.00     0.041 C 
ATOM     11  C   UNL     1      19.507  24.704  38.813  1.00  0.00     0.150 C 
ATOM     12  C   UNL     1      19.376  24.667  37.270  1.00  0.00     0.174 C 
ATOM     13  O   UNL     1      18.566  23.878  39.494  1.00  0.00    -0.344 OA
ATOM     14  C   UNL     1      17.918  24.849  36.804  1.00  0.00     0.179 C 
ATOM     15  C   UNL     1      16.982  23.936  37.606  1.00  0.00     0.202 C 
BRANCH  12  16
ATOM     16  O   UNL     1      19.875  23.439  36.802  1.00  0.00    -0.388 OA
ATOM     17  H   UNL     1      19.373  23.220  35.974  1.00  0.00     0.211 HD
ENDBRANCH  12  16
BRANCH  14  18
ATOM     18  O   UNL     1      17.511  26.185  36.949  1.00  0.00    -0.387 OA
ATOM     19  H   UNL     1      16.535  26.172  37.134  1.00  0.00     0.211 HD
ENDBRANCH  14  18
BRANCH  15  20
ATOM     20  O   UNL     1      17.190  22.592  37.251  1.00  0.00    -0.385 OA
ATOM     21  H   UNL     1      17.844  22.590  36.503  1.00  0.00     0.211 HD
ENDBRANCH  15  20
ENDBRANCH   8   9
ENDBRANCH   7   8
ENDBRANCH   1   7
BRANCH   2  22
ATOM     22  O   UNL     1      12.599  24.822  40.566  1.00  0.00    -0.387 OA
ATOM     23  H   UNL     1      12.067  24.895  41.401  1.00  0.00     0.211 HD
ENDBRANCH   2  22
BRANCH   3  24
ATOM     24  O   UNL     1      11.997  22.526  42.010  1.00  0.00    -0.387 OA
ATOM     25  H   UNL     1      11.663  22.695  41.088  1.00  0.00     0.211 HD
ENDBRANCH   3  24
BRANCH   5  26
ATOM     26  O   UNL     1      15.907  23.773  43.464  1.00  0.00    -0.454 OA
BRANCH  26  27
ATOM     27  C   UNL     1      16.144  23.071  44.653  1.00  0.00     0.214 A 
ATOM     28  C   UNL     1      16.560  23.720  45.832  1.00  0.00     0.180 A 
ATOM     29  C   UNL     1      15.986  21.681  44.664  1.00  0.00     0.239 A 
ATOM     30  O   UNL     1      16.735  23.012  46.943  1.00  0.00    -0.452 OA
ATOM     31  C   UNL     1      16.143  20.960  45.871  1.00  0.00     0.111 A 
ATOM     32  O   UNL     1      15.726  21.100  43.580  1.00  0.00    -0.285 OA
ATOM     33  C   UNL     1      16.557  21.698  47.010  1.00  0.00     0.146 A 
ATOM     34  C   UNL     1      15.938  19.553  46.008  1.00  0.00     0.134 A 
ATOM     35  C   UNL     1      16.808  21.051  48.223  1.00  0.00     0.094 A 
ATOM     36  C   UNL     1      16.240  18.927  47.223  1.00  0.00     0.093 A 
ATOM     37  C   UNL     1      16.672  19.668  48.327  1.00  0.00     0.123 A 
BRANCH  28  38
ATOM     38  C   UNL     1      16.852  25.170  45.882  1.00  0.00     0.025 A 
ATOM     39  C   UNL     1      16.262  25.960  46.878  1.00  0.00     0.062 A 
ATOM     40  C   UNL     1      17.750  25.763  44.981  1.00  0.00     0.016 A 
ATOM     41  C   UNL     1      16.538  27.330  46.970  1.00  0.00     0.158 A 
ATOM     42  C   UNL     1      18.030  27.129  45.063  1.00  0.00     0.051 A 
ATOM     43  C   UNL     1      17.437  27.923  46.052  1.00  0.00     0.157 A 
BRANCH  41  44
ATOM     44  O   UNL     1      15.904  28.058  47.978  1.00  0.00    -0.504 OA
ATOM     45  H   UNL     1      16.367  28.392  48.810  1.00  0.00     0.293 HD
ENDBRANCH  41  44
BRANCH  43  46
ATOM     46  O   UNL     1      17.774  29.277  46.094  1.00  0.00    -0.504 OA
ATOM     47  H   UNL     1      17.347  29.944  46.722  1.00  0.00     0.293 HD
ENDBRANCH  43  46
ENDBRANCH  28  38
BRANCH  34  48
ATOM     48  O   UNL     1      15.416  18.740  44.997  1.00  0.00    -0.507 OA
ATOM     49  H   UNL     1      14.525  18.270  45.040  1.00  0.00     0.293 HD
ENDBRANCH  34  48
BRANCH  37  50
ATOM     50  O   UNL     1      16.961  19.037  49.535  1.00  0.00    -0.508 OA
ATOM     51  H   UNL     1      16.814  19.499  50.423  1.00  0.00     0.293 HD
ENDBRANCH  37  50
ENDBRANCH  26  27
ENDBRANCH   5  26
BRANCH   4  52
ATOM     52  O   UNL     1      12.426  24.899  43.405  1.00  0.00    -0.384 OA
ATOM     53  H   UNL     1      12.312  25.129  44.363  1.00  0.00     0.211 HD
ENDBRANCH   4  52
TORSDOF 16
ENDMDL
MODEL 6
REMARK VINA RESULT:    -6.498      2.988      8.629
REMARK INTER + INTRA:         -13.261
REMARK INTER:                 -11.475
REMARK INTRA:                  -1.786
REMARK UNBOUND:                -2.585
REMARK SMILES C[C@H]1O[C@@H](OC[C@H]2O[C@H](Oc3c(-c4ccc(O)c(O)c4)oc4cc(O)cc(O)c4c3=O)[C@@H](O)[C@@H](O)[C@H]2O)[C@H](O)[C@@H](O)[C@@H]1O
REMARK SMILES IDX 7 1 36 2 34 3 32 4 9 5 8 6 6 7 5 8 4 9 1 10 2 11 42 12 3 13
REMARK SMILES IDX 40 14 38 15 43 16 41 18 39 20 37 22 35 24 10 26 11 27 12 28
REMARK SMILES IDX 30 29 21 30 29 31 31 32 22 33 27 34 23 35 26 36 24 37 13 38
REMARK SMILES IDX 20 39 14 40 18 41 15 42 16 43 19 44 17 46 28 48 25 50 33 52
REMARK H PARENT 43 17 41 19 39 21 37 23 35 25 19 45 17 47 28 49 25 51 33 53
REMARK Flexibility Score: inf
ROOT
ATOM      1  C   UNL     1      14.304  23.724  47.712  1.00  0.00     0.180 C 
ATOM      2  C   UNL     1      14.426  22.185  47.735  1.00  0.00     0.177 C 
ATOM      3  C   UNL     1      15.395  21.743  46.624  1.00  0.00     0.180 C 
ATOM      4  C   UNL     1      16.725  22.524  46.711  1.00  0.00     0.214 C 
ATOM      5  C   UNL     1      16.447  24.038  46.816  1.00  0.00     0.339 C 
ATOM      6  O   UNL     1      15.575  24.328  47.898  1.00  0.00    -0.332 OA
ENDROOT
BRANCH   1   7
ATOM      7  C   UNL     1      13.348  24.243  48.794  1.00  0.00     0.198 C 
BRANCH   7   8
ATOM      8  O   UNL     1      13.500  25.642  48.935  1.00  0.00    -0.347 OA
BRANCH   8   9
ATOM      9  C   UNL     1      13.646  26.000  50.301  1.00  0.00     0.281 C 
ATOM     10  C   UNL     1      12.897  28.474  48.550  1.00  0.00     0.041 C 
ATOM     11  C   UNL     1      13.321  28.355  50.022  1.00  0.00     0.150 C 
ATOM     12  C   UNL     1      14.823  28.654  50.260  1.00  0.00     0.174 C 
ATOM     13  O   UNL     1      12.869  27.146  50.626  1.00  0.00    -0.344 OA
ATOM     14  C   UNL     1      15.714  27.429  49.973  1.00  0.00     0.179 C 
ATOM     15  C   UNL     1      15.135  26.178  50.647  1.00  0.00     0.202 C 
BRANCH  12  16
ATOM     16  O   UNL     1      14.997  29.067  51.592  1.00  0.00    -0.388 OA
ATOM     17  H   UNL     1      15.797  28.592  51.939  1.00  0.00     0.211 HD
ENDBRANCH  12  16
BRANCH  14  18
ATOM     18  O   UNL     1      15.830  27.208  48.591  1.00  0.00    -0.387 OA
ATOM     19  H   UNL     1      14.908  27.209  48.219  1.00  0.00     0.211 HD
ENDBRANCH  14  18
BRANCH  15  20
ATOM     20  O   UNL     1      15.276  26.266  52.043  1.00  0.00    -0.385 OA
ATOM     21  H   UNL     1      14.509  26.801  52.375  1.00  0.00     0.211 HD
ENDBRANCH  15  20
ENDBRANCH   8   9
ENDBRANCH   7   8
ENDBRANCH   1   7
BRANCH   2  22
ATOM     22  O   UNL     1      14.892  21.760  48.991  1.00  0.00    -0.387 OA
ATOM     23  H   UNL     1      15.466  20.965  48.836  1.00  0.00     0.211 HD
ENDBRANCH   2  22
BRANCH   3  24
ATOM     24  O   UNL     1      15.622  20.359  46.705  1.00  0.00    -0.387 OA
ATOM     25  H   UNL     1      16.566  20.240  46.995  1.00  0.00     0.211 HD
ENDBRANCH   3  24
BRANCH   5  26
ATOM     26  O   UNL     1      15.916  24.559  45.591  1.00  0.00    -0.454 OA
BRANCH  26  27
ATOM     27  C   UNL     1      16.704  24.854  44.472  1.00  0.00     0.214 A 
ATOM     28  C   UNL     1      16.458  24.272  43.213  1.00  0.00     0.180 A 
ATOM     29  C   UNL     1      17.782  25.734  44.612  1.00  0.00     0.239 A 
ATOM     30  O   UNL     1      17.213  24.613  42.173  1.00  0.00    -0.452 OA
ATOM     31  C   UNL     1      18.543  26.107  43.480  1.00  0.00     0.111 A 
ATOM     32  O   UNL     1      18.062  26.158  45.762  1.00  0.00    -0.285 OA
ATOM     33  C   UNL     1      18.220  25.475  42.251  1.00  0.00     0.146 A 
ATOM     34  C   UNL     1      19.618  27.048  43.500  1.00  0.00     0.134 A 
ATOM     35  C   UNL     1      18.971  25.730  41.101  1.00  0.00     0.094 A 
ATOM     36  C   UNL     1      20.380  27.249  42.342  1.00  0.00     0.093 A 
ATOM     37  C   UNL     1      20.061  26.597  41.147  1.00  0.00     0.123 A 
BRANCH  28  38
ATOM     38  C   UNL     1      15.406  23.253  42.999  1.00  0.00     0.025 A 
ATOM     39  C   UNL     1      15.611  21.941  43.448  1.00  0.00     0.062 A 
ATOM     40  C   UNL     1      14.181  23.586  42.399  1.00  0.00     0.016 A 
ATOM     41  C   UNL     1      14.625  20.960  43.285  1.00  0.00     0.158 A 
ATOM     42  C   UNL     1      13.192  22.614  42.230  1.00  0.00     0.051 A 
ATOM     43  C   UNL     1      13.397  21.301  42.671  1.00  0.00     0.157 A 
BRANCH  41  44
ATOM     44  O   UNL     1      14.905  19.672  43.743  1.00  0.00    -0.504 OA
ATOM     45  H   UNL     1      15.835  19.285  43.807  1.00  0.00     0.293 HD
ENDBRANCH  41  44
BRANCH  43  46
ATOM     46  O   UNL     1      12.363  20.382  42.492  1.00  0.00    -0.504 OA
ATOM     47  H   UNL     1      12.111  19.986  41.596  1.00  0.00     0.293 HD
ENDBRANCH  43  46
ENDBRANCH  28  38
BRANCH  34  48
ATOM     48  O   UNL     1      19.955  27.823  44.614  1.00  0.00    -0.507 OA
ATOM     49  H   UNL     1      19.561  28.727  44.824  1.00  0.00     0.293 HD
ENDBRANCH  34  48
BRANCH  37  50
ATOM     50  O   UNL     1      20.819  26.811  39.999  1.00  0.00    -0.508 OA
ATOM     51  H   UNL     1      21.149  26.042  39.430  1.00  0.00     0.293 HD
ENDBRANCH  37  50
ENDBRANCH  26  27
ENDBRANCH   5  26
BRANCH   4  52
ATOM     52  O   UNL     1      17.466  22.117  47.833  1.00  0.00    -0.384 OA
ATOM     53  H   UNL     1      18.382  22.481  47.722  1.00  0.00     0.211 HD
ENDBRANCH   4  52
TORSDOF 16
ENDMDL
MODEL 7
REMARK VINA RESULT:    -6.406      2.002      3.563
REMARK INTER + INTRA:         -13.111
REMARK INTER:                 -11.281
REMARK INTRA:                  -1.830
REMARK UNBOUND:                -2.585
REMARK SMILES C[C@H]1O[C@@H](OC[C@H]2O[C@H](Oc3c(-c4ccc(O)c(O)c4)oc4cc(O)cc(O)c4c3=O)[C@@H](O)[C@@H](O)[C@H]2O)[C@H](O)[C@@H](O)[C@@H]1O
REMARK SMILES IDX 7 1 36 2 34 3 32 4 9 5 8 6 6 7 5 8 4 9 1 10 2 11 42 12 3 13
REMARK SMILES IDX 40 14 38 15 43 16 41 18 39 20 37 22 35 24 10 26 11 27 12 28
REMARK SMILES IDX 30 29 21 30 29 31 31 32 22 33 27 34 23 35 26 36 24 37 13 38
REMARK SMILES IDX 20 39 14 40 18 41 15 42 16 43 19 44 17 46 28 48 25 50 33 52
REMARK H PARENT 43 17 41 19 39 21 37 23 35 25 19 45 17 47 28 49 25 51 33 53
REMARK Flexibility Score: inf
ROOT
ATOM      1  C   UNL     1      16.252  25.492  42.164  1.00  0.00     0.180 C 
ATOM      2  C   UNL     1      16.721  26.890  42.621  1.00  0.00     0.177 C 
ATOM      3  C   UNL     1      16.974  26.864  44.139  1.00  0.00     0.180 C 
ATOM      4  C   UNL     1      17.898  25.687  44.521  1.00  0.00     0.214 C 
ATOM      5  C   UNL     1      17.383  24.377  43.890  1.00  0.00     0.339 C 
ATOM      6  O   UNL     1      17.227  24.510  42.485  1.00  0.00    -0.332 OA
ENDROOT
BRANCH   1   7
ATOM      7  C   UNL     1      15.976  25.439  40.656  1.00  0.00     0.198 C 
BRANCH   7   8
ATOM      8  O   UNL     1      17.196  25.316  39.951  1.00  0.00    -0.347 OA
BRANCH   8   9
ATOM      9  C   UNL     1      16.984  24.733  38.673  1.00  0.00     0.281 C 
ATOM     10  C   UNL     1      19.669  23.762  39.938  1.00  0.00     0.041 C 
ATOM     11  C   UNL     1      19.071  23.568  38.536  1.00  0.00     0.150 C 
ATOM     12  C   UNL     1      19.627  24.558  37.482  1.00  0.00     0.174 C 
ATOM     13  O   UNL     1      17.649  23.481  38.555  1.00  0.00    -0.344 OA
ATOM     14  C   UNL     1      18.908  25.922  37.527  1.00  0.00     0.179 C 
ATOM     15  C   UNL     1      17.387  25.723  37.566  1.00  0.00     0.202 C 
BRANCH  12  16
ATOM     16  O   UNL     1      19.485  23.988  36.205  1.00  0.00    -0.388 OA
ATOM     17  H   UNL     1      20.393  23.722  35.906  1.00  0.00     0.211 HD
ENDBRANCH  12  16
BRANCH  14  18
ATOM     18  O   UNL     1      19.314  26.663  38.648  1.00  0.00    -0.387 OA
ATOM     19  H   UNL     1      19.457  27.598  38.342  1.00  0.00     0.211 HD
ENDBRANCH  14  18
BRANCH  15  20
ATOM     20  O   UNL     1      16.927  25.240  36.328  1.00  0.00    -0.385 OA
ATOM     21  H   UNL     1      16.178  25.829  36.050  1.00  0.00     0.211 HD
ENDBRANCH  15  20
ENDBRANCH   8   9
ENDBRANCH   7   8
ENDBRANCH   1   7
BRANCH   2  22
ATOM     22  O   UNL     1      17.894  27.250  41.933  1.00  0.00    -0.387 OA
ATOM     23  H   UNL     1      18.477  26.448  41.912  1.00  0.00     0.211 HD
ENDBRANCH   2  22
BRANCH   3  24
ATOM     24  O   UNL     1      17.522  28.087  44.557  1.00  0.00    -0.387 OA
ATOM     25  H   UNL     1      18.333  28.242  44.002  1.00  0.00     0.211 HD
ENDBRANCH   3  24
BRANCH   5  26
ATOM     26  O   UNL     1      16.154  23.953  44.492  1.00  0.00    -0.454 OA
BRANCH  26  27
ATOM     27  C   UNL     1      16.086  23.003  45.519  1.00  0.00     0.214 A 
ATOM     28  C   UNL     1      15.595  23.325  46.800  1.00  0.00     0.180 A 
ATOM     29  C   UNL     1      16.539  21.702  45.274  1.00  0.00     0.239 A 
ATOM     30  O   UNL     1      15.517  22.377  47.729  1.00  0.00    -0.452 OA
ATOM     31  C   UNL     1      16.407  20.707  46.269  1.00  0.00     0.111 A 
ATOM     32  O   UNL     1      17.079  21.457  44.165  1.00  0.00    -0.285 OA
ATOM     33  C   UNL     1      15.897  21.120  47.527  1.00  0.00     0.146 A 
ATOM     34  C   UNL     1      16.774  19.337  46.100  1.00  0.00     0.134 A 
ATOM     35  C   UNL     1      15.805  20.216  48.589  1.00  0.00     0.094 A 
ATOM     36  C   UNL     1      16.713  18.466  47.194  1.00  0.00     0.093 A 
ATOM     37  C   UNL     1      16.230  18.899  48.433  1.00  0.00     0.123 A 
BRANCH  28  38
ATOM     38  C   UNL     1      15.193  24.698  47.177  1.00  0.00     0.025 A 
ATOM     39  C   UNL     1      13.835  25.049  47.167  1.00  0.00     0.062 A 
ATOM     40  C   UNL     1      16.140  25.645  47.596  1.00  0.00     0.016 A 
ATOM     41  C   UNL     1      13.419  26.331  47.544  1.00  0.00     0.158 A 
ATOM     42  C   UNL     1      15.735  26.928  47.972  1.00  0.00     0.051 A 
ATOM     43  C   UNL     1      14.381  27.283  47.955  1.00  0.00     0.157 A 
BRANCH  41  44
ATOM     44  O   UNL     1      12.053  26.614  47.495  1.00  0.00    -0.504 OA
ATOM     45  H   UNL     1      11.651  27.361  46.947  1.00  0.00     0.293 HD
ENDBRANCH  41  44
BRANCH  43  46
ATOM     46  O   UNL     1      14.039  28.574  48.362  1.00  0.00    -0.504 OA
ATOM     47  H   UNL     1      13.088  28.882  48.517  1.00  0.00     0.293 HD
ENDBRANCH  43  46
ENDBRANCH  28  38
BRANCH  34  48
ATOM     48  O   UNL     1      17.173  18.782  44.880  1.00  0.00    -0.507 OA
ATOM     49  H   UNL     1      17.345  19.310  44.038  1.00  0.00     0.293 HD
ENDBRANCH  34  48
BRANCH  37  50
ATOM     50  O   UNL     1      16.165  18.023  49.514  1.00  0.00    -0.508 OA
ATOM     51  H   UNL     1      16.979  17.515  49.835  1.00  0.00     0.293 HD
ENDBRANCH  37  50
ENDBRANCH  26  27
ENDBRANCH   5  26
BRANCH   4  52
ATOM     52  O   UNL     1      19.210  25.923  44.078  1.00  0.00    -0.384 OA
ATOM     53  H   UNL     1      19.176  26.715  43.481  1.00  0.00     0.211 HD
ENDBRANCH   4  52
TORSDOF 16
ENDMDL
MODEL 8
REMARK VINA RESULT:    -6.400      3.062      8.790
REMARK INTER + INTRA:         -13.101
REMARK INTER:                 -11.315
REMARK INTRA:                  -1.786
REMARK UNBOUND:                -2.585
REMARK SMILES C[C@H]1O[C@@H](OC[C@H]2O[C@H](Oc3c(-c4ccc(O)c(O)c4)oc4cc(O)cc(O)c4c3=O)[C@@H](O)[C@@H](O)[C@H]2O)[C@H](O)[C@@H](O)[C@@H]1O
REMARK SMILES IDX 7 1 36 2 34 3 32 4 9 5 8 6 6 7 5 8 4 9 1 10 2 11 42 12 3 13
REMARK SMILES IDX 40 14 38 15 43 16 41 18 39 20 37 22 35 24 10 26 11 27 12 28
REMARK SMILES IDX 30 29 21 30 29 31 31 32 22 33 27 34 23 35 26 36 24 37 13 38
REMARK SMILES IDX 20 39 14 40 18 41 15 42 16 43 19 44 17 46 28 48 25 50 33 52
REMARK H PARENT 43 17 41 19 39 21 37 23 35 25 19 45 17 47 28 49 25 51 33 53
REMARK Flexibility Score: inf
ROOT
ATOM      1  C   UNL     1      14.311  23.708  47.794  1.00  0.00     0.180 C 
ATOM      2  C   UNL     1      14.352  22.275  48.368  1.00  0.00     0.177 C 
ATOM      3  C   UNL     1      15.210  21.390  47.445  1.00  0.00     0.180 C 
ATOM      4  C   UNL     1      16.582  22.047  47.176  1.00  0.00     0.214 C 
ATOM      5  C   UNL     1      16.395  23.514  46.738  1.00  0.00     0.339 C 
ATOM      6  O   UNL     1      15.623  24.239  47.684  1.00  0.00    -0.332 OA
ENDROOT
BRANCH   1   7
ATOM      7  C   UNL     1      13.467  24.652  48.661  1.00  0.00     0.198 C 
BRANCH   7   8
ATOM      8  O   UNL     1      14.215  25.813  48.970  1.00  0.00    -0.347 OA
BRANCH   8   9
ATOM      9  C   UNL     1      14.276  26.016  50.374  1.00  0.00     0.281 C 
ATOM     10  C   UNL     1      12.771  28.352  48.949  1.00  0.00     0.041 C 
ATOM     11  C   UNL     1      13.245  28.176  50.399  1.00  0.00     0.150 C 
ATOM     12  C   UNL     1      14.589  28.884  50.704  1.00  0.00     0.174 C 
ATOM     13  O   UNL     1      13.194  26.819  50.831  1.00  0.00    -0.344 OA
ATOM     14  C   UNL     1      15.803  28.036  50.275  1.00  0.00     0.179 C 
ATOM     15  C   UNL     1      15.648  26.592  50.768  1.00  0.00     0.202 C 
BRANCH  12  16
ATOM     16  O   UNL     1      14.658  29.152  52.081  1.00  0.00    -0.388 OA
ATOM     17  H   UNL     1      14.034  29.904  52.260  1.00  0.00     0.211 HD
ENDBRANCH  12  16
BRANCH  14  18
ATOM     18  O   UNL     1      15.951  28.044  48.879  1.00  0.00    -0.387 OA
ATOM     19  H   UNL     1      15.784  28.976  48.575  1.00  0.00     0.211 HD
ENDBRANCH  14  18
BRANCH  15  20
ATOM     20  O   UNL     1      15.786  26.536  52.166  1.00  0.00    -0.385 OA
ATOM     21  H   UNL     1      15.015  26.014  52.510  1.00  0.00     0.211 HD
ENDBRANCH  15  20
ENDBRANCH   8   9
ENDBRANCH   7   8
ENDBRANCH   1   7
BRANCH   2  22
ATOM     22  O   UNL     1      14.888  22.294  49.668  1.00  0.00    -0.387 OA
ATOM     23  H   UNL     1      14.303  22.880  50.215  1.00  0.00     0.211 HD
ENDBRANCH   2  22
BRANCH   3  24
ATOM     24  O   UNL     1      15.368  20.115  48.011  1.00  0.00    -0.387 OA
ATOM     25  H   UNL     1      14.805  20.094  48.831  1.00  0.00     0.211 HD
ENDBRANCH   3  24
BRANCH   5  26
ATOM     26  O   UNL     1      15.801  23.600  45.436  1.00  0.00    -0.454 OA
BRANCH  26  27
ATOM     27  C   UNL     1      16.545  23.618  44.249  1.00  0.00     0.214 A 
ATOM     28  C   UNL     1      16.745  22.456  43.478  1.00  0.00     0.180 A 
ATOM     29  C   UNL     1      17.126  24.819  43.828  1.00  0.00     0.239 A 
ATOM     30  O   UNL     1      17.427  22.534  42.340  1.00  0.00    -0.452 OA
ATOM     31  C   UNL     1      17.814  24.879  42.595  1.00  0.00     0.111 A 
ATOM     32  O   UNL     1      17.037  25.822  44.582  1.00  0.00    -0.285 OA
ATOM     33  C   UNL     1      17.961  23.661  41.882  1.00  0.00     0.146 A 
ATOM     34  C   UNL     1      18.383  26.066  42.041  1.00  0.00     0.134 A 
ATOM     35  C   UNL     1      18.692  23.618  40.691  1.00  0.00     0.094 A 
ATOM     36  C   UNL     1      19.148  25.983  40.870  1.00  0.00     0.093 A 
ATOM     37  C   UNL     1      19.302  24.768  40.195  1.00  0.00     0.123 A 
BRANCH  28  38
ATOM     38  C   UNL     1      16.256  21.126  43.901  1.00  0.00     0.025 A 
ATOM     39  C   UNL     1      17.177  20.133  44.264  1.00  0.00     0.062 A 
ATOM     40  C   UNL     1      14.883  20.851  43.997  1.00  0.00     0.016 A 
ATOM     41  C   UNL     1      16.747  18.872  44.694  1.00  0.00     0.158 A 
ATOM     42  C   UNL     1      14.443  19.596  44.424  1.00  0.00     0.051 A 
ATOM     43  C   UNL     1      15.361  18.600  44.779  1.00  0.00     0.157 A 
BRANCH  41  44
ATOM     44  O   UNL     1      17.720  17.928  45.024  1.00  0.00    -0.504 OA
ATOM     45  H   UNL     1      17.561  17.144  45.639  1.00  0.00     0.293 HD
ENDBRANCH  41  44
BRANCH  43  46
ATOM     46  O   UNL     1      14.858  17.374  45.217  1.00  0.00    -0.504 OA
ATOM     47  H   UNL     1      15.384  16.510  45.197  1.00  0.00     0.293 HD
ENDBRANCH  43  46
ENDBRANCH  28  38
BRANCH  34  48
ATOM     48  O   UNL     1      18.204  27.343  42.582  1.00  0.00    -0.507 OA
ATOM     49  H   UNL     1      17.470  27.596  43.225  1.00  0.00     0.293 HD
ENDBRANCH  34  48
BRANCH  37  50
ATOM     50  O   UNL     1      20.056  24.697  39.027  1.00  0.00    -0.508 OA
ATOM     51  H   UNL     1      19.768  24.127  38.242  1.00  0.00     0.293 HD
ENDBRANCH  37  50
ENDBRANCH  26  27
ENDBRANCH   5  26
BRANCH   4  52
ATOM     52  O   UNL     1      17.382  22.014  48.330  1.00  0.00    -0.384 OA
ATOM     53  H   UNL     1      17.555  21.058  48.535  1.00  0.00     0.211 HD
ENDBRANCH   4  52
TORSDOF 16
ENDMDL
MODEL 9
REMARK VINA RESULT:    -6.289      2.683      8.016
REMARK INTER + INTRA:         -12.918
REMARK INTER:                  -9.270
REMARK INTRA:                  -3.648
REMARK UNBOUND:                -2.585
REMARK SMILES C[C@H]1O[C@@H](OC[C@H]2O[C@H](Oc3c(-c4ccc(O)c(O)c4)oc4cc(O)cc(O)c4c3=O)[C@@H](O)[C@@H](O)[C@H]2O)[C@H](O)[C@@H](O)[C@@H]1O
REMARK SMILES IDX 7 1 36 2 34 3 32 4 9 5 8 6 6 7 5 8 4 9 1 10 2 11 42 12 3 13
REMARK SMILES IDX 40 14 38 15 43 16 41 18 39 20 37 22 35 24 10 26 11 27 12 28
REMARK SMILES IDX 30 29 21 30 29 31 31 32 22 33 27 34 23 35 26 36 24 37 13 38
REMARK SMILES IDX 20 39 14 40 18 41 15 42 16 43 19 44 17 46 28 48 25 50 33 52
REMARK H PARENT 43 17 41 19 39 21 37 23 35 25 19 45 17 47 28 49 25 51 33 53
REMARK Flexibility Score: inf
ROOT
ATOM      1  C   UNL     1      13.119  21.665  46.333  1.00  0.00     0.180 C 
ATOM      2  C   UNL     1      12.315  20.743  45.391  1.00  0.00     0.177 C 
ATOM      3  C   UNL     1      12.721  21.038  43.935  1.00  0.00     0.180 C 
ATOM      4  C   UNL     1      14.256  20.993  43.772  1.00  0.00     0.214 C 
ATOM      5  C   UNL     1      14.933  21.852  44.859  1.00  0.00     0.339 C 
ATOM      6  O   UNL     1      14.513  21.463  46.159  1.00  0.00    -0.332 OA
ENDROOT
BRANCH   1   7
ATOM      7  C   UNL     1      12.766  21.432  47.808  1.00  0.00     0.198 C 
BRANCH   7   8
ATOM      8  O   UNL     1      13.948  21.197  48.550  1.00  0.00    -0.347 OA
BRANCH   8   9
ATOM      9  C   UNL     1      13.697  20.316  49.634  1.00  0.00     0.281 C 
ATOM     10  C   UNL     1      16.760  20.722  49.183  1.00  0.00     0.041 C 
ATOM     11  C   UNL     1      15.980  19.761  50.093  1.00  0.00     0.150 C 
ATOM     12  C   UNL     1      15.819  18.339  49.500  1.00  0.00     0.174 C 
ATOM     13  O   UNL     1      14.764  20.328  50.574  1.00  0.00    -0.344 OA
ATOM     14  C   UNL     1      14.642  18.250  48.509  1.00  0.00     0.179 C 
ATOM     15  C   UNL     1      13.389  18.902  49.108  1.00  0.00     0.202 C 
BRANCH  12  16
ATOM     16  O   UNL     1      15.625  17.428  50.553  1.00  0.00    -0.388 OA
ATOM     17  H   UNL     1      16.517  17.253  50.951  1.00  0.00     0.211 HD
ENDBRANCH  12  16
BRANCH  14  18
ATOM     18  O   UNL     1      14.963  18.876  47.294  1.00  0.00    -0.387 OA
ATOM     19  H   UNL     1      14.501  18.368  46.575  1.00  0.00     0.211 HD
ENDBRANCH  14  18
BRANCH  15  20
ATOM     20  O   UNL     1      12.887  18.118  50.161  1.00  0.00    -0.385 OA
ATOM     21  H   UNL     1      13.300  18.461  50.996  1.00  0.00     0.211 HD
ENDBRANCH  15  20
ENDBRANCH   8   9
ENDBRANCH   7   8
ENDBRANCH   1   7
BRANCH   2  22
ATOM     22  O   UNL     1      12.568  19.397  45.708  1.00  0.00    -0.387 OA
ATOM     23  H   UNL     1      11.856  19.107  46.336  1.00  0.00     0.211 HD
ENDBRANCH   2  22
BRANCH   3  24
ATOM     24  O   UNL     1      12.098  20.126  43.068  1.00  0.00    -0.387 OA
ATOM     25  H   UNL     1      12.094  19.246  43.532  1.00  0.00     0.211 HD
ENDBRANCH   3  24
BRANCH   5  26
ATOM     26  O   UNL     1      14.688  23.249  44.652  1.00  0.00    -0.454 OA
BRANCH  26  27
ATOM     27  C   UNL     1      15.689  24.226  44.719  1.00  0.00     0.214 A 
ATOM     28  C   UNL     1      15.862  25.038  45.857  1.00  0.00     0.180 A 
ATOM     29  C   UNL     1      16.526  24.418  43.615  1.00  0.00     0.239 A 
ATOM     30  O   UNL     1      16.851  25.926  45.884  1.00  0.00    -0.452 OA
ATOM     31  C   UNL     1      17.593  25.344  43.688  1.00  0.00     0.111 A 
ATOM     32  O   UNL     1      16.289  23.769  42.565  1.00  0.00    -0.285 OA
ATOM     33  C   UNL     1      17.695  26.114  44.876  1.00  0.00     0.146 A 
ATOM     34  C   UNL     1      18.545  25.568  42.647  1.00  0.00     0.134 A 
ATOM     35  C   UNL     1      18.674  27.103  45.000  1.00  0.00     0.094 A 
ATOM     36  C   UNL     1      19.486  26.596  42.783  1.00  0.00     0.093 A 
ATOM     37  C   UNL     1      19.555  27.360  43.951  1.00  0.00     0.123 A 
BRANCH  28  38
ATOM     38  C   UNL     1      14.958  24.974  47.026  1.00  0.00     0.025 A 
ATOM     39  C   UNL     1      15.361  24.280  48.176  1.00  0.00     0.062 A 
ATOM     40  C   UNL     1      13.722  25.639  47.028  1.00  0.00     0.016 A 
ATOM     41  C   UNL     1      14.540  24.223  49.309  1.00  0.00     0.158 A 
ATOM     42  C   UNL     1      12.895  25.586  48.153  1.00  0.00     0.051 A 
ATOM     43  C   UNL     1      13.292  24.887  49.299  1.00  0.00     0.157 A 
BRANCH  41  44
ATOM     44  O   UNL     1      15.000  23.500  50.411  1.00  0.00    -0.504 OA
ATOM     45  H   UNL     1      14.767  23.722  51.368  1.00  0.00     0.293 HD
ENDBRANCH  41  44
BRANCH  43  46
ATOM     46  O   UNL     1      12.429  24.890  50.397  1.00  0.00    -0.504 OA
ATOM     47  H   UNL     1      12.257  24.081  50.979  1.00  0.00     0.293 HD
ENDBRANCH  43  46
ENDBRANCH  28  38
BRANCH  34  48
ATOM     48  O   UNL     1      18.625  24.795  41.485  1.00  0.00    -0.507 OA
ATOM     49  H   UNL     1      19.159  25.042  40.666  1.00  0.00     0.293 HD
ENDBRANCH  34  48
BRANCH  37  50
ATOM     50  O   UNL     1      20.500  28.375  44.080  1.00  0.00    -0.508 OA
ATOM     51  H   UNL     1      21.420  28.198  44.464  1.00  0.00     0.293 HD
ENDBRANCH  37  50
ENDBRANCH  26  27
ENDBRANCH   5  26
BRANCH   4  52
ATOM     52  O   UNL     1      14.726  19.673  43.875  1.00  0.00    -0.384 OA
ATOM     53  H   UNL     1      15.688  19.726  44.112  1.00  0.00     0.211 HD
ENDBRANCH   4  52
TORSDOF 16
ENDMDL
