MODEL 1
REMARK VINA RESULT:    -6.024      0.000      0.000
REMARK INTER + INTRA:          -6.376
REMARK INTER:                  -6.376
REMARK INTRA:                   0.000
REMARK UNBOUND:                 0.000
REMARK SMILES O=c1ccc2cc(O)c(O)cc2o1
REMARK SMILES IDX 4 1 3 2 2 3 1 4 13 5 12 6 11 7 9 8 7 9 6 10 5 11 8 12 10 14
REMARK H PARENT 8 13 10 15
REMARK Flexibility Score: inf
ROOT
ATOM      1  C   UNL     1      79.802  59.256   9.859  1.00  0.00     0.019 A 
ATOM      2  C   UNL     1      78.861  58.633   9.042  1.00  0.00     0.094 A 
ATOM      3  C   UNL     1      77.502  58.778   9.340  1.00  0.00     0.336 A 
ATOM      4  O   UNL     1      76.636  58.222   8.614  1.00  0.00    -0.246 OA
ATOM      5  O   UNL     1      77.116  59.500  10.388  1.00  0.00    -0.423 OA
ATOM      6  C   UNL     1      77.982  60.112  11.194  1.00  0.00     0.142 A 
ATOM      7  C   UNL     1      77.518  60.859  12.281  1.00  0.00     0.098 A 
ATOM      8  C   UNL     1      78.425  61.505  13.133  1.00  0.00     0.161 A 
ATOM      9  C   UNL     1      79.808  61.403  12.893  1.00  0.00     0.158 A 
ATOM     10  C   UNL     1      80.275  60.656  11.806  1.00  0.00     0.062 A 
ATOM     11  C   UNL     1      79.369  60.010  10.954  1.00  0.00     0.022 A 
ENDROOT
BRANCH   9  12
ATOM     12  O   UNL     1      80.731  62.036  13.725  1.00  0.00    -0.504 OA
ATOM     13  H   UNL     1      80.700  63.033  13.905  1.00  0.00     0.293 HD
ENDBRANCH   9  12
BRANCH   8  14
ATOM     14  O   UNL     1      77.959  62.248  14.217  1.00  0.00    -0.504 OA
ATOM     15  H   UNL     1      78.132  63.243  14.292  1.00  0.00     0.293 HD
ENDBRANCH   8  14
TORSDOF 2
ENDMDL
MODEL 2
REMARK VINA RESULT:    -5.956      1.216      4.542
REMARK INTER + INTRA:          -6.304
REMARK INTER:                  -6.304
REMARK INTRA:                   0.000
REMARK UNBOUND:                 0.000
REMARK SMILES O=c1ccc2cc(O)c(O)cc2o1
REMARK SMILES IDX 4 1 3 2 2 3 1 4 13 5 12 6 11 7 9 8 7 9 6 10 5 11 8 12 10 14
REMARK H PARENT 8 13 10 15
REMARK Flexibility Score: inf
ROOT
ATOM      1  C   UNL     1      80.777  60.517  12.558  1.00  0.00     0.019 A 
ATOM      2  C   UNL     1      80.575  61.472  13.554  1.00  0.00     0.094 A 
ATOM      3  C   UNL     1      79.322  62.086  13.659  1.00  0.00     0.336 A 
ATOM      4  O   UNL     1      79.119  62.952  14.550  1.00  0.00    -0.246 OA
ATOM      5  O   UNL     1      78.341  61.762  12.821  1.00  0.00    -0.423 OA
ATOM      6  C   UNL     1      78.492  60.857  11.857  1.00  0.00     0.142 A 
ATOM      7  C   UNL     1      77.424  60.556  11.006  1.00  0.00     0.098 A 
ATOM      8  C   UNL     1      77.578  59.602   9.990  1.00  0.00     0.161 A 
ATOM      9  C   UNL     1      78.811  58.944   9.825  1.00  0.00     0.158 A 
ATOM     10  C   UNL     1      79.881  59.243  10.676  1.00  0.00     0.062 A 
ATOM     11  C   UNL     1      79.728  60.196  11.692  1.00  0.00     0.022 A 
ENDROOT
BRANCH   9  12
ATOM     12  O   UNL     1      78.989  57.991   8.822  1.00  0.00    -0.504 OA
ATOM     13  H   UNL     1      79.771  58.026   8.179  1.00  0.00     0.293 HD
ENDBRANCH   9  12
BRANCH   8  14
ATOM     14  O   UNL     1      76.510  59.305   9.142  1.00  0.00    -0.504 OA
ATOM     15  H   UNL     1      75.602  59.042   9.505  1.00  0.00     0.293 HD
ENDBRANCH   8  14
TORSDOF 2
ENDMDL
MODEL 3
REMARK VINA RESULT:    -5.622      1.245      2.348
REMARK INTER + INTRA:          -5.951
REMARK INTER:                  -5.951
REMARK INTRA:                   0.000
REMARK UNBOUND:                 0.000
REMARK SMILES O=c1ccc2cc(O)c(O)cc2o1
REMARK SMILES IDX 4 1 3 2 2 3 1 4 13 5 12 6 11 7 9 8 7 9 6 10 5 11 8 12 10 14
REMARK H PARENT 8 13 10 15
REMARK Flexibility Score: inf
ROOT
ATOM      1  C   UNL     1      76.741  59.247  10.059  1.00  0.00     0.019 A 
ATOM      2  C   UNL     1      77.017  58.479   8.929  1.00  0.00     0.094 A 
ATOM      3  C   UNL     1      78.347  58.158   8.635  1.00  0.00     0.336 A 
ATOM      4  O   UNL     1      78.617  57.467   7.618  1.00  0.00    -0.246 OA
ATOM      5  O   UNL     1      79.331  58.581   9.424  1.00  0.00    -0.423 OA
ATOM      6  C   UNL     1      79.112  59.315  10.512  1.00  0.00     0.142 A 
ATOM      7  C   UNL     1      80.187  59.730  11.305  1.00  0.00     0.098 A 
ATOM      8  C   UNL     1      79.961  60.504  12.452  1.00  0.00     0.161 A 
ATOM      9  C   UNL     1      78.648  60.864  12.809  1.00  0.00     0.158 A 
ATOM     10  C   UNL     1      77.571  60.450  12.018  1.00  0.00     0.062 A 
ATOM     11  C   UNL     1      77.795  59.677  10.871  1.00  0.00     0.022 A 
ENDROOT
BRANCH   9  12
ATOM     12  O   UNL     1      78.397  61.633  13.946  1.00  0.00    -0.504 OA
ATOM     13  H   UNL     1      78.904  61.495  14.812  1.00  0.00     0.293 HD
ENDBRANCH   9  12
BRANCH   8  14
ATOM     14  O   UNL     1      81.036  60.917  13.240  1.00  0.00    -0.504 OA
ATOM     15  H   UNL     1      81.076  60.712  14.231  1.00  0.00     0.293 HD
ENDBRANCH   8  14
TORSDOF 2
ENDMDL
MODEL 4
REMARK VINA RESULT:    -5.568      2.877      6.195
REMARK INTER + INTRA:          -5.893
REMARK INTER:                  -5.893
REMARK INTRA:                   0.000
REMARK UNBOUND:                 0.000
REMARK SMILES O=c1ccc2cc(O)c(O)cc2o1
REMARK SMILES IDX 4 1 3 2 2 3 1 4 13 5 12 6 11 7 9 8 7 9 6 10 5 11 8 12 10 14
REMARK H PARENT 8 13 10 15
REMARK Flexibility Score: inf
ROOT
ATOM      1  C   UNL     1      79.245  63.822  15.483  1.00  0.00     0.019 A 
ATOM      2  C   UNL     1      80.062  64.936  15.662  1.00  0.00     0.094 A 
ATOM      3  C   UNL     1      80.996  65.258  14.671  1.00  0.00     0.336 A 
ATOM      4  O   UNL     1      81.745  66.260  14.814  1.00  0.00    -0.246 OA
ATOM      5  O   UNL     1      81.100  64.510  13.576  1.00  0.00    -0.423 OA
ATOM      6  C   UNL     1      80.340  63.439  13.365  1.00  0.00     0.142 A 
ATOM      7  C   UNL     1      80.493  62.691  12.194  1.00  0.00     0.098 A 
ATOM      8  C   UNL     1      79.694  61.561  11.967  1.00  0.00     0.161 A 
ATOM      9  C   UNL     1      78.733  61.178  12.921  1.00  0.00     0.158 A 
ATOM     10  C   UNL     1      78.577  61.925  14.094  1.00  0.00     0.062 A 
ATOM     11  C   UNL     1      79.375  63.054  14.322  1.00  0.00     0.022 A 
ENDROOT
BRANCH   9  12
ATOM     12  O   UNL     1      77.925  60.059  12.719  1.00  0.00    -0.504 OA
ATOM     13  H   UNL     1      78.029  59.213  13.268  1.00  0.00     0.293 HD
ENDBRANCH   9  12
BRANCH   8  14
ATOM     14  O   UNL     1      79.851  60.817  10.798  1.00  0.00    -0.504 OA
ATOM     15  H   UNL     1      79.163  60.845  10.055  1.00  0.00     0.293 HD
ENDBRANCH   8  14
TORSDOF 2
ENDMDL
MODEL 5
REMARK VINA RESULT:    -5.488      1.790      1.901
REMARK INTER + INTRA:          -5.809
REMARK INTER:                  -5.809
REMARK INTRA:                   0.000
REMARK UNBOUND:                 0.000
REMARK SMILES O=c1ccc2cc(O)c(O)cc2o1
REMARK SMILES IDX 4 1 3 2 2 3 1 4 13 5 12 6 11 7 9 8 7 9 6 10 5 11 8 12 10 14
REMARK H PARENT 8 13 10 15
REMARK Flexibility Score: inf
ROOT
ATOM      1  C   UNL     1      78.079  58.005  11.608  1.00  0.00     0.019 A 
ATOM      2  C   UNL     1      76.824  57.537  11.221  1.00  0.00     0.094 A 
ATOM      3  C   UNL     1      75.740  58.422  11.225  1.00  0.00     0.336 A 
ATOM      4  O   UNL     1      74.598  58.019  10.881  1.00  0.00    -0.246 OA
ATOM      5  O   UNL     1      75.907  59.690  11.593  1.00  0.00    -0.423 OA
ATOM      6  C   UNL     1      77.087  60.177  11.969  1.00  0.00     0.142 A 
ATOM      7  C   UNL     1      77.203  61.519  12.344  1.00  0.00     0.098 A 
ATOM      8  C   UNL     1      78.444  62.037  12.740  1.00  0.00     0.161 A 
ATOM      9  C   UNL     1      79.578  61.204  12.760  1.00  0.00     0.158 A 
ATOM     10  C   UNL     1      79.465  59.861  12.385  1.00  0.00     0.062 A 
ATOM     11  C   UNL     1      78.225  59.342  11.989  1.00  0.00     0.022 A 
ENDROOT
BRANCH   9  12
ATOM     12  O   UNL     1      80.824  61.696  13.150  1.00  0.00    -0.504 OA
ATOM     13  H   UNL     1      81.025  61.956  14.108  1.00  0.00     0.293 HD
ENDBRANCH   9  12
BRANCH   8  14
ATOM     14  O   UNL     1      78.555  63.376  13.115  1.00  0.00    -0.504 OA
ATOM     15  H   UNL     1      79.145  64.022  12.605  1.00  0.00     0.293 HD
ENDBRANCH   8  14
TORSDOF 2
ENDMDL
MODEL 6
REMARK VINA RESULT:    -5.423      1.845      2.641
REMARK INTER + INTRA:          -5.741
REMARK INTER:                  -5.741
REMARK INTRA:                   0.000
REMARK UNBOUND:                 0.000
REMARK SMILES O=c1ccc2cc(O)c(O)cc2o1
REMARK SMILES IDX 4 1 3 2 2 3 1 4 13 5 12 6 11 7 9 8 7 9 6 10 5 11 8 12 10 14
REMARK H PARENT 8 13 10 15
REMARK Flexibility Score: inf
ROOT
ATOM      1  C   UNL     1      76.242  59.252  11.242  1.00  0.00     0.019 A 
ATOM      2  C   UNL     1      76.395  57.898  10.948  1.00  0.00     0.094 A 
ATOM      3  C   UNL     1      77.639  57.294  11.163  1.00  0.00     0.336 A 
ATOM      4  O   UNL     1      77.798  56.072  10.903  1.00  0.00    -0.246 OA
ATOM      5  O   UNL     1      78.658  58.003  11.641  1.00  0.00    -0.423 OA
ATOM      6  C   UNL     1      78.555  59.297  11.935  1.00  0.00     0.142 A 
ATOM      7  C   UNL     1      79.660  59.991  12.436  1.00  0.00     0.098 A 
ATOM      8  C   UNL     1      79.557  61.355  12.747  1.00  0.00     0.161 A 
ATOM      9  C   UNL     1      78.336  62.028  12.556  1.00  0.00     0.158 A 
ATOM     10  C   UNL     1      77.228  61.335  12.055  1.00  0.00     0.062 A 
ATOM     11  C   UNL     1      77.330  59.972  11.744  1.00  0.00     0.022 A 
ENDROOT
BRANCH   9  12
ATOM     12  O   UNL     1      78.207  63.383  12.858  1.00  0.00    -0.504 OA
ATOM     13  H   UNL     1      77.372  63.909  12.630  1.00  0.00     0.293 HD
ENDBRANCH   9  12
BRANCH   8  14
ATOM     14  O   UNL     1      80.663  62.044  13.245  1.00  0.00    -0.504 OA
ATOM     15  H   UNL     1      81.357  62.448  12.629  1.00  0.00     0.293 HD
ENDBRANCH   8  14
TORSDOF 2
ENDMDL
MODEL 7
REMARK VINA RESULT:    -5.325      1.524      4.632
REMARK INTER + INTRA:          -5.637
REMARK INTER:                  -5.637
REMARK INTRA:                   0.000
REMARK UNBOUND:                 0.000
REMARK SMILES O=c1ccc2cc(O)c(O)cc2o1
REMARK SMILES IDX 4 1 3 2 2 3 1 4 13 5 12 6 11 7 9 8 7 9 6 10 5 11 8 12 10 14
REMARK H PARENT 8 13 10 15
REMARK Flexibility Score: inf
ROOT
ATOM      1  C   UNL     1      80.247  59.625  10.125  1.00  0.00     0.019 A 
ATOM      2  C   UNL     1      80.746  60.330  11.219  1.00  0.00     0.094 A 
ATOM      3  C   UNL     1      79.935  60.494  12.347  1.00  0.00     0.336 A 
ATOM      4  O   UNL     1      80.367  61.129  13.346  1.00  0.00    -0.246 OA
ATOM      5  O   UNL     1      78.706  59.986  12.372  1.00  0.00    -0.423 OA
ATOM      6  C   UNL     1      78.191  59.307  11.350  1.00  0.00     0.142 A 
ATOM      7  C   UNL     1      76.893  58.794  11.433  1.00  0.00     0.098 A 
ATOM      8  C   UNL     1      76.345  58.078  10.359  1.00  0.00     0.161 A 
ATOM      9  C   UNL     1      77.105  57.873   9.192  1.00  0.00     0.158 A 
ATOM     10  C   UNL     1      78.404  58.385   9.106  1.00  0.00     0.062 A 
ATOM     11  C   UNL     1      78.952  59.101  10.179  1.00  0.00     0.022 A 
ENDROOT
BRANCH   9  12
ATOM     12  O   UNL     1      76.584  57.164   8.110  1.00  0.00    -0.504 OA
ATOM     13  H   UNL     1      77.108  57.024   7.254  1.00  0.00     0.293 HD
ENDBRANCH   9  12
BRANCH   8  14
ATOM     14  O   UNL     1      75.050  57.569  10.446  1.00  0.00    -0.504 OA
ATOM     15  H   UNL     1      74.242  58.129  10.202  1.00  0.00     0.293 HD
ENDBRANCH   8  14
TORSDOF 2
ENDMDL
MODEL 8
REMARK VINA RESULT:    -5.229      2.310      3.436
REMARK INTER + INTRA:          -5.534
REMARK INTER:                  -5.534
REMARK INTRA:                   0.000
REMARK UNBOUND:                 0.000
REMARK SMILES O=c1ccc2cc(O)c(O)cc2o1
REMARK SMILES IDX 4 1 3 2 2 3 1 4 13 5 12 6 11 7 9 8 7 9 6 10 5 11 8 12 10 14
REMARK H PARENT 8 13 10 15
REMARK Flexibility Score: inf
ROOT
ATOM      1  C   UNL     1      75.948  58.235   8.964  1.00  0.00     0.019 A 
ATOM      2  C   UNL     1      74.666  58.121   9.500  1.00  0.00     0.094 A 
ATOM      3  C   UNL     1      74.461  58.452  10.844  1.00  0.00     0.336 A 
ATOM      4  O   UNL     1      73.310  58.355  11.347  1.00  0.00    -0.246 OA
ATOM      5  O   UNL     1      75.475  58.868  11.597  1.00  0.00    -0.423 OA
ATOM      6  C   UNL     1      76.714  58.991  11.125  1.00  0.00     0.142 A 
ATOM      7  C   UNL     1      77.741  59.435  11.964  1.00  0.00     0.098 A 
ATOM      8  C   UNL     1      79.048  59.566  11.472  1.00  0.00     0.161 A 
ATOM      9  C   UNL     1      79.328  59.251  10.129  1.00  0.00     0.158 A 
ATOM     10  C   UNL     1      78.301  58.806   9.288  1.00  0.00     0.062 A 
ATOM     11  C   UNL     1      76.995  58.675   9.779  1.00  0.00     0.022 A 
ENDROOT
BRANCH   9  12
ATOM     12  O   UNL     1      80.618  59.373   9.615  1.00  0.00    -0.504 OA
ATOM     13  H   UNL     1      80.902  60.168   9.055  1.00  0.00     0.293 HD
ENDBRANCH   9  12
BRANCH   8  14
ATOM     14  O   UNL     1      80.070  60.008  12.312  1.00  0.00    -0.504 OA
ATOM     15  H   UNL     1      80.276  59.541  13.187  1.00  0.00     0.293 HD
ENDBRANCH   8  14
TORSDOF 2
ENDMDL
