MODEL 1
REMARK VINA RESULT:     3.827      0.000      0.000
REMARK INTER + INTRA:           8.007
REMARK INTER:                   6.958
REMARK INTRA:                   1.049
REMARK UNBOUND:                 1.049
REMARK SMILES CCCCCCCCCCCCCCCC(=O)[O-]
REMARK SMILES IDX 9 1 10 2 11 3 12 4 13 5 14 6 15 7 16 8 17 9 18 10 8 11 7 12
REMARK SMILES IDX 6 13 5 14 4 15 3 16 2 17 1 18
REMARK H PARENT
REMARK Flexibility Score: inf
ROOT
ATOM      1  C   UNL     1     -39.434  23.783   8.086  1.00  0.00     0.000 C 
ENDROOT
BRANCH   1   2
ATOM      2  C   UNL     1     -39.781  22.674   9.094  1.00  0.00     0.000 C 
BRANCH   2   3
ATOM      3  C   UNL     1     -41.047  21.896   8.699  1.00  0.00     0.000 C 
BRANCH   3   4
ATOM      4  C   UNL     1     -41.869  22.613   7.613  1.00  0.00     0.000 C 
BRANCH   4   5
ATOM      5  C   UNL     1     -42.120  24.099   7.955  1.00  0.00     0.000 C 
BRANCH   5   6
ATOM      6  C   UNL     1     -41.418  25.077   6.994  1.00  0.00     0.006 C 
BRANCH   6   7
ATOM      7  C   UNL     1     -42.125  25.243   5.642  1.00  0.00     0.053 C 
BRANCH   7   8
ATOM      8  C   UNL     1     -41.379  24.564   4.534  1.00  0.00     0.041 C 
ATOM      9  O   UNL     1     -40.690  23.537   4.772  1.00  0.00    -0.550 OA
ATOM     10  O   UNL     1     -41.461  25.049   3.235  1.00  0.00    -0.550 OA
ENDBRANCH   7   8
ENDBRANCH   6   7
ENDBRANCH   5   6
ENDBRANCH   4   5
ENDBRANCH   3   4
ENDBRANCH   2   3
ENDBRANCH   1   2
BRANCH   1  11
ATOM     11  C   UNL     1     -37.954  23.760   7.670  1.00  0.00     0.000 C 
BRANCH  11  12
ATOM     12  C   UNL     1     -37.749  24.109   6.188  1.00  0.00    -0.000 C 
BRANCH  12  13
ATOM     13  C   UNL     1     -36.588  25.095   6.013  1.00  0.00    -0.000 C 
BRANCH  13  14
ATOM     14  C   UNL     1     -36.283  25.826   7.326  1.00  0.00    -0.000 C 
BRANCH  14  15
ATOM     15  C   UNL     1     -34.780  26.113   7.460  1.00  0.00    -0.000 C 
BRANCH  15  16
ATOM     16  C   UNL     1     -34.160  25.486   8.722  1.00  0.00    -0.000 C 
BRANCH  16  17
ATOM     17  C   UNL     1     -32.623  25.397   8.712  1.00  0.00    -0.003 C 
ATOM     18  C   UNL     1     -32.079  24.584   7.538  1.00  0.00     0.004 C 
ENDBRANCH  16  17
ENDBRANCH  15  16
ENDBRANCH  14  15
ENDBRANCH  13  14
ENDBRANCH  12  13
ENDBRANCH  11  12
ENDBRANCH   1  11
TORSDOF 14
ENDMDL
MODEL 2
REMARK VINA RESULT:     5.205      3.694      7.727
REMARK INTER + INTRA:          10.515
REMARK INTER:                  11.575
REMARK INTRA:                  -1.060
REMARK UNBOUND:                 1.049
REMARK SMILES CCCCCCCCCCCCCCCC(=O)[O-]
REMARK SMILES IDX 9 1 10 2 11 3 12 4 13 5 14 6 15 7 16 8 17 9 18 10 8 11 7 12
REMARK SMILES IDX 6 13 5 14 4 15 3 16 2 17 1 18
REMARK H PARENT
REMARK Flexibility Score: inf
ROOT
ATOM      1  C   UNL     1     -38.698  24.772   7.158  1.00  0.00     0.000 C 
ENDROOT
BRANCH   1   2
ATOM      2  C   UNL     1     -37.445  24.104   6.566  1.00  0.00     0.000 C 
BRANCH   2   3
ATOM      3  C   UNL     1     -36.369  25.126   6.162  1.00  0.00     0.000 C 
BRANCH   3   4
ATOM      4  C   UNL     1     -36.098  26.167   7.262  1.00  0.00     0.000 C 
BRANCH   4   5
ATOM      5  C   UNL     1     -35.430  25.542   8.508  1.00  0.00     0.000 C 
BRANCH   5   6
ATOM      6  C   UNL     1     -33.928  25.864   8.626  1.00  0.00     0.006 C 
BRANCH   6   7
ATOM      7  C   UNL     1     -33.036  25.042   7.686  1.00  0.00     0.053 C 
BRANCH   7   8
ATOM      8  C   UNL     1     -31.598  25.456   7.775  1.00  0.00     0.041 C 
ATOM      9  O   UNL     1     -30.786  25.117   6.874  1.00  0.00    -0.550 OA
ATOM     10  O   UNL     1     -31.159  26.235   8.837  1.00  0.00    -0.550 OA
ENDBRANCH   7   8
ENDBRANCH   6   7
ENDBRANCH   5   6
ENDBRANCH   4   5
ENDBRANCH   3   4
ENDBRANCH   2   3
ENDBRANCH   1   2
BRANCH   1  11
ATOM     11  C   UNL     1     -39.239  24.025   8.388  1.00  0.00     0.000 C 
BRANCH  11  12
ATOM     12  C   UNL     1     -39.512  22.540   8.109  1.00  0.00    -0.000 C 
BRANCH  12  13
ATOM     13  C   UNL     1     -40.795  22.077   8.809  1.00  0.00    -0.000 C 
BRANCH  13  14
ATOM     14  C   UNL     1     -41.950  21.941   7.810  1.00  0.00    -0.000 C 
BRANCH  14  15
ATOM     15  C   UNL     1     -42.094  23.212   6.960  1.00  0.00    -0.000 C 
BRANCH  15  16
ATOM     16  C   UNL     1     -41.644  23.012   5.501  1.00  0.00    -0.000 C 
BRANCH  16  17
ATOM     17  C   UNL     1     -41.513  24.308   4.681  1.00  0.00    -0.003 C 
ATOM     18  C   UNL     1     -42.046  25.537   5.417  1.00  0.00     0.004 C 
ENDBRANCH  16  17
ENDBRANCH  15  16
ENDBRANCH  14  15
ENDBRANCH  13  14
ENDBRANCH  12  13
ENDBRANCH  11  12
ENDBRANCH   1  11
TORSDOF 14
ENDMDL
