MODEL 1
REMARK VINA RESULT:    -3.624      0.000      0.000
REMARK INTER + INTRA:         -11.297
REMARK INTER:                  -7.862
REMARK INTRA:                  -3.435
REMARK UNBOUND:                -3.435
REMARK SMILES CCCCCCCCCCCCCCCCCCCCCC(=O)[O-]
REMARK SMILES IDX 12 1 11 2 10 3 9 4 8 5 7 6 6 7 5 8 4 9 3 10 2 11 1 12 13 13
REMARK SMILES IDX 14 14 15 15 16 16 17 17 18 18 19 19 20 20 21 21 22 22 23 23
REMARK SMILES IDX 24 24
REMARK H PARENT
REMARK Flexibility Score: inf
ROOT
ATOM      1  C   UNL     1      23.797  21.352  17.605  1.00  0.00     0.000 C 
ENDROOT
BRANCH   1   2
ATOM      2  C   UNL     1      22.289  21.068  17.431  1.00  0.00     0.000 C 
BRANCH   2   3
ATOM      3  C   UNL     1      21.382  22.074  18.161  1.00  0.00     0.000 C 
BRANCH   3   4
ATOM      4  C   UNL     1      20.901  23.202  17.237  1.00  0.00    -0.000 C 
BRANCH   4   5
ATOM      5  C   UNL     1      21.154  24.578  17.868  1.00  0.00    -0.000 C 
BRANCH   5   6
ATOM      6  C   UNL     1      21.371  24.510  19.388  1.00  0.00    -0.000 C 
BRANCH   6   7
ATOM      7  C   UNL     1      21.794  25.855  20.019  1.00  0.00    -0.000 C 
BRANCH   7   8
ATOM      8  C   UNL     1      22.858  26.585  19.178  1.00  0.00    -0.000 C 
BRANCH   8   9
ATOM      9  C   UNL     1      23.275  27.937  19.782  1.00  0.00    -0.000 C 
BRANCH   9  10
ATOM     10  C   UNL     1      24.746  28.337  19.547  1.00  0.00    -0.000 C 
BRANCH  10  11
ATOM     11  C   UNL     1      25.722  27.159  19.393  1.00  0.00    -0.003 C 
ATOM     12  C   UNL     1      26.911  27.482  18.489  1.00  0.00     0.004 C 
ENDBRANCH  10  11
ENDBRANCH   9  10
ENDBRANCH   8   9
ENDBRANCH   7   8
ENDBRANCH   6   7
ENDBRANCH   5   6
ENDBRANCH   4   5
ENDBRANCH   3   4
ENDBRANCH   2   3
ENDBRANCH   1   2
BRANCH   1  13
ATOM     13  C   UNL     1      24.136  22.215  18.836  1.00  0.00     0.000 C 
BRANCH  13  14
ATOM     14  C   UNL     1      25.156  23.339  18.556  1.00  0.00     0.000 C 
BRANCH  14  15
ATOM     15  C   UNL     1      24.776  24.225  17.356  1.00  0.00     0.000 C 
BRANCH  15  16
ATOM     16  C   UNL     1      25.895  24.289  16.306  1.00  0.00     0.000 C 
BRANCH  16  17
ATOM     17  C   UNL     1      25.834  23.075  15.366  1.00  0.00     0.000 C 
BRANCH  17  18
ATOM     18  C   UNL     1      25.241  23.424  13.992  1.00  0.00     0.000 C 
BRANCH  18  19
ATOM     19  C   UNL     1      24.045  22.527  13.628  1.00  0.00     0.000 C 
BRANCH  19  20
ATOM     20  C   UNL     1      22.727  23.016  14.251  1.00  0.00     0.006 C 
BRANCH  20  21
ATOM     21  C   UNL     1      21.494  22.590  13.443  1.00  0.00     0.053 C 
BRANCH  21  22
ATOM     22  C   UNL     1      21.495  23.251  12.101  1.00  0.00     0.041 C 
ATOM     23  O   UNL     1      21.572  24.505  12.011  1.00  0.00    -0.550 OA
ATOM     24  O   UNL     1      21.378  22.484  10.948  1.00  0.00    -0.550 OA
ENDBRANCH  21  22
ENDBRANCH  20  21
ENDBRANCH  19  20
ENDBRANCH  18  19
ENDBRANCH  17  18
ENDBRANCH  16  17
ENDBRANCH  15  16
ENDBRANCH  14  15
ENDBRANCH  13  14
ENDBRANCH   1  13
TORSDOF 20
ENDMDL
MODEL 2
REMARK VINA RESULT:    -3.570      1.811      3.324
REMARK INTER + INTRA:         -11.180
REMARK INTER:                  -7.796
REMARK INTRA:                  -3.384
REMARK UNBOUND:                -3.435
REMARK SMILES CCCCCCCCCCCCCCCCCCCCCC(=O)[O-]
REMARK SMILES IDX 12 1 11 2 10 3 9 4 8 5 7 6 6 7 5 8 4 9 3 10 2 11 1 12 13 13
REMARK SMILES IDX 14 14 15 15 16 16 17 17 18 18 19 19 20 20 21 21 22 22 23 23
REMARK SMILES IDX 24 24
REMARK H PARENT
REMARK Flexibility Score: inf
ROOT
ATOM      1  C   UNL     1      25.400  24.005  17.595  1.00  0.00     0.000 C 
ENDROOT
BRANCH   1   2
ATOM      2  C   UNL     1      24.148  24.902  17.712  1.00  0.00     0.000 C 
BRANCH   2   3
ATOM      3  C   UNL     1      23.399  24.746  19.048  1.00  0.00     0.000 C 
BRANCH   3   4
ATOM      4  C   UNL     1      22.135  25.614  19.112  1.00  0.00    -0.000 C 
BRANCH   4   5
ATOM      5  C   UNL     1      22.132  26.494  20.369  1.00  0.00    -0.000 C 
BRANCH   5   6
ATOM      6  C   UNL     1      21.961  27.989  20.054  1.00  0.00    -0.000 C 
BRANCH   6   7
ATOM      7  C   UNL     1      22.336  28.368  18.605  1.00  0.00    -0.000 C 
BRANCH   7   8
ATOM      8  C   UNL     1      23.408  29.472  18.548  1.00  0.00    -0.000 C 
BRANCH   8   9
ATOM      9  C   UNL     1      24.121  29.685  19.895  1.00  0.00    -0.000 C 
BRANCH   9  10
ATOM     10  C   UNL     1      25.568  29.157  19.964  1.00  0.00    -0.000 C 
BRANCH  10  11
ATOM     11  C   UNL     1      25.741  27.682  19.561  1.00  0.00    -0.003 C 
ATOM     12  C   UNL     1      26.868  27.466  18.552  1.00  0.00     0.004 C 
ENDBRANCH  10  11
ENDBRANCH   9  10
ENDBRANCH   8   9
ENDBRANCH   7   8
ENDBRANCH   6   7
ENDBRANCH   5   6
ENDBRANCH   4   5
ENDBRANCH   3   4
ENDBRANCH   2   3
ENDBRANCH   1   2
BRANCH   1  13
ATOM     13  C   UNL     1      25.446  22.852  18.618  1.00  0.00     0.000 C 
BRANCH  13  14
ATOM     14  C   UNL     1      24.936  21.503  18.069  1.00  0.00     0.000 C 
BRANCH  14  15
ATOM     15  C   UNL     1      23.519  21.142  18.551  1.00  0.00     0.000 C 
BRANCH  15  16
ATOM     16  C   UNL     1      22.559  20.878  17.382  1.00  0.00     0.000 C 
BRANCH  16  17
ATOM     17  C   UNL     1      21.429  21.918  17.355  1.00  0.00     0.000 C 
BRANCH  17  18
ATOM     18  C   UNL     1      21.581  22.923  16.202  1.00  0.00     0.000 C 
BRANCH  18  19
ATOM     19  C   UNL     1      21.734  22.227  14.839  1.00  0.00     0.000 C 
BRANCH  19  20
ATOM     20  C   UNL     1      22.932  22.757  14.034  1.00  0.00     0.006 C 
BRANCH  20  21
ATOM     21  C   UNL     1      24.280  22.418  14.683  1.00  0.00     0.053 C 
BRANCH  21  22
ATOM     22  C   UNL     1      25.408  22.840  13.795  1.00  0.00     0.041 C 
ATOM     23  O   UNL     1      25.759  24.048  13.746  1.00  0.00    -0.550 OA
ATOM     24  O   UNL     1      26.053  21.903  12.996  1.00  0.00    -0.550 OA
ENDBRANCH  21  22
ENDBRANCH  20  21
ENDBRANCH  19  20
ENDBRANCH  18  19
ENDBRANCH  17  18
ENDBRANCH  16  17
ENDBRANCH  15  16
ENDBRANCH  14  15
ENDBRANCH  13  14
ENDBRANCH   1  13
TORSDOF 20
ENDMDL
MODEL 3
REMARK VINA RESULT:    -3.523      3.164      6.920
REMARK INTER + INTRA:         -11.076
REMARK INTER:                  -7.687
REMARK INTRA:                  -3.389
REMARK UNBOUND:                -3.435
REMARK SMILES CCCCCCCCCCCCCCCCCCCCCC(=O)[O-]
REMARK SMILES IDX 12 1 11 2 10 3 9 4 8 5 7 6 6 7 5 8 4 9 3 10 2 11 1 12 13 13
REMARK SMILES IDX 14 14 15 15 16 16 17 17 18 18 19 19 20 20 21 21 22 22 23 23
REMARK SMILES IDX 24 24
REMARK H PARENT
REMARK Flexibility Score: inf
ROOT
ATOM      1  C   UNL     1      21.918  21.816  16.400  1.00  0.00     0.000 C 
ENDROOT
BRANCH   1   2
ATOM      2  C   UNL     1      22.373  21.114  17.698  1.00  0.00     0.000 C 
BRANCH   2   3
ATOM      3  C   UNL     1      23.903  21.035  17.853  1.00  0.00     0.000 C 
BRANCH   3   4
ATOM      4  C   UNL     1      24.400  21.770  19.106  1.00  0.00    -0.000 C 
BRANCH   4   5
ATOM      5  C   UNL     1      25.583  22.689  18.773  1.00  0.00    -0.000 C 
BRANCH   5   6
ATOM      6  C   UNL     1      25.155  24.136  18.480  1.00  0.00    -0.000 C 
BRANCH   6   7
ATOM      7  C   UNL     1      24.933  24.429  16.979  1.00  0.00    -0.000 C 
BRANCH   7   8
ATOM      8  C   UNL     1      26.031  23.809  16.095  1.00  0.00    -0.000 C 
BRANCH   8   9
ATOM      9  C   UNL     1      25.479  22.800  15.073  1.00  0.00    -0.000 C 
BRANCH   9  10
ATOM     10  C   UNL     1      24.690  23.417  13.900  1.00  0.00    -0.000 C 
BRANCH  10  11
ATOM     11  C   UNL     1      23.517  22.565  13.386  1.00  0.00    -0.003 C 
ATOM     12  C   UNL     1      22.288  23.397  13.023  1.00  0.00     0.004 C 
ENDBRANCH  10  11
ENDBRANCH   9  10
ENDBRANCH   8   9
ENDBRANCH   7   8
ENDBRANCH   6   7
ENDBRANCH   5   6
ENDBRANCH   4   5
ENDBRANCH   3   4
ENDBRANCH   2   3
ENDBRANCH   1   2
BRANCH   1  13
ATOM     13  C   UNL     1      21.395  23.251  16.611  1.00  0.00     0.000 C 
BRANCH  13  14
ATOM     14  C   UNL     1      21.153  23.622  18.089  1.00  0.00     0.000 C 
BRANCH  14  15
ATOM     15  C   UNL     1      21.588  25.056  18.439  1.00  0.00     0.000 C 
BRANCH  15  16
ATOM     16  C   UNL     1      22.015  25.190  19.909  1.00  0.00     0.000 C 
BRANCH  16  17
ATOM     17  C   UNL     1      22.722  26.531  20.154  1.00  0.00     0.000 C 
BRANCH  17  18
ATOM     18  C   UNL     1      22.712  27.438  18.913  1.00  0.00     0.000 C 
BRANCH  18  19
ATOM     19  C   UNL     1      22.623  28.928  19.280  1.00  0.00     0.000 C 
BRANCH  19  20
ATOM     20  C   UNL     1      23.955  29.669  19.077  1.00  0.00     0.006 C 
BRANCH  20  21
ATOM     21  C   UNL     1      24.797  29.739  20.358  1.00  0.00     0.053 C 
BRANCH  21  22
ATOM     22  C   UNL     1      26.124  29.079  20.148  1.00  0.00     0.041 C 
ATOM     23  O   UNL     1      27.177  29.622  20.573  1.00  0.00    -0.550 OA
ATOM     24  O   UNL     1      26.200  27.877  19.453  1.00  0.00    -0.550 OA
ENDBRANCH  21  22
ENDBRANCH  20  21
ENDBRANCH  19  20
ENDBRANCH  18  19
ENDBRANCH  17  18
ENDBRANCH  16  17
ENDBRANCH  15  16
ENDBRANCH  14  15
ENDBRANCH  13  14
ENDBRANCH   1  13
TORSDOF 20
ENDMDL
MODEL 4
REMARK VINA RESULT:    -3.459      1.783      3.651
REMARK INTER + INTRA:         -10.938
REMARK INTER:                  -7.758
REMARK INTRA:                  -3.180
REMARK UNBOUND:                -3.435
REMARK SMILES CCCCCCCCCCCCCCCCCCCCCC(=O)[O-]
REMARK SMILES IDX 12 1 11 2 10 3 9 4 8 5 7 6 6 7 5 8 4 9 3 10 2 11 1 12 13 13
REMARK SMILES IDX 14 14 15 15 16 16 17 17 18 18 19 19 20 20 21 21 22 22 23 23
REMARK SMILES IDX 24 24
REMARK H PARENT
REMARK Flexibility Score: inf
ROOT
ATOM      1  C   UNL     1      21.805  23.996  16.942  1.00  0.00     0.000 C 
ENDROOT
BRANCH   1   2
ATOM      2  C   UNL     1      21.382  24.974  18.060  1.00  0.00     0.000 C 
BRANCH   2   3
ATOM      3  C   UNL     1      21.862  24.555  19.461  1.00  0.00     0.000 C 
BRANCH   3   4
ATOM      4  C   UNL     1      22.107  25.763  20.378  1.00  0.00    -0.000 C 
BRANCH   4   5
ATOM      5  C   UNL     1      21.548  27.050  19.755  1.00  0.00    -0.000 C 
BRANCH   5   6
ATOM      6  C   UNL     1      21.467  28.213  20.757  1.00  0.00    -0.000 C 
BRANCH   6   7
ATOM      7  C   UNL     1      22.297  29.449  20.346  1.00  0.00    -0.000 C 
BRANCH   7   8
ATOM      8  C   UNL     1      23.224  29.159  19.152  1.00  0.00    -0.000 C 
BRANCH   8   9
ATOM      9  C   UNL     1      24.708  29.417  19.468  1.00  0.00    -0.000 C 
BRANCH   9  10
ATOM     10  C   UNL     1      25.327  28.482  20.526  1.00  0.00    -0.000 C 
BRANCH  10  11
ATOM     11  C   UNL     1      25.315  26.988  20.161  1.00  0.00    -0.003 C 
ATOM     12  C   UNL     1      25.924  26.703  18.789  1.00  0.00     0.004 C 
ENDBRANCH  10  11
ENDBRANCH   9  10
ENDBRANCH   8   9
ENDBRANCH   7   8
ENDBRANCH   6   7
ENDBRANCH   5   6
ENDBRANCH   4   5
ENDBRANCH   3   4
ENDBRANCH   2   3
ENDBRANCH   1   2
BRANCH   1  13
ATOM     13  C   UNL     1      20.956  22.711  16.876  1.00  0.00     0.000 C 
BRANCH  13  14
ATOM     14  C   UNL     1      21.756  21.445  16.503  1.00  0.00     0.000 C 
BRANCH  14  15
ATOM     15  C   UNL     1      22.391  20.743  17.716  1.00  0.00     0.000 C 
BRANCH  15  16
ATOM     16  C   UNL     1      23.906  20.986  17.799  1.00  0.00     0.000 C 
BRANCH  16  17
ATOM     17  C   UNL     1      24.245  21.940  18.954  1.00  0.00     0.000 C 
BRANCH  17  18
ATOM     18  C   UNL     1      25.300  22.987  18.562  1.00  0.00     0.000 C 
BRANCH  18  19
ATOM     19  C   UNL     1      25.748  22.843  17.098  1.00  0.00     0.000 C 
BRANCH  19  20
ATOM     20  C   UNL     1      25.236  23.987  16.206  1.00  0.00     0.006 C 
BRANCH  20  21
ATOM     21  C   UNL     1      25.767  23.903  14.769  1.00  0.00     0.053 C 
BRANCH  21  22
ATOM     22  C   UNL     1      25.105  22.782  14.032  1.00  0.00     0.041 C 
ATOM     23  O   UNL     1      25.800  21.910  13.446  1.00  0.00    -0.550 OA
ATOM     24  O   UNL     1      23.718  22.717  13.964  1.00  0.00    -0.550 OA
ENDBRANCH  21  22
ENDBRANCH  20  21
ENDBRANCH  19  20
ENDBRANCH  18  19
ENDBRANCH  17  18
ENDBRANCH  16  17
ENDBRANCH  15  16
ENDBRANCH  14  15
ENDBRANCH  13  14
ENDBRANCH   1  13
TORSDOF 20
ENDMDL
MODEL 5
REMARK VINA RESULT:    -3.425      2.816      6.985
REMARK INTER + INTRA:         -10.864
REMARK INTER:                  -8.012
REMARK INTRA:                  -2.852
REMARK UNBOUND:                -3.435
REMARK SMILES CCCCCCCCCCCCCCCCCCCCCC(=O)[O-]
REMARK SMILES IDX 12 1 11 2 10 3 9 4 8 5 7 6 6 7 5 8 4 9 3 10 2 11 1 12 13 13
REMARK SMILES IDX 14 14 15 15 16 16 17 17 18 18 19 19 20 20 21 21 22 22 23 23
REMARK SMILES IDX 24 24
REMARK H PARENT
REMARK Flexibility Score: inf
ROOT
ATOM      1  C   UNL     1      22.261  21.439  17.251  1.00  0.00     0.000 C 
ENDROOT
BRANCH   1   2
ATOM      2  C   UNL     1      23.657  21.045  17.781  1.00  0.00     0.000 C 
BRANCH   2   3
ATOM      3  C   UNL     1      24.165  21.950  18.917  1.00  0.00     0.000 C 
BRANCH   3   4
ATOM      4  C   UNL     1      25.282  22.896  18.452  1.00  0.00    -0.000 C 
BRANCH   4   5
ATOM      5  C   UNL     1      25.882  22.428  17.120  1.00  0.00    -0.000 C 
BRANCH   5   6
ATOM      6  C   UNL     1      25.579  23.387  15.957  1.00  0.00    -0.000 C 
BRANCH   6   7
ATOM      7  C   UNL     1      25.405  22.680  14.595  1.00  0.00    -0.000 C 
BRANCH   7   8
ATOM      8  C   UNL     1      24.228  23.254  13.784  1.00  0.00    -0.000 C 
BRANCH   8   9
ATOM      9  C   UNL     1      22.906  22.509  14.039  1.00  0.00    -0.000 C 
BRANCH   9  10
ATOM     10  C   UNL     1      21.631  23.273  13.625  1.00  0.00    -0.000 C 
BRANCH  10  11
ATOM     11  C   UNL     1      21.607  23.752  12.164  1.00  0.00    -0.003 C 
ATOM     12  C   UNL     1      21.335  22.625  11.169  1.00  0.00     0.004 C 
ENDBRANCH  10  11
ENDBRANCH   9  10
ENDBRANCH   8   9
ENDBRANCH   7   8
ENDBRANCH   6   7
ENDBRANCH   5   6
ENDBRANCH   4   5
ENDBRANCH   3   4
ENDBRANCH   2   3
ENDBRANCH   1   2
BRANCH   1  13
ATOM     13  C   UNL     1      21.600  22.598  18.023  1.00  0.00     0.000 C 
BRANCH  13  14
ATOM     14  C   UNL     1      21.637  23.951  17.281  1.00  0.00     0.000 C 
BRANCH  14  15
ATOM     15  C   UNL     1      22.183  25.106  18.140  1.00  0.00     0.000 C 
BRANCH  15  16
ATOM     16  C   UNL     1      22.048  24.823  19.644  1.00  0.00     0.000 C 
BRANCH  16  17
ATOM     17  C   UNL     1      22.704  25.938  20.473  1.00  0.00     0.000 C 
BRANCH  17  18
ATOM     18  C   UNL     1      21.887  27.240  20.458  1.00  0.00     0.000 C 
BRANCH  18  19
ATOM     19  C   UNL     1      22.743  28.460  20.081  1.00  0.00     0.000 C 
BRANCH  19  20
ATOM     20  C   UNL     1      23.805  28.134  19.018  1.00  0.00     0.006 C 
BRANCH  20  21
ATOM     21  C   UNL     1      25.227  28.495  19.468  1.00  0.00     0.053 C 
BRANCH  21  22
ATOM     22  C   UNL     1      26.206  27.475  18.977  1.00  0.00     0.041 C 
ATOM     23  O   UNL     1      25.954  26.246  19.094  1.00  0.00    -0.550 OA
ATOM     24  O   UNL     1      27.413  27.881  18.420  1.00  0.00    -0.550 OA
ENDBRANCH  21  22
ENDBRANCH  20  21
ENDBRANCH  19  20
ENDBRANCH  18  19
ENDBRANCH  17  18
ENDBRANCH  16  17
ENDBRANCH  15  16
ENDBRANCH  14  15
ENDBRANCH  13  14
ENDBRANCH   1  13
TORSDOF 20
ENDMDL
MODEL 6
REMARK VINA RESULT:    -3.421      1.388      2.876
REMARK INTER + INTRA:         -10.855
REMARK INTER:                  -7.498
REMARK INTRA:                  -3.357
REMARK UNBOUND:                -3.435
REMARK SMILES CCCCCCCCCCCCCCCCCCCCCC(=O)[O-]
REMARK SMILES IDX 12 1 11 2 10 3 9 4 8 5 7 6 6 7 5 8 4 9 3 10 2 11 1 12 13 13
REMARK SMILES IDX 14 14 15 15 16 16 17 17 18 18 19 19 20 20 21 21 22 22 23 23
REMARK SMILES IDX 24 24
REMARK H PARENT
REMARK Flexibility Score: inf
ROOT
ATOM      1  C   UNL     1      24.829  24.847  17.541  1.00  0.00     0.000 C 
ENDROOT
BRANCH   1   2
ATOM      2  C   UNL     1      23.314  24.752  17.828  1.00  0.00     0.000 C 
BRANCH   2   3
ATOM      3  C   UNL     1      22.983  24.412  19.292  1.00  0.00     0.000 C 
BRANCH   3   4
ATOM      4  C   UNL     1      21.479  24.504  19.585  1.00  0.00    -0.000 C 
BRANCH   4   5
ATOM      5  C   UNL     1      20.899  25.832  19.080  1.00  0.00    -0.000 C 
BRANCH   5   6
ATOM      6  C   UNL     1      21.244  27.022  19.991  1.00  0.00    -0.000 C 
BRANCH   6   7
ATOM      7  C   UNL     1      21.817  28.241  19.235  1.00  0.00    -0.000 C 
BRANCH   7   8
ATOM      8  C   UNL     1      23.038  28.850  19.948  1.00  0.00    -0.000 C 
BRANCH   8   9
ATOM      9  C   UNL     1      23.766  27.843  20.856  1.00  0.00    -0.000 C 
BRANCH   9  10
ATOM     10  C   UNL     1      25.079  27.271  20.284  1.00  0.00    -0.000 C 
BRANCH  10  11
ATOM     11  C   UNL     1      25.899  28.254  19.430  1.00  0.00    -0.003 C 
ATOM     12  C   UNL     1      26.967  27.564  18.583  1.00  0.00     0.004 C 
ENDBRANCH  10  11
ENDBRANCH   9  10
ENDBRANCH   8   9
ENDBRANCH   7   8
ENDBRANCH   6   7
ENDBRANCH   5   6
ENDBRANCH   4   5
ENDBRANCH   3   4
ENDBRANCH   2   3
ENDBRANCH   1   2
BRANCH   1  13
ATOM     13  C   UNL     1      25.272  24.120  16.256  1.00  0.00     0.000 C 
BRANCH  13  14
ATOM     14  C   UNL     1      25.695  22.652  16.476  1.00  0.00     0.000 C 
BRANCH  14  15
ATOM     15  C   UNL     1      26.084  22.339  17.932  1.00  0.00     0.000 C 
BRANCH  15  16
ATOM     16  C   UNL     1      25.447  21.035  18.435  1.00  0.00     0.000 C 
BRANCH  16  17
ATOM     17  C   UNL     1      23.937  21.213  18.653  1.00  0.00     0.000 C 
BRANCH  17  18
ATOM     18  C   UNL     1      23.107  20.703  17.464  1.00  0.00     0.000 C 
BRANCH  18  19
ATOM     19  C   UNL     1      21.762  21.439  17.334  1.00  0.00     0.000 C 
BRANCH  19  20
ATOM     20  C   UNL     1      21.246  21.478  15.887  1.00  0.00     0.006 C 
BRANCH  20  21
ATOM     21  C   UNL     1      21.383  22.865  15.244  1.00  0.00     0.053 C 
BRANCH  21  22
ATOM     22  C   UNL     1      22.043  22.758  13.905  1.00  0.00     0.041 C 
ATOM     23  O   UNL     1      23.286  22.577  13.823  1.00  0.00    -0.550 OA
ATOM     24  O   UNL     1      21.288  22.890  12.745  1.00  0.00    -0.550 OA
ENDBRANCH  21  22
ENDBRANCH  20  21
ENDBRANCH  19  20
ENDBRANCH  18  19
ENDBRANCH  17  18
ENDBRANCH  16  17
ENDBRANCH  15  16
ENDBRANCH  14  15
ENDBRANCH  13  14
ENDBRANCH   1  13
TORSDOF 20
ENDMDL
MODEL 7
REMARK VINA RESULT:    -3.402      3.091      6.521
REMARK INTER + INTRA:         -10.814
REMARK INTER:                  -7.815
REMARK INTRA:                  -2.998
REMARK UNBOUND:                -3.435
REMARK SMILES CCCCCCCCCCCCCCCCCCCCCC(=O)[O-]
REMARK SMILES IDX 12 1 11 2 10 3 9 4 8 5 7 6 6 7 5 8 4 9 3 10 2 11 1 12 13 13
REMARK SMILES IDX 14 14 15 15 16 16 17 17 18 18 19 19 20 20 21 21 22 22 23 23
REMARK SMILES IDX 24 24
REMARK H PARENT
REMARK Flexibility Score: inf
ROOT
ATOM      1  C   UNL     1      25.757  22.864  17.623  1.00  0.00     0.000 C 
ENDROOT
BRANCH   1   2
ATOM      2  C   UNL     1      25.521  21.429  18.142  1.00  0.00     0.000 C 
BRANCH   2   3
ATOM      3  C   UNL     1      24.071  21.162  18.584  1.00  0.00     0.000 C 
BRANCH   3   4
ATOM      4  C   UNL     1      23.110  21.051  17.391  1.00  0.00    -0.000 C 
BRANCH   4   5
ATOM      5  C   UNL     1      21.709  21.554  17.763  1.00  0.00    -0.000 C 
BRANCH   5   6
ATOM      6  C   UNL     1      21.104  22.485  16.699  1.00  0.00    -0.000 C 
BRANCH   6   7
ATOM      7  C   UNL     1      21.243  21.954  15.255  1.00  0.00    -0.000 C 
BRANCH   7   8
ATOM      8  C   UNL     1      21.771  23.029  14.286  1.00  0.00    -0.000 C 
BRANCH   8   9
ATOM      9  C   UNL     1      23.117  22.649  13.646  1.00  0.00    -0.000 C 
BRANCH   9  10
ATOM     10  C   UNL     1      24.366  23.013  14.475  1.00  0.00    -0.000 C 
BRANCH  10  11
ATOM     11  C   UNL     1      25.664  23.160  13.665  1.00  0.00    -0.003 C 
ATOM     12  C   UNL     1      26.087  21.865  12.972  1.00  0.00     0.004 C 
ENDBRANCH  10  11
ENDBRANCH   9  10
ENDBRANCH   8   9
ENDBRANCH   7   8
ENDBRANCH   6   7
ENDBRANCH   5   6
ENDBRANCH   4   5
ENDBRANCH   3   4
ENDBRANCH   2   3
ENDBRANCH   1   2
BRANCH   1  13
ATOM     13  C   UNL     1      25.083  23.959  18.473  1.00  0.00     0.000 C 
BRANCH  13  14
ATOM     14  C   UNL     1      24.108  24.859  17.684  1.00  0.00     0.000 C 
BRANCH  14  15
ATOM     15  C   UNL     1      22.803  25.159  18.443  1.00  0.00     0.000 C 
BRANCH  15  16
ATOM     16  C   UNL     1      21.852  26.051  17.630  1.00  0.00     0.000 C 
BRANCH  16  17
ATOM     17  C   UNL     1      21.509  27.333  18.403  1.00  0.00     0.000 C 
BRANCH  17  18
ATOM     18  C   UNL     1      21.506  28.580  17.503  1.00  0.00     0.000 C 
BRANCH  18  19
ATOM     19  C   UNL     1      22.524  29.635  17.967  1.00  0.00     0.000 C 
BRANCH  19  20
ATOM     20  C   UNL     1      23.127  29.311  19.344  1.00  0.00     0.006 C 
BRANCH  20  21
ATOM     21  C   UNL     1      24.661  29.319  19.338  1.00  0.00     0.053 C 
BRANCH  21  22
ATOM     22  C   UNL     1      25.193  27.948  19.616  1.00  0.00     0.041 C 
ATOM     23  O   UNL     1      26.144  27.486  18.933  1.00  0.00    -0.550 OA
ATOM     24  O   UNL     1      24.614  27.166  20.609  1.00  0.00    -0.550 OA
ENDBRANCH  21  22
ENDBRANCH  20  21
ENDBRANCH  19  20
ENDBRANCH  18  19
ENDBRANCH  17  18
ENDBRANCH  16  17
ENDBRANCH  15  16
ENDBRANCH  14  15
ENDBRANCH  13  14
ENDBRANCH   1  13
TORSDOF 20
ENDMDL
MODEL 8
REMARK VINA RESULT:    -3.398      1.927      4.287
REMARK INTER + INTRA:         -10.805
REMARK INTER:                  -7.778
REMARK INTRA:                  -3.027
REMARK UNBOUND:                -3.435
REMARK SMILES CCCCCCCCCCCCCCCCCCCCCC(=O)[O-]
REMARK SMILES IDX 12 1 11 2 10 3 9 4 8 5 7 6 6 7 5 8 4 9 3 10 2 11 1 12 13 13
REMARK SMILES IDX 14 14 15 15 16 16 17 17 18 18 19 19 20 20 21 21 22 22 23 23
REMARK SMILES IDX 24 24
REMARK H PARENT
REMARK Flexibility Score: inf
ROOT
ATOM      1  C   UNL     1      25.068  24.090  18.037  1.00  0.00     0.000 C 
ENDROOT
BRANCH   1   2
ATOM      2  C   UNL     1      24.293  24.930  19.075  1.00  0.00     0.000 C 
BRANCH   2   3
ATOM      3  C   UNL     1      25.157  25.992  19.779  1.00  0.00     0.000 C 
BRANCH   3   4
ATOM      4  C   UNL     1      26.092  26.722  18.804  1.00  0.00    -0.000 C 
BRANCH   4   5
ATOM      5  C   UNL     1      26.173  28.218  19.133  1.00  0.00    -0.000 C 
BRANCH   5   6
ATOM      6  C   UNL     1      25.074  28.679  20.104  1.00  0.00    -0.000 C 
BRANCH   6   7
ATOM      7  C   UNL     1      24.243  29.873  19.585  1.00  0.00    -0.000 C 
BRANCH   7   8
ATOM      8  C   UNL     1      22.742  29.716  19.889  1.00  0.00    -0.000 C 
BRANCH   8   9
ATOM      9  C   UNL     1      22.400  28.363  20.538  1.00  0.00    -0.000 C 
BRANCH   9  10
ATOM     10  C   UNL     1      21.553  27.412  19.667  1.00  0.00    -0.000 C 
BRANCH  10  11
ATOM     11  C   UNL     1      21.792  27.532  18.152  1.00  0.00    -0.003 C 
ATOM     12  C   UNL     1      21.382  26.279  17.381  1.00  0.00     0.004 C 
ENDBRANCH  10  11
ENDBRANCH   9  10
ENDBRANCH   8   9
ENDBRANCH   7   8
ENDBRANCH   6   7
ENDBRANCH   5   6
ENDBRANCH   4   5
ENDBRANCH   3   4
ENDBRANCH   2   3
ENDBRANCH   1   2
BRANCH   1  13
ATOM     13  C   UNL     1      25.739  22.831  18.622  1.00  0.00     0.000 C 
BRANCH  13  14
ATOM     14  C   UNL     1      25.106  21.504  18.152  1.00  0.00     0.000 C 
BRANCH  14  15
ATOM     15  C   UNL     1      23.719  21.237  18.765  1.00  0.00     0.000 C 
BRANCH  15  16
ATOM     16  C   UNL     1      22.762  20.573  17.764  1.00  0.00     0.000 C 
BRANCH  16  17
ATOM     17  C   UNL     1      21.549  21.473  17.485  1.00  0.00     0.000 C 
BRANCH  17  18
ATOM     18  C   UNL     1      21.881  22.623  16.520  1.00  0.00     0.000 C 
BRANCH  18  19
ATOM     19  C   UNL     1      21.666  22.230  15.049  1.00  0.00     0.000 C 
BRANCH  19  20
ATOM     20  C   UNL     1      22.835  22.655  14.145  1.00  0.00     0.006 C 
BRANCH  20  21
ATOM     21  C   UNL     1      24.190  22.601  14.861  1.00  0.00     0.053 C 
BRANCH  21  22
ATOM     22  C   UNL     1      25.302  22.878  13.898  1.00  0.00     0.041 C 
ATOM     23  O   UNL     1      25.699  24.058  13.711  1.00  0.00    -0.550 OA
ATOM     24  O   UNL     1      25.877  21.835  13.182  1.00  0.00    -0.550 OA
ENDBRANCH  21  22
ENDBRANCH  20  21
ENDBRANCH  19  20
ENDBRANCH  18  19
ENDBRANCH  17  18
ENDBRANCH  16  17
ENDBRANCH  15  16
ENDBRANCH  14  15
ENDBRANCH  13  14
ENDBRANCH   1  13
TORSDOF 20
ENDMDL
