MODEL 1
REMARK VINA RESULT:     1.002      0.000      0.000
REMARK INTER + INTRA:           1.141
REMARK INTER:                   1.236
REMARK INTRA:                  -0.095
REMARK UNBOUND:                -0.095
REMARK SMILES Oc1cc(O)c2cc(O)c(-c3cc(O)c(O)c(O)c3)[o+]c2c1.[Cl-]
REMARK SMILES IDX 10 1 20 2 21 3 22 4 2 5 3 6 4 7 6 8 7 9 8 10 11 11 12 12
REMARK SMILES IDX 13 13 19 14 15 15 17 16 14 17 16 19 18 21 9 23 1 25 5 27
REMARK H PARENT 14 18 16 20 18 22 9 24 1 26 5 28
REMARK Flexibility Score: inf
ROOT
ATOM      1  C   UNL     1      13.673  39.092 -11.203  1.00  0.00     0.402 A 
ATOM      2  O   UNL     1      14.412  40.131 -11.582  1.00  0.00    -0.202 OA
ATOM      3  C   UNL     1      15.495  40.018 -12.346  1.00  0.00     0.368 A 
ATOM      4  C   UNL     1      16.204  41.170 -12.694  1.00  0.00     0.162 A 
ATOM      5  C   UNL     1      17.344  41.079 -13.499  1.00  0.00     0.128 A 
ATOM      6  C   UNL     1      17.775  39.833 -13.957  1.00  0.00     0.093 A 
ATOM      7  C   UNL     1      17.081  38.663 -13.622  1.00  0.00     0.136 A 
ATOM      8  C   UNL     1      15.924  38.749 -12.803  1.00  0.00     0.125 A 
ATOM      9  C   UNL     1      15.174  37.630 -12.406  1.00  0.00     0.078 A 
ATOM     10  C   UNL     1      14.048  37.792 -11.594  1.00  0.00     0.223 A 
ENDROOT
BRANCH   1  11
ATOM     11  C   UNL     1      12.484  39.348 -10.359  1.00  0.00     0.091 A 
ATOM     12  C   UNL     1      11.228  38.813 -10.684  1.00  0.00     0.068 A 
ATOM     13  C   UNL     1      10.111  39.087  -9.886  1.00  0.00     0.162 A 
ATOM     14  C   UNL     1      12.599  40.189  -9.243  1.00  0.00     0.068 A 
ATOM     15  C   UNL     1      10.231  39.909  -8.756  1.00  0.00     0.200 A 
ATOM     16  C   UNL     1      11.491  40.469  -8.434  1.00  0.00     0.162 A 
BRANCH  13  17
ATOM     17  O   UNL     1       8.867  38.547 -10.211  1.00  0.00    -0.504 OA
ATOM     18  H   UNL     1       8.168  39.085 -10.709  1.00  0.00     0.293 HD
ENDBRANCH  13  17
BRANCH  15  19
ATOM     19  O   UNL     1       9.088  40.143  -7.989  1.00  0.00    -0.502 OA
ATOM     20  H   UNL     1       8.262  40.610  -8.333  1.00  0.00     0.293 HD
ENDBRANCH  15  19
BRANCH  16  21
ATOM     21  O   UNL     1      11.685  41.305  -7.333  1.00  0.00    -0.504 OA
ATOM     22  H   UNL     1      12.591  41.591  -6.991  1.00  0.00     0.293 HD
ENDBRANCH  16  21
ENDBRANCH   1  11
BRANCH  10  23
ATOM     23  O   UNL     1      13.332  36.678 -11.159  1.00  0.00    -0.500 OA
ATOM     24  H   UNL     1      13.648  36.114 -10.377  1.00  0.00     0.294 HD
ENDBRANCH  10  23
BRANCH   5  25
ATOM     25  O   UNL     1      18.056  42.224 -13.850  1.00  0.00    -0.507 OA
ATOM     26  H   UNL     1      17.585  43.071 -14.143  1.00  0.00     0.293 HD
ENDBRANCH   5  25
BRANCH   7  27
ATOM     27  O   UNL     1      17.575  37.455 -14.124  1.00  0.00    -0.507 OA
ATOM     28  H   UNL     1      17.150  36.554 -13.962  1.00  0.00     0.293 HD
ENDBRANCH   7  27
TORSDOF 7
ENDMDL
MODEL 2
REMARK VINA RESULT:     1.041      1.086      6.944
REMARK INTER + INTRA:           1.190
REMARK INTER:                   1.201
REMARK INTRA:                  -0.011
REMARK UNBOUND:                -0.095
REMARK SMILES Oc1cc(O)c2cc(O)c(-c3cc(O)c(O)c(O)c3)[o+]c2c1.[Cl-]
REMARK SMILES IDX 10 1 20 2 21 3 22 4 2 5 3 6 4 7 6 8 7 9 8 10 11 11 12 12
REMARK SMILES IDX 13 13 19 14 15 15 17 16 14 17 16 19 18 21 9 23 1 25 5 27
REMARK H PARENT 14 18 16 20 18 22 9 24 1 26 5 28
REMARK Flexibility Score: inf
ROOT
ATOM      1  C   UNL     1      14.042  39.323 -11.693  1.00  0.00     0.402 A 
ATOM      2  O   UNL     1      13.833  39.925 -10.525  1.00  0.00    -0.202 OA
ATOM      3  C   UNL     1      12.691  39.833  -9.851  1.00  0.00     0.368 A 
ATOM      4  C   UNL     1      12.568  40.499  -8.628  1.00  0.00     0.162 A 
ATOM      5  C   UNL     1      11.379  40.417  -7.898  1.00  0.00     0.128 A 
ATOM      6  C   UNL     1      10.310  39.666  -8.390  1.00  0.00     0.093 A 
ATOM      7  C   UNL     1      10.408  38.989  -9.613  1.00  0.00     0.136 A 
ATOM      8  C   UNL     1      11.612  39.071 -10.360  1.00  0.00     0.125 A 
ATOM      9  C   UNL     1      11.796  38.438 -11.600  1.00  0.00     0.078 A 
ATOM     10  C   UNL     1      13.010  38.568 -12.281  1.00  0.00     0.223 A 
ENDROOT
BRANCH   1  11
ATOM     11  C   UNL     1      15.362  39.493 -12.342  1.00  0.00     0.091 A 
ATOM     12  C   UNL     1      16.032  38.409 -12.931  1.00  0.00     0.068 A 
ATOM     13  C   UNL     1      17.290  38.586 -13.519  1.00  0.00     0.162 A 
ATOM     14  C   UNL     1      15.985  40.749 -12.320  1.00  0.00     0.068 A 
ATOM     15  C   UNL     1      17.902  39.848 -13.518  1.00  0.00     0.200 A 
ATOM     16  C   UNL     1      17.241  40.941 -12.906  1.00  0.00     0.162 A 
BRANCH  13  17
ATOM     17  O   UNL     1      17.946  37.506 -14.109  1.00  0.00    -0.504 OA
ATOM     18  H   UNL     1      18.943  37.362 -13.991  1.00  0.00     0.293 HD
ENDBRANCH  13  17
BRANCH  15  19
ATOM     19  O   UNL     1      19.153  39.972 -14.125  1.00  0.00    -0.502 OA
ATOM     20  H   UNL     1      19.298  40.000 -15.124  1.00  0.00     0.293 HD
ENDBRANCH  15  19
BRANCH  16  21
ATOM     21  O   UNL     1      17.793  42.223 -12.855  1.00  0.00    -0.504 OA
ATOM     22  H   UNL     1      17.251  43.070 -12.777  1.00  0.00     0.293 HD
ENDBRANCH  16  21
ENDBRANCH   1  11
BRANCH  10  23
ATOM     23  O   UNL     1      13.176  37.980 -13.535  1.00  0.00    -0.500 OA
ATOM     24  H   UNL     1      13.417  37.000 -13.636  1.00  0.00     0.294 HD
ENDBRANCH  10  23
BRANCH   5  25
ATOM     25  O   UNL     1      11.249  41.078  -6.678  1.00  0.00    -0.507 OA
ATOM     26  H   UNL     1      10.340  41.316  -6.299  1.00  0.00     0.293 HD
ENDBRANCH   5  25
BRANCH   7  27
ATOM     27  O   UNL     1       9.294  38.257 -10.035  1.00  0.00    -0.507 OA
ATOM     28  H   UNL     1       9.053  37.338  -9.693  1.00  0.00     0.293 HD
ENDBRANCH   7  27
TORSDOF 7
ENDMDL
MODEL 3
REMARK VINA RESULT:     1.335      0.142      1.804
REMARK INTER + INTRA:           1.552
REMARK INTER:                   1.605
REMARK INTRA:                  -0.053
REMARK UNBOUND:                -0.095
REMARK SMILES Oc1cc(O)c2cc(O)c(-c3cc(O)c(O)c(O)c3)[o+]c2c1.[Cl-]
REMARK SMILES IDX 10 1 20 2 21 3 22 4 2 5 3 6 4 7 6 8 7 9 8 10 11 11 12 12
REMARK SMILES IDX 13 13 19 14 15 15 17 16 14 17 16 19 18 21 9 23 1 25 5 27
REMARK H PARENT 14 18 16 20 18 22 9 24 1 26 5 28
REMARK Flexibility Score: inf
ROOT
ATOM      1  C   UNL     1      13.785  39.179 -11.229  1.00  0.00     0.402 A 
ATOM      2  O   UNL     1      14.533  40.198 -11.643  1.00  0.00    -0.202 OA
ATOM      3  C   UNL     1      15.609  40.049 -12.410  1.00  0.00     0.368 A 
ATOM      4  C   UNL     1      16.330  41.182 -12.797  1.00  0.00     0.162 A 
ATOM      5  C   UNL     1      17.463  41.054 -13.605  1.00  0.00     0.128 A 
ATOM      6  C   UNL     1      17.877  39.790 -14.029  1.00  0.00     0.093 A 
ATOM      7  C   UNL     1      17.172  38.638 -13.655  1.00  0.00     0.136 A 
ATOM      8  C   UNL     1      16.021  38.762 -12.832  1.00  0.00     0.125 A 
ATOM      9  C   UNL     1      15.261  37.664 -12.397  1.00  0.00     0.078 A 
ATOM     10  C   UNL     1      14.142  37.864 -11.583  1.00  0.00     0.223 A 
ENDROOT
BRANCH   1  11
ATOM     11  C   UNL     1      12.604  39.474 -10.386  1.00  0.00     0.091 A 
ATOM     12  C   UNL     1      12.710  40.258  -9.226  1.00  0.00     0.068 A 
ATOM     13  C   UNL     1      11.585  40.505  -8.430  1.00  0.00     0.162 A 
ATOM     14  C   UNL     1      11.363  38.911 -10.717  1.00  0.00     0.068 A 
ATOM     15  C   UNL     1      10.339  39.962  -8.776  1.00  0.00     0.200 A 
ATOM     16  C   UNL     1      10.229  39.151  -9.931  1.00  0.00     0.162 A 
BRANCH  13  17
ATOM     17  O   UNL     1      11.697  41.291  -7.284  1.00  0.00    -0.504 OA
ATOM     18  H   UNL     1      11.916  40.885  -6.381  1.00  0.00     0.293 HD
ENDBRANCH  13  17
BRANCH  15  19
ATOM     19  O   UNL     1       9.248  40.245  -7.951  1.00  0.00    -0.502 OA
ATOM     20  H   UNL     1       8.593  40.995  -8.117  1.00  0.00     0.293 HD
ENDBRANCH  15  19
BRANCH  16  21
ATOM     21  O   UNL     1       9.026  38.568 -10.331  1.00  0.00    -0.504 OA
ATOM     22  H   UNL     1       8.273  39.071 -10.777  1.00  0.00     0.293 HD
ENDBRANCH  16  21
ENDBRANCH   1  11
BRANCH  10  23
ATOM     23  O   UNL     1      13.415  36.772 -11.111  1.00  0.00    -0.500 OA
ATOM     24  H   UNL     1      13.791  35.830 -11.140  1.00  0.00     0.294 HD
ENDBRANCH  10  23
BRANCH   5  25
ATOM     25  O   UNL     1      18.187  42.179 -13.995  1.00  0.00    -0.507 OA
ATOM     26  H   UNL     1      17.774  43.104 -13.984  1.00  0.00     0.293 HD
ENDBRANCH   5  25
BRANCH   7  27
ATOM     27  O   UNL     1      17.648  37.411 -14.123  1.00  0.00    -0.507 OA
ATOM     28  H   UNL     1      17.217  36.519 -13.927  1.00  0.00     0.293 HD
ENDBRANCH   7  27
TORSDOF 7
ENDMDL
MODEL 4
REMARK VINA RESULT:     3.423      1.083      2.613
REMARK INTER + INTRA:           4.129
REMARK INTER:                   4.061
REMARK INTRA:                   0.068
REMARK UNBOUND:                -0.095
REMARK SMILES Oc1cc(O)c2cc(O)c(-c3cc(O)c(O)c(O)c3)[o+]c2c1.[Cl-]
REMARK SMILES IDX 10 1 20 2 21 3 22 4 2 5 3 6 4 7 6 8 7 9 8 10 11 11 12 12
REMARK SMILES IDX 13 13 19 14 15 15 17 16 14 17 16 19 18 21 9 23 1 25 5 27
REMARK H PARENT 14 18 16 20 18 22 9 24 1 26 5 28
REMARK Flexibility Score: inf
ROOT
ATOM      1  C   UNL     1      13.848  39.651 -11.012  1.00  0.00     0.402 A 
ATOM      2  O   UNL     1      14.198  38.477 -11.532  1.00  0.00    -0.202 OA
ATOM      3  C   UNL     1      15.265  38.312 -12.308  1.00  0.00     0.368 A 
ATOM      4  C   UNL     1      15.554  37.038 -12.804  1.00  0.00     0.162 A 
ATOM      5  C   UNL     1      16.670  36.836 -13.620  1.00  0.00     0.128 A 
ATOM      6  C   UNL     1      17.502  37.911 -13.940  1.00  0.00     0.093 A 
ATOM      7  C   UNL     1      17.235  39.198 -13.456  1.00  0.00     0.136 A 
ATOM      8  C   UNL     1      16.100  39.409 -12.629  1.00  0.00     0.125 A 
ATOM      9  C   UNL     1      15.747  40.665 -12.109  1.00  0.00     0.078 A 
ATOM     10  C   UNL     1      14.611  40.797 -11.305  1.00  0.00     0.223 A 
ENDROOT
BRANCH   1  11
ATOM     11  C   UNL     1      12.642  39.706 -10.154  1.00  0.00     0.091 A 
ATOM     12  C   UNL     1      11.460  39.039 -10.511  1.00  0.00     0.068 A 
ATOM     13  C   UNL     1      10.324  39.124  -9.697  1.00  0.00     0.162 A 
ATOM     14  C   UNL     1      12.660  40.487  -8.989  1.00  0.00     0.068 A 
ATOM     15  C   UNL     1      10.350  39.885  -8.519  1.00  0.00     0.200 A 
ATOM     16  C   UNL     1      11.533  40.578  -8.165  1.00  0.00     0.162 A 
BRANCH  13  17
ATOM     17  O   UNL     1       9.154  38.453 -10.053  1.00  0.00    -0.504 OA
ATOM     18  H   UNL     1       9.120  37.836 -10.857  1.00  0.00     0.293 HD
ENDBRANCH  13  17
BRANCH  15  19
ATOM     19  O   UNL     1       9.193  39.930  -7.739  1.00  0.00    -0.502 OA
ATOM     20  H   UNL     1       9.191  39.963  -6.730  1.00  0.00     0.293 HD
ENDBRANCH  15  19
BRANCH  16  21
ATOM     21  O   UNL     1      11.630  41.365  -7.015  1.00  0.00    -0.504 OA
ATOM     22  H   UNL     1      10.941  42.047  -6.736  1.00  0.00     0.293 HD
ENDBRANCH  16  21
ENDBRANCH   1  11
BRANCH  10  23
ATOM     23  O   UNL     1      14.232  42.052 -10.828  1.00  0.00    -0.500 OA
ATOM     24  H   UNL     1      14.901  42.685 -10.405  1.00  0.00     0.294 HD
ENDBRANCH  10  23
BRANCH   5  25
ATOM     25  O   UNL     1      16.965  35.568 -14.119  1.00  0.00    -0.507 OA
ATOM     26  H   UNL     1      16.549  34.734 -13.721  1.00  0.00     0.293 HD
ENDBRANCH   5  25
BRANCH   7  27
ATOM     27  O   UNL     1      18.117  40.219 -13.819  1.00  0.00    -0.507 OA
ATOM     28  H   UNL     1      18.783  40.156 -14.576  1.00  0.00     0.293 HD
ENDBRANCH   7  27
TORSDOF 7
ENDMDL
