MODEL 1
REMARK VINA RESULT:    -5.250      0.000      0.000
REMARK INTER + INTRA:         -14.499
REMARK INTER:                 -12.003
REMARK INTRA:                  -2.496
REMARK UNBOUND:                -2.496
REMARK SMILES CCCCCCCCCCCCCCCCCCCCCCCC(=O)[O-]
REMARK SMILES IDX 13 1 14 2 15 3 16 4 17 5 18 6 19 7 20 8 21 9 22 10 23 11
REMARK SMILES IDX 24 12 25 13 26 14 12 15 11 16 10 17 9 18 8 19 7 20 6 21 5 22
REMARK SMILES IDX 4 23 3 24 2 25 1 26
REMARK H PARENT
REMARK Flexibility Score: inf
ROOT
ATOM      1  C   UNL     1       1.547  17.995 -11.107  1.00  0.00     0.000 C 
ENDROOT
BRANCH   1   2
ATOM      2  C   UNL     1       2.411  17.358 -10.003  1.00  0.00     0.000 C 
BRANCH   2   3
ATOM      3  C   UNL     1       1.853  17.496  -8.571  1.00  0.00     0.000 C 
BRANCH   3   4
ATOM      4  C   UNL     1       0.450  18.124  -8.469  1.00  0.00     0.000 C 
BRANCH   4   5
ATOM      5  C   UNL     1      -0.300  17.709  -7.197  1.00  0.00     0.000 C 
BRANCH   5   6
ATOM      6  C   UNL     1       0.449  18.180  -5.943  1.00  0.00     0.000 C 
BRANCH   6   7
ATOM      7  C   UNL     1      -0.057  19.534  -5.417  1.00  0.00     0.000 C 
BRANCH   7   8
ATOM      8  C   UNL     1       0.902  20.706  -5.714  1.00  0.00     0.000 C 
BRANCH   8   9
ATOM      9  C   UNL     1       2.358  20.237  -5.861  1.00  0.00     0.000 C 
BRANCH   9  10
ATOM     10  C   UNL     1       2.943  20.666  -7.213  1.00  0.00     0.006 C 
BRANCH  10  11
ATOM     11  C   UNL     1       1.917  21.457  -8.029  1.00  0.00     0.053 C 
BRANCH  11  12
ATOM     12  C   UNL     1       2.194  21.326  -9.494  1.00  0.00     0.041 C 
ATOM     13  O   UNL     1       3.336  20.978  -9.893  1.00  0.00    -0.550 OA
ATOM     14  O   UNL     1       1.199  21.614 -10.420  1.00  0.00    -0.550 OA
ENDBRANCH  11  12
ENDBRANCH  10  11
ENDBRANCH   9  10
ENDBRANCH   8   9
ENDBRANCH   7   8
ENDBRANCH   6   7
ENDBRANCH   5   6
ENDBRANCH   4   5
ENDBRANCH   3   4
ENDBRANCH   2   3
ENDBRANCH   1   2
BRANCH   1  15
ATOM     15  C   UNL     1       2.372  18.483 -12.307  1.00  0.00     0.000 C 
BRANCH  15  16
ATOM     16  C   UNL     1       1.588  19.520 -13.122  1.00  0.00     0.000 C 
BRANCH  16  17
ATOM     17  C   UNL     1       2.487  20.696 -13.531  1.00  0.00     0.000 C 
BRANCH  17  18
ATOM     18  C   UNL     1       2.492  20.946 -15.050  1.00  0.00    -0.000 C 
BRANCH  18  19
ATOM     19  C   UNL     1       3.359  22.132 -15.512  1.00  0.00    -0.000 C 
BRANCH  19  20
ATOM     20  C   UNL     1       3.200  22.438 -17.012  1.00  0.00    -0.000 C 
BRANCH  20  21
ATOM     21  C   UNL     1       1.785  22.916 -17.376  1.00  0.00    -0.000 C 
BRANCH  21  22
ATOM     22  C   UNL     1       1.002  21.986 -18.325  1.00  0.00    -0.000 C 
BRANCH  22  23
ATOM     23  C   UNL     1       1.815  21.513 -19.548  1.00  0.00    -0.000 C 
BRANCH  23  24
ATOM     24  C   UNL     1       1.573  20.027 -19.869  1.00  0.00    -0.000 C 
BRANCH  24  25
ATOM     25  C   UNL     1       2.745  19.393 -20.632  1.00  0.00    -0.003 C 
ATOM     26  C   UNL     1       3.617  20.430 -21.340  1.00  0.00     0.004 C 
ENDBRANCH  24  25
ENDBRANCH  23  24
ENDBRANCH  22  23
ENDBRANCH  21  22
ENDBRANCH  20  21
ENDBRANCH  19  20
ENDBRANCH  18  19
ENDBRANCH  17  18
ENDBRANCH  16  17
ENDBRANCH  15  16
ENDBRANCH   1  15
TORSDOF 22
ENDMDL
MODEL 2
REMARK VINA RESULT:    -5.184      3.259     10.511
REMARK INTER + INTRA:         -14.347
REMARK INTER:                 -12.136
REMARK INTRA:                  -2.210
REMARK UNBOUND:                -2.496
REMARK SMILES CCCCCCCCCCCCCCCCCCCCCCCC(=O)[O-]
REMARK SMILES IDX 13 1 14 2 15 3 16 4 17 5 18 6 19 7 20 8 21 9 22 10 23 11
REMARK SMILES IDX 24 12 25 13 26 14 12 15 11 16 10 17 9 18 8 19 7 20 6 21 5 22
REMARK SMILES IDX 4 23 3 24 2 25 1 26
REMARK H PARENT
REMARK Flexibility Score: inf
ROOT
ATOM      1  C   UNL     1       0.280  19.374 -11.997  1.00  0.00     0.000 C 
ENDROOT
BRANCH   1   2
ATOM      2  C   UNL     1       1.625  19.321 -12.745  1.00  0.00     0.000 C 
BRANCH   2   3
ATOM      3  C   UNL     1       2.158  20.684 -13.236  1.00  0.00     0.000 C 
BRANCH   3   4
ATOM      4  C   UNL     1       2.529  20.744 -14.730  1.00  0.00     0.000 C 
BRANCH   4   5
ATOM      5  C   UNL     1       2.924  22.153 -15.192  1.00  0.00     0.000 C 
BRANCH   5   6
ATOM      6  C   UNL     1       3.500  22.120 -16.614  1.00  0.00     0.000 C 
BRANCH   6   7
ATOM      7  C   UNL     1       2.939  23.234 -17.514  1.00  0.00     0.000 C 
BRANCH   7   8
ATOM      8  C   UNL     1       2.104  22.704 -18.698  1.00  0.00     0.000 C 
BRANCH   8   9
ATOM      9  C   UNL     1       1.791  21.206 -18.561  1.00  0.00     0.000 C 
BRANCH   9  10
ATOM     10  C   UNL     1       1.298  20.620 -19.889  1.00  0.00     0.006 C 
BRANCH  10  11
ATOM     11  C   UNL     1       2.154  19.422 -20.311  1.00  0.00     0.053 C 
BRANCH  11  12
ATOM     12  C   UNL     1       3.443  19.881 -20.916  1.00  0.00     0.041 C 
ATOM     13  O   UNL     1       4.465  19.149 -20.859  1.00  0.00    -0.550 OA
ATOM     14  O   UNL     1       3.523  21.130 -21.520  1.00  0.00    -0.550 OA
ENDBRANCH  11  12
ENDBRANCH  10  11
ENDBRANCH   9  10
ENDBRANCH   8   9
ENDBRANCH   7   8
ENDBRANCH   6   7
ENDBRANCH   5   6
ENDBRANCH   4   5
ENDBRANCH   3   4
ENDBRANCH   2   3
ENDBRANCH   1   2
BRANCH   1  15
ATOM     15  C   UNL     1      -0.261  17.983 -11.636  1.00  0.00     0.000 C 
BRANCH  15  16
ATOM     16  C   UNL     1       0.497  17.397 -10.438  1.00  0.00     0.000 C 
BRANCH  16  17
ATOM     17  C   UNL     1      -0.279  17.615  -9.132  1.00  0.00     0.000 C 
BRANCH  17  18
ATOM     18  C   UNL     1       0.585  17.395  -7.877  1.00  0.00    -0.000 C 
BRANCH  18  19
ATOM     19  C   UNL     1      -0.137  17.635  -6.538  1.00  0.00    -0.000 C 
BRANCH  19  20
ATOM     20  C   UNL     1       0.808  18.137  -5.432  1.00  0.00    -0.000 C 
BRANCH  20  21
ATOM     21  C   UNL     1       0.560  19.608  -5.058  1.00  0.00    -0.000 C 
BRANCH  21  22
ATOM     22  C   UNL     1       1.756  20.554  -5.289  1.00  0.00    -0.000 C 
BRANCH  22  23
ATOM     23  C   UNL     1       2.182  20.674  -6.768  1.00  0.00    -0.000 C 
BRANCH  23  24
ATOM     24  C   UNL     1       1.016  21.098  -7.678  1.00  0.00    -0.000 C 
BRANCH  24  25
ATOM     25  C   UNL     1       1.471  21.408  -9.112  1.00  0.00    -0.003 C 
ATOM     26  C   UNL     1       2.908  20.961  -9.381  1.00  0.00     0.004 C 
ENDBRANCH  24  25
ENDBRANCH  23  24
ENDBRANCH  22  23
ENDBRANCH  21  22
ENDBRANCH  20  21
ENDBRANCH  19  20
ENDBRANCH  18  19
ENDBRANCH  17  18
ENDBRANCH  16  17
ENDBRANCH  15  16
ENDBRANCH   1  15
TORSDOF 22
ENDMDL
MODEL 3
REMARK VINA RESULT:    -5.033      3.293     10.729
REMARK INTER + INTRA:         -14.001
REMARK INTER:                 -11.933
REMARK INTRA:                  -2.067
REMARK UNBOUND:                -2.496
REMARK SMILES CCCCCCCCCCCCCCCCCCCCCCCC(=O)[O-]
REMARK SMILES IDX 13 1 14 2 15 3 16 4 17 5 18 6 19 7 20 8 21 9 22 10 23 11
REMARK SMILES IDX 24 12 25 13 26 14 12 15 11 16 10 17 9 18 8 19 7 20 6 21 5 22
REMARK SMILES IDX 4 23 3 24 2 25 1 26
REMARK H PARENT
REMARK Flexibility Score: inf
ROOT
ATOM      1  C   UNL     1       0.935  19.633 -11.722  1.00  0.00     0.000 C 
ENDROOT
BRANCH   1   2
ATOM      2  C   UNL     1       2.011  19.462 -12.809  1.00  0.00     0.000 C 
BRANCH   2   3
ATOM      3  C   UNL     1       2.428  20.760 -13.532  1.00  0.00     0.000 C 
BRANCH   3   4
ATOM      4  C   UNL     1       2.499  20.664 -15.067  1.00  0.00     0.000 C 
BRANCH   4   5
ATOM      5  C   UNL     1       3.223  21.856 -15.709  1.00  0.00     0.000 C 
BRANCH   5   6
ATOM      6  C   UNL     1       2.249  22.703 -16.538  1.00  0.00     0.000 C 
BRANCH   6   7
ATOM      7  C   UNL     1       2.874  23.233 -17.839  1.00  0.00     0.000 C 
BRANCH   7   8
ATOM      8  C   UNL     1       1.973  23.039 -19.077  1.00  0.00     0.000 C 
BRANCH   8   9
ATOM      9  C   UNL     1       0.913  21.949 -18.854  1.00  0.00     0.000 C 
BRANCH   9  10
ATOM     10  C   UNL     1       1.311  20.640 -19.547  1.00  0.00     0.006 C 
BRANCH  10  11
ATOM     11  C   UNL     1       2.643  20.794 -20.287  1.00  0.00     0.053 C 
BRANCH  11  12
ATOM     12  C   UNL     1       3.110  19.473 -20.812  1.00  0.00     0.041 C 
ATOM     13  O   UNL     1       4.326  19.295 -21.084  1.00  0.00    -0.550 OA
ATOM     14  O   UNL     1       2.198  18.447 -21.028  1.00  0.00    -0.550 OA
ENDBRANCH  11  12
ENDBRANCH  10  11
ENDBRANCH   9  10
ENDBRANCH   8   9
ENDBRANCH   7   8
ENDBRANCH   6   7
ENDBRANCH   5   6
ENDBRANCH   4   5
ENDBRANCH   3   4
ENDBRANCH   2   3
ENDBRANCH   1   2
BRANCH   1  15
ATOM     15  C   UNL     1       1.370  19.082 -10.356  1.00  0.00     0.000 C 
BRANCH  15  16
ATOM     16  C   UNL     1       2.754  19.617  -9.968  1.00  0.00     0.000 C 
BRANCH  16  17
ATOM     17  C   UNL     1       2.725  21.140  -9.772  1.00  0.00     0.000 C 
BRANCH  17  18
ATOM     18  C   UNL     1       2.413  21.552  -8.322  1.00  0.00    -0.000 C 
BRANCH  18  19
ATOM     19  C   UNL     1       0.914  21.660  -7.984  1.00  0.00    -0.000 C 
BRANCH  19  20
ATOM     20  C   UNL     1       0.465  20.634  -6.930  1.00  0.00    -0.000 C 
BRANCH  20  21
ATOM     21  C   UNL     1       1.068  20.904  -5.541  1.00  0.00    -0.000 C 
BRANCH  21  22
ATOM     22  C   UNL     1       1.961  19.777  -4.983  1.00  0.00    -0.000 C 
BRANCH  22  23
ATOM     23  C   UNL     1       2.379  18.730  -6.038  1.00  0.00    -0.000 C 
BRANCH  23  24
ATOM     24  C   UNL     1       2.050  17.294  -5.595  1.00  0.00    -0.000 C 
BRANCH  24  25
ATOM     25  C   UNL     1       0.621  16.875  -5.974  1.00  0.00    -0.003 C 
ATOM     26  C   UNL     1       0.313  17.107  -7.453  1.00  0.00     0.004 C 
ENDBRANCH  24  25
ENDBRANCH  23  24
ENDBRANCH  22  23
ENDBRANCH  21  22
ENDBRANCH  20  21
ENDBRANCH  19  20
ENDBRANCH  18  19
ENDBRANCH  17  18
ENDBRANCH  16  17
ENDBRANCH  15  16
ENDBRANCH   1  15
TORSDOF 22
ENDMDL
MODEL 4
REMARK VINA RESULT:    -4.969      1.719      2.843
REMARK INTER + INTRA:         -13.855
REMARK INTER:                 -11.658
REMARK INTRA:                  -2.197
REMARK UNBOUND:                -2.496
REMARK SMILES CCCCCCCCCCCCCCCCCCCCCCCC(=O)[O-]
REMARK SMILES IDX 13 1 14 2 15 3 16 4 17 5 18 6 19 7 20 8 21 9 22 10 23 11
REMARK SMILES IDX 24 12 25 13 26 14 12 15 11 16 10 17 9 18 8 19 7 20 6 21 5 22
REMARK SMILES IDX 4 23 3 24 2 25 1 26
REMARK H PARENT
REMARK Flexibility Score: inf
ROOT
ATOM      1  C   UNL     1       2.877  18.379 -10.998  1.00  0.00     0.000 C 
ENDROOT
BRANCH   1   2
ATOM      2  C   UNL     1       1.537  18.055 -10.313  1.00  0.00     0.000 C 
BRANCH   2   3
ATOM      3  C   UNL     1       0.872  19.238  -9.578  1.00  0.00     0.000 C 
BRANCH   3   4
ATOM      4  C   UNL     1       1.491  20.620  -9.863  1.00  0.00     0.000 C 
BRANCH   4   5
ATOM      5  C   UNL     1       1.569  21.509  -8.615  1.00  0.00     0.000 C 
BRANCH   5   6
ATOM      6  C   UNL     1       2.649  21.002  -7.650  1.00  0.00     0.000 C 
BRANCH   6   7
ATOM      7  C   UNL     1       2.132  20.818  -6.214  1.00  0.00     0.000 C 
BRANCH   7   8
ATOM      8  C   UNL     1       0.612  20.560  -6.137  1.00  0.00     0.000 C 
BRANCH   8   9
ATOM      9  C   UNL     1       0.281  19.297  -5.327  1.00  0.00     0.000 C 
BRANCH   9  10
ATOM     10  C   UNL     1       0.124  18.078  -6.244  1.00  0.00     0.006 C 
BRANCH  10  11
ATOM     11  C   UNL     1       0.964  16.901  -5.739  1.00  0.00     0.053 C 
BRANCH  11  12
ATOM     12  C   UNL     1       2.417  17.136  -6.008  1.00  0.00     0.041 C 
ATOM     13  O   UNL     1       3.258  17.033  -5.076  1.00  0.00    -0.550 OA
ATOM     14  O   UNL     1       2.841  17.496  -7.281  1.00  0.00    -0.550 OA
ENDBRANCH  11  12
ENDBRANCH  10  11
ENDBRANCH   9  10
ENDBRANCH   8   9
ENDBRANCH   7   8
ENDBRANCH   6   7
ENDBRANCH   5   6
ENDBRANCH   4   5
ENDBRANCH   3   4
ENDBRANCH   2   3
ENDBRANCH   1   2
BRANCH   1  15
ATOM     15  C   UNL     1       2.828  18.208 -12.524  1.00  0.00     0.000 C 
BRANCH  15  16
ATOM     16  C   UNL     1       1.790  19.151 -13.145  1.00  0.00     0.000 C 
BRANCH  16  17
ATOM     17  C   UNL     1       2.410  20.516 -13.476  1.00  0.00     0.000 C 
BRANCH  17  18
ATOM     18  C   UNL     1       2.467  20.797 -14.989  1.00  0.00    -0.000 C 
BRANCH  18  19
ATOM     19  C   UNL     1       3.237  22.071 -15.385  1.00  0.00    -0.000 C 
BRANCH  19  20
ATOM     20  C   UNL     1       2.783  22.643 -16.740  1.00  0.00    -0.000 C 
BRANCH  20  21
ATOM     21  C   UNL     1       1.602  21.869 -17.348  1.00  0.00    -0.000 C 
BRANCH  21  22
ATOM     22  C   UNL     1       1.308  22.179 -18.830  1.00  0.00    -0.000 C 
BRANCH  22  23
ATOM     23  C   UNL     1       2.206  21.408 -19.820  1.00  0.00    -0.000 C 
BRANCH  23  24
ATOM     24  C   UNL     1       1.592  20.059 -20.235  1.00  0.00    -0.000 C 
BRANCH  24  25
ATOM     25  C   UNL     1       2.657  19.024 -20.627  1.00  0.00    -0.003 C 
ATOM     26  C   UNL     1       3.821  19.643 -21.403  1.00  0.00     0.004 C 
ENDBRANCH  24  25
ENDBRANCH  23  24
ENDBRANCH  22  23
ENDBRANCH  21  22
ENDBRANCH  20  21
ENDBRANCH  19  20
ENDBRANCH  18  19
ENDBRANCH  17  18
ENDBRANCH  16  17
ENDBRANCH  15  16
ENDBRANCH   1  15
TORSDOF 22
ENDMDL
MODEL 5
REMARK VINA RESULT:    -4.967      9.608     13.053
REMARK INTER + INTRA:         -13.850
REMARK INTER:                 -10.286
REMARK INTRA:                  -3.564
REMARK UNBOUND:                -2.496
REMARK SMILES CCCCCCCCCCCCCCCCCCCCCCCC(=O)[O-]
REMARK SMILES IDX 13 1 14 2 15 3 16 4 17 5 18 6 19 7 20 8 21 9 22 10 23 11
REMARK SMILES IDX 24 12 25 13 26 14 12 15 11 16 10 17 9 18 8 19 7 20 6 21 5 22
REMARK SMILES IDX 4 23 3 24 2 25 1 26
REMARK H PARENT
REMARK Flexibility Score: inf
ROOT
ATOM      1  C   UNL     1       6.988  28.806 -14.407  1.00  0.00     0.000 C 
ENDROOT
BRANCH   1   2
ATOM      2  C   UNL     1       7.592  29.410 -13.126  1.00  0.00     0.000 C 
BRANCH   2   3
ATOM      3  C   UNL     1       9.132  29.355 -13.037  1.00  0.00     0.000 C 
BRANCH   3   4
ATOM      4  C   UNL     1       9.879  29.716 -14.335  1.00  0.00     0.000 C 
BRANCH   4   5
ATOM      5  C   UNL     1      10.975  28.705 -14.696  1.00  0.00     0.000 C 
BRANCH   5   6
ATOM      6  C   UNL     1      10.362  27.393 -15.205  1.00  0.00     0.000 C 
BRANCH   6   7
ATOM      7  C   UNL     1      10.934  26.151 -14.501  1.00  0.00     0.000 C 
BRANCH   7   8
ATOM      8  C   UNL     1       9.849  25.198 -13.958  1.00  0.00     0.000 C 
BRANCH   8   9
ATOM      9  C   UNL     1       8.928  25.891 -12.942  1.00  0.00     0.000 C 
BRANCH   9  10
ATOM     10  C   UNL     1       8.062  24.870 -12.194  1.00  0.00     0.006 C 
BRANCH  10  11
ATOM     11  C   UNL     1       8.729  24.440 -10.884  1.00  0.00     0.053 C 
BRANCH  11  12
ATOM     12  C   UNL     1       8.260  23.079 -10.475  1.00  0.00     0.041 C 
ATOM     13  O   UNL     1       8.357  22.111 -11.273  1.00  0.00    -0.550 OA
ATOM     14  O   UNL     1       7.690  22.886  -9.223  1.00  0.00    -0.550 OA
ENDBRANCH  11  12
ENDBRANCH  10  11
ENDBRANCH   9  10
ENDBRANCH   8   9
ENDBRANCH   7   8
ENDBRANCH   6   7
ENDBRANCH   5   6
ENDBRANCH   4   5
ENDBRANCH   3   4
ENDBRANCH   2   3
ENDBRANCH   1   2
BRANCH   1  15
ATOM     15  C   UNL     1       6.431  29.868 -15.366  1.00  0.00     0.000 C 
BRANCH  15  16
ATOM     16  C   UNL     1       5.347  30.708 -14.679  1.00  0.00     0.000 C 
BRANCH  16  17
ATOM     17  C   UNL     1       5.265  32.114 -15.291  1.00  0.00     0.000 C 
BRANCH  17  18
ATOM     18  C   UNL     1       6.393  32.394 -16.301  1.00  0.00    -0.000 C 
BRANCH  18  19
ATOM     19  C   UNL     1       7.436  33.430 -15.841  1.00  0.00    -0.000 C 
BRANCH  19  20
ATOM     20  C   UNL     1       7.263  33.836 -14.367  1.00  0.00    -0.000 C 
BRANCH  20  21
ATOM     21  C   UNL     1       8.250  33.119 -13.432  1.00  0.00    -0.000 C 
BRANCH  21  22
ATOM     22  C   UNL     1       7.668  32.688 -12.070  1.00  0.00    -0.000 C 
BRANCH  22  23
ATOM     23  C   UNL     1       6.416  33.484 -11.645  1.00  0.00    -0.000 C 
BRANCH  23  24
ATOM     24  C   UNL     1       5.170  32.589 -11.520  1.00  0.00    -0.000 C 
BRANCH  24  25
ATOM     25  C   UNL     1       3.869  33.348 -11.815  1.00  0.00    -0.003 C 
ATOM     26  C   UNL     1       4.087  34.560 -12.722  1.00  0.00     0.004 C 
ENDBRANCH  24  25
ENDBRANCH  23  24
ENDBRANCH  22  23
ENDBRANCH  21  22
ENDBRANCH  20  21
ENDBRANCH  19  20
ENDBRANCH  18  19
ENDBRANCH  17  18
ENDBRANCH  16  17
ENDBRANCH  15  16
ENDBRANCH   1  15
TORSDOF 22
ENDMDL
MODEL 6
REMARK VINA RESULT:    -4.964      9.666     13.143
REMARK INTER + INTRA:         -13.844
REMARK INTER:                 -10.074
REMARK INTRA:                  -3.770
REMARK UNBOUND:                -2.496
REMARK SMILES CCCCCCCCCCCCCCCCCCCCCCCC(=O)[O-]
REMARK SMILES IDX 13 1 14 2 15 3 16 4 17 5 18 6 19 7 20 8 21 9 22 10 23 11
REMARK SMILES IDX 24 12 25 13 26 14 12 15 11 16 10 17 9 18 8 19 7 20 6 21 5 22
REMARK SMILES IDX 4 23 3 24 2 25 1 26
REMARK H PARENT
REMARK Flexibility Score: inf
ROOT
ATOM      1  C   UNL     1       6.304  28.984 -15.370  1.00  0.00     0.000 C 
ENDROOT
BRANCH   1   2
ATOM      2  C   UNL     1       7.055  28.337 -14.192  1.00  0.00     0.000 C 
BRANCH   2   3
ATOM      3  C   UNL     1       7.455  29.303 -13.057  1.00  0.00     0.000 C 
BRANCH   3   4
ATOM      4  C   UNL     1       8.970  29.457 -12.829  1.00  0.00     0.000 C 
BRANCH   4   5
ATOM      5  C   UNL     1       9.752  29.681 -14.131  1.00  0.00     0.000 C 
BRANCH   5   6
ATOM      6  C   UNL     1      10.920  28.693 -14.243  1.00  0.00     0.000 C 
BRANCH   6   7
ATOM      7  C   UNL     1      10.757  27.701 -15.406  1.00  0.00     0.000 C 
BRANCH   7   8
ATOM      8  C   UNL     1      10.750  26.224 -14.958  1.00  0.00     0.000 C 
BRANCH   8   9
ATOM      9  C   UNL     1      10.317  26.067 -13.492  1.00  0.00     0.000 C 
BRANCH   9  10
ATOM     10  C   UNL     1       9.375  24.869 -13.319  1.00  0.00     0.006 C 
BRANCH  10  11
ATOM     11  C   UNL     1       8.204  25.221 -12.397  1.00  0.00     0.053 C 
BRANCH  11  12
ATOM     12  C   UNL     1       7.720  24.004 -11.673  1.00  0.00     0.041 C 
ATOM     13  O   UNL     1       8.503  23.044 -11.454  1.00  0.00    -0.550 OA
ATOM     14  O   UNL     1       6.394  23.918 -11.263  1.00  0.00    -0.550 OA
ENDBRANCH  11  12
ENDBRANCH  10  11
ENDBRANCH   9  10
ENDBRANCH   8   9
ENDBRANCH   7   8
ENDBRANCH   6   7
ENDBRANCH   5   6
ENDBRANCH   4   5
ENDBRANCH   3   4
ENDBRANCH   2   3
ENDBRANCH   1   2
BRANCH   1  15
ATOM     15  C   UNL     1       5.864  30.427 -15.081  1.00  0.00     0.000 C 
BRANCH  15  16
ATOM     16  C   UNL     1       6.064  31.316 -16.314  1.00  0.00     0.000 C 
BRANCH  16  17
ATOM     17  C   UNL     1       6.636  32.686 -15.922  1.00  0.00     0.000 C 
BRANCH  17  18
ATOM     18  C   UNL     1       7.768  32.588 -14.884  1.00  0.00    -0.000 C 
BRANCH  18  19
ATOM     19  C   UNL     1       7.650  33.563 -13.697  1.00  0.00    -0.000 C 
BRANCH  19  20
ATOM     20  C   UNL     1       7.826  32.868 -12.335  1.00  0.00    -0.000 C 
BRANCH  20  21
ATOM     21  C   UNL     1       6.514  32.784 -11.537  1.00  0.00    -0.000 C 
BRANCH  21  22
ATOM     22  C   UNL     1       5.233  32.683 -12.388  1.00  0.00    -0.000 C 
BRANCH  22  23
ATOM     23  C   UNL     1       3.992  33.323 -11.730  1.00  0.00    -0.000 C 
BRANCH  23  24
ATOM     24  C   UNL     1       3.267  34.295 -12.677  1.00  0.00    -0.000 C 
BRANCH  24  25
ATOM     25  C   UNL     1       4.066  34.572 -13.960  1.00  0.00    -0.003 C 
ATOM     26  C   UNL     1       3.451  33.907 -15.191  1.00  0.00     0.004 C 
ENDBRANCH  24  25
ENDBRANCH  23  24
ENDBRANCH  22  23
ENDBRANCH  21  22
ENDBRANCH  20  21
ENDBRANCH  19  20
ENDBRANCH  18  19
ENDBRANCH  17  18
ENDBRANCH  16  17
ENDBRANCH  15  16
ENDBRANCH   1  15
TORSDOF 22
ENDMDL
MODEL 7
REMARK VINA RESULT:    -4.871     10.307     13.492
REMARK INTER + INTRA:         -13.631
REMARK INTER:                 -10.121
REMARK INTRA:                  -3.510
REMARK UNBOUND:                -2.496
REMARK SMILES CCCCCCCCCCCCCCCCCCCCCCCC(=O)[O-]
REMARK SMILES IDX 13 1 14 2 15 3 16 4 17 5 18 6 19 7 20 8 21 9 22 10 23 11
REMARK SMILES IDX 24 12 25 13 26 14 12 15 11 16 10 17 9 18 8 19 7 20 6 21 5 22
REMARK SMILES IDX 4 23 3 24 2 25 1 26
REMARK H PARENT
REMARK Flexibility Score: inf
ROOT
ATOM      1  C   UNL     1       6.630  28.338 -14.557  1.00  0.00     0.000 C 
ENDROOT
BRANCH   1   2
ATOM      2  C   UNL     1       6.692  29.740 -15.191  1.00  0.00     0.000 C 
BRANCH   2   3
ATOM      3  C   UNL     1       5.413  30.590 -15.032  1.00  0.00     0.000 C 
BRANCH   3   4
ATOM      4  C   UNL     1       5.648  32.101 -14.850  1.00  0.00     0.000 C 
BRANCH   4   5
ATOM      5  C   UNL     1       7.086  32.527 -15.175  1.00  0.00     0.000 C 
BRANCH   5   6
ATOM      6  C   UNL     1       7.795  33.056 -13.921  1.00  0.00     0.000 C 
BRANCH   6   7
ATOM      7  C   UNL     1       6.823  33.656 -12.891  1.00  0.00     0.000 C 
BRANCH   7   8
ATOM      8  C   UNL     1       6.713  32.826 -11.595  1.00  0.00     0.000 C 
BRANCH   8   9
ATOM      9  C   UNL     1       5.252  32.547 -11.210  1.00  0.00     0.000 C 
BRANCH   9  10
ATOM     10  C   UNL     1       4.407  33.825 -11.284  1.00  0.00     0.006 C 
BRANCH  10  11
ATOM     11  C   UNL     1       3.354  33.723 -12.390  1.00  0.00     0.053 C 
BRANCH  11  12
ATOM     12  C   UNL     1       3.166  35.047 -13.062  1.00  0.00     0.041 C 
ATOM     13  O   UNL     1       2.568  35.116 -14.168  1.00  0.00    -0.550 OA
ATOM     14  O   UNL     1       3.674  36.202 -12.481  1.00  0.00    -0.550 OA
ENDBRANCH  11  12
ENDBRANCH  10  11
ENDBRANCH   9  10
ENDBRANCH   8   9
ENDBRANCH   7   8
ENDBRANCH   6   7
ENDBRANCH   5   6
ENDBRANCH   4   5
ENDBRANCH   3   4
ENDBRANCH   2   3
ENDBRANCH   1   2
BRANCH   1  15
ATOM     15  C   UNL     1       7.424  28.237 -13.247  1.00  0.00     0.000 C 
BRANCH  15  16
ATOM     16  C   UNL     1       7.913  29.619 -12.797  1.00  0.00     0.000 C 
BRANCH  16  17
ATOM     17  C   UNL     1       9.447  29.684 -12.776  1.00  0.00     0.000 C 
BRANCH  17  18
ATOM     18  C   UNL     1      10.059  29.859 -14.177  1.00  0.00    -0.000 C 
BRANCH  18  19
ATOM     19  C   UNL     1      11.086  28.783 -14.578  1.00  0.00    -0.000 C 
BRANCH  19  20
ATOM     20  C   UNL     1      10.459  27.631 -15.383  1.00  0.00    -0.000 C 
BRANCH  20  21
ATOM     21  C   UNL     1      10.398  26.315 -14.591  1.00  0.00    -0.000 C 
BRANCH  21  22
ATOM     22  C   UNL     1      10.896  26.402 -13.135  1.00  0.00    -0.000 C 
BRANCH  22  23
ATOM     23  C   UNL     1       9.966  25.713 -12.113  1.00  0.00    -0.000 C 
BRANCH  23  24
ATOM     24  C   UNL     1       8.967  24.757 -12.788  1.00  0.00    -0.000 C 
BRANCH  24  25
ATOM     25  C   UNL     1       8.416  23.702 -11.817  1.00  0.00    -0.003 C 
ATOM     26  C   UNL     1       8.604  24.096 -10.352  1.00  0.00     0.004 C 
ENDBRANCH  24  25
ENDBRANCH  23  24
ENDBRANCH  22  23
ENDBRANCH  21  22
ENDBRANCH  20  21
ENDBRANCH  19  20
ENDBRANCH  18  19
ENDBRANCH  17  18
ENDBRANCH  16  17
ENDBRANCH  15  16
ENDBRANCH   1  15
TORSDOF 22
ENDMDL
MODEL 8
REMARK VINA RESULT:    -4.822      9.629     12.757
REMARK INTER + INTRA:         -13.520
REMARK INTER:                 -10.008
REMARK INTRA:                  -3.512
REMARK UNBOUND:                -2.496
REMARK SMILES CCCCCCCCCCCCCCCCCCCCCCCC(=O)[O-]
REMARK SMILES IDX 13 1 14 2 15 3 16 4 17 5 18 6 19 7 20 8 21 9 22 10 23 11
REMARK SMILES IDX 24 12 25 13 26 14 12 15 11 16 10 17 9 18 8 19 7 20 6 21 5 22
REMARK SMILES IDX 4 23 3 24 2 25 1 26
REMARK H PARENT
REMARK Flexibility Score: inf
ROOT
ATOM      1  C   UNL     1       6.267  30.740 -14.699  1.00  0.00     0.000 C 
ENDROOT
BRANCH   1   2
ATOM      2  C   UNL     1       6.914  29.424 -15.167  1.00  0.00     0.000 C 
BRANCH   2   3
ATOM      3  C   UNL     1       6.654  28.205 -14.256  1.00  0.00     0.000 C 
BRANCH   3   4
ATOM      4  C   UNL     1       7.581  28.090 -13.031  1.00  0.00     0.000 C 
BRANCH   4   5
ATOM      5  C   UNL     1       8.795  29.025 -13.109  1.00  0.00     0.000 C 
BRANCH   5   6
ATOM      6  C   UNL     1      10.092  28.222 -13.272  1.00  0.00     0.000 C 
BRANCH   6   7
ATOM      7  C   UNL     1      10.274  27.657 -14.691  1.00  0.00     0.000 C 
BRANCH   7   8
ATOM      8  C   UNL     1      10.521  26.134 -14.718  1.00  0.00     0.000 C 
BRANCH   8   9
ATOM      9  C   UNL     1      10.400  25.504 -13.322  1.00  0.00     0.000 C 
BRANCH   9  10
ATOM     10  C   UNL     1       9.069  24.759 -13.165  1.00  0.00     0.006 C 
BRANCH  10  11
ATOM     11  C   UNL     1       8.682  24.632 -11.689  1.00  0.00     0.053 C 
BRANCH  11  12
ATOM     12  C   UNL     1       7.293  24.092 -11.553  1.00  0.00     0.041 C 
ATOM     13  O   UNL     1       6.394  24.450 -12.358  1.00  0.00    -0.550 OA
ATOM     14  O   UNL     1       6.984  23.216 -10.520  1.00  0.00    -0.550 OA
ENDBRANCH  11  12
ENDBRANCH  10  11
ENDBRANCH   9  10
ENDBRANCH   8   9
ENDBRANCH   7   8
ENDBRANCH   6   7
ENDBRANCH   5   6
ENDBRANCH   4   5
ENDBRANCH   3   4
ENDBRANCH   2   3
ENDBRANCH   1   2
BRANCH   1  15
ATOM     15  C   UNL     1       7.240  31.928 -14.722  1.00  0.00     0.000 C 
BRANCH  15  16
ATOM     16  C   UNL     1       7.207  32.686 -13.389  1.00  0.00     0.000 C 
BRANCH  16  17
ATOM     17  C   UNL     1       6.663  31.797 -12.261  1.00  0.00     0.000 C 
BRANCH  17  18
ATOM     18  C   UNL     1       5.323  32.302 -11.694  1.00  0.00    -0.000 C 
BRANCH  18  19
ATOM     19  C   UNL     1       5.142  33.831 -11.714  1.00  0.00    -0.000 C 
BRANCH  19  20
ATOM     20  C   UNL     1       3.865  34.271 -12.451  1.00  0.00    -0.000 C 
BRANCH  20  21
ATOM     21  C   UNL     1       3.654  33.521 -13.777  1.00  0.00    -0.000 C 
BRANCH  21  22
ATOM     22  C   UNL     1       3.699  34.401 -15.042  1.00  0.00    -0.000 C 
BRANCH  22  23
ATOM     23  C   UNL     1       5.099  34.966 -15.362  1.00  0.00    -0.000 C 
BRANCH  23  24
ATOM     24  C   UNL     1       5.582  34.565 -16.767  1.00  0.00    -0.000 C 
BRANCH  24  25
ATOM     25  C   UNL     1       4.873  33.309 -17.296  1.00  0.00    -0.003 C 
ATOM     26  C   UNL     1       5.830  32.345 -17.997  1.00  0.00     0.004 C 
ENDBRANCH  24  25
ENDBRANCH  23  24
ENDBRANCH  22  23
ENDBRANCH  21  22
ENDBRANCH  20  21
ENDBRANCH  19  20
ENDBRANCH  18  19
ENDBRANCH  17  18
ENDBRANCH  16  17
ENDBRANCH  15  16
ENDBRANCH   1  15
TORSDOF 22
ENDMDL
MODEL 9
REMARK VINA RESULT:    -4.634     10.321     13.840
REMARK INTER + INTRA:         -13.090
REMARK INTER:                  -9.938
REMARK INTRA:                  -3.152
REMARK UNBOUND:                -2.496
REMARK SMILES CCCCCCCCCCCCCCCCCCCCCCCC(=O)[O-]
REMARK SMILES IDX 13 1 14 2 15 3 16 4 17 5 18 6 19 7 20 8 21 9 22 10 23 11
REMARK SMILES IDX 24 12 25 13 26 14 12 15 11 16 10 17 9 18 8 19 7 20 6 21 5 22
REMARK SMILES IDX 4 23 3 24 2 25 1 26
REMARK H PARENT
REMARK Flexibility Score: inf
ROOT
ATOM      1  C   UNL     1       5.125  30.973 -14.625  1.00  0.00     0.000 C 
ENDROOT
BRANCH   1   2
ATOM      2  C   UNL     1       6.302  30.317 -15.370  1.00  0.00     0.000 C 
BRANCH   2   3
ATOM      3  C   UNL     1       6.622  28.868 -14.945  1.00  0.00     0.000 C 
BRANCH   3   4
ATOM      4  C   UNL     1       7.207  28.712 -13.529  1.00  0.00     0.000 C 
BRANCH   4   5
ATOM      5  C   UNL     1       8.438  29.597 -13.289  1.00  0.00     0.000 C 
BRANCH   5   6
ATOM      6  C   UNL     1       9.688  28.740 -13.049  1.00  0.00     0.000 C 
BRANCH   6   7
ATOM      7  C   UNL     1      10.071  27.883 -14.267  1.00  0.00     0.000 C 
BRANCH   7   8
ATOM      8  C   UNL     1      10.295  26.395 -13.925  1.00  0.00     0.000 C 
BRANCH   8   9
ATOM      9  C   UNL     1      10.375  26.156 -12.410  1.00  0.00     0.000 C 
BRANCH   9  10
ATOM     10  C   UNL     1       9.422  25.036 -11.975  1.00  0.00     0.006 C 
BRANCH  10  11
ATOM     11  C   UNL     1       8.077  25.148 -12.698  1.00  0.00     0.053 C 
BRANCH  11  12
ATOM     12  C   UNL     1       7.021  24.376 -11.972  1.00  0.00     0.041 C 
ATOM     13  O   UNL     1       7.334  23.628 -11.010  1.00  0.00    -0.550 OA
ATOM     14  O   UNL     1       5.694  24.460 -12.376  1.00  0.00    -0.550 OA
ENDBRANCH  11  12
ENDBRANCH  10  11
ENDBRANCH   9  10
ENDBRANCH   8   9
ENDBRANCH   7   8
ENDBRANCH   6   7
ENDBRANCH   5   6
ENDBRANCH   4   5
ENDBRANCH   3   4
ENDBRANCH   2   3
ENDBRANCH   1   2
BRANCH   1  15
ATOM     15  C   UNL     1       5.137  32.506 -14.717  1.00  0.00     0.000 C 
BRANCH  15  16
ATOM     16  C   UNL     1       5.153  33.136 -13.318  1.00  0.00     0.000 C 
BRANCH  16  17
ATOM     17  C   UNL     1       5.883  32.233 -12.313  1.00  0.00     0.000 C 
BRANCH  17  18
ATOM     18  C   UNL     1       7.228  32.819 -11.847  1.00  0.00    -0.000 C 
BRANCH  18  19
ATOM     19  C   UNL     1       7.272  34.356 -11.757  1.00  0.00    -0.000 C 
BRANCH  19  20
ATOM     20  C   UNL     1       7.643  34.859 -10.351  1.00  0.00    -0.000 C 
BRANCH  20  21
ATOM     21  C   UNL     1       7.585  33.751  -9.287  1.00  0.00    -0.000 C 
BRANCH  21  22
ATOM     22  C   UNL     1       6.473  33.914  -8.230  1.00  0.00    -0.000 C 
BRANCH  22  23
ATOM     23  C   UNL     1       5.154  33.201  -8.595  1.00  0.00    -0.000 C 
BRANCH  23  24
ATOM     24  C   UNL     1       3.998  34.192  -8.816  1.00  0.00    -0.000 C 
BRANCH  24  25
ATOM     25  C   UNL     1       3.903  34.668 -10.273  1.00  0.00    -0.003 C 
ATOM     26  C   UNL     1       2.499  34.501 -10.856  1.00  0.00     0.004 C 
ENDBRANCH  24  25
ENDBRANCH  23  24
ENDBRANCH  22  23
ENDBRANCH  21  22
ENDBRANCH  20  21
ENDBRANCH  19  20
ENDBRANCH  18  19
ENDBRANCH  17  18
ENDBRANCH  16  17
ENDBRANCH  15  16
ENDBRANCH   1  15
TORSDOF 22
ENDMDL
