MODEL 1
REMARK VINA RESULT:    -3.407      0.000      0.000
REMARK INTER + INTRA:         -11.064
REMARK INTER:                  -7.389
REMARK INTRA:                  -3.674
REMARK UNBOUND:                -3.674
REMARK SMILES CCCCCCCCCCCCCCCCCCCCCC(=O)[O-]
REMARK SMILES IDX 12 1 11 2 10 3 9 4 8 5 7 6 6 7 5 8 4 9 3 10 2 11 1 12 13 13
REMARK SMILES IDX 14 14 15 15 16 16 17 17 18 18 19 19 20 20 21 21 22 22 23 23
REMARK SMILES IDX 24 24
REMARK H PARENT
REMARK Flexibility Score: inf
ROOT
ATOM      1  C   UNL     1       2.459   6.600   9.049  1.00  0.00     0.000 C 
ENDROOT
BRANCH   1   2
ATOM      2  C   UNL     1       2.056   7.864   8.275  1.00  0.00     0.000 C 
BRANCH   2   3
ATOM      3  C   UNL     1       0.787   8.522   8.841  1.00  0.00     0.000 C 
BRANCH   3   4
ATOM      4  C   UNL     1       1.090   9.821   9.606  1.00  0.00    -0.000 C 
BRANCH   4   5
ATOM      5  C   UNL     1       0.176  10.008  10.830  1.00  0.00    -0.000 C 
BRANCH   5   6
ATOM      6  C   UNL     1       0.072   8.736  11.691  1.00  0.00    -0.000 C 
BRANCH   6   7
ATOM      7  C   UNL     1       1.010   8.784  12.915  1.00  0.00    -0.000 C 
BRANCH   7   8
ATOM      8  C   UNL     1       2.353   8.055  12.699  1.00  0.00    -0.000 C 
BRANCH   8   9
ATOM      9  C   UNL     1       3.568   8.977  12.492  1.00  0.00    -0.000 C 
BRANCH   9  10
ATOM     10  C   UNL     1       4.312   8.694  11.175  1.00  0.00    -0.000 C 
BRANCH  10  11
ATOM     11  C   UNL     1       5.065   9.925  10.648  1.00  0.00    -0.003 C 
ATOM     12  C   UNL     1       4.767  10.221   9.179  1.00  0.00     0.004 C 
ENDBRANCH  10  11
ENDBRANCH   9  10
ENDBRANCH   8   9
ENDBRANCH   7   8
ENDBRANCH   6   7
ENDBRANCH   5   6
ENDBRANCH   4   5
ENDBRANCH   3   4
ENDBRANCH   2   3
ENDBRANCH   1   2
BRANCH   1  13
ATOM     13  C   UNL     1       1.245   5.966   9.738  1.00  0.00     0.000 C 
BRANCH  13  14
ATOM     14  C   UNL     1       1.685   4.984  10.835  1.00  0.00     0.000 C 
BRANCH  14  15
ATOM     15  C   UNL     1       1.251   3.537  10.551  1.00  0.00     0.000 C 
BRANCH  15  16
ATOM     16  C   UNL     1       2.443   2.573  10.415  1.00  0.00     0.000 C 
BRANCH  16  17
ATOM     17  C   UNL     1       2.593   1.650  11.636  1.00  0.00     0.000 C 
BRANCH  17  18
ATOM     18  C   UNL     1       3.963   1.792  12.314  1.00  0.00     0.000 C 
BRANCH  18  19
ATOM     19  C   UNL     1       4.242   3.252  12.691  1.00  0.00     0.000 C 
BRANCH  19  20
ATOM     20  C   UNL     1       5.500   3.774  11.980  1.00  0.00     0.006 C 
BRANCH  20  21
ATOM     21  C   UNL     1       5.295   5.172  11.384  1.00  0.00     0.053 C 
BRANCH  21  22
ATOM     22  C   UNL     1       5.646   5.218   9.927  1.00  0.00     0.041 C 
ATOM     23  O   UNL     1       5.096   4.425   9.117  1.00  0.00    -0.550 OA
ATOM     24  O   UNL     1       6.596   6.122   9.469  1.00  0.00    -0.550 OA
ENDBRANCH  21  22
ENDBRANCH  20  21
ENDBRANCH  19  20
ENDBRANCH  18  19
ENDBRANCH  17  18
ENDBRANCH  16  17
ENDBRANCH  15  16
ENDBRANCH  14  15
ENDBRANCH  13  14
ENDBRANCH   1  13
TORSDOF 20
ENDMDL
MODEL 2
REMARK VINA RESULT:    -3.249      1.356      2.659
REMARK INTER + INTRA:         -10.722
REMARK INTER:                  -7.221
REMARK INTRA:                  -3.501
REMARK UNBOUND:                -3.674
REMARK SMILES CCCCCCCCCCCCCCCCCCCCCC(=O)[O-]
REMARK SMILES IDX 12 1 11 2 10 3 9 4 8 5 7 6 6 7 5 8 4 9 3 10 2 11 1 12 13 13
REMARK SMILES IDX 14 14 15 15 16 16 17 17 18 18 19 19 20 20 21 21 22 22 23 23
REMARK SMILES IDX 24 24
REMARK H PARENT
REMARK Flexibility Score: inf
ROOT
ATOM      1  C   UNL     1       1.937   4.631  10.034  1.00  0.00     0.000 C 
ENDROOT
BRANCH   1   2
ATOM      2  C   UNL     1       1.388   6.010  10.427  1.00  0.00     0.000 C 
BRANCH   2   3
ATOM      3  C   UNL     1       1.983   6.526  11.747  1.00  0.00     0.000 C 
BRANCH   3   4
ATOM      4  C   UNL     1       1.357   7.859  12.193  1.00  0.00    -0.000 C 
BRANCH   4   5
ATOM      5  C   UNL     1      -0.020   8.103  11.553  1.00  0.00    -0.000 C 
BRANCH   5   6
ATOM      6  C   UNL     1      -0.463   9.574  11.640  1.00  0.00    -0.000 C 
BRANCH   6   7
ATOM      7  C   UNL     1      -0.098  10.369  10.369  1.00  0.00    -0.000 C 
BRANCH   7   8
ATOM      8  C   UNL     1       1.244  11.123  10.469  1.00  0.00    -0.000 C 
BRANCH   8   9
ATOM      9  C   UNL     1       2.379  10.549   9.603  1.00  0.00    -0.000 C 
BRANCH   9  10
ATOM     10  C   UNL     1       1.879   9.531   8.564  1.00  0.00    -0.000 C 
BRANCH  10  11
ATOM     11  C   UNL     1       2.894   8.407   8.306  1.00  0.00    -0.003 C 
ATOM     12  C   UNL     1       4.064   8.424   9.289  1.00  0.00     0.004 C 
ENDBRANCH  10  11
ENDBRANCH   9  10
ENDBRANCH   8   9
ENDBRANCH   7   8
ENDBRANCH   6   7
ENDBRANCH   5   6
ENDBRANCH   4   5
ENDBRANCH   3   4
ENDBRANCH   2   3
ENDBRANCH   1   2
BRANCH   1  13
ATOM     13  C   UNL     1       1.629   3.588  11.115  1.00  0.00     0.000 C 
BRANCH  13  14
ATOM     14  C   UNL     1       1.879   2.164  10.594  1.00  0.00     0.000 C 
BRANCH  14  15
ATOM     15  C   UNL     1       2.580   1.265  11.625  1.00  0.00     0.000 C 
BRANCH  15  16
ATOM     16  C   UNL     1       3.290   2.067  12.730  1.00  0.00     0.000 C 
BRANCH  16  17
ATOM     17  C   UNL     1       4.805   1.801  12.765  1.00  0.00     0.000 C 
BRANCH  17  18
ATOM     18  C   UNL     1       5.612   3.057  13.125  1.00  0.00     0.000 C 
BRANCH  18  19
ATOM     19  C   UNL     1       4.763   4.324  12.960  1.00  0.00     0.000 C 
BRANCH  19  20
ATOM     20  C   UNL     1       5.444   5.325  12.014  1.00  0.00     0.006 C 
BRANCH  20  21
ATOM     21  C   UNL     1       5.384   4.875  10.549  1.00  0.00     0.053 C 
BRANCH  21  22
ATOM     22  C   UNL     1       6.723   4.961   9.881  1.00  0.00     0.041 C 
ATOM     23  O   UNL     1       6.931   5.821   8.984  1.00  0.00    -0.550 OA
ATOM     24  O   UNL     1       7.733   4.075  10.234  1.00  0.00    -0.550 OA
ENDBRANCH  21  22
ENDBRANCH  20  21
ENDBRANCH  19  20
ENDBRANCH  18  19
ENDBRANCH  17  18
ENDBRANCH  16  17
ENDBRANCH  15  16
ENDBRANCH  14  15
ENDBRANCH  13  14
ENDBRANCH   1  13
TORSDOF 20
ENDMDL
MODEL 3
REMARK VINA RESULT:    -3.249      6.717      9.923
REMARK INTER + INTRA:         -10.721
REMARK INTER:                  -9.686
REMARK INTRA:                  -1.035
REMARK UNBOUND:                -3.674
REMARK SMILES CCCCCCCCCCCCCCCCCCCCCC(=O)[O-]
REMARK SMILES IDX 12 1 11 2 10 3 9 4 8 5 7 6 6 7 5 8 4 9 3 10 2 11 1 12 13 13
REMARK SMILES IDX 14 14 15 15 16 16 17 17 18 18 19 19 20 20 21 21 22 22 23 23
REMARK SMILES IDX 24 24
REMARK H PARENT
REMARK Flexibility Score: inf
ROOT
ATOM      1  C   UNL     1       6.068   9.583   4.107  1.00  0.00     0.000 C 
ENDROOT
BRANCH   1   2
ATOM      2  C   UNL     1       7.565   9.286   3.934  1.00  0.00     0.000 C 
BRANCH   2   3
ATOM      3  C   UNL     1       8.081   9.654   2.534  1.00  0.00     0.000 C 
BRANCH   3   4
ATOM      4  C   UNL     1       8.780   8.475   1.836  1.00  0.00    -0.000 C 
BRANCH   4   5
ATOM      5  C   UNL     1       8.057   8.044   0.548  1.00  0.00    -0.000 C 
BRANCH   5   6
ATOM      6  C   UNL     1       7.362   6.678   0.688  1.00  0.00    -0.000 C 
BRANCH   6   7
ATOM      7  C   UNL     1       8.370   5.510   0.703  1.00  0.00    -0.000 C 
BRANCH   7   8
ATOM      8  C   UNL     1       7.756   4.163   1.138  1.00  0.00    -0.000 C 
BRANCH   8   9
ATOM      9  C   UNL     1       7.399   3.208  -0.014  1.00  0.00    -0.000 C 
BRANCH   9  10
ATOM     10  C   UNL     1       6.191   2.312   0.308  1.00  0.00    -0.000 C 
BRANCH  10  11
ATOM     11  C   UNL     1       6.089   1.101  -0.632  1.00  0.00    -0.003 C 
ATOM     12  C   UNL     1       7.435   0.699  -1.234  1.00  0.00     0.004 C 
ENDBRANCH  10  11
ENDBRANCH   9  10
ENDBRANCH   8   9
ENDBRANCH   7   8
ENDBRANCH   6   7
ENDBRANCH   5   6
ENDBRANCH   4   5
ENDBRANCH   3   4
ENDBRANCH   2   3
ENDBRANCH   1   2
BRANCH   1  13
ATOM     13  C   UNL     1       5.851  10.839   4.958  1.00  0.00     0.000 C 
BRANCH  13  14
ATOM     14  C   UNL     1       5.983  10.519   6.455  1.00  0.00     0.000 C 
BRANCH  14  15
ATOM     15  C   UNL     1       4.642  10.597   7.204  1.00  0.00     0.000 C 
BRANCH  15  16
ATOM     16  C   UNL     1       4.560   9.610   8.382  1.00  0.00     0.000 C 
BRANCH  16  17
ATOM     17  C   UNL     1       3.299   9.820   9.236  1.00  0.00     0.000 C 
BRANCH  17  18
ATOM     18  C   UNL     1       2.024   9.340   8.527  1.00  0.00     0.000 C 
BRANCH  18  19
ATOM     19  C   UNL     1       2.129   7.857   8.151  1.00  0.00     0.000 C 
BRANCH  19  20
ATOM     20  C   UNL     1       1.555   6.964   9.263  1.00  0.00     0.006 C 
BRANCH  20  21
ATOM     21  C   UNL     1       2.654   6.327  10.122  1.00  0.00     0.053 C 
BRANCH  21  22
ATOM     22  C   UNL     1       2.982   4.936   9.672  1.00  0.00     0.041 C 
ATOM     23  O   UNL     1       2.223   3.976   9.970  1.00  0.00    -0.550 OA
ATOM     24  O   UNL     1       4.140   4.697   8.940  1.00  0.00    -0.550 OA
ENDBRANCH  21  22
ENDBRANCH  20  21
ENDBRANCH  19  20
ENDBRANCH  18  19
ENDBRANCH  17  18
ENDBRANCH  16  17
ENDBRANCH  15  16
ENDBRANCH  14  15
ENDBRANCH  13  14
ENDBRANCH   1  13
TORSDOF 20
ENDMDL
MODEL 4
REMARK VINA RESULT:    -3.231      6.066      9.184
REMARK INTER + INTRA:         -10.683
REMARK INTER:                  -9.749
REMARK INTRA:                  -0.934
REMARK UNBOUND:                -3.674
REMARK SMILES CCCCCCCCCCCCCCCCCCCCCC(=O)[O-]
REMARK SMILES IDX 12 1 11 2 10 3 9 4 8 5 7 6 6 7 5 8 4 9 3 10 2 11 1 12 13 13
REMARK SMILES IDX 14 14 15 15 16 16 17 17 18 18 19 19 20 20 21 21 22 22 23 23
REMARK SMILES IDX 24 24
REMARK H PARENT
REMARK Flexibility Score: inf
ROOT
ATOM      1  C   UNL     1       5.458  10.846   5.489  1.00  0.00     0.000 C 
ENDROOT
BRANCH   1   2
ATOM      2  C   UNL     1       6.343  10.249   4.384  1.00  0.00     0.000 C 
BRANCH   2   3
ATOM      3  C   UNL     1       7.217   9.090   4.891  1.00  0.00     0.000 C 
BRANCH   3   4
ATOM      4  C   UNL     1       8.507   8.924   4.071  1.00  0.00    -0.000 C 
BRANCH   4   5
ATOM      5  C   UNL     1       8.503   7.638   3.227  1.00  0.00    -0.000 C 
BRANCH   5   6
ATOM      6  C   UNL     1       7.825   7.830   1.858  1.00  0.00    -0.000 C 
BRANCH   6   7
ATOM      7  C   UNL     1       8.289   6.780   0.826  1.00  0.00    -0.000 C 
BRANCH   7   8
ATOM      8  C   UNL     1       7.235   5.694   0.527  1.00  0.00    -0.000 C 
BRANCH   8   9
ATOM      9  C   UNL     1       7.735   4.246   0.667  1.00  0.00    -0.000 C 
BRANCH   9  10
ATOM     10  C   UNL     1       6.613   3.209   0.488  1.00  0.00    -0.000 C 
BRANCH  10  11
ATOM     11  C   UNL     1       6.898   2.224  -0.657  1.00  0.00    -0.003 C 
ATOM     12  C   UNL     1       6.155   0.898  -0.500  1.00  0.00     0.004 C 
ENDBRANCH  10  11
ENDBRANCH   9  10
ENDBRANCH   8   9
ENDBRANCH   7   8
ENDBRANCH   6   7
ENDBRANCH   5   6
ENDBRANCH   4   5
ENDBRANCH   3   4
ENDBRANCH   2   3
ENDBRANCH   1   2
BRANCH   1  13
ATOM     13  C   UNL     1       5.512   9.989   6.759  1.00  0.00     0.000 C 
BRANCH  13  14
ATOM     14  C   UNL     1       4.912  10.742   7.957  1.00  0.00     0.000 C 
BRANCH  14  15
ATOM     15  C   UNL     1       3.443  10.375   8.219  1.00  0.00     0.000 C 
BRANCH  15  16
ATOM     16  C   UNL     1       3.270   8.925   8.709  1.00  0.00     0.000 C 
BRANCH  16  17
ATOM     17  C   UNL     1       1.941   8.305   8.246  1.00  0.00     0.000 C 
BRANCH  17  18
ATOM     18  C   UNL     1       0.858   8.361   9.334  1.00  0.00     0.000 C 
BRANCH  18  19
ATOM     19  C   UNL     1       1.074   7.263  10.382  1.00  0.00     0.000 C 
BRANCH  19  20
ATOM     20  C   UNL     1       1.362   5.911   9.712  1.00  0.00     0.006 C 
BRANCH  20  21
ATOM     21  C   UNL     1       1.794   4.840  10.722  1.00  0.00     0.053 C 
BRANCH  21  22
ATOM     22  C   UNL     1       2.720   3.833  10.111  1.00  0.00     0.041 C 
ATOM     23  O   UNL     1       3.673   4.210   9.378  1.00  0.00    -0.550 OA
ATOM     24  O   UNL     1       2.517   2.476  10.333  1.00  0.00    -0.550 OA
ENDBRANCH  21  22
ENDBRANCH  20  21
ENDBRANCH  19  20
ENDBRANCH  18  19
ENDBRANCH  17  18
ENDBRANCH  16  17
ENDBRANCH  15  16
ENDBRANCH  14  15
ENDBRANCH  13  14
ENDBRANCH   1  13
TORSDOF 20
ENDMDL
MODEL 5
REMARK VINA RESULT:    -3.215      7.949      9.965
REMARK INTER + INTRA:         -10.647
REMARK INTER:                  -9.455
REMARK INTRA:                  -1.192
REMARK UNBOUND:                -3.674
REMARK SMILES CCCCCCCCCCCCCCCCCCCCCC(=O)[O-]
REMARK SMILES IDX 12 1 11 2 10 3 9 4 8 5 7 6 6 7 5 8 4 9 3 10 2 11 1 12 13 13
REMARK SMILES IDX 14 14 15 15 16 16 17 17 18 18 19 19 20 20 21 21 22 22 23 23
REMARK SMILES IDX 24 24
REMARK H PARENT
REMARK Flexibility Score: inf
ROOT
ATOM      1  C   UNL     1       7.916   9.310   3.186  1.00  0.00     0.000 C 
ENDROOT
BRANCH   1   2
ATOM      2  C   UNL     1       6.895  10.363   3.641  1.00  0.00     0.000 C 
BRANCH   2   3
ATOM      3  C   UNL     1       6.086   9.908   4.867  1.00  0.00     0.000 C 
BRANCH   3   4
ATOM      4  C   UNL     1       6.967   9.239   5.936  1.00  0.00    -0.000 C 
BRANCH   4   5
ATOM      5  C   UNL     1       6.518   9.586   7.366  1.00  0.00    -0.000 C 
BRANCH   5   6
ATOM      6  C   UNL     1       5.188  10.358   7.398  1.00  0.00    -0.000 C 
BRANCH   6   7
ATOM      7  C   UNL     1       4.186   9.752   8.403  1.00  0.00    -0.000 C 
BRANCH   7   8
ATOM      8  C   UNL     1       2.708   9.990   8.029  1.00  0.00    -0.000 C 
BRANCH   8   9
ATOM      9  C   UNL     1       1.769   8.801   8.297  1.00  0.00    -0.000 C 
BRANCH   9  10
ATOM     10  C   UNL     1       1.095   8.874   9.678  1.00  0.00    -0.000 C 
BRANCH  10  11
ATOM     11  C   UNL     1       0.938   7.492  10.331  1.00  0.00    -0.003 C 
ATOM     12  C   UNL     1       1.475   6.357   9.459  1.00  0.00     0.004 C 
ENDBRANCH  10  11
ENDBRANCH   9  10
ENDBRANCH   8   9
ENDBRANCH   7   8
ENDBRANCH   6   7
ENDBRANCH   5   6
ENDBRANCH   4   5
ENDBRANCH   3   4
ENDBRANCH   2   3
ENDBRANCH   1   2
BRANCH   1  13
ATOM     13  C   UNL     1       8.413   9.603   1.766  1.00  0.00     0.000 C 
BRANCH  13  14
ATOM     14  C   UNL     1       8.940   8.326   1.093  1.00  0.00     0.000 C 
BRANCH  14  15
ATOM     15  C   UNL     1       8.008   7.805  -0.014  1.00  0.00     0.000 C 
BRANCH  15  16
ATOM     16  C   UNL     1       7.243   6.536   0.400  1.00  0.00     0.000 C 
BRANCH  16  17
ATOM     17  C   UNL     1       7.947   5.771   1.533  1.00  0.00     0.000 C 
BRANCH  17  18
ATOM     18  C   UNL     1       8.180   4.293   1.187  1.00  0.00     0.000 C 
BRANCH  18  19
ATOM     19  C   UNL     1       7.123   3.786   0.198  1.00  0.00     0.000 C 
BRANCH  19  20
ATOM     20  C   UNL     1       7.628   2.554  -0.567  1.00  0.00     0.006 C 
BRANCH  20  21
ATOM     21  C   UNL     1       6.496   1.807  -1.284  1.00  0.00     0.053 C 
BRANCH  21  22
ATOM     22  C   UNL     1       6.916   1.316  -2.636  1.00  0.00     0.041 C 
ATOM     23  O   UNL     1       6.113   1.365  -3.606  1.00  0.00    -0.550 OA
ATOM     24  O   UNL     1       8.187   0.785  -2.818  1.00  0.00    -0.550 OA
ENDBRANCH  21  22
ENDBRANCH  20  21
ENDBRANCH  19  20
ENDBRANCH  18  19
ENDBRANCH  17  18
ENDBRANCH  16  17
ENDBRANCH  15  16
ENDBRANCH  14  15
ENDBRANCH  13  14
ENDBRANCH   1  13
TORSDOF 20
ENDMDL
MODEL 6
REMARK VINA RESULT:    -3.173      1.829      5.962
REMARK INTER + INTRA:         -10.558
REMARK INTER:                  -7.256
REMARK INTRA:                  -3.302
REMARK UNBOUND:                -3.674
REMARK SMILES CCCCCCCCCCCCCCCCCCCCCC(=O)[O-]
REMARK SMILES IDX 12 1 11 2 10 3 9 4 8 5 7 6 6 7 5 8 4 9 3 10 2 11 1 12 13 13
REMARK SMILES IDX 14 14 15 15 16 16 17 17 18 18 19 19 20 20 21 21 22 22 23 23
REMARK SMILES IDX 24 24
REMARK H PARENT
REMARK Flexibility Score: inf
ROOT
ATOM      1  C   UNL     1       2.619   6.159   9.488  1.00  0.00     0.000 C 
ENDROOT
BRANCH   1   2
ATOM      2  C   UNL     1       2.580   4.703   9.974  1.00  0.00     0.000 C 
BRANCH   2   3
ATOM      3  C   UNL     1       1.228   4.329  10.604  1.00  0.00     0.000 C 
BRANCH   3   4
ATOM      4  C   UNL     1       1.068   2.811  10.794  1.00  0.00    -0.000 C 
BRANCH   4   5
ATOM      5  C   UNL     1       2.375   2.046  10.524  1.00  0.00    -0.000 C 
BRANCH   5   6
ATOM      6  C   UNL     1       2.715   1.042  11.640  1.00  0.00    -0.000 C 
BRANCH   6   7
ATOM      7  C   UNL     1       3.988   1.442  12.415  1.00  0.00    -0.000 C 
BRANCH   7   8
ATOM      8  C   UNL     1       4.047   2.939  12.783  1.00  0.00    -0.000 C 
BRANCH   8   9
ATOM      9  C   UNL     1       5.317   3.674  12.319  1.00  0.00    -0.000 C 
BRANCH   9  10
ATOM     10  C   UNL     1       5.267   5.186  12.600  1.00  0.00    -0.000 C 
BRANCH  10  11
ATOM     11  C   UNL     1       5.734   6.024  11.400  1.00  0.00    -0.003 C 
ATOM     12  C   UNL     1       6.301   5.172  10.265  1.00  0.00     0.004 C 
ENDBRANCH  10  11
ENDBRANCH   9  10
ENDBRANCH   8   9
ENDBRANCH   7   8
ENDBRANCH   6   7
ENDBRANCH   5   6
ENDBRANCH   4   5
ENDBRANCH   3   4
ENDBRANCH   2   3
ENDBRANCH   1   2
BRANCH   1  13
ATOM     13  C   UNL     1       1.262   6.843   9.688  1.00  0.00     0.000 C 
BRANCH  13  14
ATOM     14  C   UNL     1       1.184   8.155   8.893  1.00  0.00     0.000 C 
BRANCH  14  15
ATOM     15  C   UNL     1       0.245   9.189   9.537  1.00  0.00     0.000 C 
BRANCH  15  16
ATOM     16  C   UNL     1       1.002  10.388  10.137  1.00  0.00     0.000 C 
BRANCH  16  17
ATOM     17  C   UNL     1       1.530  10.100  11.552  1.00  0.00     0.000 C 
BRANCH  17  18
ATOM     18  C   UNL     1       3.005  10.491  11.719  1.00  0.00     0.000 C 
BRANCH  18  19
ATOM     19  C   UNL     1       3.930   9.344  11.296  1.00  0.00     0.000 C 
BRANCH  19  20
ATOM     20  C   UNL     1       4.912   9.800  10.206  1.00  0.00     0.006 C 
BRANCH  20  21
ATOM     21  C   UNL     1       4.852   8.910   8.958  1.00  0.00     0.053 C 
BRANCH  21  22
ATOM     22  C   UNL     1       4.494   9.689   7.729  1.00  0.00     0.041 C 
ATOM     23  O   UNL     1       3.545  10.518   7.758  1.00  0.00    -0.550 OA
ATOM     24  O   UNL     1       5.194   9.484   6.547  1.00  0.00    -0.550 OA
ENDBRANCH  21  22
ENDBRANCH  20  21
ENDBRANCH  19  20
ENDBRANCH  18  19
ENDBRANCH  17  18
ENDBRANCH  16  17
ENDBRANCH  15  16
ENDBRANCH  14  15
ENDBRANCH  13  14
ENDBRANCH   1  13
TORSDOF 20
ENDMDL
MODEL 7
REMARK VINA RESULT:    -3.162      7.902     11.275
REMARK INTER + INTRA:         -10.534
REMARK INTER:                  -8.987
REMARK INTRA:                  -1.546
REMARK UNBOUND:                -3.674
REMARK SMILES CCCCCCCCCCCCCCCCCCCCCC(=O)[O-]
REMARK SMILES IDX 12 1 11 2 10 3 9 4 8 5 7 6 6 7 5 8 4 9 3 10 2 11 1 12 13 13
REMARK SMILES IDX 14 14 15 15 16 16 17 17 18 18 19 19 20 20 21 21 22 22 23 23
REMARK SMILES IDX 24 24
REMARK H PARENT
REMARK Flexibility Score: inf
ROOT
ATOM      1  C   UNL     1       7.634   8.692   2.660  1.00  0.00     0.000 C 
ENDROOT
BRANCH   1   2
ATOM      2  C   UNL     1       8.563   8.517   1.450  1.00  0.00     0.000 C 
BRANCH   2   3
ATOM      3  C   UNL     1       7.896   7.743   0.302  1.00  0.00     0.000 C 
BRANCH   3   4
ATOM      4  C   UNL     1       7.562   6.292   0.687  1.00  0.00    -0.000 C 
BRANCH   4   5
ATOM      5  C   UNL     1       8.817   5.409   0.792  1.00  0.00    -0.000 C 
BRANCH   5   6
ATOM      6  C   UNL     1       8.492   3.906   0.736  1.00  0.00    -0.000 C 
BRANCH   6   7
ATOM      7  C   UNL     1       6.980   3.632   0.883  1.00  0.00    -0.000 C 
BRANCH   7   8
ATOM      8  C   UNL     1       6.340   2.990  -0.365  1.00  0.00    -0.000 C 
BRANCH   8   9
ATOM      9  C   UNL     1       6.130   1.467  -0.279  1.00  0.00    -0.000 C 
BRANCH   9  10
ATOM     10  C   UNL     1       6.542   0.736  -1.568  1.00  0.00    -0.000 C 
BRANCH  10  11
ATOM     11  C   UNL     1       7.997   0.241  -1.525  1.00  0.00    -0.003 C 
ATOM     12  C   UNL     1       8.968   1.186  -2.233  1.00  0.00     0.004 C 
ENDBRANCH  10  11
ENDBRANCH   9  10
ENDBRANCH   8   9
ENDBRANCH   7   8
ENDBRANCH   6   7
ENDBRANCH   5   6
ENDBRANCH   4   5
ENDBRANCH   3   4
ENDBRANCH   2   3
ENDBRANCH   1   2
BRANCH   1  13
ATOM     13  C   UNL     1       8.349   8.315   3.962  1.00  0.00     0.000 C 
BRANCH  13  14
ATOM     14  C   UNL     1       8.429   9.518   4.915  1.00  0.00     0.000 C 
BRANCH  14  15
ATOM     15  C   UNL     1       7.322  10.556   4.662  1.00  0.00     0.000 C 
BRANCH  15  16
ATOM     16  C   UNL     1       6.143  10.419   5.643  1.00  0.00     0.000 C 
BRANCH  16  17
ATOM     17  C   UNL     1       6.532   9.667   6.926  1.00  0.00     0.000 C 
BRANCH  17  18
ATOM     18  C   UNL     1       5.532   9.899   8.068  1.00  0.00     0.000 C 
BRANCH  18  19
ATOM     19  C   UNL     1       4.641  11.114   7.780  1.00  0.00     0.000 C 
BRANCH  19  20
ATOM     20  C   UNL     1       3.177  10.822   8.145  1.00  0.00     0.006 C 
BRANCH  20  21
ATOM     21  C   UNL     1       3.037   9.597   9.058  1.00  0.00     0.053 C 
BRANCH  21  22
ATOM     22  C   UNL     1       2.232   8.508   8.415  1.00  0.00     0.041 C 
ATOM     23  O   UNL     1       2.745   7.781   7.523  1.00  0.00    -0.550 OA
ATOM     24  O   UNL     1       0.908   8.312   8.788  1.00  0.00    -0.550 OA
ENDBRANCH  21  22
ENDBRANCH  20  21
ENDBRANCH  19  20
ENDBRANCH  18  19
ENDBRANCH  17  18
ENDBRANCH  16  17
ENDBRANCH  15  16
ENDBRANCH  14  15
ENDBRANCH  13  14
ENDBRANCH   1  13
TORSDOF 20
ENDMDL
MODEL 8
REMARK VINA RESULT:    -3.158      1.544      5.751
REMARK INTER + INTRA:         -10.525
REMARK INTER:                  -7.087
REMARK INTRA:                  -3.438
REMARK UNBOUND:                -3.674
REMARK SMILES CCCCCCCCCCCCCCCCCCCCCC(=O)[O-]
REMARK SMILES IDX 12 1 11 2 10 3 9 4 8 5 7 6 6 7 5 8 4 9 3 10 2 11 1 12 13 13
REMARK SMILES IDX 14 14 15 15 16 16 17 17 18 18 19 19 20 20 21 21 22 22 23 23
REMARK SMILES IDX 24 24
REMARK H PARENT
REMARK Flexibility Score: inf
ROOT
ATOM      1  C   UNL     1       2.356   6.669   9.027  1.00  0.00     0.000 C 
ENDROOT
BRANCH   1   2
ATOM      2  C   UNL     1       1.259   6.007   9.873  1.00  0.00     0.000 C 
BRANCH   2   3
ATOM      3  C   UNL     1       1.820   4.965  10.854  1.00  0.00     0.000 C 
BRANCH   3   4
ATOM      4  C   UNL     1       1.275   3.552  10.587  1.00  0.00    -0.000 C 
BRANCH   4   5
ATOM      5  C   UNL     1       2.387   2.554  10.222  1.00  0.00    -0.000 C 
BRANCH   5   6
ATOM      6  C   UNL     1       2.422   1.335  11.161  1.00  0.00    -0.000 C 
BRANCH   6   7
ATOM      7  C   UNL     1       2.835   1.718  12.597  1.00  0.00    -0.000 C 
BRANCH   7   8
ATOM      8  C   UNL     1       4.332   2.061  12.744  1.00  0.00    -0.000 C 
BRANCH   8   9
ATOM      9  C   UNL     1       4.640   3.551  12.975  1.00  0.00    -0.000 C 
BRANCH   9  10
ATOM     10  C   UNL     1       5.868   4.034  12.186  1.00  0.00    -0.000 C 
BRANCH  10  11
ATOM     11  C   UNL     1       5.535   5.190  11.229  1.00  0.00    -0.003 C 
ATOM     12  C   UNL     1       5.384   4.737   9.778  1.00  0.00     0.004 C 
ENDBRANCH  10  11
ENDBRANCH   9  10
ENDBRANCH   8   9
ENDBRANCH   7   8
ENDBRANCH   6   7
ENDBRANCH   5   6
ENDBRANCH   4   5
ENDBRANCH   3   4
ENDBRANCH   2   3
ENDBRANCH   1   2
BRANCH   1  13
ATOM     13  C   UNL     1       1.801   7.863   8.242  1.00  0.00     0.000 C 
BRANCH  13  14
ATOM     14  C   UNL     1       0.812   8.672   9.096  1.00  0.00     0.000 C 
BRANCH  14  15
ATOM     15  C   UNL     1       1.423   9.969   9.650  1.00  0.00     0.000 C 
BRANCH  15  16
ATOM     16  C   UNL     1       2.529  10.541   8.745  1.00  0.00     0.000 C 
BRANCH  16  17
ATOM     17  C   UNL     1       3.885  10.635   9.463  1.00  0.00     0.000 C 
BRANCH  17  18
ATOM     18  C   UNL     1       3.866   9.958  10.842  1.00  0.00     0.000 C 
BRANCH  18  19
ATOM     19  C   UNL     1       4.862   8.792  10.896  1.00  0.00     0.000 C 
BRANCH  19  20
ATOM     20  C   UNL     1       5.494   8.544   9.518  1.00  0.00     0.006 C 
BRANCH  20  21
ATOM     21  C   UNL     1       7.014   8.351   9.600  1.00  0.00     0.053 C 
BRANCH  21  22
ATOM     22  C   UNL     1       7.566   7.708   8.364  1.00  0.00     0.041 C 
ATOM     23  O   UNL     1       8.006   6.529   8.404  1.00  0.00    -0.550 OA
ATOM     24  O   UNL     1       7.613   8.421   7.172  1.00  0.00    -0.550 OA
ENDBRANCH  21  22
ENDBRANCH  20  21
ENDBRANCH  19  20
ENDBRANCH  18  19
ENDBRANCH  17  18
ENDBRANCH  16  17
ENDBRANCH  15  16
ENDBRANCH  14  15
ENDBRANCH  13  14
ENDBRANCH   1  13
TORSDOF 20
ENDMDL
MODEL 9
REMARK VINA RESULT:    -3.130      2.210      6.034
REMARK INTER + INTRA:         -10.463
REMARK INTER:                  -6.962
REMARK INTRA:                  -3.501
REMARK UNBOUND:                -3.674
REMARK SMILES CCCCCCCCCCCCCCCCCCCCCC(=O)[O-]
REMARK SMILES IDX 12 1 11 2 10 3 9 4 8 5 7 6 6 7 5 8 4 9 3 10 2 11 1 12 13 13
REMARK SMILES IDX 14 14 15 15 16 16 17 17 18 18 19 19 20 20 21 21 22 22 23 23
REMARK SMILES IDX 24 24
REMARK H PARENT
REMARK Flexibility Score: inf
ROOT
ATOM      1  C   UNL     1       1.077   2.874  11.391  1.00  0.00     0.000 C 
ENDROOT
BRANCH   1   2
ATOM      2  C   UNL     1       2.078   2.066  10.553  1.00  0.00     0.000 C 
BRANCH   2   3
ATOM      3  C   UNL     1       2.773   0.964  11.370  1.00  0.00     0.000 C 
BRANCH   3   4
ATOM      4  C   UNL     1       3.171   1.437  12.778  1.00  0.00    -0.000 C 
BRANCH   4   5
ATOM      5  C   UNL     1       4.627   1.927  12.842  1.00  0.00    -0.000 C 
BRANCH   5   6
ATOM      6  C   UNL     1       4.733   3.460  12.928  1.00  0.00    -0.000 C 
BRANCH   6   7
ATOM      7  C   UNL     1       5.680   4.040  11.856  1.00  0.00    -0.000 C 
BRANCH   7   8
ATOM      8  C   UNL     1       4.946   4.655  10.646  1.00  0.00    -0.000 C 
BRANCH   8   9
ATOM      9  C   UNL     1       5.144   6.170  10.466  1.00  0.00    -0.000 C 
BRANCH   9  10
ATOM     10  C   UNL     1       4.548   6.990  11.623  1.00  0.00    -0.000 C 
BRANCH  10  11
ATOM     11  C   UNL     1       5.497   8.096  12.111  1.00  0.00    -0.003 C 
ATOM     12  C   UNL     1       6.911   7.959  11.547  1.00  0.00     0.004 C 
ENDBRANCH  10  11
ENDBRANCH   9  10
ENDBRANCH   8   9
ENDBRANCH   7   8
ENDBRANCH   6   7
ENDBRANCH   5   6
ENDBRANCH   4   5
ENDBRANCH   3   4
ENDBRANCH   2   3
ENDBRANCH   1   2
BRANCH   1  13
ATOM     13  C   UNL     1       1.469   4.355  11.440  1.00  0.00     0.000 C 
BRANCH  13  14
ATOM     14  C   UNL     1       1.296   5.017  10.064  1.00  0.00     0.000 C 
BRANCH  14  15
ATOM     15  C   UNL     1       1.264   6.552  10.138  1.00  0.00     0.000 C 
BRANCH  15  16
ATOM     16  C   UNL     1       1.904   7.222   8.909  1.00  0.00     0.000 C 
BRANCH  16  17
ATOM     17  C   UNL     1       1.149   8.488   8.471  1.00  0.00     0.000 C 
BRANCH  17  18
ATOM     18  C   UNL     1       2.061   9.722   8.409  1.00  0.00     0.000 C 
BRANCH  18  19
ATOM     19  C   UNL     1       2.880   9.867   9.697  1.00  0.00     0.000 C 
BRANCH  19  20
ATOM     20  C   UNL     1       4.320  10.303   9.389  1.00  0.00     0.006 C 
BRANCH  20  21
ATOM     21  C   UNL     1       5.031   9.334   8.436  1.00  0.00     0.053 C 
BRANCH  21  22
ATOM     22  C   UNL     1       5.608  10.039   7.246  1.00  0.00     0.041 C 
ATOM     23  O   UNL     1       6.843   9.971   7.005  1.00  0.00    -0.550 OA
ATOM     24  O   UNL     1       4.783  10.789   6.416  1.00  0.00    -0.550 OA
ENDBRANCH  21  22
ENDBRANCH  20  21
ENDBRANCH  19  20
ENDBRANCH  18  19
ENDBRANCH  17  18
ENDBRANCH  16  17
ENDBRANCH  15  16
ENDBRANCH  14  15
ENDBRANCH  13  14
ENDBRANCH   1  13
TORSDOF 20
ENDMDL
