MODEL 1
REMARK VINA RESULT:    -5.279      0.000      0.000
REMARK INTER + INTRA:         -12.065
REMARK INTER:                  -9.599
REMARK INTRA:                  -2.466
REMARK UNBOUND:                -2.466
REMARK SMILES CCCCCCCCCCCCCCCC(=O)[O-]
REMARK SMILES IDX 9 1 10 2 11 3 12 4 13 5 14 6 15 7 16 8 17 9 18 10 8 11 7 12
REMARK SMILES IDX 6 13 5 14 4 15 3 16 2 17 1 18
REMARK H PARENT
REMARK Flexibility Score: inf
ROOT
ATOM      1  C   UNL     1      17.312  -7.125  36.437  1.00  0.00     0.000 C 
ENDROOT
BRANCH   1   2
ATOM      2  C   UNL     1      17.300  -5.616  36.738  1.00  0.00     0.000 C 
BRANCH   2   3
ATOM      3  C   UNL     1      16.005  -4.929  36.275  1.00  0.00     0.000 C 
BRANCH   3   4
ATOM      4  C   UNL     1      15.247  -5.753  35.220  1.00  0.00     0.000 C 
BRANCH   4   5
ATOM      5  C   UNL     1      15.538  -5.297  33.779  1.00  0.00     0.000 C 
BRANCH   5   6
ATOM      6  C   UNL     1      15.698  -6.430  32.747  1.00  0.00     0.006 C 
BRANCH   6   7
ATOM      7  C   UNL     1      15.209  -7.805  33.239  1.00  0.00     0.053 C 
BRANCH   7   8
ATOM      8  C   UNL     1      15.494  -8.903  32.258  1.00  0.00     0.041 C 
ATOM      9  O   UNL     1      14.605  -9.752  31.980  1.00  0.00    -0.550 OA
ATOM     10  O   UNL     1      16.753  -9.016  31.684  1.00  0.00    -0.550 OA
ENDBRANCH   7   8
ENDBRANCH   6   7
ENDBRANCH   5   6
ENDBRANCH   4   5
ENDBRANCH   3   4
ENDBRANCH   2   3
ENDBRANCH   1   2
BRANCH   1  11
ATOM     11  C   UNL     1      18.264  -7.490  35.286  1.00  0.00     0.000 C 
BRANCH  11  12
ATOM     12  C   UNL     1      19.217  -6.341  34.923  1.00  0.00    -0.000 C 
BRANCH  12  13
ATOM     13  C   UNL     1      19.253  -6.116  33.406  1.00  0.00    -0.000 C 
BRANCH  13  14
ATOM     14  C   UNL     1      18.903  -4.661  33.057  1.00  0.00    -0.000 C 
BRANCH  14  15
ATOM     15  C   UNL     1      19.220  -3.683  34.200  1.00  0.00    -0.000 C 
BRANCH  15  16
ATOM     16  C   UNL     1      18.161  -2.577  34.341  1.00  0.00    -0.000 C 
BRANCH  16  17
ATOM     17  C   UNL     1      18.083  -2.016  35.769  1.00  0.00    -0.003 C 
ATOM     18  C   UNL     1      18.794  -0.672  35.919  1.00  0.00     0.004 C 
ENDBRANCH  16  17
ENDBRANCH  15  16
ENDBRANCH  14  15
ENDBRANCH  13  14
ENDBRANCH  12  13
ENDBRANCH  11  12
ENDBRANCH   1  11
TORSDOF 14
ENDMDL
MODEL 2
REMARK VINA RESULT:    -5.130      3.625      6.376
REMARK INTER + INTRA:         -11.794
REMARK INTER:                  -9.969
REMARK INTRA:                  -1.826
REMARK UNBOUND:                -2.466
REMARK SMILES CCCCCCCCCCCCCCCC(=O)[O-]
REMARK SMILES IDX 9 1 10 2 11 3 12 4 13 5 14 6 15 7 16 8 17 9 18 10 8 11 7 12
REMARK SMILES IDX 6 13 5 14 4 15 3 16 2 17 1 18
REMARK H PARENT
REMARK Flexibility Score: inf
ROOT
ATOM      1  C   UNL     1      17.084  -4.839  32.556  1.00  0.00     0.000 C 
ENDROOT
BRANCH   1   2
ATOM      2  C   UNL     1      16.173  -4.167  33.598  1.00  0.00     0.000 C 
BRANCH   2   3
ATOM      3  C   UNL     1      15.454  -5.182  34.500  1.00  0.00     0.000 C 
BRANCH   3   4
ATOM      4  C   UNL     1      15.562  -4.825  35.992  1.00  0.00     0.000 C 
BRANCH   4   5
ATOM      5  C   UNL     1      16.994  -4.454  36.419  1.00  0.00     0.000 C 
BRANCH   5   6
ATOM      6  C   UNL     1      17.243  -2.953  36.663  1.00  0.00     0.006 C 
BRANCH   6   7
ATOM      7  C   UNL     1      18.399  -2.363  35.833  1.00  0.00     0.053 C 
BRANCH   7   8
ATOM      8  C   UNL     1      18.585  -0.893  36.065  1.00  0.00     0.041 C 
ATOM      9  O   UNL     1      19.500  -0.481  36.827  1.00  0.00    -0.550 OA
ATOM     10  O   UNL     1      17.721   0.021  35.475  1.00  0.00    -0.550 OA
ENDBRANCH   7   8
ENDBRANCH   6   7
ENDBRANCH   5   6
ENDBRANCH   4   5
ENDBRANCH   3   4
ENDBRANCH   2   3
ENDBRANCH   1   2
BRANCH   1  11
ATOM     11  C   UNL     1      18.577  -4.674  32.883  1.00  0.00     0.000 C 
BRANCH  11  12
ATOM     12  C   UNL     1      19.288  -6.019  33.090  1.00  0.00    -0.000 C 
BRANCH  12  13
ATOM     13  C   UNL     1      18.994  -6.587  34.484  1.00  0.00    -0.000 C 
BRANCH  13  14
ATOM     14  C   UNL     1      18.152  -7.868  34.390  1.00  0.00    -0.000 C 
BRANCH  14  15
ATOM     15  C   UNL     1      17.743  -8.207  32.947  1.00  0.00    -0.000 C 
BRANCH  15  16
ATOM     16  C   UNL     1      16.219  -8.318  32.776  1.00  0.00    -0.000 C 
BRANCH  16  17
ATOM     17  C   UNL     1      15.821  -8.926  31.422  1.00  0.00    -0.003 C 
ATOM     18  C   UNL     1      14.688  -9.945  31.539  1.00  0.00     0.004 C 
ENDBRANCH  16  17
ENDBRANCH  15  16
ENDBRANCH  14  15
ENDBRANCH  13  14
ENDBRANCH  12  13
ENDBRANCH  11  12
ENDBRANCH   1  11
TORSDOF 14
ENDMDL
MODEL 3
REMARK VINA RESULT:    -5.061     19.129     20.837
REMARK INTER + INTRA:         -11.669
REMARK INTER:                  -9.282
REMARK INTRA:                  -2.387
REMARK UNBOUND:                -2.466
REMARK SMILES CCCCCCCCCCCCCCCC(=O)[O-]
REMARK SMILES IDX 9 1 10 2 11 3 12 4 13 5 14 6 15 7 16 8 17 9 18 10 8 11 7 12
REMARK SMILES IDX 6 13 5 14 4 15 3 16 2 17 1 18
REMARK H PARENT
REMARK Flexibility Score: inf
ROOT
ATOM      1  C   UNL     1       8.659   7.431  18.177  1.00  0.00     0.000 C 
ENDROOT
BRANCH   1   2
ATOM      2  C   UNL     1       8.071   6.011  18.113  1.00  0.00     0.000 C 
BRANCH   2   3
ATOM      3  C   UNL     1       7.991   5.340  19.493  1.00  0.00     0.000 C 
BRANCH   3   4
ATOM      4  C   UNL     1       8.304   6.315  20.641  1.00  0.00     0.000 C 
BRANCH   4   5
ATOM      5  C   UNL     1       9.724   6.139  21.207  1.00  0.00     0.000 C 
BRANCH   5   6
ATOM      6  C   UNL     1      10.534   7.439  21.380  1.00  0.00     0.006 C 
BRANCH   6   7
ATOM      7  C   UNL     1      12.047   7.220  21.561  1.00  0.00     0.053 C 
BRANCH   7   8
ATOM      8  C   UNL     1      12.838   8.482  21.385  1.00  0.00     0.041 C 
ATOM      9  O   UNL     1      12.742   9.414  22.228  1.00  0.00    -0.550 OA
ATOM     10  O   UNL     1      13.649   8.647  20.270  1.00  0.00    -0.550 OA
ENDBRANCH   7   8
ENDBRANCH   6   7
ENDBRANCH   5   6
ENDBRANCH   4   5
ENDBRANCH   3   4
ENDBRANCH   2   3
ENDBRANCH   1   2
BRANCH   1  11
ATOM     11  C   UNL     1      10.104   7.496  17.654  1.00  0.00     0.000 C 
BRANCH  11  12
ATOM     12  C   UNL     1      10.708   6.104  17.418  1.00  0.00    -0.000 C 
BRANCH  12  13
ATOM     13  C   UNL     1      12.061   5.964  18.127  1.00  0.00    -0.000 C 
BRANCH  13  14
ATOM     14  C   UNL     1      12.151   4.630  18.883  1.00  0.00    -0.000 C 
BRANCH  14  15
ATOM     15  C   UNL     1      11.105   3.607  18.412  1.00  0.00    -0.000 C 
BRANCH  15  16
ATOM     16  C   UNL     1      10.366   2.936  19.583  1.00  0.00    -0.000 C 
BRANCH  16  17
ATOM     17  C   UNL     1       9.260   1.980  19.110  1.00  0.00    -0.003 C 
ATOM     18  C   UNL     1       9.237   1.804  17.592  1.00  0.00     0.004 C 
ENDBRANCH  16  17
ENDBRANCH  15  16
ENDBRANCH  14  15
ENDBRANCH  13  14
ENDBRANCH  12  13
ENDBRANCH  11  12
ENDBRANCH   1  11
TORSDOF 14
ENDMDL
MODEL 4
REMARK VINA RESULT:    -5.058      1.228      2.528
REMARK INTER + INTRA:         -11.665
REMARK INTER:                  -9.331
REMARK INTRA:                  -2.334
REMARK UNBOUND:                -2.466
REMARK SMILES CCCCCCCCCCCCCCCC(=O)[O-]
REMARK SMILES IDX 9 1 10 2 11 3 12 4 13 5 14 6 15 7 16 8 17 9 18 10 8 11 7 12
REMARK SMILES IDX 6 13 5 14 4 15 3 16 2 17 1 18
REMARK H PARENT
REMARK Flexibility Score: inf
ROOT
ATOM      1  C   UNL     1      16.946  -5.247  36.733  1.00  0.00     0.000 C 
ENDROOT
BRANCH   1   2
ATOM      2  C   UNL     1      17.743  -6.511  37.098  1.00  0.00     0.000 C 
BRANCH   2   3
ATOM      3  C   UNL     1      17.875  -7.489  35.920  1.00  0.00     0.000 C 
BRANCH   3   4
ATOM      4  C   UNL     1      19.046  -7.134  34.988  1.00  0.00     0.000 C 
BRANCH   4   5
ATOM      5  C   UNL     1      18.625  -7.018  33.513  1.00  0.00     0.000 C 
BRANCH   5   6
ATOM      6  C   UNL     1      17.770  -8.183  32.975  1.00  0.00     0.006 C 
BRANCH   6   7
ATOM      7  C   UNL     1      16.467  -7.740  32.285  1.00  0.00     0.053 C 
BRANCH   7   8
ATOM      8  C   UNL     1      15.262  -8.462  32.810  1.00  0.00     0.041 C 
ATOM      9  O   UNL     1      14.623  -8.000  33.794  1.00  0.00    -0.550 OA
ATOM     10  O   UNL     1      14.868  -9.667  32.243  1.00  0.00    -0.550 OA
ENDBRANCH   7   8
ENDBRANCH   6   7
ENDBRANCH   5   6
ENDBRANCH   4   5
ENDBRANCH   3   4
ENDBRANCH   2   3
ENDBRANCH   1   2
BRANCH   1  11
ATOM     11  C   UNL     1      15.718  -5.554  35.860  1.00  0.00     0.000 C 
BRANCH  11  12
ATOM     12  C   UNL     1      15.350  -4.390  34.928  1.00  0.00    -0.000 C 
BRANCH  12  13
ATOM     13  C   UNL     1      16.252  -4.372  33.688  1.00  0.00    -0.000 C 
BRANCH  13  14
ATOM     14  C   UNL     1      17.141  -3.119  33.672  1.00  0.00    -0.000 C 
BRANCH  14  15
ATOM     15  C   UNL     1      18.631  -3.445  33.868  1.00  0.00    -0.000 C 
BRANCH  15  16
ATOM     16  C   UNL     1      19.176  -2.930  35.211  1.00  0.00    -0.000 C 
BRANCH  16  17
ATOM     17  C   UNL     1      18.281  -1.848  35.833  1.00  0.00    -0.003 C 
ATOM     18  C   UNL     1      19.004  -0.515  36.021  1.00  0.00     0.004 C 
ENDBRANCH  16  17
ENDBRANCH  15  16
ENDBRANCH  14  15
ENDBRANCH  13  14
ENDBRANCH  12  13
ENDBRANCH  11  12
ENDBRANCH   1  11
TORSDOF 14
ENDMDL
MODEL 5
REMARK VINA RESULT:    -5.010     18.849     20.654
REMARK INTER + INTRA:         -11.577
REMARK INTER:                  -9.484
REMARK INTRA:                  -2.093
REMARK UNBOUND:                -2.466
REMARK SMILES CCCCCCCCCCCCCCCC(=O)[O-]
REMARK SMILES IDX 9 1 10 2 11 3 12 4 13 5 14 6 15 7 16 8 17 9 18 10 8 11 7 12
REMARK SMILES IDX 6 13 5 14 4 15 3 16 2 17 1 18
REMARK H PARENT
REMARK Flexibility Score: inf
ROOT
ATOM      1  C   UNL     1       8.315   5.989  20.478  1.00  0.00     0.000 C 
ENDROOT
BRANCH   1   2
ATOM      2  C   UNL     1       8.029   5.582  19.021  1.00  0.00     0.000 C 
BRANCH   2   3
ATOM      3  C   UNL     1       8.413   6.677  18.014  1.00  0.00     0.000 C 
BRANCH   3   4
ATOM      4  C   UNL     1       9.826   6.481  17.441  1.00  0.00     0.000 C 
BRANCH   4   5
ATOM      5  C   UNL     1      10.850   7.476  18.015  1.00  0.00     0.000 C 
BRANCH   5   6
ATOM      6  C   UNL     1      11.942   6.859  18.911  1.00  0.00     0.006 C 
BRANCH   6   7
ATOM      7  C   UNL     1      12.751   7.892  19.718  1.00  0.00     0.053 C 
BRANCH   7   8
ATOM      8  C   UNL     1      12.261   8.034  21.128  1.00  0.00     0.041 C 
ATOM      9  O   UNL     1      13.071   7.967  22.091  1.00  0.00    -0.550 OA
ATOM     10  O   UNL     1      10.906   8.199  21.382  1.00  0.00    -0.550 OA
ENDBRANCH   7   8
ENDBRANCH   6   7
ENDBRANCH   5   6
ENDBRANCH   4   5
ENDBRANCH   3   4
ENDBRANCH   2   3
ENDBRANCH   1   2
BRANCH   1  11
ATOM     11  C   UNL     1       8.966   4.857  21.290  1.00  0.00     0.000 C 
BRANCH  11  12
ATOM     12  C   UNL     1      10.397   4.548  20.828  1.00  0.00    -0.000 C 
BRANCH  12  13
ATOM     13  C   UNL     1      10.472   3.174  20.151  1.00  0.00    -0.000 C 
BRANCH  13  14
ATOM     14  C   UNL     1      11.032   3.292  18.726  1.00  0.00    -0.000 C 
BRANCH  14  15
ATOM     15  C   UNL     1      10.063   2.758  17.659  1.00  0.00    -0.000 C 
BRANCH  15  16
ATOM     16  C   UNL     1       8.836   2.061  18.272  1.00  0.00    -0.000 C 
BRANCH  16  17
ATOM     17  C   UNL     1       8.531   0.712  17.602  1.00  0.00    -0.003 C 
ATOM     18  C   UNL     1       8.407  -0.434  18.605  1.00  0.00     0.004 C 
ENDBRANCH  16  17
ENDBRANCH  15  16
ENDBRANCH  14  15
ENDBRANCH  13  14
ENDBRANCH  12  13
ENDBRANCH  11  12
ENDBRANCH   1  11
TORSDOF 14
ENDMDL
MODEL 6
REMARK VINA RESULT:    -4.871     18.638     20.470
REMARK INTER + INTRA:         -11.323
REMARK INTER:                  -9.630
REMARK INTRA:                  -1.693
REMARK UNBOUND:                -2.466
REMARK SMILES CCCCCCCCCCCCCCCC(=O)[O-]
REMARK SMILES IDX 9 1 10 2 11 3 12 4 13 5 14 6 15 7 16 8 17 9 18 10 8 11 7 12
REMARK SMILES IDX 6 13 5 14 4 15 3 16 2 17 1 18
REMARK H PARENT
REMARK Flexibility Score: inf
ROOT
ATOM      1  C   UNL     1       7.594   5.517  20.578  1.00  0.00     0.000 C 
ENDROOT
BRANCH   1   2
ATOM      2  C   UNL     1       8.900   5.615  21.387  1.00  0.00     0.000 C 
BRANCH   2   3
ATOM      3  C   UNL     1       9.757   4.344  21.286  1.00  0.00     0.000 C 
BRANCH   3   4
ATOM      4  C   UNL     1      11.251   4.655  21.096  1.00  0.00     0.000 C 
BRANCH   4   5
ATOM      5  C   UNL     1      11.606   6.117  21.417  1.00  0.00     0.000 C 
BRANCH   5   6
ATOM      6  C   UNL     1      11.804   7.035  20.195  1.00  0.00     0.006 C 
BRANCH   6   7
ATOM      7  C   UNL     1      12.908   8.093  20.374  1.00  0.00     0.053 C 
BRANCH   7   8
ATOM      8  C   UNL     1      12.857   8.759  21.716  1.00  0.00     0.041 C 
ATOM      9  O   UNL     1      13.789   8.590  22.546  1.00  0.00    -0.550 OA
ATOM     10  O   UNL     1      11.758   9.533  22.069  1.00  0.00    -0.550 OA
ENDBRANCH   7   8
ENDBRANCH   6   7
ENDBRANCH   5   6
ENDBRANCH   4   5
ENDBRANCH   3   4
ENDBRANCH   2   3
ENDBRANCH   1   2
BRANCH   1  11
ATOM     11  C   UNL     1       7.820   4.981  19.155  1.00  0.00     0.000 C 
BRANCH  11  12
ATOM     12  C   UNL     1       8.264   6.078  18.176  1.00  0.00    -0.000 C 
BRANCH  12  13
ATOM     13  C   UNL     1       9.250   5.524  17.140  1.00  0.00    -0.000 C 
BRANCH  13  14
ATOM     14  C   UNL     1      10.289   4.608  17.804  1.00  0.00    -0.000 C 
BRANCH  14  15
ATOM     15  C   UNL     1      10.213   3.159  17.299  1.00  0.00    -0.000 C 
BRANCH  15  16
ATOM     16  C   UNL     1       9.936   2.153  18.430  1.00  0.00    -0.000 C 
BRANCH  16  17
ATOM     17  C   UNL     1       8.507   1.593  18.381  1.00  0.00    -0.003 C 
ATOM     18  C   UNL     1       8.429   0.125  18.801  1.00  0.00     0.004 C 
ENDBRANCH  16  17
ENDBRANCH  15  16
ENDBRANCH  14  15
ENDBRANCH  13  14
ENDBRANCH  12  13
ENDBRANCH  11  12
ENDBRANCH   1  11
TORSDOF 14
ENDMDL
MODEL 7
REMARK VINA RESULT:    -4.828     14.004     15.413
REMARK INTER + INTRA:         -11.246
REMARK INTER:                 -10.017
REMARK INTRA:                  -1.229
REMARK UNBOUND:                -2.466
REMARK SMILES CCCCCCCCCCCCCCCC(=O)[O-]
REMARK SMILES IDX 9 1 10 2 11 3 12 4 13 5 14 6 15 7 16 8 17 9 18 10 8 11 7 12
REMARK SMILES IDX 6 13 5 14 4 15 3 16 2 17 1 18
REMARK H PARENT
REMARK Flexibility Score: inf
ROOT
ATOM      1  C   UNL     1      11.558   0.367  24.169  1.00  0.00     0.000 C 
ENDROOT
BRANCH   1   2
ATOM      2  C   UNL     1      10.805   0.772  22.890  1.00  0.00     0.000 C 
BRANCH   2   3
ATOM      3  C   UNL     1      10.983   2.258  22.543  1.00  0.00     0.000 C 
BRANCH   3   4
ATOM      4  C   UNL     1      10.264   2.649  21.241  1.00  0.00     0.000 C 
BRANCH   4   5
ATOM      5  C   UNL     1      10.250   4.168  20.996  1.00  0.00     0.000 C 
BRANCH   5   6
ATOM      6  C   UNL     1      11.627   4.858  21.033  1.00  0.00     0.006 C 
BRANCH   6   7
ATOM      7  C   UNL     1      11.622   6.240  21.713  1.00  0.00     0.053 C 
BRANCH   7   8
ATOM      8  C   UNL     1      10.629   7.181  21.098  1.00  0.00     0.041 C 
ATOM      9  O   UNL     1       9.693   7.659  21.794  1.00  0.00    -0.550 OA
ATOM     10  O   UNL     1      10.710   7.497  19.748  1.00  0.00    -0.550 OA
ENDBRANCH   7   8
ENDBRANCH   6   7
ENDBRANCH   5   6
ENDBRANCH   4   5
ENDBRANCH   3   4
ENDBRANCH   2   3
ENDBRANCH   1   2
BRANCH   1  11
ATOM     11  C   UNL     1      10.653   0.364  25.412  1.00  0.00     0.000 C 
BRANCH  11  12
ATOM     12  C   UNL     1      11.303  -0.337  26.614  1.00  0.00    -0.000 C 
BRANCH  12  13
ATOM     13  C   UNL     1      12.481  -1.211  26.168  1.00  0.00    -0.000 C 
BRANCH  13  14
ATOM     14  C   UNL     1      13.749  -0.877  26.969  1.00  0.00    -0.000 C 
BRANCH  14  15
ATOM     15  C   UNL     1      13.594   0.389  27.826  1.00  0.00    -0.000 C 
BRANCH  15  16
ATOM     16  C   UNL     1      14.562   1.509  27.406  1.00  0.00    -0.000 C 
BRANCH  16  17
ATOM     17  C   UNL     1      14.357   1.947  25.948  1.00  0.00    -0.003 C 
ATOM     18  C   UNL     1      15.648   1.910  25.130  1.00  0.00     0.004 C 
ENDBRANCH  16  17
ENDBRANCH  15  16
ENDBRANCH  14  15
ENDBRANCH  13  14
ENDBRANCH  12  13
ENDBRANCH  11  12
ENDBRANCH   1  11
TORSDOF 14
ENDMDL
MODEL 8
REMARK VINA RESULT:    -4.810     18.960     20.293
REMARK INTER + INTRA:         -11.213
REMARK INTER:                  -8.954
REMARK INTRA:                  -2.259
REMARK UNBOUND:                -2.466
REMARK SMILES CCCCCCCCCCCCCCCC(=O)[O-]
REMARK SMILES IDX 9 1 10 2 11 3 12 4 13 5 14 6 15 7 16 8 17 9 18 10 8 11 7 12
REMARK SMILES IDX 6 13 5 14 4 15 3 16 2 17 1 18
REMARK H PARENT
REMARK Flexibility Score: inf
ROOT
ATOM      1  C   UNL     1       9.358   7.550  18.180  1.00  0.00     0.000 C 
ENDROOT
BRANCH   1   2
ATOM      2  C   UNL     1       8.374   7.102  17.086  1.00  0.00     0.000 C 
BRANCH   2   3
ATOM      3  C   UNL     1       7.756   5.724  17.373  1.00  0.00     0.000 C 
BRANCH   3   4
ATOM      4  C   UNL     1       7.940   5.290  18.837  1.00  0.00     0.000 C 
BRANCH   4   5
ATOM      5  C   UNL     1       7.724   3.781  19.047  1.00  0.00     0.000 C 
BRANCH   5   6
ATOM      6  C   UNL     1       9.009   2.935  19.137  1.00  0.00     0.006 C 
BRANCH   6   7
ATOM      7  C   UNL     1       9.252   2.027  17.917  1.00  0.00     0.053 C 
BRANCH   7   8
ATOM      8  C   UNL     1       8.517   0.723  18.013  1.00  0.00     0.041 C 
ATOM      9  O   UNL     1       7.842   0.301  17.036  1.00  0.00    -0.550 OA
ATOM     10  O   UNL     1       8.541  -0.006  19.195  1.00  0.00    -0.550 OA
ENDBRANCH   7   8
ENDBRANCH   6   7
ENDBRANCH   5   6
ENDBRANCH   4   5
ENDBRANCH   3   4
ENDBRANCH   2   3
ENDBRANCH   1   2
BRANCH   1  11
ATOM     11  C   UNL     1      10.826   7.431  17.739  1.00  0.00     0.000 C 
BRANCH  11  12
ATOM     12  C   UNL     1      11.315   5.975  17.703  1.00  0.00    -0.000 C 
BRANCH  12  13
ATOM     13  C   UNL     1      12.358   5.718  18.797  1.00  0.00    -0.000 C 
BRANCH  13  14
ATOM     14  C   UNL     1      11.791   4.804  19.894  1.00  0.00    -0.000 C 
BRANCH  14  15
ATOM     15  C   UNL     1      11.605   5.530  21.236  1.00  0.00    -0.000 C 
BRANCH  15  16
ATOM     16  C   UNL     1      10.144   5.936  21.492  1.00  0.00    -0.000 C 
BRANCH  16  17
ATOM     17  C   UNL     1       9.972   7.456  21.633  1.00  0.00    -0.003 C 
ATOM     18  C   UNL     1      11.270   8.226  21.391  1.00  0.00     0.004 C 
ENDBRANCH  16  17
ENDBRANCH  15  16
ENDBRANCH  14  15
ENDBRANCH  13  14
ENDBRANCH  12  13
ENDBRANCH  11  12
ENDBRANCH   1  11
TORSDOF 14
ENDMDL
MODEL 9
REMARK VINA RESULT:    -4.715     18.995     20.668
REMARK INTER + INTRA:         -11.040
REMARK INTER:                  -9.219
REMARK INTRA:                  -1.820
REMARK UNBOUND:                -2.466
REMARK SMILES CCCCCCCCCCCCCCCC(=O)[O-]
REMARK SMILES IDX 9 1 10 2 11 3 12 4 13 5 14 6 15 7 16 8 17 9 18 10 8 11 7 12
REMARK SMILES IDX 6 13 5 14 4 15 3 16 2 17 1 18
REMARK H PARENT
REMARK Flexibility Score: inf
ROOT
ATOM      1  C   UNL     1      10.190   6.749  21.380  1.00  0.00     0.000 C 
ENDROOT
BRANCH   1   2
ATOM      2  C   UNL     1      11.692   6.724  21.710  1.00  0.00     0.000 C 
BRANCH   2   3
ATOM      3  C   UNL     1      12.467   7.866  21.033  1.00  0.00     0.000 C 
BRANCH   3   4
ATOM      4  C   UNL     1      12.214   7.930  19.517  1.00  0.00     0.000 C 
BRANCH   4   5
ATOM      5  C   UNL     1      12.308   6.554  18.834  1.00  0.00     0.000 C 
BRANCH   5   6
ATOM      6  C   UNL     1      11.188   6.239  17.823  1.00  0.00     0.006 C 
BRANCH   6   7
ATOM      7  C   UNL     1      10.368   7.468  17.388  1.00  0.00     0.053 C 
BRANCH   7   8
ATOM      8  C   UNL     1       8.901   7.306  17.654  1.00  0.00     0.041 C 
ATOM      9  O   UNL     1       8.432   6.178  17.962  1.00  0.00    -0.550 OA
ATOM     10  O   UNL     1       8.044   8.391  17.519  1.00  0.00    -0.550 OA
ENDBRANCH   7   8
ENDBRANCH   6   7
ENDBRANCH   5   6
ENDBRANCH   4   5
ENDBRANCH   3   4
ENDBRANCH   2   3
ENDBRANCH   1   2
BRANCH   1  11
ATOM     11  C   UNL     1       9.599   5.339  21.213  1.00  0.00     0.000 C 
BRANCH  11  12
ATOM     12  C   UNL     1      10.655   4.235  21.367  1.00  0.00    -0.000 C 
BRANCH  12  13
ATOM     13  C   UNL     1      10.274   2.993  20.552  1.00  0.00    -0.000 C 
BRANCH  13  14
ATOM     14  C   UNL     1      10.697   3.146  19.084  1.00  0.00    -0.000 C 
BRANCH  14  15
ATOM     15  C   UNL     1       9.628   2.643  18.101  1.00  0.00    -0.000 C 
BRANCH  15  16
ATOM     16  C   UNL     1       8.243   2.505  18.755  1.00  0.00    -0.000 C 
BRANCH  16  17
ATOM     17  C   UNL     1       7.559   1.173  18.411  1.00  0.00    -0.003 C 
ATOM     18  C   UNL     1       8.436   0.260  17.553  1.00  0.00     0.004 C 
ENDBRANCH  16  17
ENDBRANCH  15  16
ENDBRANCH  14  15
ENDBRANCH  13  14
ENDBRANCH  12  13
ENDBRANCH  11  12
ENDBRANCH   1  11
TORSDOF 14
ENDMDL
