MODEL 1
REMARK VINA RESULT:    -5.491      0.000      0.000
REMARK INTER + INTRA:          -5.491
REMARK INTER:                  -5.491
REMARK INTRA:                   0.000
REMARK UNBOUND:                 0.000
REMARK SMILES CC1(C)C(=O)[C@]2(C)CC[C@H]1C2
REMARK SMILES IDX 1 1 2 2 10 3 9 4 8 5 6 6 11 7 4 8 5 9 7 10 3 11
REMARK H PARENT
REMARK Flexibility Score: inf
ROOT
ATOM      1  C   UNL     1     121.206 117.530 118.935  1.00  0.00     0.020 C 
ATOM      2  C   UNL     1     120.320 118.774 119.164  1.00  0.00     0.027 C 
ATOM      3  C   UNL     1     119.782 119.435 117.844  1.00  0.00     0.003 C 
ATOM      4  C   UNL     1     119.172 118.372 116.894  1.00  0.00     0.005 C 
ATOM      5  C   UNL     1     117.902 117.917 117.648  1.00  0.00     0.015 C 
ATOM      6  C   UNL     1     117.892 118.844 118.879  1.00  0.00     0.027 C 
ATOM      7  C   UNL     1     118.494 120.113 118.309  1.00  0.00     0.019 C 
ATOM      8  C   UNL     1     119.006 118.406 119.789  1.00  0.00     0.144 C 
ATOM      9  O   UNL     1     118.867 117.783 120.832  1.00  0.00    -0.298 OA
ATOM     10  C   UNL     1     116.530 119.027 119.550  1.00  0.00     0.020 C 
ATOM     11  C   UNL     1     121.089 119.789 120.036  1.00  0.00     0.020 C 
ENDROOT
TORSDOF 0
ENDMDL
MODEL 2
REMARK VINA RESULT:    -5.488      1.332      2.268
REMARK INTER + INTRA:          -5.488
REMARK INTER:                  -5.488
REMARK INTRA:                   0.000
REMARK UNBOUND:                 0.000
REMARK SMILES CC1(C)C(=O)[C@]2(C)CC[C@H]1C2
REMARK SMILES IDX 1 1 2 2 10 3 9 4 8 5 6 6 11 7 4 8 5 9 7 10 3 11
REMARK H PARENT
REMARK Flexibility Score: inf
ROOT
ATOM      1  C   UNL     1     120.119 121.206 118.898  1.00  0.00     0.020 C 
ATOM      2  C   UNL     1     118.878 120.318 119.140  1.00  0.00     0.027 C 
ATOM      3  C   UNL     1     118.224 119.752 117.828  1.00  0.00     0.003 C 
ATOM      4  C   UNL     1     119.293 119.129 116.895  1.00  0.00     0.005 C 
ATOM      5  C   UNL     1     119.752 117.876 117.674  1.00  0.00     0.015 C 
ATOM      6  C   UNL     1     118.820 117.885 118.902  1.00  0.00     0.027 C 
ATOM      7  C   UNL     1     117.550 118.470 118.317  1.00  0.00     0.019 C 
ATOM      8  C   UNL     1     119.250 119.019 119.792  1.00  0.00     0.144 C 
ATOM      9  O   UNL     1     119.870 118.903 120.839  1.00  0.00    -0.298 OA
ATOM     10  C   UNL     1     118.641 116.536 119.599  1.00  0.00     0.020 C 
ATOM     11  C   UNL     1     117.857 121.100 119.993  1.00  0.00     0.020 C 
ENDROOT
TORSDOF 0
ENDMDL
MODEL 3
REMARK VINA RESULT:    -5.480      1.334      2.255
REMARK INTER + INTRA:          -5.480
REMARK INTER:                  -5.480
REMARK INTRA:                   0.000
REMARK UNBOUND:                 0.000
REMARK SMILES CC1(C)C(=O)[C@]2(C)CC[C@H]1C2
REMARK SMILES IDX 1 1 2 2 10 3 9 4 8 5 6 6 11 7 4 8 5 9 7 10 3 11
REMARK H PARENT
REMARK Flexibility Score: inf
ROOT
ATOM      1  C   UNL     1     117.518 116.415 118.938  1.00  0.00     0.020 C 
ATOM      2  C   UNL     1     118.746 117.322 119.171  1.00  0.00     0.027 C 
ATOM      3  C   UNL     1     119.404 117.869 117.854  1.00  0.00     0.003 C 
ATOM      4  C   UNL     1     118.336 118.461 116.899  1.00  0.00     0.005 C 
ATOM      5  C   UNL     1     117.856 119.724 117.650  1.00  0.00     0.015 C 
ATOM      6  C   UNL     1     118.778 119.750 118.885  1.00  0.00     0.027 C 
ATOM      7  C   UNL     1     120.059 119.169 118.322  1.00  0.00     0.019 C 
ATOM      8  C   UNL     1     118.354 118.630 119.794  1.00  0.00     0.144 C 
ATOM      9  O   UNL     1     117.724 118.758 120.834  1.00  0.00    -0.298 OA
ATOM     10  C   UNL     1     118.935 121.116 119.556  1.00  0.00     0.020 C 
ATOM     11  C   UNL     1     119.770 116.570 120.048  1.00  0.00     0.020 C 
ENDROOT
TORSDOF 0
ENDMDL
MODEL 4
REMARK VINA RESULT:    -5.477      1.122      3.209
REMARK INTER + INTRA:          -5.477
REMARK INTER:                  -5.477
REMARK INTRA:                   0.000
REMARK UNBOUND:                 0.000
REMARK SMILES CC1(C)C(=O)[C@]2(C)CC[C@H]1C2
REMARK SMILES IDX 1 1 2 2 10 3 9 4 8 5 6 6 11 7 4 8 5 9 7 10 3 11
REMARK H PARENT
REMARK Flexibility Score: inf
ROOT
ATOM      1  C   UNL     1     116.409 120.116 118.888  1.00  0.00     0.020 C 
ATOM      2  C   UNL     1     117.291 118.877 119.154  1.00  0.00     0.027 C 
ATOM      3  C   UNL     1     117.842 118.185 117.856  1.00  0.00     0.003 C 
ATOM      4  C   UNL     1     118.463 119.226 116.889  1.00  0.00     0.005 C 
ATOM      5  C   UNL     1     119.726 119.697 117.646  1.00  0.00     0.015 C 
ATOM      6  C   UNL     1     119.721 118.797 118.898  1.00  0.00     0.027 C 
ATOM      7  C   UNL     1     119.124 117.517 118.351  1.00  0.00     0.019 C 
ATOM      8  C   UNL     1     118.598 119.257 119.785  1.00  0.00     0.144 C 
ATOM      9  O   UNL     1     118.726 119.904 120.815  1.00  0.00    -0.298 OA
ATOM     10  C   UNL     1     121.076 118.628 119.588  1.00  0.00     0.020 C 
ATOM     11  C   UNL     1     116.510 117.883 120.041  1.00  0.00     0.020 C 
ENDROOT
TORSDOF 0
ENDMDL
MODEL 5
REMARK VINA RESULT:    -4.944      1.675      2.730
REMARK INTER + INTRA:          -4.944
REMARK INTER:                  -4.944
REMARK INTRA:                   0.000
REMARK UNBOUND:                 0.000
REMARK SMILES CC1(C)C(=O)[C@]2(C)CC[C@H]1C2
REMARK SMILES IDX 1 1 2 2 10 3 9 4 8 5 6 6 11 7 4 8 5 9 7 10 3 11
REMARK H PARENT
REMARK Flexibility Score: inf
ROOT
ATOM      1  C   UNL     1     120.419 117.852 118.095  1.00  0.00     0.020 C 
ATOM      2  C   UNL     1     119.098 118.627 117.895  1.00  0.00     0.027 C 
ATOM      3  C   UNL     1     117.840 117.935 118.533  1.00  0.00     0.003 C 
ATOM      4  C   UNL     1     118.122 117.504 119.995  1.00  0.00     0.005 C 
ATOM      5  C   UNL     1     118.246 118.852 120.741  1.00  0.00     0.015 C 
ATOM      6  C   UNL     1     117.922 119.877 119.636  1.00  0.00     0.027 C 
ATOM      7  C   UNL     1     116.910 119.117 118.803  1.00  0.00     0.019 C 
ATOM      8  C   UNL     1     119.085 119.904 118.684  1.00  0.00     0.144 C 
ATOM      9  O   UNL     1     119.927 120.787 118.616  1.00  0.00    -0.298 OA
ATOM     10  C   UNL     1     117.447 121.244 120.131  1.00  0.00     0.020 C 
ATOM     11  C   UNL     1     118.895 118.898 116.389  1.00  0.00     0.020 C 
ENDROOT
TORSDOF 0
ENDMDL
MODEL 6
REMARK VINA RESULT:    -4.939      1.623      3.018
REMARK INTER + INTRA:          -4.939
REMARK INTER:                  -4.939
REMARK INTRA:                   0.000
REMARK UNBOUND:                 0.000
REMARK SMILES CC1(C)C(=O)[C@]2(C)CC[C@H]1C2
REMARK SMILES IDX 1 1 2 2 10 3 9 4 8 5 6 6 11 7 4 8 5 9 7 10 3 11
REMARK H PARENT
REMARK Flexibility Score: inf
ROOT
ATOM      1  C   UNL     1     118.806 118.600 121.386  1.00  0.00     0.020 C 
ATOM      2  C   UNL     1     117.917 118.629 120.123  1.00  0.00     0.027 C 
ATOM      3  C   UNL     1     117.533 120.073 119.637  1.00  0.00     0.003 C 
ATOM      4  C   UNL     1     118.781 120.991 119.571  1.00  0.00     0.005 C 
ATOM      5  C   UNL     1     119.596 120.391 118.404  1.00  0.00     0.015 C 
ATOM      6  C   UNL     1     118.669 119.273 117.887  1.00  0.00     0.027 C 
ATOM      7  C   UNL     1     117.300 119.871 118.140  1.00  0.00     0.019 C 
ATOM      8  C   UNL     1     118.671 118.170 118.909  1.00  0.00     0.144 C 
ATOM      9  O   UNL     1     119.256 117.102 118.801  1.00  0.00    -0.298 OA
ATOM     10  C   UNL     1     118.918 118.830 116.444  1.00  0.00     0.020 C 
ATOM     11  C   UNL     1     116.665 117.759 120.366  1.00  0.00     0.020 C 
ENDROOT
TORSDOF 0
ENDMDL
MODEL 7
REMARK VINA RESULT:    -4.931      1.338      3.112
REMARK INTER + INTRA:          -4.931
REMARK INTER:                  -4.931
REMARK INTRA:                   0.000
REMARK UNBOUND:                 0.000
REMARK SMILES CC1(C)C(=O)[C@]2(C)CC[C@H]1C2
REMARK SMILES IDX 1 1 2 2 10 3 9 4 8 5 6 6 11 7 4 8 5 9 7 10 3 11
REMARK H PARENT
REMARK Flexibility Score: inf
ROOT
ATOM      1  C   UNL     1     117.847 117.159 118.120  1.00  0.00     0.020 C 
ATOM      2  C   UNL     1     118.553 118.518 117.918  1.00  0.00     0.027 C 
ATOM      3  C   UNL     1     117.805 119.738 118.568  1.00  0.00     0.003 C 
ATOM      4  C   UNL     1     117.402 119.430 120.033  1.00  0.00     0.005 C 
ATOM      5  C   UNL     1     118.761 119.370 120.765  1.00  0.00     0.015 C 
ATOM      6  C   UNL     1     119.759 119.750 119.653  1.00  0.00     0.027 C 
ATOM      7  C   UNL     1     118.942 120.725 118.830  1.00  0.00     0.019 C 
ATOM      8  C   UNL     1     119.835 118.592 118.696  1.00  0.00     0.144 C 
ATOM      9  O   UNL     1     120.759 117.795 118.617  1.00  0.00    -0.298 OA
ATOM     10  C   UNL     1     121.105 120.290 120.137  1.00  0.00     0.020 C 
ATOM     11  C   UNL     1     118.800 118.739 116.411  1.00  0.00     0.020 C 
ENDROOT
TORSDOF 0
ENDMDL
MODEL 8
REMARK VINA RESULT:    -4.929      1.633      2.856
REMARK INTER + INTRA:          -4.929
REMARK INTER:                  -4.929
REMARK INTRA:                   0.000
REMARK UNBOUND:                 0.000
REMARK SMILES CC1(C)C(=O)[C@]2(C)CC[C@H]1C2
REMARK SMILES IDX 1 1 2 2 10 3 9 4 8 5 6 6 11 7 4 8 5 9 7 10 3 11
REMARK H PARENT
REMARK Flexibility Score: inf
ROOT
ATOM      1  C   UNL     1     119.769 120.436 118.110  1.00  0.00     0.020 C 
ATOM      2  C   UNL     1     118.993 119.117 117.896  1.00  0.00     0.027 C 
ATOM      3  C   UNL     1     119.699 117.848 118.496  1.00  0.00     0.003 C 
ATOM      4  C   UNL     1     120.156 118.101 119.956  1.00  0.00     0.005 C 
ATOM      5  C   UNL     1     118.821 118.206 120.727  1.00  0.00     0.015 C 
ATOM      6  C   UNL     1     117.777 117.902 119.635  1.00  0.00     0.027 C 
ATOM      7  C   UNL     1     118.525 116.909 118.768  1.00  0.00     0.019 C 
ATOM      8  C   UNL     1     117.731 119.084 118.707  1.00  0.00     0.144 C 
ATOM      9  O   UNL     1     116.844 119.925 118.672  1.00  0.00    -0.298 OA
ATOM     10  C   UNL     1     116.420 117.413 120.143  1.00  0.00     0.020 C 
ATOM     11  C   UNL     1     118.696 118.944 116.391  1.00  0.00     0.020 C 
ENDROOT
TORSDOF 0
ENDMDL
MODEL 9
REMARK VINA RESULT:    -4.924      1.403      3.236
REMARK INTER + INTRA:          -4.924
REMARK INTER:                  -4.924
REMARK INTRA:                   0.000
REMARK UNBOUND:                 0.000
REMARK SMILES CC1(C)C(=O)[C@]2(C)CC[C@H]1C2
REMARK SMILES IDX 1 1 2 2 10 3 9 4 8 5 6 6 11 7 4 8 5 9 7 10 3 11
REMARK H PARENT
REMARK Flexibility Score: inf
ROOT
ATOM      1  C   UNL     1     117.187 119.755 118.145  1.00  0.00     0.020 C 
ATOM      2  C   UNL     1     118.517 119.001 117.929  1.00  0.00     0.027 C 
ATOM      3  C   UNL     1     119.773 119.716 118.546  1.00  0.00     0.003 C 
ATOM      4  C   UNL     1     119.505 120.149 120.011  1.00  0.00     0.005 C 
ATOM      5  C   UNL     1     119.413 118.803 120.763  1.00  0.00     0.015 C 
ATOM      6  C   UNL     1     119.739 117.779 119.659  1.00  0.00     0.027 C 
ATOM      7  C   UNL     1     120.726 118.551 118.808  1.00  0.00     0.019 C 
ATOM      8  C   UNL     1     118.563 117.728 118.723  1.00  0.00     0.144 C 
ATOM      9  O   UNL     1     117.734 116.831 118.671  1.00  0.00    -0.298 OA
ATOM     10  C   UNL     1     120.243 116.421 120.152  1.00  0.00     0.020 C 
ATOM     11  C   UNL     1     118.703 118.727 116.422  1.00  0.00     0.020 C 
ENDROOT
TORSDOF 0
ENDMDL
