MODEL 1
REMARK VINA RESULT:    -5.993      0.000      0.000
REMARK INTER + INTRA:          -7.022
REMARK INTER:                  -6.869
REMARK INTRA:                  -0.153
REMARK UNBOUND:                -0.153
REMARK SMILES O=C([O-])C=Cc1ccc(O)cc1
REMARK SMILES IDX 6 1 7 2 12 3 8 4 11 5 9 6 5 7 4 8 2 9 1 10 3 11 10 12
REMARK H PARENT 10 13
REMARK Flexibility Score: inf
ROOT
ATOM      1  C   UNL     1      13.411 -12.285  28.802  1.00  0.00    -0.025 A 
ATOM      2  C   UNL     1      12.378 -11.518  28.227  1.00  0.00     0.012 A 
ATOM      3  C   UNL     1      13.945 -11.884  30.039  1.00  0.00     0.012 A 
ATOM      4  C   UNL     1      11.913 -10.365  28.867  1.00  0.00     0.047 A 
ATOM      5  C   UNL     1      13.477 -10.730  30.675  1.00  0.00     0.047 A 
ATOM      6  C   UNL     1      12.461  -9.966  30.089  1.00  0.00     0.115 A 
ENDROOT
BRANCH   1   7
ATOM      7  C   UNL     1      13.934 -13.523  28.171  1.00  0.00     0.010 C 
ATOM      8  C   UNL     1      14.883 -14.295  28.718  1.00  0.00     0.025 C 
BRANCH   8   9
ATOM      9  C   UNL     1      15.363 -15.520  28.062  1.00  0.00     0.064 C 
ATOM     10  O   UNL     1      15.746 -15.474  26.864  1.00  0.00    -0.545 OA
ATOM     11  O   UNL     1      15.400 -16.733  28.742  1.00  0.00    -0.545 OA
ENDBRANCH   8   9
ENDBRANCH   1   7
BRANCH   6  12
ATOM     12  O   UNL     1      11.987  -8.815  30.713  1.00  0.00    -0.508 OA
ATOM     13  H   UNL     1      10.996  -8.666  30.869  1.00  0.00     0.293 HD
ENDBRANCH   6  12
TORSDOF 3
ENDMDL
MODEL 2
REMARK VINA RESULT:    -5.927      0.112      1.401
REMARK INTER + INTRA:          -6.946
REMARK INTER:                  -6.803
REMARK INTRA:                  -0.143
REMARK UNBOUND:                -0.153
REMARK SMILES O=C([O-])C=Cc1ccc(O)cc1
REMARK SMILES IDX 6 1 7 2 12 3 8 4 11 5 9 6 5 7 4 8 2 9 1 10 3 11 10 12
REMARK H PARENT 10 13
REMARK Flexibility Score: inf
ROOT
ATOM      1  C   UNL     1      13.400 -12.343  28.956  1.00  0.00    -0.025 A 
ATOM      2  C   UNL     1      13.881 -11.879  30.197  1.00  0.00     0.012 A 
ATOM      3  C   UNL     1      12.434 -11.582  28.275  1.00  0.00     0.012 A 
ATOM      4  C   UNL     1      13.384 -10.694  30.749  1.00  0.00     0.047 A 
ATOM      5  C   UNL     1      11.940 -10.399  28.831  1.00  0.00     0.047 A 
ATOM      6  C   UNL     1      12.412  -9.953  30.071  1.00  0.00     0.115 A 
ENDROOT
BRANCH   1   7
ATOM      7  C   UNL     1      13.901 -13.588  28.320  1.00  0.00     0.010 C 
ATOM      8  C   UNL     1      14.942 -14.294  28.783  1.00  0.00     0.025 C 
BRANCH   8   9
ATOM      9  C   UNL     1      15.397 -15.529  28.126  1.00  0.00     0.064 C 
ATOM     10  O   UNL     1      15.756 -15.495  26.920  1.00  0.00    -0.545 OA
ATOM     11  O   UNL     1      15.438 -16.736  28.815  1.00  0.00    -0.545 OA
ENDBRANCH   8   9
ENDBRANCH   1   7
BRANCH   6  12
ATOM     12  O   UNL     1      11.927  -8.774  30.635  1.00  0.00    -0.508 OA
ATOM     13  H   UNL     1      11.775  -8.689  31.634  1.00  0.00     0.293 HD
ENDBRANCH   6  12
TORSDOF 3
ENDMDL
MODEL 3
REMARK VINA RESULT:    -5.782      1.388      5.664
REMARK INTER + INTRA:          -6.780
REMARK INTER:                  -6.640
REMARK INTRA:                  -0.140
REMARK UNBOUND:                -0.153
REMARK SMILES O=C([O-])C=Cc1ccc(O)cc1
REMARK SMILES IDX 6 1 7 2 12 3 8 4 11 5 9 6 5 7 4 8 2 9 1 10 3 11 10 12
REMARK H PARENT 10 13
REMARK Flexibility Score: inf
ROOT
ATOM      1  C   UNL     1      13.576 -12.926  28.636  1.00  0.00    -0.025 A 
ATOM      2  C   UNL     1      13.730 -13.664  27.445  1.00  0.00     0.012 A 
ATOM      3  C   UNL     1      14.308 -13.312  29.772  1.00  0.00     0.012 A 
ATOM      4  C   UNL     1      14.577 -14.776  27.407  1.00  0.00     0.047 A 
ATOM      5  C   UNL     1      15.152 -14.425  29.730  1.00  0.00     0.047 A 
ATOM      6  C   UNL     1      15.287 -15.162  28.547  1.00  0.00     0.115 A 
ENDROOT
BRANCH   1   7
ATOM      7  C   UNL     1      12.700 -11.730  28.728  1.00  0.00     0.010 C 
ATOM      8  C   UNL     1      11.705 -11.603  29.617  1.00  0.00     0.025 C 
BRANCH   8   9
ATOM      9  C   UNL     1      10.869 -10.394  29.679  1.00  0.00     0.064 C 
ATOM     10  O   UNL     1      11.378  -9.306  30.055  1.00  0.00    -0.545 OA
ATOM     11  O   UNL     1       9.524 -10.433  29.330  1.00  0.00    -0.545 OA
ENDBRANCH   8   9
ENDBRANCH   1   7
BRANCH   6  12
ATOM     12  O   UNL     1      16.126 -16.273  28.492  1.00  0.00    -0.508 OA
ATOM     13  H   UNL     1      16.142 -16.885  27.684  1.00  0.00     0.293 HD
ENDBRANCH   6  12
TORSDOF 3
ENDMDL
MODEL 4
REMARK VINA RESULT:    -5.736     11.528     14.198
REMARK INTER + INTRA:          -6.727
REMARK INTER:                  -6.593
REMARK INTRA:                  -0.134
REMARK UNBOUND:                -0.153
REMARK SMILES O=C([O-])C=Cc1ccc(O)cc1
REMARK SMILES IDX 6 1 7 2 12 3 8 4 11 5 9 6 5 7 4 8 2 9 1 10 3 11 10 12
REMARK H PARENT 10 13
REMARK Flexibility Score: inf
ROOT
ATOM      1  C   UNL     1      16.763  -0.645  26.216  1.00  0.00    -0.025 A 
ATOM      2  C   UNL     1      16.496  -1.667  27.149  1.00  0.00     0.012 A 
ATOM      3  C   UNL     1      18.012  -0.625  25.571  1.00  0.00     0.012 A 
ATOM      4  C   UNL     1      17.469  -2.627  27.443  1.00  0.00     0.047 A 
ATOM      5  C   UNL     1      18.982  -1.587  25.869  1.00  0.00     0.047 A 
ATOM      6  C   UNL     1      18.713  -2.590  26.809  1.00  0.00     0.115 A 
ENDROOT
BRANCH   1   7
ATOM      7  C   UNL     1      15.763   0.392  25.857  1.00  0.00     0.010 C 
ATOM      8  C   UNL     1      15.757   1.630  26.370  1.00  0.00     0.025 C 
BRANCH   8   9
ATOM      9  C   UNL     1      14.752   2.629  25.977  1.00  0.00     0.064 C 
ATOM     10  O   UNL     1      13.994   3.125  26.851  1.00  0.00    -0.545 OA
ATOM     11  O   UNL     1      14.624   3.038  24.654  1.00  0.00    -0.545 OA
ENDBRANCH   8   9
ENDBRANCH   1   7
BRANCH   6  12
ATOM     12  O   UNL     1      19.671  -3.554  27.114  1.00  0.00    -0.508 OA
ATOM     13  H   UNL     1      19.461  -4.544  27.062  1.00  0.00     0.293 HD
ENDBRANCH   6  12
TORSDOF 3
ENDMDL
MODEL 5
REMARK VINA RESULT:    -5.735      1.304      5.851
REMARK INTER + INTRA:          -6.726
REMARK INTER:                  -6.591
REMARK INTRA:                  -0.135
REMARK UNBOUND:                -0.153
REMARK SMILES O=C([O-])C=Cc1ccc(O)cc1
REMARK SMILES IDX 6 1 7 2 12 3 8 4 11 5 9 6 5 7 4 8 2 9 1 10 3 11 10 12
REMARK H PARENT 10 13
REMARK Flexibility Score: inf
ROOT
ATOM      1  C   UNL     1      13.756 -12.850  28.780  1.00  0.00    -0.025 A 
ATOM      2  C   UNL     1      14.530 -13.465  29.784  1.00  0.00     0.012 A 
ATOM      3  C   UNL     1      13.697 -13.446  27.508  1.00  0.00     0.012 A 
ATOM      4  C   UNL     1      15.246 -14.635  29.507  1.00  0.00     0.047 A 
ATOM      5  C   UNL     1      14.414 -14.614  27.236  1.00  0.00     0.047 A 
ATOM      6  C   UNL     1      15.193 -15.210  28.236  1.00  0.00     0.115 A 
ENDROOT
BRANCH   1   7
ATOM      7  C   UNL     1      12.968 -11.615  29.022  1.00  0.00     0.010 C 
ATOM      8  C   UNL     1      11.771 -11.601  29.624  1.00  0.00     0.025 C 
BRANCH   8   9
ATOM      9  C   UNL     1      11.030 -10.351  29.853  1.00  0.00     0.064 C 
ATOM     10  O   UNL     1       9.784 -10.326  29.677  1.00  0.00    -0.545 OA
ATOM     11  O   UNL     1      11.684  -9.194  30.263  1.00  0.00    -0.545 OA
ENDBRANCH   8   9
ENDBRANCH   1   7
BRANCH   6  12
ATOM     12  O   UNL     1      15.912 -16.375  27.976  1.00  0.00    -0.508 OA
ATOM     13  H   UNL     1      16.919 -16.360  27.854  1.00  0.00     0.293 HD
ENDBRANCH   6  12
TORSDOF 3
ENDMDL
MODEL 6
REMARK VINA RESULT:    -5.673     11.520     14.170
REMARK INTER + INTRA:          -6.655
REMARK INTER:                  -6.520
REMARK INTRA:                  -0.135
REMARK UNBOUND:                -0.153
REMARK SMILES O=C([O-])C=Cc1ccc(O)cc1
REMARK SMILES IDX 6 1 7 2 12 3 8 4 11 5 9 6 5 7 4 8 2 9 1 10 3 11 10 12
REMARK H PARENT 10 13
REMARK Flexibility Score: inf
ROOT
ATOM      1  C   UNL     1      16.905  -0.683  26.231  1.00  0.00    -0.025 A 
ATOM      2  C   UNL     1      18.198  -0.622  25.674  1.00  0.00     0.012 A 
ATOM      3  C   UNL     1      16.595  -1.733  27.112  1.00  0.00     0.012 A 
ATOM      4  C   UNL     1      19.145  -1.607  25.975  1.00  0.00     0.047 A 
ATOM      5  C   UNL     1      17.543  -2.716  27.409  1.00  0.00     0.047 A 
ATOM      6  C   UNL     1      18.821  -2.656  26.839  1.00  0.00     0.115 A 
ENDROOT
BRANCH   1   7
ATOM      7  C   UNL     1      15.867   0.342  25.954  1.00  0.00     0.010 C 
ATOM      8  C   UNL     1      15.936   1.608  26.387  1.00  0.00     0.025 C 
BRANCH   8   9
ATOM      9  C   UNL     1      14.888   2.593  26.079  1.00  0.00     0.064 C 
ATOM     10  O   UNL     1      14.239   3.125  27.018  1.00  0.00    -0.545 OA
ATOM     11  O   UNL     1      14.600   2.949  24.766  1.00  0.00    -0.545 OA
ENDBRANCH   8   9
ENDBRANCH   1   7
BRANCH   6  12
ATOM     12  O   UNL     1      19.775  -3.629  27.128  1.00  0.00    -0.508 OA
ATOM     13  H   UNL     1      20.320  -4.070  26.395  1.00  0.00     0.293 HD
ENDBRANCH   6  12
TORSDOF 3
ENDMDL
MODEL 7
REMARK VINA RESULT:    -5.313     10.381     12.457
REMARK INTER + INTRA:          -6.242
REMARK INTER:                  -6.096
REMARK INTRA:                  -0.145
REMARK UNBOUND:                -0.153
REMARK SMILES O=C([O-])C=Cc1ccc(O)cc1
REMARK SMILES IDX 6 1 7 2 12 3 8 4 11 5 9 6 5 7 4 8 2 9 1 10 3 11 10 12
REMARK H PARENT 10 13
REMARK Flexibility Score: inf
ROOT
ATOM      1  C   UNL     1      15.932  -0.694  27.185  1.00  0.00    -0.025 A 
ATOM      2  C   UNL     1      15.366  -0.970  25.924  1.00  0.00     0.012 A 
ATOM      3  C   UNL     1      15.948   0.634  27.646  1.00  0.00     0.012 A 
ATOM      4  C   UNL     1      14.853   0.066  25.138  1.00  0.00     0.047 A 
ATOM      5  C   UNL     1      15.435   1.667  26.856  1.00  0.00     0.047 A 
ATOM      6  C   UNL     1      14.887   1.385  25.598  1.00  0.00     0.115 A 
ENDROOT
BRANCH   1   7
ATOM      7  C   UNL     1      16.480  -1.757  28.065  1.00  0.00     0.010 C 
ATOM      8  C   UNL     1      16.116  -1.928  29.343  1.00  0.00     0.025 C 
BRANCH   8   9
ATOM      9  C   UNL     1      16.677  -3.003  30.174  1.00  0.00     0.064 C 
ATOM     10  O   UNL     1      17.742  -3.572  29.818  1.00  0.00    -0.545 OA
ATOM     11  O   UNL     1      16.052  -3.403  31.350  1.00  0.00    -0.545 OA
ENDBRANCH   8   9
ENDBRANCH   1   7
BRANCH   6  12
ATOM     12  O   UNL     1      14.373   2.406  24.802  1.00  0.00    -0.508 OA
ATOM     13  H   UNL     1      14.530   3.383  25.026  1.00  0.00     0.293 HD
ENDBRANCH   6  12
TORSDOF 3
ENDMDL
MODEL 8
REMARK VINA RESULT:    -5.258     10.431     13.125
REMARK INTER + INTRA:          -6.179
REMARK INTER:                  -6.031
REMARK INTRA:                  -0.148
REMARK UNBOUND:                -0.153
REMARK SMILES O=C([O-])C=Cc1ccc(O)cc1
REMARK SMILES IDX 6 1 7 2 12 3 8 4 11 5 9 6 5 7 4 8 2 9 1 10 3 11 10 12
REMARK H PARENT 10 13
REMARK Flexibility Score: inf
ROOT
ATOM      1  C   UNL     1      16.246  -1.316  27.350  1.00  0.00    -0.025 A 
ATOM      2  C   UNL     1      17.384  -2.126  27.158  1.00  0.00     0.012 A 
ATOM      3  C   UNL     1      15.581  -1.364  28.587  1.00  0.00     0.012 A 
ATOM      4  C   UNL     1      17.824  -2.979  28.175  1.00  0.00     0.047 A 
ATOM      5  C   UNL     1      16.024  -2.219  29.601  1.00  0.00     0.047 A 
ATOM      6  C   UNL     1      17.147  -3.030  29.396  1.00  0.00     0.115 A 
ENDROOT
BRANCH   1   7
ATOM      7  C   UNL     1      15.743  -0.385  26.309  1.00  0.00     0.010 C 
ATOM      8  C   UNL     1      15.309   0.856  26.567  1.00  0.00     0.025 C 
BRANCH   8   9
ATOM      9  C   UNL     1      14.829   1.749  25.501  1.00  0.00     0.064 C 
ATOM     10  O   UNL     1      14.500   1.265  24.386  1.00  0.00    -0.545 OA
ATOM     11  O   UNL     1      14.733   3.122  25.702  1.00  0.00    -0.545 OA
ENDBRANCH   8   9
ENDBRANCH   1   7
BRANCH   6  12
ATOM     12  O   UNL     1      17.598  -3.886  30.398  1.00  0.00    -0.508 OA
ATOM     13  H   UNL     1      17.020  -4.113  31.200  1.00  0.00     0.293 HD
ENDBRANCH   6  12
TORSDOF 3
ENDMDL
MODEL 9
REMARK VINA RESULT:    -5.048     10.557     12.698
REMARK INTER + INTRA:          -5.938
REMARK INTER:                  -5.798
REMARK INTRA:                  -0.140
REMARK UNBOUND:                -0.153
REMARK SMILES O=C([O-])C=Cc1ccc(O)cc1
REMARK SMILES IDX 6 1 7 2 12 3 8 4 11 5 9 6 5 7 4 8 2 9 1 10 3 11 10 12
REMARK H PARENT 10 13
REMARK Flexibility Score: inf
ROOT
ATOM      1  C   UNL     1      15.802  -0.446  27.264  1.00  0.00    -0.025 A 
ATOM      2  C   UNL     1      15.878   0.866  27.772  1.00  0.00     0.012 A 
ATOM      3  C   UNL     1      15.342  -0.639  25.949  1.00  0.00     0.012 A 
ATOM      4  C   UNL     1      15.477   1.952  26.988  1.00  0.00     0.047 A 
ATOM      5  C   UNL     1      14.943   0.450  25.169  1.00  0.00     0.047 A 
ATOM      6  C   UNL     1      15.007   1.749  25.688  1.00  0.00     0.115 A 
ENDROOT
BRANCH   1   7
ATOM      7  C   UNL     1      16.224  -1.634  28.049  1.00  0.00     0.010 C 
ATOM      8  C   UNL     1      16.148  -1.709  29.385  1.00  0.00     0.025 C 
BRANCH   8   9
ATOM      9  C   UNL     1      16.568  -2.911  30.120  1.00  0.00     0.064 C 
ATOM     10  O   UNL     1      17.558  -3.574  29.714  1.00  0.00    -0.545 OA
ATOM     11  O   UNL     1      15.890  -3.329  31.260  1.00  0.00    -0.545 OA
ENDBRANCH   8   9
ENDBRANCH   1   7
BRANCH   6  12
ATOM     12  O   UNL     1      14.612   2.842  24.920  1.00  0.00    -0.508 OA
ATOM     13  H   UNL     1      13.645   3.147  24.891  1.00  0.00     0.293 HD
ENDBRANCH   6  12
TORSDOF 3
ENDMDL
