MODEL 1
REMARK VINA RESULT:    -3.733      0.000      0.000
REMARK INTER + INTRA:         -14.670
REMARK INTER:                  -9.407
REMARK INTRA:                  -5.263
REMARK UNBOUND:                -5.263
REMARK SMILES CCCCCCCCCCCCCCCCCCCCCCCCCCCC(=O)[O-]
REMARK SMILES IDX 15 1 16 2 17 3 18 4 19 5 20 6 21 7 22 8 23 9 24 10 25 11
REMARK SMILES IDX 26 12 27 13 28 14 29 15 30 16 14 17 13 18 12 19 11 20 10 21
REMARK SMILES IDX 9 22 8 23 7 24 6 25 5 26 4 27 3 28 2 29 1 30
REMARK H PARENT
REMARK Flexibility Score: inf
ROOT
ATOM      1  C   UNL     1      24.120  -7.936  15.639  1.00  0.00     0.000 C 
ENDROOT
BRANCH   1   2
ATOM      2  C   UNL     1      23.318  -8.538  16.811  1.00  0.00     0.000 C 
BRANCH   2   3
ATOM      3  C   UNL     1      23.334 -10.076  16.884  1.00  0.00     0.000 C 
BRANCH   3   4
ATOM      4  C   UNL     1      24.758 -10.656  16.841  1.00  0.00     0.000 C 
BRANCH   4   5
ATOM      5  C   UNL     1      24.934 -11.739  15.764  1.00  0.00     0.000 C 
BRANCH   5   6
ATOM      6  C   UNL     1      23.687 -11.891  14.874  1.00  0.00     0.000 C 
BRANCH   6   7
ATOM      7  C   UNL     1      23.101 -13.316  14.901  1.00  0.00     0.000 C 
BRANCH   7   8
ATOM      8  C   UNL     1      21.563 -13.396  14.852  1.00  0.00     0.000 C 
BRANCH   8   9
ATOM      9  C   UNL     1      20.895 -12.918  16.154  1.00  0.00     0.000 C 
BRANCH   9  10
ATOM     10  C   UNL     1      19.695 -11.990  15.903  1.00  0.00     0.000 C 
BRANCH  10  11
ATOM     11  C   UNL     1      19.817 -11.200  14.588  1.00  0.00     0.000 C 
BRANCH  11  12
ATOM     12  C   UNL     1      20.302  -9.757  14.814  1.00  0.00     0.006 C 
BRANCH  12  13
ATOM     13  C   UNL     1      21.274  -9.287  13.724  1.00  0.00     0.053 C 
BRANCH  13  14
ATOM     14  C   UNL     1      20.611  -8.298  12.817  1.00  0.00     0.041 C 
ATOM     15  O   UNL     1      21.304  -7.508  12.122  1.00  0.00    -0.550 OA
ATOM     16  O   UNL     1      19.224  -8.259  12.727  1.00  0.00    -0.550 OA
ENDBRANCH  13  14
ENDBRANCH  12  13
ENDBRANCH  11  12
ENDBRANCH  10  11
ENDBRANCH   9  10
ENDBRANCH   8   9
ENDBRANCH   7   8
ENDBRANCH   6   7
ENDBRANCH   5   6
ENDBRANCH   4   5
ENDBRANCH   3   4
ENDBRANCH   2   3
ENDBRANCH   1   2
BRANCH   1  17
ATOM     17  C   UNL     1      25.038  -6.758  16.017  1.00  0.00     0.000 C 
BRANCH  17  18
ATOM     18  C   UNL     1      25.441  -6.697  17.505  1.00  0.00     0.000 C 
BRANCH  18  19
ATOM     19  C   UNL     1      25.544  -5.279  18.099  1.00  0.00     0.000 C 
BRANCH  19  20
ATOM     20  C   UNL     1      25.216  -4.179  17.073  1.00  0.00     0.000 C 
BRANCH  20  21
ATOM     21  C   UNL     1      25.521  -2.765  17.595  1.00  0.00     0.000 C 
BRANCH  21  22
ATOM     22  C   UNL     1      24.284  -2.066  18.186  1.00  0.00    -0.000 C 
BRANCH  22  23
ATOM     23  C   UNL     1      23.088  -2.070  17.217  1.00  0.00    -0.000 C 
BRANCH  23  24
ATOM     24  C   UNL     1      21.851  -2.771  17.810  1.00  0.00    -0.000 C 
BRANCH  24  25
ATOM     25  C   UNL     1      22.056  -3.200  19.271  1.00  0.00    -0.000 C 
BRANCH  25  26
ATOM     26  C   UNL     1      21.846  -4.711  19.476  1.00  0.00    -0.000 C 
BRANCH  26  27
ATOM     27  C   UNL     1      21.866  -5.495  18.154  1.00  0.00    -0.000 C 
BRANCH  27  28
ATOM     28  C   UNL     1      20.646  -6.416  17.992  1.00  0.00    -0.000 C 
BRANCH  28  29
ATOM     29  C   UNL     1      20.168  -6.441  16.536  1.00  0.00    -0.003 C 
ATOM     30  C   UNL     1      21.143  -5.706  15.622  1.00  0.00     0.004 C 
ENDBRANCH  28  29
ENDBRANCH  27  28
ENDBRANCH  26  27
ENDBRANCH  25  26
ENDBRANCH  24  25
ENDBRANCH  23  24
ENDBRANCH  22  23
ENDBRANCH  21  22
ENDBRANCH  20  21
ENDBRANCH  19  20
ENDBRANCH  18  19
ENDBRANCH  17  18
ENDBRANCH   1  17
TORSDOF 26
ENDMDL
MODEL 2
REMARK VINA RESULT:    -3.704      2.924      8.377
REMARK INTER + INTRA:         -14.598
REMARK INTER:                  -9.363
REMARK INTRA:                  -5.235
REMARK UNBOUND:                -5.263
REMARK SMILES CCCCCCCCCCCCCCCCCCCCCCCCCCCC(=O)[O-]
REMARK SMILES IDX 15 1 16 2 17 3 18 4 19 5 20 6 21 7 22 8 23 9 24 10 25 11
REMARK SMILES IDX 26 12 27 13 28 14 29 15 30 16 14 17 13 18 12 19 11 20 10 21
REMARK SMILES IDX 9 22 8 23 7 24 6 25 5 26 4 27 3 28 2 29 1 30
REMARK H PARENT
REMARK Flexibility Score: inf
ROOT
ATOM      1  C   UNL     1      23.690  -7.853  14.124  1.00  0.00     0.000 C 
ENDROOT
BRANCH   1   2
ATOM      2  C   UNL     1      23.155  -6.853  15.169  1.00  0.00     0.000 C 
BRANCH   2   3
ATOM      3  C   UNL     1      21.622  -6.713  15.205  1.00  0.00     0.000 C 
BRANCH   3   4
ATOM      4  C   UNL     1      21.054  -6.764  16.634  1.00  0.00     0.000 C 
BRANCH   4   5
ATOM      5  C   UNL     1      22.147  -6.762  17.715  1.00  0.00     0.000 C 
BRANCH   5   6
ATOM      6  C   UNL     1      22.076  -5.520  18.621  1.00  0.00     0.000 C 
BRANCH   6   7
ATOM      7  C   UNL     1      23.467  -4.999  19.034  1.00  0.00     0.000 C 
BRANCH   7   8
ATOM      8  C   UNL     1      24.659  -5.685  18.340  1.00  0.00     0.000 C 
BRANCH   8   9
ATOM      9  C   UNL     1      25.268  -4.834  17.210  1.00  0.00     0.000 C 
BRANCH   9  10
ATOM     10  C   UNL     1      24.630  -3.439  17.104  1.00  0.00     0.000 C 
BRANCH  10  11
ATOM     11  C   UNL     1      25.344  -2.389  17.975  1.00  0.00     0.000 C 
BRANCH  11  12
ATOM     12  C   UNL     1      24.355  -1.511  18.761  1.00  0.00     0.006 C 
BRANCH  12  13
ATOM     13  C   UNL     1      23.029  -1.306  18.014  1.00  0.00     0.053 C 
BRANCH  13  14
ATOM     14  C   UNL     1      22.932   0.091  17.486  1.00  0.00     0.041 C 
ATOM     15  O   UNL     1      23.051   1.075  18.264  1.00  0.00    -0.550 OA
ATOM     16  O   UNL     1      22.723   0.308  16.129  1.00  0.00    -0.550 OA
ENDBRANCH  13  14
ENDBRANCH  12  13
ENDBRANCH  11  12
ENDBRANCH  10  11
ENDBRANCH   9  10
ENDBRANCH   8   9
ENDBRANCH   7   8
ENDBRANCH   6   7
ENDBRANCH   5   6
ENDBRANCH   4   5
ENDBRANCH   3   4
ENDBRANCH   2   3
ENDBRANCH   1   2
BRANCH   1  17
ATOM     17  C   UNL     1      24.588  -8.968  14.691  1.00  0.00     0.000 C 
BRANCH  17  18
ATOM     18  C   UNL     1      24.580  -9.093  16.229  1.00  0.00     0.000 C 
BRANCH  18  19
ATOM     19  C   UNL     1      23.940 -10.383  16.778  1.00  0.00     0.000 C 
BRANCH  19  20
ATOM     20  C   UNL     1      22.412 -10.268  16.936  1.00  0.00     0.000 C 
BRANCH  20  21
ATOM     21  C   UNL     1      21.641 -11.085  15.886  1.00  0.00     0.000 C 
BRANCH  21  22
ATOM     22  C   UNL     1      20.799 -10.205  14.944  1.00  0.00    -0.000 C 
BRANCH  22  23
ATOM     23  C   UNL     1      21.217 -10.356  13.471  1.00  0.00    -0.000 C 
BRANCH  23  24
ATOM     24  C   UNL     1      21.789 -11.752  13.161  1.00  0.00    -0.000 C 
BRANCH  24  25
ATOM     25  C   UNL     1      23.057 -11.694  12.294  1.00  0.00    -0.000 C 
BRANCH  25  26
ATOM     26  C   UNL     1      24.325 -12.071  13.080  1.00  0.00    -0.000 C 
BRANCH  26  27
ATOM     27  C   UNL     1      24.056 -13.125  14.166  1.00  0.00    -0.000 C 
BRANCH  27  28
ATOM     28  C   UNL     1      25.302 -13.442  15.007  1.00  0.00    -0.000 C 
BRANCH  28  29
ATOM     29  C   UNL     1      26.400 -12.398  14.774  1.00  0.00    -0.003 C 
ATOM     30  C   UNL     1      27.170 -12.109  16.059  1.00  0.00     0.004 C 
ENDBRANCH  28  29
ENDBRANCH  27  28
ENDBRANCH  26  27
ENDBRANCH  25  26
ENDBRANCH  24  25
ENDBRANCH  23  24
ENDBRANCH  22  23
ENDBRANCH  21  22
ENDBRANCH  20  21
ENDBRANCH  19  20
ENDBRANCH  18  19
ENDBRANCH  17  18
ENDBRANCH   1  17
TORSDOF 26
ENDMDL
MODEL 3
REMARK VINA RESULT:    -3.689      9.910     11.974
REMARK INTER + INTRA:         -14.559
REMARK INTER:                  -9.400
REMARK INTRA:                  -5.159
REMARK UNBOUND:                -5.263
REMARK SMILES CCCCCCCCCCCCCCCCCCCCCCCCCCCC(=O)[O-]
REMARK SMILES IDX 15 1 16 2 17 3 18 4 19 5 20 6 21 7 22 8 23 9 24 10 25 11
REMARK SMILES IDX 26 12 27 13 28 14 29 15 30 16 14 17 13 18 12 19 11 20 10 21
REMARK SMILES IDX 9 22 8 23 7 24 6 25 5 26 4 27 3 28 2 29 1 30
REMARK H PARENT
REMARK Flexibility Score: inf
ROOT
ATOM      1  C   UNL     1      24.386  -3.743   6.145  1.00  0.00     0.000 C 
ENDROOT
BRANCH   1   2
ATOM      2  C   UNL     1      25.225  -4.885   5.538  1.00  0.00     0.000 C 
BRANCH   2   3
ATOM      3  C   UNL     1      26.339  -4.430   4.578  1.00  0.00     0.000 C 
BRANCH   3   4
ATOM      4  C   UNL     1      27.409  -5.513   4.356  1.00  0.00     0.000 C 
BRANCH   4   5
ATOM      5  C   UNL     1      26.874  -6.939   4.564  1.00  0.00     0.000 C 
BRANCH   5   6
ATOM      6  C   UNL     1      27.592  -7.675   5.709  1.00  0.00     0.000 C 
BRANCH   6   7
ATOM      7  C   UNL     1      28.800  -6.892   6.260  1.00  0.00     0.000 C 
BRANCH   7   8
ATOM      8  C   UNL     1      28.720  -6.523   7.753  1.00  0.00     0.000 C 
BRANCH   8   9
ATOM      9  C   UNL     1      27.988  -5.191   8.004  1.00  0.00     0.000 C 
BRANCH   9  10
ATOM     10  C   UNL     1      28.938  -3.982   8.016  1.00  0.00     0.000 C 
BRANCH  10  11
ATOM     11  C   UNL     1      28.750  -3.062   6.797  1.00  0.00     0.000 C 
BRANCH  11  12
ATOM     12  C   UNL     1      27.981  -1.777   7.146  1.00  0.00     0.006 C 
BRANCH  12  13
ATOM     13  C   UNL     1      27.451  -1.053   5.900  1.00  0.00     0.053 C 
BRANCH  13  14
ATOM     14  C   UNL     1      27.587   0.430   6.054  1.00  0.00     0.041 C 
ATOM     15  O   UNL     1      28.247   0.912   7.013  1.00  0.00    -0.550 OA
ATOM     16  O   UNL     1      26.996   1.282   5.128  1.00  0.00    -0.550 OA
ENDBRANCH  13  14
ENDBRANCH  12  13
ENDBRANCH  11  12
ENDBRANCH  10  11
ENDBRANCH   9  10
ENDBRANCH   8   9
ENDBRANCH   7   8
ENDBRANCH   6   7
ENDBRANCH   5   6
ENDBRANCH   4   5
ENDBRANCH   3   4
ENDBRANCH   2   3
ENDBRANCH   1   2
BRANCH   1  17
ATOM     17  C   UNL     1      24.818  -3.297   7.555  1.00  0.00     0.000 C 
BRANCH  17  18
ATOM     18  C   UNL     1      23.665  -2.857   8.481  1.00  0.00     0.000 C 
BRANCH  18  19
ATOM     19  C   UNL     1      22.249  -3.074   7.913  1.00  0.00     0.000 C 
BRANCH  19  20
ATOM     20  C   UNL     1      21.475  -1.757   7.723  1.00  0.00     0.000 C 
BRANCH  20  21
ATOM     21  C   UNL     1      21.638  -1.165   6.314  1.00  0.00     0.000 C 
BRANCH  21  22
ATOM     22  C   UNL     1      22.149   0.287   6.331  1.00  0.00    -0.000 C 
BRANCH  22  23
ATOM     23  C   UNL     1      22.786   0.669   7.678  1.00  0.00    -0.000 C 
BRANCH  23  24
ATOM     24  C   UNL     1      24.278   1.028   7.544  1.00  0.00    -0.000 C 
BRANCH  24  25
ATOM     25  C   UNL     1      25.153   0.336   8.600  1.00  0.00    -0.000 C 
BRANCH  25  26
ATOM     26  C   UNL     1      24.707   0.659  10.037  1.00  0.00    -0.000 C 
BRANCH  26  27
ATOM     27  C   UNL     1      25.467  -0.163  11.091  1.00  0.00    -0.000 C 
BRANCH  27  28
ATOM     28  C   UNL     1      26.590  -1.015  10.480  1.00  0.00    -0.000 C 
BRANCH  28  29
ATOM     29  C   UNL     1      27.967  -0.510  10.928  1.00  0.00    -0.003 C 
ATOM     30  C   UNL     1      29.016  -1.614  10.840  1.00  0.00     0.004 C 
ENDBRANCH  28  29
ENDBRANCH  27  28
ENDBRANCH  26  27
ENDBRANCH  25  26
ENDBRANCH  24  25
ENDBRANCH  23  24
ENDBRANCH  22  23
ENDBRANCH  21  22
ENDBRANCH  20  21
ENDBRANCH  19  20
ENDBRANCH  18  19
ENDBRANCH  17  18
ENDBRANCH   1  17
TORSDOF 26
ENDMDL
MODEL 4
REMARK VINA RESULT:    -3.673      1.387      7.305
REMARK INTER + INTRA:         -14.519
REMARK INTER:                  -9.427
REMARK INTRA:                  -5.092
REMARK UNBOUND:                -5.263
REMARK SMILES CCCCCCCCCCCCCCCCCCCCCCCCCCCC(=O)[O-]
REMARK SMILES IDX 15 1 16 2 17 3 18 4 19 5 20 6 21 7 22 8 23 9 24 10 25 11
REMARK SMILES IDX 26 12 27 13 28 14 29 15 30 16 14 17 13 18 12 19 11 20 10 21
REMARK SMILES IDX 9 22 8 23 7 24 6 25 5 26 4 27 3 28 2 29 1 30
REMARK H PARENT
REMARK Flexibility Score: inf
ROOT
ATOM      1  C   UNL     1      25.379  -5.762  16.466  1.00  0.00     0.000 C 
ENDROOT
BRANCH   1   2
ATOM      2  C   UNL     1      25.620  -4.611  17.464  1.00  0.00     0.000 C 
BRANCH   2   3
ATOM      3  C   UNL     1      24.887  -3.300  17.129  1.00  0.00     0.000 C 
BRANCH   3   4
ATOM      4  C   UNL     1      25.043  -2.235  18.228  1.00  0.00     0.000 C 
BRANCH   4   5
ATOM      5  C   UNL     1      23.697  -1.760  18.801  1.00  0.00     0.000 C 
BRANCH   5   6
ATOM      6  C   UNL     1      22.498  -2.272  17.984  1.00  0.00     0.000 C 
BRANCH   6   7
ATOM      7  C   UNL     1      21.387  -2.878  18.864  1.00  0.00     0.000 C 
BRANCH   7   8
ATOM      8  C   UNL     1      21.814  -4.085  19.722  1.00  0.00     0.000 C 
BRANCH   8   9
ATOM      9  C   UNL     1      22.380  -5.247  18.885  1.00  0.00     0.000 C 
BRANCH   9  10
ATOM     10  C   UNL     1      21.358  -5.817  17.888  1.00  0.00     0.000 C 
BRANCH  10  11
ATOM     11  C   UNL     1      21.677  -5.448  16.429  1.00  0.00     0.000 C 
BRANCH  11  12
ATOM     12  C   UNL     1      21.351  -6.590  15.451  1.00  0.00     0.006 C 
BRANCH  12  13
ATOM     13  C   UNL     1      20.351  -7.597  16.037  1.00  0.00     0.053 C 
BRANCH  13  14
ATOM     14  C   UNL     1      19.114  -7.661  15.197  1.00  0.00     0.041 C 
ATOM     15  O   UNL     1      18.793  -6.689  14.461  1.00  0.00    -0.550 OA
ATOM     16  O   UNL     1      18.320  -8.802  15.214  1.00  0.00    -0.550 OA
ENDBRANCH  13  14
ENDBRANCH  12  13
ENDBRANCH  11  12
ENDBRANCH  10  11
ENDBRANCH   9  10
ENDBRANCH   8   9
ENDBRANCH   7   8
ENDBRANCH   6   7
ENDBRANCH   5   6
ENDBRANCH   4   5
ENDBRANCH   3   4
ENDBRANCH   2   3
ENDBRANCH   1   2
BRANCH   1  17
ATOM     17  C   UNL     1      24.999  -7.110  17.108  1.00  0.00     0.000 C 
BRANCH  17  18
ATOM     18  C   UNL     1      24.397  -8.147  16.137  1.00  0.00     0.000 C 
BRANCH  18  19
ATOM     19  C   UNL     1      23.693  -9.342  16.809  1.00  0.00     0.000 C 
BRANCH  19  20
ATOM     20  C   UNL     1      24.659 -10.495  17.136  1.00  0.00     0.000 C 
BRANCH  20  21
ATOM     21  C   UNL     1      24.707 -11.565  16.033  1.00  0.00     0.000 C 
BRANCH  21  22
ATOM     22  C   UNL     1      25.797 -11.290  14.981  1.00  0.00    -0.000 C 
BRANCH  22  23
ATOM     23  C   UNL     1      25.214 -10.786  13.649  1.00  0.00    -0.000 C 
BRANCH  23  24
ATOM     24  C   UNL     1      24.446 -11.884  12.890  1.00  0.00    -0.000 C 
BRANCH  24  25
ATOM     25  C   UNL     1      23.008 -11.469  12.540  1.00  0.00    -0.000 C 
BRANCH  25  26
ATOM     26  C   UNL     1      22.510 -10.292  13.398  1.00  0.00    -0.000 C 
BRANCH  26  27
ATOM     27  C   UNL     1      21.348 -10.687  14.325  1.00  0.00    -0.000 C 
BRANCH  27  28
ATOM     28  C   UNL     1      21.230 -12.208  14.511  1.00  0.00    -0.000 C 
BRANCH  28  29
ATOM     29  C   UNL     1      21.114 -12.570  15.997  1.00  0.00    -0.003 C 
ATOM     30  C   UNL     1      20.552 -11.406  16.807  1.00  0.00     0.004 C 
ENDBRANCH  28  29
ENDBRANCH  27  28
ENDBRANCH  26  27
ENDBRANCH  25  26
ENDBRANCH  24  25
ENDBRANCH  23  24
ENDBRANCH  22  23
ENDBRANCH  21  22
ENDBRANCH  20  21
ENDBRANCH  19  20
ENDBRANCH  18  19
ENDBRANCH  17  18
ENDBRANCH   1  17
TORSDOF 26
ENDMDL
MODEL 5
REMARK VINA RESULT:    -3.663      2.228      3.252
REMARK INTER + INTRA:         -14.494
REMARK INTER:                  -9.660
REMARK INTRA:                  -4.834
REMARK UNBOUND:                -5.263
REMARK SMILES CCCCCCCCCCCCCCCCCCCCCCCCCCCC(=O)[O-]
REMARK SMILES IDX 15 1 16 2 17 3 18 4 19 5 20 6 21 7 22 8 23 9 24 10 25 11
REMARK SMILES IDX 26 12 27 13 28 14 29 15 30 16 14 17 13 18 12 19 11 20 10 21
REMARK SMILES IDX 9 22 8 23 7 24 6 25 5 26 4 27 3 28 2 29 1 30
REMARK H PARENT
REMARK Flexibility Score: inf
ROOT
ATOM      1  C   UNL     1      24.960  -6.394  15.615  1.00  0.00     0.000 C 
ENDROOT
BRANCH   1   2
ATOM      2  C   UNL     1      25.022  -7.510  14.553  1.00  0.00     0.000 C 
BRANCH   2   3
ATOM      3  C   UNL     1      23.656  -7.947  13.994  1.00  0.00     0.000 C 
BRANCH   3   4
ATOM      4  C   UNL     1      23.424  -9.463  14.112  1.00  0.00     0.000 C 
BRANCH   4   5
ATOM      5  C   UNL     1      24.121 -10.084  15.334  1.00  0.00     0.000 C 
BRANCH   5   6
ATOM      6  C   UNL     1      23.136 -10.402  16.473  1.00  0.00     0.000 C 
BRANCH   6   7
ATOM      7  C   UNL     1      22.414  -9.150  17.009  1.00  0.00     0.000 C 
BRANCH   7   8
ATOM      8  C   UNL     1      20.905  -9.080  16.707  1.00  0.00     0.000 C 
BRANCH   8   9
ATOM      9  C   UNL     1      20.185 -10.422  16.932  1.00  0.00     0.000 C 
BRANCH   9  10
ATOM     10  C   UNL     1      19.724 -11.079  15.621  1.00  0.00     0.000 C 
BRANCH  10  11
ATOM     11  C   UNL     1      19.939 -12.603  15.609  1.00  0.00     0.000 C 
BRANCH  11  12
ATOM     12  C   UNL     1      20.922 -13.047  14.512  1.00  0.00     0.006 C 
BRANCH  12  13
ATOM     13  C   UNL     1      21.751 -14.271  14.926  1.00  0.00     0.053 C 
BRANCH  13  14
ATOM     14  C   UNL     1      23.103 -14.234  14.284  1.00  0.00     0.041 C 
ATOM     15  O   UNL     1      23.610 -13.135  13.933  1.00  0.00    -0.550 OA
ATOM     16  O   UNL     1      23.810 -15.413  14.086  1.00  0.00    -0.550 OA
ENDBRANCH  13  14
ENDBRANCH  12  13
ENDBRANCH  11  12
ENDBRANCH  10  11
ENDBRANCH   9  10
ENDBRANCH   8   9
ENDBRANCH   7   8
ENDBRANCH   6   7
ENDBRANCH   5   6
ENDBRANCH   4   5
ENDBRANCH   3   4
ENDBRANCH   2   3
ENDBRANCH   1   2
BRANCH   1  17
ATOM     17  C   UNL     1      25.311  -6.839  17.048  1.00  0.00     0.000 C 
BRANCH  17  18
ATOM     18  C   UNL     1      25.589  -5.689  18.038  1.00  0.00     0.000 C 
BRANCH  18  19
ATOM     19  C   UNL     1      25.589  -4.278  17.420  1.00  0.00     0.000 C 
BRANCH  19  20
ATOM     20  C   UNL     1      25.215  -3.183  18.436  1.00  0.00     0.000 C 
BRANCH  20  21
ATOM     21  C   UNL     1      24.562  -1.956  17.778  1.00  0.00     0.000 C 
BRANCH  21  22
ATOM     22  C   UNL     1      23.395  -2.327  16.846  1.00  0.00    -0.000 C 
BRANCH  22  23
ATOM     23  C   UNL     1      22.039  -1.825  17.374  1.00  0.00    -0.000 C 
BRANCH  23  24
ATOM     24  C   UNL     1      21.886  -2.030  18.893  1.00  0.00    -0.000 C 
BRANCH  24  25
ATOM     25  C   UNL     1      21.033  -3.260  19.243  1.00  0.00    -0.000 C 
BRANCH  25  26
ATOM     26  C   UNL     1      21.883  -4.449  19.724  1.00  0.00    -0.000 C 
BRANCH  26  27
ATOM     27  C   UNL     1      22.073  -5.518  18.636  1.00  0.00    -0.000 C 
BRANCH  27  28
ATOM     28  C   UNL     1      21.015  -5.427  17.525  1.00  0.00    -0.000 C 
BRANCH  28  29
ATOM     29  C   UNL     1      21.667  -5.518  16.140  1.00  0.00    -0.003 C 
ATOM     30  C   UNL     1      20.712  -5.047  15.048  1.00  0.00     0.004 C 
ENDBRANCH  28  29
ENDBRANCH  27  28
ENDBRANCH  26  27
ENDBRANCH  25  26
ENDBRANCH  24  25
ENDBRANCH  23  24
ENDBRANCH  22  23
ENDBRANCH  21  22
ENDBRANCH  20  21
ENDBRANCH  19  20
ENDBRANCH  18  19
ENDBRANCH  17  18
ENDBRANCH   1  17
TORSDOF 26
ENDMDL
MODEL 6
REMARK VINA RESULT:    -3.626      9.481     13.145
REMARK INTER + INTRA:         -14.401
REMARK INTER:                  -9.166
REMARK INTRA:                  -5.235
REMARK UNBOUND:                -5.263
REMARK SMILES CCCCCCCCCCCCCCCCCCCCCCCCCCCC(=O)[O-]
REMARK SMILES IDX 15 1 16 2 17 3 18 4 19 5 20 6 21 7 22 8 23 9 24 10 25 11
REMARK SMILES IDX 26 12 27 13 28 14 29 15 30 16 14 17 13 18 12 19 11 20 10 21
REMARK SMILES IDX 9 22 8 23 7 24 6 25 5 26 4 27 3 28 2 29 1 30
REMARK H PARENT
REMARK Flexibility Score: inf
ROOT
ATOM      1  C   UNL     1      24.087  -0.369   7.170  1.00  0.00     0.000 C 
ENDROOT
BRANCH   1   2
ATOM      2  C   UNL     1      24.771   0.908   6.642  1.00  0.00     0.000 C 
BRANCH   2   3
ATOM      3  C   UNL     1      25.370   1.818   7.730  1.00  0.00     0.000 C 
BRANCH   3   4
ATOM      4  C   UNL     1      26.895   1.977   7.598  1.00  0.00     0.000 C 
BRANCH   4   5
ATOM      5  C   UNL     1      27.507   1.042   6.542  1.00  0.00     0.000 C 
BRANCH   5   6
ATOM      6  C   UNL     1      28.043  -0.264   7.154  1.00  0.00     0.000 C 
BRANCH   6   7
ATOM      7  C   UNL     1      28.471  -0.105   8.626  1.00  0.00     0.000 C 
BRANCH   7   8
ATOM      8  C   UNL     1      27.686  -0.964   9.635  1.00  0.00     0.000 C 
BRANCH   8   9
ATOM      9  C   UNL     1      26.880  -0.123  10.642  1.00  0.00     0.000 C 
BRANCH   9  10
ATOM     10  C   UNL     1      25.397  -0.523  10.701  1.00  0.00     0.000 C 
BRANCH  10  11
ATOM     11  C   UNL     1      24.481   0.640  11.124  1.00  0.00     0.000 C 
BRANCH  11  12
ATOM     12  C   UNL     1      24.364   0.768  12.652  1.00  0.00     0.006 C 
BRANCH  12  13
ATOM     13  C   UNL     1      23.318   1.808  13.076  1.00  0.00     0.053 C 
BRANCH  13  14
ATOM     14  C   UNL     1      23.152   1.813  14.564  1.00  0.00     0.041 C 
ATOM     15  O   UNL     1      24.158   1.909  15.316  1.00  0.00    -0.550 OA
ATOM     16  O   UNL     1      21.882   1.725  15.121  1.00  0.00    -0.550 OA
ENDBRANCH  13  14
ENDBRANCH  12  13
ENDBRANCH  11  12
ENDBRANCH  10  11
ENDBRANCH   9  10
ENDBRANCH   8   9
ENDBRANCH   7   8
ENDBRANCH   6   7
ENDBRANCH   5   6
ENDBRANCH   4   5
ENDBRANCH   3   4
ENDBRANCH   2   3
ENDBRANCH   1   2
BRANCH   1  17
ATOM     17  C   UNL     1      24.715  -1.690   6.686  1.00  0.00     0.000 C 
BRANCH  17  18
ATOM     18  C   UNL     1      24.902  -2.761   7.781  1.00  0.00     0.000 C 
BRANCH  18  19
ATOM     19  C   UNL     1      24.270  -4.132   7.471  1.00  0.00     0.000 C 
BRANCH  19  20
ATOM     20  C   UNL     1      24.205  -4.430   5.962  1.00  0.00     0.000 C 
BRANCH  20  21
ATOM     21  C   UNL     1      25.397  -5.266   5.466  1.00  0.00     0.000 C 
BRANCH  21  22
ATOM     22  C   UNL     1      25.903  -4.822   4.082  1.00  0.00    -0.000 C 
BRANCH  22  23
ATOM     23  C   UNL     1      27.368  -4.353   4.117  1.00  0.00    -0.000 C 
BRANCH  23  24
ATOM     24  C   UNL     1      27.628  -3.310   5.220  1.00  0.00    -0.000 C 
BRANCH  24  25
ATOM     25  C   UNL     1      28.751  -3.731   6.182  1.00  0.00    -0.000 C 
BRANCH  25  26
ATOM     26  C   UNL     1      28.241  -3.965   7.615  1.00  0.00    -0.000 C 
BRANCH  26  27
ATOM     27  C   UNL     1      28.036  -5.455   7.932  1.00  0.00    -0.000 C 
BRANCH  27  28
ATOM     28  C   UNL     1      28.837  -6.376   6.999  1.00  0.00    -0.000 C 
BRANCH  28  29
ATOM     29  C   UNL     1      28.042  -7.643   6.664  1.00  0.00    -0.003 C 
ATOM     30  C   UNL     1      27.972  -7.869   5.157  1.00  0.00     0.004 C 
ENDBRANCH  28  29
ENDBRANCH  27  28
ENDBRANCH  26  27
ENDBRANCH  25  26
ENDBRANCH  24  25
ENDBRANCH  23  24
ENDBRANCH  22  23
ENDBRANCH  21  22
ENDBRANCH  20  21
ENDBRANCH  19  20
ENDBRANCH  18  19
ENDBRANCH  17  18
ENDBRANCH   1  17
TORSDOF 26
ENDMDL
MODEL 7
REMARK VINA RESULT:    -3.626      2.268      4.432
REMARK INTER + INTRA:         -14.400
REMARK INTER:                 -10.219
REMARK INTRA:                  -4.181
REMARK UNBOUND:                -5.263
REMARK SMILES CCCCCCCCCCCCCCCCCCCCCCCCCCCC(=O)[O-]
REMARK SMILES IDX 15 1 16 2 17 3 18 4 19 5 20 6 21 7 22 8 23 9 24 10 25 11
REMARK SMILES IDX 26 12 27 13 28 14 29 15 30 16 14 17 13 18 12 19 11 20 10 21
REMARK SMILES IDX 9 22 8 23 7 24 6 25 5 26 4 27 3 28 2 29 1 30
REMARK H PARENT
REMARK Flexibility Score: inf
ROOT
ATOM      1  C   UNL     1      21.459  -9.169  15.310  1.00  0.00     0.000 C 
ENDROOT
BRANCH   1   2
ATOM      2  C   UNL     1      22.141  -9.596  16.625  1.00  0.00     0.000 C 
BRANCH   2   3
ATOM      3  C   UNL     1      23.186 -10.717  16.478  1.00  0.00     0.000 C 
BRANCH   3   4
ATOM      4  C   UNL     1      24.574 -10.307  17.000  1.00  0.00     0.000 C 
BRANCH   4   5
ATOM      5  C   UNL     1      25.605 -11.446  16.926  1.00  0.00     0.000 C 
BRANCH   5   6
ATOM      6  C   UNL     1      25.318 -12.423  15.772  1.00  0.00     0.000 C 
BRANCH   6   7
ATOM      7  C   UNL     1      26.113 -12.090  14.494  1.00  0.00     0.000 C 
BRANCH   7   8
ATOM      8  C   UNL     1      25.427 -11.103  13.531  1.00  0.00     0.000 C 
BRANCH   8   9
ATOM      9  C   UNL     1      24.822 -11.792  12.294  1.00  0.00     0.000 C 
BRANCH   9  10
ATOM     10  C   UNL     1      23.286 -11.835  12.326  1.00  0.00     0.000 C 
BRANCH  10  11
ATOM     11  C   UNL     1      22.739 -13.004  13.166  1.00  0.00     0.000 C 
BRANCH  11  12
ATOM     12  C   UNL     1      21.365 -12.689  13.782  1.00  0.00     0.006 C 
BRANCH  12  13
ATOM     13  C   UNL     1      21.154 -13.388  15.132  1.00  0.00     0.053 C 
BRANCH  13  14
ATOM     14  C   UNL     1      20.099 -12.686  15.930  1.00  0.00     0.041 C 
ATOM     15  O   UNL     1      19.097 -12.182  15.355  1.00  0.00    -0.550 OA
ATOM     16  O   UNL     1      20.216 -12.599  17.312  1.00  0.00    -0.550 OA
ENDBRANCH  13  14
ENDBRANCH  12  13
ENDBRANCH  11  12
ENDBRANCH  10  11
ENDBRANCH   9  10
ENDBRANCH   8   9
ENDBRANCH   7   8
ENDBRANCH   6   7
ENDBRANCH   5   6
ENDBRANCH   4   5
ENDBRANCH   3   4
ENDBRANCH   2   3
ENDBRANCH   1   2
BRANCH   1  17
ATOM     17  C   UNL     1      22.421  -8.895  14.138  1.00  0.00     0.000 C 
BRANCH  17  18
ATOM     18  C   UNL     1      23.130  -7.525  14.184  1.00  0.00     0.000 C 
BRANCH  18  19
ATOM     19  C   UNL     1      24.643  -7.580  14.476  1.00  0.00     0.000 C 
BRANCH  19  20
ATOM     20  C   UNL     1      25.046  -6.722  15.689  1.00  0.00     0.000 C 
BRANCH  20  21
ATOM     21  C   UNL     1      23.943  -6.642  16.758  1.00  0.00     0.000 C 
BRANCH  21  22
ATOM     22  C   UNL     1      24.146  -5.475  17.740  1.00  0.00    -0.000 C 
BRANCH  22  23
ATOM     23  C   UNL     1      25.197  -4.466  17.244  1.00  0.00    -0.000 C 
BRANCH  23  24
ATOM     24  C   UNL     1      24.624  -3.046  17.088  1.00  0.00    -0.000 C 
BRANCH  24  25
ATOM     25  C   UNL     1      25.185  -2.062  18.127  1.00  0.00    -0.000 C 
BRANCH  25  26
ATOM     26  C   UNL     1      24.091  -1.485  19.043  1.00  0.00    -0.000 C 
BRANCH  26  27
ATOM     27  C   UNL     1      22.923  -0.873  18.255  1.00  0.00    -0.000 C 
BRANCH  27  28
ATOM     28  C   UNL     1      22.659   0.594  18.630  1.00  0.00    -0.000 C 
BRANCH  28  29
ATOM     29  C   UNL     1      22.933   1.522  17.441  1.00  0.00    -0.003 C 
ATOM     30  C   UNL     1      23.392   0.732  16.219  1.00  0.00     0.004 C 
ENDBRANCH  28  29
ENDBRANCH  27  28
ENDBRANCH  26  27
ENDBRANCH  25  26
ENDBRANCH  24  25
ENDBRANCH  23  24
ENDBRANCH  22  23
ENDBRANCH  21  22
ENDBRANCH  20  21
ENDBRANCH  19  20
ENDBRANCH  18  19
ENDBRANCH  17  18
ENDBRANCH   1  17
TORSDOF 26
ENDMDL
MODEL 8
REMARK VINA RESULT:    -3.611      9.633     12.070
REMARK INTER + INTRA:         -14.363
REMARK INTER:                  -8.964
REMARK INTRA:                  -5.399
REMARK UNBOUND:                -5.263
REMARK SMILES CCCCCCCCCCCCCCCCCCCCCCCCCCCC(=O)[O-]
REMARK SMILES IDX 15 1 16 2 17 3 18 4 19 5 20 6 21 7 22 8 23 9 24 10 25 11
REMARK SMILES IDX 26 12 27 13 28 14 29 15 30 16 14 17 13 18 12 19 11 20 10 21
REMARK SMILES IDX 9 22 8 23 7 24 6 25 5 26 4 27 3 28 2 29 1 30
REMARK H PARENT
REMARK Flexibility Score: inf
ROOT
ATOM      1  C   UNL     1      24.178  -0.982   6.719  1.00  0.00     0.000 C 
ENDROOT
BRANCH   1   2
ATOM      2  C   UNL     1      23.505   0.235   6.054  1.00  0.00     0.000 C 
BRANCH   2   3
ATOM      3  C   UNL     1      22.170   0.664   6.691  1.00  0.00     0.000 C 
BRANCH   3   4
ATOM      4  C   UNL     1      20.977  -0.166   6.185  1.00  0.00     0.000 C 
BRANCH   4   5
ATOM      5  C   UNL     1      20.372  -1.072   7.269  1.00  0.00     0.000 C 
BRANCH   5   6
ATOM      6  C   UNL     1      20.515  -2.567   6.933  1.00  0.00     0.000 C 
BRANCH   6   7
ATOM      7  C   UNL     1      21.532  -3.290   7.837  1.00  0.00     0.000 C 
BRANCH   7   8
ATOM      8  C   UNL     1      21.861  -4.739   7.430  1.00  0.00     0.000 C 
BRANCH   8   9
ATOM      9  C   UNL     1      23.364  -4.967   7.180  1.00  0.00     0.000 C 
BRANCH   9  10
ATOM     10  C   UNL     1      23.843  -4.374   5.846  1.00  0.00     0.000 C 
BRANCH  10  11
ATOM     11  C   UNL     1      25.350  -4.580   5.608  1.00  0.00     0.000 C 
BRANCH  11  12
ATOM     12  C   UNL     1      26.143  -4.670   6.923  1.00  0.00     0.006 C 
BRANCH  12  13
ATOM     13  C   UNL     1      26.866  -6.015   7.081  1.00  0.00     0.053 C 
BRANCH  13  14
ATOM     14  C   UNL     1      28.349  -5.832   6.976  1.00  0.00     0.041 C 
ATOM     15  O   UNL     1      28.900  -4.811   7.468  1.00  0.00    -0.550 OA
ATOM     16  O   UNL     1      29.125  -6.796   6.344  1.00  0.00    -0.550 OA
ENDBRANCH  13  14
ENDBRANCH  12  13
ENDBRANCH  11  12
ENDBRANCH  10  11
ENDBRANCH   9  10
ENDBRANCH   8   9
ENDBRANCH   7   8
ENDBRANCH   6   7
ENDBRANCH   5   6
ENDBRANCH   4   5
ENDBRANCH   3   4
ENDBRANCH   2   3
ENDBRANCH   1   2
BRANCH   1  17
ATOM     17  C   UNL     1      24.090  -1.014   8.257  1.00  0.00     0.000 C 
BRANCH  17  18
ATOM     18  C   UNL     1      25.017  -2.039   8.942  1.00  0.00     0.000 C 
BRANCH  18  19
ATOM     19  C   UNL     1      26.250  -1.439   9.647  1.00  0.00     0.000 C 
BRANCH  19  20
ATOM     20  C   UNL     1      27.576  -1.855   8.983  1.00  0.00     0.000 C 
BRANCH  20  21
ATOM     21  C   UNL     1      28.058  -0.846   7.928  1.00  0.00     0.000 C 
BRANCH  21  22
ATOM     22  C   UNL     1      27.682  -1.255   6.493  1.00  0.00    -0.000 C 
BRANCH  22  23
ATOM     23  C   UNL     1      27.573  -0.045   5.548  1.00  0.00    -0.000 C 
BRANCH  23  24
ATOM     24  C   UNL     1      27.851   1.289   6.264  1.00  0.00    -0.000 C 
BRANCH  24  25
ATOM     25  C   UNL     1      26.593   2.160   6.408  1.00  0.00    -0.000 C 
BRANCH  25  26
ATOM     26  C   UNL     1      26.539   2.899   7.756  1.00  0.00    -0.000 C 
BRANCH  26  27
ATOM     27  C   UNL     1      25.830   2.083   8.849  1.00  0.00    -0.000 C 
BRANCH  27  28
ATOM     28  C   UNL     1      24.362   2.496   9.039  1.00  0.00    -0.000 C 
BRANCH  28  29
ATOM     29  C   UNL     1      24.008   2.590  10.528  1.00  0.00    -0.003 C 
ATOM     30  C   UNL     1      24.017   1.213  11.185  1.00  0.00     0.004 C 
ENDBRANCH  28  29
ENDBRANCH  27  28
ENDBRANCH  26  27
ENDBRANCH  25  26
ENDBRANCH  24  25
ENDBRANCH  23  24
ENDBRANCH  22  23
ENDBRANCH  21  22
ENDBRANCH  20  21
ENDBRANCH  19  20
ENDBRANCH  18  19
ENDBRANCH  17  18
ENDBRANCH   1  17
TORSDOF 26
ENDMDL
MODEL 9
REMARK VINA RESULT:    -3.599      2.387      3.503
REMARK INTER + INTRA:         -14.333
REMARK INTER:                  -9.339
REMARK INTRA:                  -4.994
REMARK UNBOUND:                -5.263
REMARK SMILES CCCCCCCCCCCCCCCCCCCCCCCCCCCC(=O)[O-]
REMARK SMILES IDX 15 1 16 2 17 3 18 4 19 5 20 6 21 7 22 8 23 9 24 10 25 11
REMARK SMILES IDX 26 12 27 13 28 14 29 15 30 16 14 17 13 18 12 19 11 20 10 21
REMARK SMILES IDX 9 22 8 23 7 24 6 25 5 26 4 27 3 28 2 29 1 30
REMARK H PARENT
REMARK Flexibility Score: inf
ROOT
ATOM      1  C   UNL     1      24.651  -7.405  16.208  1.00  0.00     0.000 C 
ENDROOT
BRANCH   1   2
ATOM      2  C   UNL     1      24.517  -7.515  14.675  1.00  0.00     0.000 C 
BRANCH   2   3
ATOM      3  C   UNL     1      24.203  -8.929  14.153  1.00  0.00     0.000 C 
BRANCH   3   4
ATOM      4  C   UNL     1      22.732  -9.092  13.732  1.00  0.00     0.000 C 
BRANCH   4   5
ATOM      5  C   UNL     1      21.780  -9.267  14.926  1.00  0.00     0.000 C 
BRANCH   5   6
ATOM      6  C   UNL     1      20.306  -9.050  14.540  1.00  0.00     0.000 C 
BRANCH   6   7
ATOM      7  C   UNL     1      19.389 -10.197  15.009  1.00  0.00     0.000 C 
BRANCH   7   8
ATOM      8  C   UNL     1      20.056 -11.239  15.927  1.00  0.00     0.000 C 
BRANCH   8   9
ATOM      9  C   UNL     1      19.720 -12.689  15.532  1.00  0.00     0.000 C 
BRANCH   9  10
ATOM     10  C   UNL     1      20.972 -13.531  15.233  1.00  0.00     0.000 C 
BRANCH  10  11
ATOM     11  C   UNL     1      21.917 -12.857  14.222  1.00  0.00     0.000 C 
BRANCH  11  12
ATOM     12  C   UNL     1      23.399 -13.098  14.557  1.00  0.00     0.006 C 
BRANCH  12  13
ATOM     13  C   UNL     1      23.885 -12.232  15.728  1.00  0.00     0.053 C 
BRANCH  13  14
ATOM     14  C   UNL     1      25.327 -12.504  16.022  1.00  0.00     0.041 C 
ATOM     15  O   UNL     1      25.996 -11.698  16.723  1.00  0.00    -0.550 OA
ATOM     16  O   UNL     1      25.931 -13.656  15.532  1.00  0.00    -0.550 OA
ENDBRANCH  13  14
ENDBRANCH  12  13
ENDBRANCH  11  12
ENDBRANCH  10  11
ENDBRANCH   9  10
ENDBRANCH   8   9
ENDBRANCH   7   8
ENDBRANCH   6   7
ENDBRANCH   5   6
ENDBRANCH   4   5
ENDBRANCH   3   4
ENDBRANCH   2   3
ENDBRANCH   1   2
BRANCH   1  17
ATOM     17  C   UNL     1      24.977  -5.994  16.732  1.00  0.00     0.000 C 
BRANCH  17  18
ATOM     18  C   UNL     1      24.610  -5.747  18.210  1.00  0.00     0.000 C 
BRANCH  18  19
ATOM     19  C   UNL     1      25.068  -4.390  18.781  1.00  0.00     0.000 C 
BRANCH  19  20
ATOM     20  C   UNL     1      25.377  -3.357  17.683  1.00  0.00     0.000 C 
BRANCH  20  21
ATOM     21  C   UNL     1      24.337  -2.226  17.616  1.00  0.00     0.000 C 
BRANCH  21  22
ATOM     22  C   UNL     1      23.127  -2.578  16.732  1.00  0.00    -0.000 C 
BRANCH  22  23
ATOM     23  C   UNL     1      21.788  -2.375  17.463  1.00  0.00    -0.000 C 
BRANCH  23  24
ATOM     24  C   UNL     1      21.951  -2.343  18.994  1.00  0.00    -0.000 C 
BRANCH  24  25
ATOM     25  C   UNL     1      21.644  -3.698  19.652  1.00  0.00    -0.000 C 
BRANCH  25  26
ATOM     26  C   UNL     1      20.680  -4.555  18.812  1.00  0.00    -0.000 C 
BRANCH  26  27
ATOM     27  C   UNL     1      20.979  -6.059  18.922  1.00  0.00    -0.000 C 
BRANCH  27  28
ATOM     28  C   UNL     1      20.963  -6.768  17.559  1.00  0.00    -0.000 C 
BRANCH  28  29
ATOM     29  C   UNL     1      20.398  -5.848  16.470  1.00  0.00    -0.003 C 
ATOM     30  C   UNL     1      21.437  -5.571  15.388  1.00  0.00     0.004 C 
ENDBRANCH  28  29
ENDBRANCH  27  28
ENDBRANCH  26  27
ENDBRANCH  25  26
ENDBRANCH  24  25
ENDBRANCH  23  24
ENDBRANCH  22  23
ENDBRANCH  21  22
ENDBRANCH  20  21
ENDBRANCH  19  20
ENDBRANCH  18  19
ENDBRANCH  17  18
ENDBRANCH   1  17
TORSDOF 26
ENDMDL
