MODEL 1
REMARK VINA RESULT:     0.847      0.000      0.000
REMARK INTER + INTRA:           2.156
REMARK INTER:                   1.342
REMARK INTRA:                   0.813
REMARK UNBOUND:                 0.813
REMARK SMILES CCCCCCCCCCCC(=O)[O-]
REMARK SMILES IDX 7 1 8 2 9 3 10 4 11 5 12 6 13 7 14 8 6 9 5 10 4 11 3 12 2 13
REMARK SMILES IDX 1 14
REMARK H PARENT
REMARK Flexibility Score: inf
ROOT
ATOM      1  C   UNL     1       9.005 -29.634 -17.354  1.00  0.00     0.000 C 
ENDROOT
BRANCH   1   2
ATOM      2  C   UNL     1       8.276 -29.436 -18.692  1.00  0.00     0.000 C 
BRANCH   2   3
ATOM      3  C   UNL     1       6.899 -28.791 -18.477  1.00  0.00     0.000 C 
BRANCH   3   4
ATOM      4  C   UNL     1       6.247 -28.333 -19.791  1.00  0.00     0.006 C 
BRANCH   4   5
ATOM      5  C   UNL     1       6.752 -29.119 -21.007  1.00  0.00     0.053 C 
BRANCH   5   6
ATOM      6  C   UNL     1       6.826 -28.231 -22.208  1.00  0.00     0.041 C 
ATOM      7  O   UNL     1       5.875 -28.199 -23.033  1.00  0.00    -0.550 OA
ATOM      8  O   UNL     1       7.968 -27.476 -22.445  1.00  0.00    -0.550 OA
ENDBRANCH   5   6
ENDBRANCH   4   5
ENDBRANCH   3   4
ENDBRANCH   2   3
ENDBRANCH   1   2
BRANCH   1   9
ATOM      9  C   UNL     1       8.170 -29.174 -16.148  1.00  0.00     0.000 C 
BRANCH   9  10
ATOM     10  C   UNL     1       8.510 -29.949 -14.863  1.00  0.00    -0.000 C 
BRANCH  10  11
ATOM     11  C   UNL     1       9.761 -30.831 -15.020  1.00  0.00    -0.000 C 
BRANCH  11  12
ATOM     12  C   UNL     1       9.700 -31.727 -16.269  1.00  0.00    -0.000 C 
BRANCH  12  13
ATOM     13  C   UNL     1       8.894 -33.013 -16.032  1.00  0.00    -0.003 C 
ATOM     14  C   UNL     1       8.891 -33.451 -14.568  1.00  0.00     0.004 C 
ENDBRANCH  12  13
ENDBRANCH  11  12
ENDBRANCH  10  11
ENDBRANCH   9  10
ENDBRANCH   1   9
TORSDOF 10
ENDMDL
MODEL 2
REMARK VINA RESULT:     0.899      3.511      6.988
REMARK INTER + INTRA:           2.237
REMARK INTER:                   2.578
REMARK INTRA:                  -0.341
REMARK UNBOUND:                 0.813
REMARK SMILES CCCCCCCCCCCC(=O)[O-]
REMARK SMILES IDX 7 1 8 2 9 3 10 4 11 5 12 6 13 7 14 8 6 9 5 10 4 11 3 12 2 13
REMARK SMILES IDX 1 14
REMARK H PARENT
REMARK Flexibility Score: inf
ROOT
ATOM      1  C   UNL     1       8.458 -29.368 -18.506  1.00  0.00     0.000 C 
ENDROOT
BRANCH   1   2
ATOM      2  C   UNL     1       9.197 -29.851 -17.248  1.00  0.00     0.000 C 
BRANCH   2   3
ATOM      3  C   UNL     1       8.476 -29.383 -15.975  1.00  0.00     0.000 C 
BRANCH   3   4
ATOM      4  C   UNL     1       8.641 -30.364 -14.805  1.00  0.00     0.006 C 
BRANCH   4   5
ATOM      5  C   UNL     1       9.777 -31.369 -15.032  1.00  0.00     0.053 C 
BRANCH   5   6
ATOM      6  C   UNL     1       9.225 -32.700 -15.432  1.00  0.00     0.041 C 
ATOM      7  O   UNL     1       8.762 -33.482 -14.560  1.00  0.00    -0.550 OA
ATOM      8  O   UNL     1       9.267 -33.099 -16.761  1.00  0.00    -0.550 OA
ENDBRANCH   5   6
ENDBRANCH   4   5
ENDBRANCH   3   4
ENDBRANCH   2   3
ENDBRANCH   1   2
BRANCH   1   9
ATOM      9  C   UNL     1       7.018 -28.917 -18.215  1.00  0.00     0.000 C 
BRANCH   9  10
ATOM     10  C   UNL     1       6.263 -28.489 -19.486  1.00  0.00    -0.000 C 
BRANCH  10  11
ATOM     11  C   UNL     1       6.870 -29.095 -20.763  1.00  0.00    -0.000 C 
BRANCH  11  12
ATOM     12  C   UNL     1       5.917 -29.009 -21.968  1.00  0.00    -0.000 C 
BRANCH  12  13
ATOM     13  C   UNL     1       6.480 -28.139 -23.103  1.00  0.00    -0.003 C 
ATOM     14  C   UNL     1       5.883 -26.732 -23.125  1.00  0.00     0.004 C 
ENDBRANCH  12  13
ENDBRANCH  11  12
ENDBRANCH  10  11
ENDBRANCH   9  10
ENDBRANCH   1   9
TORSDOF 10
ENDMDL
MODEL 3
REMARK VINA RESULT:     1.438      0.715      1.059
REMARK INTER + INTRA:           3.092
REMARK INTER:                   3.637
REMARK INTRA:                  -0.545
REMARK UNBOUND:                 0.813
REMARK SMILES CCCCCCCCCCCC(=O)[O-]
REMARK SMILES IDX 7 1 8 2 9 3 10 4 11 5 12 6 13 7 14 8 6 9 5 10 4 11 3 12 2 13
REMARK SMILES IDX 1 14
REMARK H PARENT
REMARK Flexibility Score: inf
ROOT
ATOM      1  C   UNL     1       8.337 -29.241 -16.920  1.00  0.00     0.000 C 
ENDROOT
BRANCH   1   2
ATOM      2  C   UNL     1       7.057 -28.462 -17.261  1.00  0.00     0.000 C 
BRANCH   2   3
ATOM      3  C   UNL     1       6.365 -29.058 -18.496  1.00  0.00     0.000 C 
BRANCH   3   4
ATOM      4  C   UNL     1       7.170 -28.846 -19.788  1.00  0.00     0.006 C 
BRANCH   4   5
ATOM      5  C   UNL     1       6.370 -29.203 -21.047  1.00  0.00     0.053 C 
BRANCH   5   6
ATOM      6  C   UNL     1       6.676 -28.239 -22.150  1.00  0.00     0.041 C 
ATOM      7  O   UNL     1       5.888 -28.121 -23.125  1.00  0.00    -0.550 OA
ATOM      8  O   UNL     1       7.858 -27.509 -22.127  1.00  0.00    -0.550 OA
ENDBRANCH   5   6
ENDBRANCH   4   5
ENDBRANCH   3   4
ENDBRANCH   2   3
ENDBRANCH   1   2
BRANCH   1   9
ATOM      9  C   UNL     1       8.462 -29.554 -15.420  1.00  0.00     0.000 C 
BRANCH   9  10
ATOM     10  C   UNL     1       9.501 -30.651 -15.130  1.00  0.00    -0.000 C 
BRANCH  10  11
ATOM     11  C   UNL     1       9.821 -31.504 -16.369  1.00  0.00    -0.000 C 
BRANCH  11  12
ATOM     12  C   UNL     1       9.230 -32.922 -16.279  1.00  0.00    -0.000 C 
BRANCH  12  13
ATOM     13  C   UNL     1       8.525 -33.182 -14.939  1.00  0.00    -0.003 C 
ATOM     14  C   UNL     1       9.091 -34.389 -14.193  1.00  0.00     0.004 C 
ENDBRANCH  12  13
ENDBRANCH  11  12
ENDBRANCH  10  11
ENDBRANCH   9  10
ENDBRANCH   1   9
TORSDOF 10
ENDMDL
MODEL 4
REMARK VINA RESULT:     2.389      2.716      6.371
REMARK INTER + INTRA:           4.599
REMARK INTER:                   4.120
REMARK INTRA:                   0.478
REMARK UNBOUND:                 0.813
REMARK SMILES CCCCCCCCCCCC(=O)[O-]
REMARK SMILES IDX 7 1 8 2 9 3 10 4 11 5 12 6 13 7 14 8 6 9 5 10 4 11 3 12 2 13
REMARK SMILES IDX 1 14
REMARK H PARENT
REMARK Flexibility Score: inf
ROOT
ATOM      1  C   UNL     1       9.355 -30.013 -18.267  1.00  0.00     0.000 C 
ENDROOT
BRANCH   1   2
ATOM      2  C   UNL     1       9.270 -31.505 -17.906  1.00  0.00     0.000 C 
BRANCH   2   3
ATOM      3  C   UNL     1       9.250 -31.700 -16.383  1.00  0.00     0.000 C 
BRANCH   3   4
ATOM      4  C   UNL     1       9.619 -30.421 -15.615  1.00  0.00     0.006 C 
BRANCH   4   5
ATOM      5  C   UNL     1       8.460 -29.888 -14.764  1.00  0.00     0.053 C 
BRANCH   5   6
ATOM      6  C   UNL     1       7.695 -28.846 -15.517  1.00  0.00     0.041 C 
ATOM      7  O   UNL     1       7.772 -27.636 -15.180  1.00  0.00    -0.550 OA
ATOM      8  O   UNL     1       6.857 -29.218 -16.560  1.00  0.00    -0.550 OA
ENDBRANCH   5   6
ENDBRANCH   4   5
ENDBRANCH   3   4
ENDBRANCH   2   3
ENDBRANCH   1   2
BRANCH   1   9
ATOM      9  C   UNL     1       8.503 -29.648 -19.494  1.00  0.00     0.000 C 
BRANCH   9  10
ATOM     10  C   UNL     1       7.193 -28.937 -19.114  1.00  0.00    -0.000 C 
BRANCH  10  11
ATOM     11  C   UNL     1       6.396 -28.471 -20.344  1.00  0.00    -0.000 C 
BRANCH  11  12
ATOM     12  C   UNL     1       7.048 -28.904 -21.669  1.00  0.00    -0.000 C 
BRANCH  12  13
ATOM     13  C   UNL     1       6.189 -28.546 -22.892  1.00  0.00    -0.003 C 
ATOM     14  C   UNL     1       5.875 -27.053 -22.982  1.00  0.00     0.004 C 
ENDBRANCH  12  13
ENDBRANCH  11  12
ENDBRANCH  10  11
ENDBRANCH   9  10
ENDBRANCH   1   9
TORSDOF 10
ENDMDL
MODEL 5
REMARK VINA RESULT:     2.492      1.106      2.188
REMARK INTER + INTRA:           4.762
REMARK INTER:                   4.946
REMARK INTRA:                  -0.184
REMARK UNBOUND:                 0.813
REMARK SMILES CCCCCCCCCCCC(=O)[O-]
REMARK SMILES IDX 7 1 8 2 9 3 10 4 11 5 12 6 13 7 14 8 6 9 5 10 4 11 3 12 2 13
REMARK SMILES IDX 1 14
REMARK H PARENT
REMARK Flexibility Score: inf
ROOT
ATOM      1  C   UNL     1       8.850 -29.604 -18.361  1.00  0.00     0.000 C 
ENDROOT
BRANCH   1   2
ATOM      2  C   UNL     1       7.625 -29.237 -17.508  1.00  0.00     0.000 C 
BRANCH   2   3
ATOM      3  C   UNL     1       6.534 -28.582 -18.368  1.00  0.00     0.000 C 
BRANCH   3   4
ATOM      4  C   UNL     1       6.624 -28.983 -19.849  1.00  0.00     0.006 C 
BRANCH   4   5
ATOM      5  C   UNL     1       6.466 -27.786 -20.795  1.00  0.00     0.053 C 
BRANCH   5   6
ATOM      6  C   UNL     1       6.475 -28.242 -22.220  1.00  0.00     0.041 C 
ATOM      7  O   UNL     1       6.001 -27.506 -23.124  1.00  0.00    -0.550 OA
ATOM      8  O   UNL     1       6.961 -29.503 -22.542  1.00  0.00    -0.550 OA
ENDBRANCH   5   6
ENDBRANCH   4   5
ENDBRANCH   3   4
ENDBRANCH   2   3
ENDBRANCH   1   2
BRANCH   1   9
ATOM      9  C   UNL     1       9.922 -30.367 -17.567  1.00  0.00     0.000 C 
BRANCH   9  10
ATOM     10  C   UNL     1       9.469 -31.782 -17.169  1.00  0.00    -0.000 C 
BRANCH  10  11
ATOM     11  C   UNL     1       9.296 -31.940 -15.649  1.00  0.00    -0.000 C 
BRANCH  11  12
ATOM     12  C   UNL     1       9.692 -30.672 -14.874  1.00  0.00    -0.000 C 
BRANCH  12  13
ATOM     13  C   UNL     1       8.525 -30.091 -14.059  1.00  0.00    -0.003 C 
ATOM     14  C   UNL     1       7.902 -28.856 -14.709  1.00  0.00     0.004 C 
ENDBRANCH  12  13
ENDBRANCH  11  12
ENDBRANCH  10  11
ENDBRANCH   9  10
ENDBRANCH   1   9
TORSDOF 10
ENDMDL
MODEL 6
REMARK VINA RESULT:     2.507      1.110      1.876
REMARK INTER + INTRA:           4.786
REMARK INTER:                   4.949
REMARK INTRA:                  -0.163
REMARK UNBOUND:                 0.813
REMARK SMILES CCCCCCCCCCCC(=O)[O-]
REMARK SMILES IDX 7 1 8 2 9 3 10 4 11 5 12 6 13 7 14 8 6 9 5 10 4 11 3 12 2 13
REMARK SMILES IDX 1 14
REMARK H PARENT
REMARK Flexibility Score: inf
ROOT
ATOM      1  C   UNL     1       8.127 -28.991 -16.049  1.00  0.00     0.000 C 
ENDROOT
BRANCH   1   2
ATOM      2  C   UNL     1       6.910 -28.282 -16.664  1.00  0.00     0.000 C 
BRANCH   2   3
ATOM      3  C   UNL     1       6.369 -29.067 -17.868  1.00  0.00     0.000 C 
BRANCH   3   4
ATOM      4  C   UNL     1       7.203 -28.852 -19.140  1.00  0.00     0.006 C 
BRANCH   4   5
ATOM      5  C   UNL     1       6.448 -28.061 -20.215  1.00  0.00     0.053 C 
BRANCH   5   6
ATOM      6  C   UNL     1       6.640 -28.690 -21.559  1.00  0.00     0.041 C 
ATOM      7  O   UNL     1       7.349 -29.724 -21.679  1.00  0.00    -0.550 OA
ATOM      8  O   UNL     1       6.079 -28.106 -22.687  1.00  0.00    -0.550 OA
ENDBRANCH   5   6
ENDBRANCH   4   5
ENDBRANCH   3   4
ENDBRANCH   2   3
ENDBRANCH   1   2
BRANCH   1   9
ATOM      9  C   UNL     1       7.978 -29.226 -14.537  1.00  0.00     0.000 C 
BRANCH   9  10
ATOM     10  C   UNL     1       8.842 -30.395 -14.032  1.00  0.00    -0.000 C 
BRANCH  10  11
ATOM     11  C   UNL     1       9.786 -30.942 -15.117  1.00  0.00    -0.000 C 
BRANCH  11  12
ATOM     12  C   UNL     1       9.316 -32.295 -15.681  1.00  0.00    -0.000 C 
BRANCH  12  13
ATOM     13  C   UNL     1       9.283 -32.312 -17.217  1.00  0.00    -0.003 C 
ATOM     14  C   UNL     1       9.499 -30.930 -17.832  1.00  0.00     0.004 C 
ENDBRANCH  12  13
ENDBRANCH  11  12
ENDBRANCH  10  11
ENDBRANCH   9  10
ENDBRANCH   1   9
TORSDOF 10
ENDMDL
MODEL 7
REMARK VINA RESULT:     2.516      3.377      5.996
REMARK INTER + INTRA:           4.800
REMARK INTER:                   4.573
REMARK INTRA:                   0.227
REMARK UNBOUND:                 0.813
REMARK SMILES CCCCCCCCCCCC(=O)[O-]
REMARK SMILES IDX 7 1 8 2 9 3 10 4 11 5 12 6 13 7 14 8 6 9 5 10 4 11 3 12 2 13
REMARK SMILES IDX 1 14
REMARK H PARENT
REMARK Flexibility Score: inf
ROOT
ATOM      1  C   UNL     1       6.858 -28.470 -17.274  1.00  0.00     0.000 C 
ENDROOT
BRANCH   1   2
ATOM      2  C   UNL     1       8.121 -29.194 -16.783  1.00  0.00     0.000 C 
BRANCH   2   3
ATOM      3  C   UNL     1       8.117 -29.328 -15.253  1.00  0.00     0.000 C 
BRANCH   3   4
ATOM      4  C   UNL     1       9.037 -30.453 -14.754  1.00  0.00     0.006 C 
BRANCH   4   5
ATOM      5  C   UNL     1       9.806 -31.136 -15.891  1.00  0.00     0.053 C 
BRANCH   5   6
ATOM      6  C   UNL     1       9.276 -32.516 -16.125  1.00  0.00     0.041 C 
ATOM      7  O   UNL     1       9.205 -32.978 -17.294  1.00  0.00    -0.550 OA
ATOM      8  O   UNL     1       8.813 -33.272 -15.056  1.00  0.00    -0.550 OA
ENDBRANCH   5   6
ENDBRANCH   4   5
ENDBRANCH   3   4
ENDBRANCH   2   3
ENDBRANCH   1   2
BRANCH   1   9
ATOM      9  C   UNL     1       6.329 -29.030 -18.604  1.00  0.00     0.000 C 
BRANCH   9  10
ATOM     10  C   UNL     1       6.330 -27.980 -19.729  1.00  0.00    -0.000 C 
BRANCH  10  11
ATOM     11  C   UNL     1       6.808 -28.555 -21.073  1.00  0.00    -0.000 C 
BRANCH  11  12
ATOM     12  C   UNL     1       7.533 -29.904 -20.914  1.00  0.00    -0.000 C 
BRANCH  12  13
ATOM     13  C   UNL     1       9.034 -29.735 -20.634  1.00  0.00    -0.003 C 
ATOM     14  C   UNL     1       9.402 -30.011 -19.176  1.00  0.00     0.004 C 
ENDBRANCH  12  13
ENDBRANCH  11  12
ENDBRANCH  10  11
ENDBRANCH   9  10
ENDBRANCH   1   9
TORSDOF 10
ENDMDL
