MODEL 1
REMARK VINA RESULT:    -4.811      0.000      0.000
REMARK INTER + INTRA:          -5.924
REMARK INTER:                  -5.655
REMARK INTRA:                  -0.269
REMARK UNBOUND:                -0.269
REMARK SMILES O=c1c(O)c(-c2ccc(O)cc2)oc2cc(O)cc(O)c12
REMARK SMILES IDX 5 1 3 2 2 3 1 4 21 5 19 6 18 7 16 8 15 9 14 10 13 11 6 12
REMARK SMILES IDX 7 13 8 14 9 15 12 16 11 17 10 18 4 20 20 22 17 24
REMARK H PARENT 10 19 4 21 20 23 17 25
REMARK Flexibility Score: inf
ROOT
ATOM      1  C   UNL     1       9.172  11.780  61.153  1.00  0.00     0.180 A 
ATOM      2  C   UNL     1      10.063  12.774  61.596  1.00  0.00     0.208 A 
ATOM      3  C   UNL     1       9.562  13.856  62.336  1.00  0.00     0.238 A 
ATOM      4  O   UNL     1      10.356  14.770  62.682  1.00  0.00    -0.285 OA
ATOM      5  C   UNL     1       8.181  13.926  62.637  1.00  0.00     0.111 A 
ATOM      6  C   UNL     1       7.571  14.956  63.414  1.00  0.00     0.134 A 
ATOM      7  C   UNL     1       6.177  14.993  63.539  1.00  0.00     0.093 A 
ATOM      8  C   UNL     1       5.375  14.000  62.971  1.00  0.00     0.123 A 
ATOM      9  C   UNL     1       5.966  12.957  62.261  1.00  0.00     0.094 A 
ATOM     10  C   UNL     1       7.352  12.912  62.089  1.00  0.00     0.146 A 
ATOM     11  O   UNL     1       7.872  11.907  61.396  1.00  0.00    -0.452 OA
ENDROOT
BRANCH   1  12
ATOM     12  C   UNL     1       9.628  10.596  60.390  1.00  0.00     0.021 A 
ATOM     13  C   UNL     1       9.395  10.533  59.005  1.00  0.00     0.016 A 
ATOM     14  C   UNL     1       9.797   9.414  58.269  1.00  0.00     0.047 A 
ATOM     15  C   UNL     1      10.422   8.340  58.908  1.00  0.00     0.115 A 
ATOM     16  C   UNL     1      10.239   9.502  61.030  1.00  0.00     0.016 A 
ATOM     17  C   UNL     1      10.640   8.384  60.292  1.00  0.00     0.047 A 
BRANCH  15  18
ATOM     18  O   UNL     1      10.818   7.232  58.163  1.00  0.00    -0.508 OA
ATOM     19  H   UNL     1      11.746   6.833  58.259  1.00  0.00     0.293 HD
ENDBRANCH  15  18
ENDBRANCH   1  12
BRANCH   2  20
ATOM     20  O   UNL     1      11.419  12.698  61.268  1.00  0.00    -0.502 OA
ATOM     21  H   UNL     1      11.748  12.692  60.310  1.00  0.00     0.293 HD
ENDBRANCH   2  20
BRANCH   6  22
ATOM     22  O   UNL     1       8.287  15.943  64.099  1.00  0.00    -0.507 OA
ATOM     23  H   UNL     1       9.061  15.765  64.720  1.00  0.00     0.293 HD
ENDBRANCH   6  22
BRANCH   8  24
ATOM     24  O   UNL     1       3.990  14.036  63.113  1.00  0.00    -0.508 OA
ATOM     25  H   UNL     1       3.456  13.197  63.314  1.00  0.00     0.293 HD
ENDBRANCH   8  24
TORSDOF 5
ENDMDL
MODEL 2
REMARK VINA RESULT:    -4.697     13.274     15.410
REMARK INTER + INTRA:          -5.790
REMARK INTER:                  -5.505
REMARK INTRA:                  -0.284
REMARK UNBOUND:                -0.269
REMARK SMILES O=c1c(O)c(-c2ccc(O)cc2)oc2cc(O)cc(O)c12
REMARK SMILES IDX 5 1 3 2 2 3 1 4 21 5 19 6 18 7 16 8 15 9 14 10 13 11 6 12
REMARK SMILES IDX 7 13 8 14 9 15 12 16 11 17 10 18 4 20 20 22 17 24
REMARK H PARENT 10 19 4 21 20 23 17 25
REMARK Flexibility Score: inf
ROOT
ATOM      1  C   UNL     1       3.837  14.476  75.318  1.00  0.00     0.180 A 
ATOM      2  C   UNL     1       4.056  15.854  75.146  1.00  0.00     0.208 A 
ATOM      3  C   UNL     1       2.980  16.741  75.310  1.00  0.00     0.238 A 
ATOM      4  O   UNL     1       3.170  17.967  75.101  1.00  0.00    -0.285 OA
ATOM      5  C   UNL     1       1.702  16.241  75.659  1.00  0.00     0.111 A 
ATOM      6  C   UNL     1       0.550  17.052  75.889  1.00  0.00     0.134 A 
ATOM      7  C   UNL     1      -0.692  16.441  76.102  1.00  0.00     0.093 A 
ATOM      8  C   UNL     1      -0.812  15.050  76.157  1.00  0.00     0.123 A 
ATOM      9  C   UNL     1       0.317  14.252  75.992  1.00  0.00     0.094 A 
ATOM     10  C   UNL     1       1.564  14.831  75.743  1.00  0.00     0.146 A 
ATOM     11  O   UNL     1       2.613  14.033  75.581  1.00  0.00    -0.452 OA
ENDROOT
BRANCH   1  12
ATOM     12  C   UNL     1       4.926  13.483  75.187  1.00  0.00     0.021 A 
ATOM     13  C   UNL     1       5.664  13.111  76.324  1.00  0.00     0.016 A 
ATOM     14  C   UNL     1       6.712  12.192  76.219  1.00  0.00     0.047 A 
ATOM     15  C   UNL     1       7.045  11.643  74.977  1.00  0.00     0.115 A 
ATOM     16  C   UNL     1       5.280  12.942  73.937  1.00  0.00     0.016 A 
ATOM     17  C   UNL     1       6.328  12.022  73.835  1.00  0.00     0.047 A 
BRANCH  15  18
ATOM     18  O   UNL     1       8.091  10.727  74.888  1.00  0.00    -0.508 OA
ATOM     19  H   UNL     1       8.078   9.974  74.209  1.00  0.00     0.293 HD
ENDBRANCH  15  18
ENDBRANCH   1  12
BRANCH   2  20
ATOM     20  O   UNL     1       5.320  16.324  74.779  1.00  0.00    -0.502 OA
ATOM     21  H   UNL     1       5.867  16.934  75.374  1.00  0.00     0.293 HD
ENDBRANCH   2  20
BRANCH   6  22
ATOM     22  O   UNL     1       0.578  18.449  75.947  1.00  0.00    -0.507 OA
ATOM     23  H   UNL     1      -0.211  19.030  76.181  1.00  0.00     0.293 HD
ENDBRANCH   6  22
BRANCH   8  24
ATOM     24  O   UNL     1      -2.049  14.452  76.384  1.00  0.00    -0.508 OA
ATOM     25  H   UNL     1      -2.216  13.478  76.157  1.00  0.00     0.293 HD
ENDBRANCH   8  24
TORSDOF 5
ENDMDL
MODEL 3
REMARK VINA RESULT:    -4.693      1.440      1.970
REMARK INTER + INTRA:          -5.785
REMARK INTER:                  -5.501
REMARK INTRA:                  -0.285
REMARK UNBOUND:                -0.269
REMARK SMILES O=c1c(O)c(-c2ccc(O)cc2)oc2cc(O)cc(O)c12
REMARK SMILES IDX 5 1 3 2 2 3 1 4 21 5 19 6 18 7 16 8 15 9 14 10 13 11 6 12
REMARK SMILES IDX 7 13 8 14 9 15 12 16 11 17 10 18 4 20 20 22 17 24
REMARK H PARENT 10 19 4 21 20 23 17 25
REMARK Flexibility Score: inf
ROOT
ATOM      1  C   UNL     1       7.934  12.413  62.055  1.00  0.00     0.180 A 
ATOM      2  C   UNL     1       8.559  13.664  62.205  1.00  0.00     0.208 A 
ATOM      3  C   UNL     1       7.782  14.773  62.576  1.00  0.00     0.238 A 
ATOM      4  O   UNL     1       8.337  15.900  62.654  1.00  0.00    -0.285 OA
ATOM      5  C   UNL     1       6.394  14.616  62.807  1.00  0.00     0.111 A 
ATOM      6  C   UNL     1       5.519  15.663  63.224  1.00  0.00     0.134 A 
ATOM      7  C   UNL     1       4.141  15.423  63.296  1.00  0.00     0.093 A 
ATOM      8  C   UNL     1       3.615  14.157  63.029  1.00  0.00     0.123 A 
ATOM      9  C   UNL     1       4.468  13.113  62.678  1.00  0.00     0.094 A 
ATOM     10  C   UNL     1       5.843  13.331  62.563  1.00  0.00     0.146 A 
ATOM     11  O   UNL     1       6.619  12.311  62.215  1.00  0.00    -0.452 OA
ENDROOT
BRANCH   1  12
ATOM     12  C   UNL     1       8.690  11.193  61.692  1.00  0.00     0.021 A 
ATOM     13  C   UNL     1       8.662  10.731  60.365  1.00  0.00     0.016 A 
ATOM     14  C   UNL     1       9.350   9.568  60.005  1.00  0.00     0.047 A 
ATOM     15  C   UNL     1      10.061   8.845  60.968  1.00  0.00     0.115 A 
ATOM     16  C   UNL     1       9.391  10.449  62.660  1.00  0.00     0.016 A 
ATOM     17  C   UNL     1      10.077   9.286  62.297  1.00  0.00     0.047 A 
BRANCH  15  18
ATOM     18  O   UNL     1      10.743   7.689  60.595  1.00  0.00    -0.508 OA
ATOM     19  H   UNL     1      11.692   7.511  60.904  1.00  0.00     0.293 HD
ENDBRANCH  15  18
ENDBRANCH   1  12
BRANCH   2  20
ATOM     20  O   UNL     1       9.926  13.801  61.950  1.00  0.00    -0.502 OA
ATOM     21  H   UNL     1      10.536  13.005  61.811  1.00  0.00     0.293 HD
ENDBRANCH   2  20
BRANCH   6  22
ATOM     22  O   UNL     1       5.952  16.937  63.603  1.00  0.00    -0.507 OA
ATOM     23  H   UNL     1       5.893  17.760  63.024  1.00  0.00     0.293 HD
ENDBRANCH   6  22
BRANCH   8  24
ATOM     24  O   UNL     1       2.244  13.923  63.118  1.00  0.00    -0.508 OA
ATOM     25  H   UNL     1       1.759  13.352  62.435  1.00  0.00     0.293 HD
ENDBRANCH   8  24
TORSDOF 5
ENDMDL
MODEL 4
REMARK VINA RESULT:    -4.626      9.650     11.584
REMARK INTER + INTRA:          -5.707
REMARK INTER:                  -5.502
REMARK INTRA:                  -0.205
REMARK UNBOUND:                -0.269
REMARK SMILES O=c1c(O)c(-c2ccc(O)cc2)oc2cc(O)cc(O)c12
REMARK SMILES IDX 5 1 3 2 2 3 1 4 21 5 19 6 18 7 16 8 15 9 14 10 13 11 6 12
REMARK SMILES IDX 7 13 8 14 9 15 12 16 11 17 10 18 4 20 20 22 17 24
REMARK H PARENT 10 19 4 21 20 23 17 25
REMARK Flexibility Score: inf
ROOT
ATOM      1  C   UNL     1      -1.951  13.815  60.413  1.00  0.00     0.180 A 
ATOM      2  C   UNL     1      -1.120  14.906  60.720  1.00  0.00     0.208 A 
ATOM      3  C   UNL     1      -1.642  16.206  60.630  1.00  0.00     0.238 A 
ATOM      4  O   UNL     1      -0.877  17.181  60.852  1.00  0.00    -0.285 OA
ATOM      5  C   UNL     1      -2.992  16.399  60.252  1.00  0.00     0.111 A 
ATOM      6  C   UNL     1      -3.637  17.669  60.167  1.00  0.00     0.134 A 
ATOM      7  C   UNL     1      -4.939  17.750  59.656  1.00  0.00     0.093 A 
ATOM      8  C   UNL     1      -5.642  16.600  59.289  1.00  0.00     0.123 A 
ATOM      9  C   UNL     1      -5.042  15.351  59.423  1.00  0.00     0.094 A 
ATOM     10  C   UNL     1      -3.732  15.241  59.896  1.00  0.00     0.146 A 
ATOM     11  O   UNL     1      -3.194  14.031  59.998  1.00  0.00    -0.452 OA
ENDROOT
BRANCH   1  12
ATOM     12  C   UNL     1      -1.481  12.415  60.509  1.00  0.00     0.021 A 
ATOM     13  C   UNL     1      -1.259  11.844  61.774  1.00  0.00     0.016 A 
ATOM     14  C   UNL     1      -0.793  10.530  61.887  1.00  0.00     0.047 A 
ATOM     15  C   UNL     1      -0.529   9.777  60.740  1.00  0.00     0.115 A 
ATOM     16  C   UNL     1      -1.193  11.657  59.358  1.00  0.00     0.016 A 
ATOM     17  C   UNL     1      -0.726  10.344  59.474  1.00  0.00     0.047 A 
BRANCH  15  18
ATOM     18  O   UNL     1      -0.066   8.469  60.867  1.00  0.00    -0.508 OA
ATOM     19  H   UNL     1       0.697   8.235  61.492  1.00  0.00     0.293 HD
ENDBRANCH  15  18
ENDBRANCH   1  12
BRANCH   2  20
ATOM     20  O   UNL     1       0.217  14.695  61.069  1.00  0.00    -0.502 OA
ATOM     21  H   UNL     1       0.487  14.198  61.909  1.00  0.00     0.293 HD
ENDBRANCH   2  20
BRANCH   6  22
ATOM     22  O   UNL     1      -3.058  18.868  60.595  1.00  0.00    -0.507 OA
ATOM     23  H   UNL     1      -2.247  19.296  60.177  1.00  0.00     0.293 HD
ENDBRANCH   6  22
BRANCH   8  24
ATOM     24  O   UNL     1      -6.941  16.689  58.796  1.00  0.00    -0.508 OA
ATOM     25  H   UNL     1      -7.130  16.713  57.800  1.00  0.00     0.293 HD
ENDBRANCH   8  24
TORSDOF 5
ENDMDL
MODEL 5
REMARK VINA RESULT:    -4.608      1.898      3.731
REMARK INTER + INTRA:          -5.685
REMARK INTER:                  -5.496
REMARK INTRA:                  -0.190
REMARK UNBOUND:                -0.269
REMARK SMILES O=c1c(O)c(-c2ccc(O)cc2)oc2cc(O)cc(O)c12
REMARK SMILES IDX 5 1 3 2 2 3 1 4 21 5 19 6 18 7 16 8 15 9 14 10 13 11 6 12
REMARK SMILES IDX 7 13 8 14 9 15 12 16 11 17 10 18 4 20 20 22 17 24
REMARK H PARENT 10 19 4 21 20 23 17 25
REMARK Flexibility Score: inf
ROOT
ATOM      1  C   UNL     1       8.385  13.188  61.933  1.00  0.00     0.180 A 
ATOM      2  C   UNL     1       7.043  13.590  62.044  1.00  0.00     0.208 A 
ATOM      3  C   UNL     1       6.751  14.841  62.611  1.00  0.00     0.238 A 
ATOM      4  O   UNL     1       5.545  15.171  62.757  1.00  0.00    -0.285 OA
ATOM      5  C   UNL     1       7.804  15.681  63.046  1.00  0.00     0.111 A 
ATOM      6  C   UNL     1       7.626  16.984  63.598  1.00  0.00     0.134 A 
ATOM      7  C   UNL     1       8.732  17.672  64.115  1.00  0.00     0.093 A 
ATOM      8  C   UNL     1      10.017  17.131  64.038  1.00  0.00     0.123 A 
ATOM      9  C   UNL     1      10.209  15.885  63.447  1.00  0.00     0.094 A 
ATOM     10  C   UNL     1       9.121  15.159  62.955  1.00  0.00     0.146 A 
ATOM     11  O   UNL     1       9.347  13.970  62.409  1.00  0.00    -0.452 OA
ENDROOT
BRANCH   1  12
ATOM     12  C   UNL     1       8.773  11.896  61.323  1.00  0.00     0.021 A 
ATOM     13  C   UNL     1       8.535  10.701  62.024  1.00  0.00     0.016 A 
ATOM     14  C   UNL     1       8.914   9.471  61.477  1.00  0.00     0.047 A 
ATOM     15  C   UNL     1       9.548   9.421  60.232  1.00  0.00     0.115 A 
ATOM     16  C   UNL     1       9.430  11.839  60.080  1.00  0.00     0.016 A 
ATOM     17  C   UNL     1       9.808  10.608  59.535  1.00  0.00     0.047 A 
BRANCH  15  18
ATOM     18  O   UNL     1       9.918   8.189  59.698  1.00  0.00    -0.508 OA
ATOM     19  H   UNL     1      10.891   7.909  59.637  1.00  0.00     0.293 HD
ENDBRANCH  15  18
ENDBRANCH   1  12
BRANCH   2  20
ATOM     20  O   UNL     1       6.017  12.737  61.629  1.00  0.00    -0.502 OA
ATOM     21  H   UNL     1       5.865  11.826  62.045  1.00  0.00     0.293 HD
ENDBRANCH   2  20
BRANCH   6  22
ATOM     22  O   UNL     1       6.399  17.654  63.638  1.00  0.00    -0.507 OA
ATOM     23  H   UNL     1       5.789  17.783  62.846  1.00  0.00     0.293 HD
ENDBRANCH   6  22
BRANCH   8  24
ATOM     24  O   UNL     1      11.113  17.829  64.541  1.00  0.00    -0.508 OA
ATOM     25  H   UNL     1      11.001  18.705  65.037  1.00  0.00     0.293 HD
ENDBRANCH   8  24
TORSDOF 5
ENDMDL
MODEL 6
REMARK VINA RESULT:    -4.516     12.100     15.570
REMARK INTER + INTRA:          -5.578
REMARK INTER:                  -5.300
REMARK INTRA:                  -0.277
REMARK UNBOUND:                -0.269
REMARK SMILES O=c1c(O)c(-c2ccc(O)cc2)oc2cc(O)cc(O)c12
REMARK SMILES IDX 5 1 3 2 2 3 1 4 21 5 19 6 18 7 16 8 15 9 14 10 13 11 6 12
REMARK SMILES IDX 7 13 8 14 9 15 12 16 11 17 10 18 4 20 20 22 17 24
REMARK H PARENT 10 19 4 21 20 23 17 25
REMARK Flexibility Score: inf
ROOT
ATOM      1  C   UNL     1       4.226  14.844  74.741  1.00  0.00     0.180 A 
ATOM      2  C   UNL     1       4.626  14.859  73.393  1.00  0.00     0.208 A 
ATOM      3  C   UNL     1       5.657  14.002  72.979  1.00  0.00     0.238 A 
ATOM      4  O   UNL     1       6.048  14.060  71.784  1.00  0.00    -0.285 OA
ATOM      5  C   UNL     1       6.266  13.129  73.912  1.00  0.00     0.111 A 
ATOM      6  C   UNL     1       7.293  12.190  73.594  1.00  0.00     0.134 A 
ATOM      7  C   UNL     1       7.912  11.470  74.623  1.00  0.00     0.093 A 
ATOM      8  C   UNL     1       7.497  11.606  75.950  1.00  0.00     0.123 A 
ATOM      9  C   UNL     1       6.456  12.476  76.263  1.00  0.00     0.094 A 
ATOM     10  C   UNL     1       5.842  13.235  75.263  1.00  0.00     0.146 A 
ATOM     11  O   UNL     1       4.860  14.061  75.606  1.00  0.00    -0.452 OA
ENDROOT
BRANCH   1  12
ATOM     12  C   UNL     1       3.129  15.699  75.248  1.00  0.00     0.021 A 
ATOM     13  C   UNL     1       1.796  15.283  75.087  1.00  0.00     0.016 A 
ATOM     14  C   UNL     1       0.744  16.085  75.538  1.00  0.00     0.047 A 
ATOM     15  C   UNL     1       1.008  17.319  76.140  1.00  0.00     0.115 A 
ATOM     16  C   UNL     1       3.387  16.951  75.836  1.00  0.00     0.016 A 
ATOM     17  C   UNL     1       2.332  17.752  76.286  1.00  0.00     0.047 A 
BRANCH  15  18
ATOM     18  O   UNL     1      -0.050  18.108  76.585  1.00  0.00    -0.508 OA
ATOM     19  H   UNL     1      -0.919  17.697  76.905  1.00  0.00     0.293 HD
ENDBRANCH  15  18
ENDBRANCH   1  12
BRANCH   2  20
ATOM     20  O   UNL     1       4.027  15.744  72.493  1.00  0.00    -0.502 OA
ATOM     21  H   UNL     1       4.073  15.615  71.490  1.00  0.00     0.293 HD
ENDBRANCH   2  20
BRANCH   6  22
ATOM     22  O   UNL     1       7.718  11.911  72.292  1.00  0.00    -0.507 OA
ATOM     23  H   UNL     1       7.735  12.578  71.537  1.00  0.00     0.293 HD
ENDBRANCH   6  22
BRANCH   8  24
ATOM     24  O   UNL     1       8.108  10.874  76.965  1.00  0.00    -0.508 OA
ATOM     25  H   UNL     1       8.811  11.288  77.567  1.00  0.00     0.293 HD
ENDBRANCH   8  24
TORSDOF 5
ENDMDL
MODEL 7
REMARK VINA RESULT:    -4.487      1.952      6.977
REMARK INTER + INTRA:          -5.543
REMARK INTER:                  -5.541
REMARK INTRA:                  -0.002
REMARK UNBOUND:                -0.269
REMARK SMILES O=c1c(O)c(-c2ccc(O)cc2)oc2cc(O)cc(O)c12
REMARK SMILES IDX 5 1 3 2 2 3 1 4 21 5 19 6 18 7 16 8 15 9 14 10 13 11 6 12
REMARK SMILES IDX 7 13 8 14 9 15 12 16 11 17 10 18 4 20 20 22 17 24
REMARK H PARENT 10 19 4 21 20 23 17 25
REMARK Flexibility Score: inf
ROOT
ATOM      1  C   UNL     1       8.652  12.939  61.961  1.00  0.00     0.180 A 
ATOM      2  C   UNL     1       8.172  11.719  62.470  1.00  0.00     0.208 A 
ATOM      3  C   UNL     1       8.712  10.518  61.983  1.00  0.00     0.238 A 
ATOM      4  O   UNL     1       8.239   9.430  62.403  1.00  0.00    -0.285 OA
ATOM      5  C   UNL     1       9.735  10.550  61.005  1.00  0.00     0.111 A 
ATOM      6  C   UNL     1      10.381   9.396  60.470  1.00  0.00     0.134 A 
ATOM      7  C   UNL     1      11.288   9.541  59.413  1.00  0.00     0.093 A 
ATOM      8  C   UNL     1      11.621  10.803  58.916  1.00  0.00     0.123 A 
ATOM      9  C   UNL     1      11.040  11.940  59.472  1.00  0.00     0.094 A 
ATOM     10  C   UNL     1      10.104  11.826  60.504  1.00  0.00     0.146 A 
ATOM     11  O   UNL     1       9.566  12.935  60.997  1.00  0.00    -0.452 OA
ENDROOT
BRANCH   1  12
ATOM     12  C   UNL     1       8.151  14.246  62.443  1.00  0.00     0.021 A 
ATOM     13  C   UNL     1       6.776  14.527  62.376  1.00  0.00     0.016 A 
ATOM     14  C   UNL     1       6.284  15.764  62.804  1.00  0.00     0.047 A 
ATOM     15  C   UNL     1       7.160  16.739  63.290  1.00  0.00     0.115 A 
ATOM     16  C   UNL     1       9.030  15.239  62.914  1.00  0.00     0.016 A 
ATOM     17  C   UNL     1       8.535  16.476  63.342  1.00  0.00     0.047 A 
BRANCH  15  18
ATOM     18  O   UNL     1       6.656  17.966  63.715  1.00  0.00    -0.508 OA
ATOM     19  H   UNL     1       5.979  18.030  64.466  1.00  0.00     0.293 HD
ENDBRANCH  15  18
ENDBRANCH   1  12
BRANCH   2  20
ATOM     20  O   UNL     1       7.146  11.709  63.419  1.00  0.00    -0.502 OA
ATOM     21  H   UNL     1       7.089  11.013  64.152  1.00  0.00     0.293 HD
ENDBRANCH   2  20
BRANCH   6  22
ATOM     22  O   UNL     1      10.189   8.099  60.957  1.00  0.00    -0.507 OA
ATOM     23  H   UNL     1      10.604   7.270  60.562  1.00  0.00     0.293 HD
ENDBRANCH   6  22
BRANCH   8  24
ATOM     24  O   UNL     1      12.536  10.938  57.875  1.00  0.00    -0.508 OA
ATOM     25  H   UNL     1      13.299  10.283  57.751  1.00  0.00     0.293 HD
ENDBRANCH   8  24
TORSDOF 5
ENDMDL
MODEL 8
REMARK VINA RESULT:    -4.476     14.957     17.138
REMARK INTER + INTRA:          -5.531
REMARK INTER:                  -5.230
REMARK INTRA:                  -0.300
REMARK UNBOUND:                -0.269
REMARK SMILES O=c1c(O)c(-c2ccc(O)cc2)oc2cc(O)cc(O)c12
REMARK SMILES IDX 5 1 3 2 2 3 1 4 21 5 19 6 18 7 16 8 15 9 14 10 13 11 6 12
REMARK SMILES IDX 7 13 8 14 9 15 12 16 11 17 10 18 4 20 20 22 17 24
REMARK H PARENT 10 19 4 21 20 23 17 25
REMARK Flexibility Score: inf
ROOT
ATOM      1  C   UNL     1       2.589  16.273  75.706  1.00  0.00     0.180 A 
ATOM      2  C   UNL     1       3.890  15.866  75.361  1.00  0.00     0.208 A 
ATOM      3  C   UNL     1       4.182  14.494  75.310  1.00  0.00     0.238 A 
ATOM      4  O   UNL     1       5.362  14.137  75.055  1.00  0.00    -0.285 OA
ATOM      5  C   UNL     1       3.169  13.546  75.589  1.00  0.00     0.111 A 
ATOM      6  C   UNL     1       3.343  12.131  75.528  1.00  0.00     0.134 A 
ATOM      7  C   UNL     1       2.307  11.289  75.950  1.00  0.00     0.093 A 
ATOM      8  C   UNL     1       1.080  11.809  76.368  1.00  0.00     0.123 A 
ATOM      9  C   UNL     1       0.880  13.187  76.375  1.00  0.00     0.094 A 
ATOM     10  C   UNL     1       1.907  14.055  75.993  1.00  0.00     0.146 A 
ATOM     11  O   UNL     1       1.677  15.362  76.025  1.00  0.00    -0.452 OA
ENDROOT
BRANCH   1  12
ATOM     12  C   UNL     1       2.197  17.700  75.756  1.00  0.00     0.021 A 
ATOM     13  C   UNL     1       2.266  18.394  76.975  1.00  0.00     0.016 A 
ATOM     14  C   UNL     1       1.880  19.736  77.050  1.00  0.00     0.047 A 
ATOM     15  C   UNL     1       1.406  20.396  75.912  1.00  0.00     0.115 A 
ATOM     16  C   UNL     1       1.701  18.365  74.619  1.00  0.00     0.016 A 
ATOM     17  C   UNL     1       1.315  19.707  74.697  1.00  0.00     0.047 A 
BRANCH  15  18
ATOM     18  O   UNL     1       1.026  21.733  76.001  1.00  0.00    -0.508 OA
ATOM     19  H   UNL     1       1.201  22.385  75.244  1.00  0.00     0.293 HD
ENDBRANCH  15  18
ENDBRANCH   1  12
BRANCH   2  20
ATOM     20  O   UNL     1       4.882  16.818  75.112  1.00  0.00    -0.502 OA
ATOM     21  H   UNL     1       4.948  17.318  74.234  1.00  0.00     0.293 HD
ENDBRANCH   2  20
BRANCH   6  22
ATOM     22  O   UNL     1       4.495  11.507  75.039  1.00  0.00    -0.507 OA
ATOM     23  H   UNL     1       5.418  11.619  75.427  1.00  0.00     0.293 HD
ENDBRANCH   6  22
BRANCH   8  24
ATOM     24  O   UNL     1       0.049  10.964  76.772  1.00  0.00    -0.508 OA
ATOM     25  H   UNL     1       0.075  10.486  77.666  1.00  0.00     0.293 HD
ENDBRANCH   8  24
TORSDOF 5
ENDMDL
MODEL 9
REMARK VINA RESULT:    -4.378      2.033      2.624
REMARK INTER + INTRA:          -5.415
REMARK INTER:                  -5.222
REMARK INTRA:                  -0.193
REMARK UNBOUND:                -0.269
REMARK SMILES O=c1c(O)c(-c2ccc(O)cc2)oc2cc(O)cc(O)c12
REMARK SMILES IDX 5 1 3 2 2 3 1 4 21 5 19 6 18 7 16 8 15 9 14 10 13 11 6 12
REMARK SMILES IDX 7 13 8 14 9 15 12 16 11 17 10 18 4 20 20 22 17 24
REMARK H PARENT 10 19 4 21 20 23 17 25
REMARK Flexibility Score: inf
ROOT
ATOM      1  C   UNL     1       8.010  12.146  62.242  1.00  0.00     0.180 A 
ATOM      2  C   UNL     1       8.586  12.360  63.506  1.00  0.00     0.208 A 
ATOM      3  C   UNL     1       7.772  12.805  64.560  1.00  0.00     0.238 A 
ATOM      4  O   UNL     1       8.305  13.048  65.674  1.00  0.00    -0.285 OA
ATOM      5  C   UNL     1       6.389  13.015  64.342  1.00  0.00     0.111 A 
ATOM      6  C   UNL     1       5.463  13.426  65.347  1.00  0.00     0.134 A 
ATOM      7  C   UNL     1       4.144  13.727  64.987  1.00  0.00     0.093 A 
ATOM      8  C   UNL     1       3.700  13.570  63.672  1.00  0.00     0.123 A 
ATOM      9  C   UNL     1       4.581  13.112  62.696  1.00  0.00     0.094 A 
ATOM     10  C   UNL     1       5.914  12.837  63.016  1.00  0.00     0.146 A 
ATOM     11  O   UNL     1       6.723  12.413  62.052  1.00  0.00    -0.452 OA
ENDROOT
BRANCH   1  12
ATOM     12  C   UNL     1       8.797  11.653  61.090  1.00  0.00     0.021 A 
ATOM     13  C   UNL     1       8.637  10.325  60.658  1.00  0.00     0.016 A 
ATOM     14  C   UNL     1       9.387   9.833  59.586  1.00  0.00     0.047 A 
ATOM     15  C   UNL     1      10.317  10.654  58.942  1.00  0.00     0.115 A 
ATOM     16  C   UNL     1       9.750  12.468  60.449  1.00  0.00     0.016 A 
ATOM     17  C   UNL     1      10.499  11.973  59.378  1.00  0.00     0.047 A 
BRANCH  15  18
ATOM     18  O   UNL     1      11.057  10.151  57.875  1.00  0.00    -0.508 OA
ATOM     19  H   UNL     1      10.649   9.510  57.203  1.00  0.00     0.293 HD
ENDBRANCH  15  18
ENDBRANCH   1  12
BRANCH   2  20
ATOM     20  O   UNL     1       9.958  12.169  63.694  1.00  0.00    -0.502 OA
ATOM     21  H   UNL     1      10.329  11.537  64.393  1.00  0.00     0.293 HD
ENDBRANCH   2  20
BRANCH   6  22
ATOM     22  O   UNL     1       5.780  13.526  66.705  1.00  0.00    -0.507 OA
ATOM     23  H   UNL     1       5.126  13.772  67.431  1.00  0.00     0.293 HD
ENDBRANCH   6  22
BRANCH   8  24
ATOM     24  O   UNL     1       2.382  13.857  63.327  1.00  0.00    -0.508 OA
ATOM     25  H   UNL     1       1.612  13.642  63.950  1.00  0.00     0.293 HD
ENDBRANCH   8  24
TORSDOF 5
ENDMDL
