MODEL 1
REMARK VINA RESULT:    -5.428      0.000      0.000
REMARK INTER + INTRA:         -17.036
REMARK INTER:                 -12.409
REMARK INTRA:                  -4.628
REMARK UNBOUND:                -4.628
REMARK SMILES CCCCCCCCCCCCCCCCCCCCCCCC(=O)[O-]
REMARK SMILES IDX 13 1 14 2 15 3 16 4 17 5 18 6 19 7 20 8 21 9 22 10 23 11
REMARK SMILES IDX 24 12 25 13 26 14 12 15 11 16 10 17 9 18 8 19 7 20 6 21 5 22
REMARK SMILES IDX 4 23 3 24 2 25 1 26
REMARK H PARENT
REMARK Flexibility Score: inf
ROOT
ATOM      1  C   UNL     1      45.966  12.249  -5.650  1.00  0.00     0.000 C 
ENDROOT
BRANCH   1   2
ATOM      2  C   UNL     1      45.878  13.180  -6.868  1.00  0.00     0.000 C 
BRANCH   2   3
ATOM      3  C   UNL     1      46.672  12.658  -8.076  1.00  0.00     0.000 C 
BRANCH   3   4
ATOM      4  C   UNL     1      45.779  12.366  -9.296  1.00  0.00     0.000 C 
BRANCH   4   5
ATOM      5  C   UNL     1      44.862  11.144  -9.071  1.00  0.00     0.000 C 
BRANCH   5   6
ATOM      6  C   UNL     1      44.995  10.058 -10.154  1.00  0.00     0.000 C 
BRANCH   6   7
ATOM      7  C   UNL     1      45.454   8.705  -9.594  1.00  0.00     0.000 C 
BRANCH   7   8
ATOM      8  C   UNL     1      46.193   8.876  -8.258  1.00  0.00     0.000 C 
BRANCH   8   9
ATOM      9  C   UNL     1      47.267   7.786  -8.052  1.00  0.00     0.000 C 
BRANCH   9  10
ATOM     10  C   UNL     1      48.676   8.344  -7.775  1.00  0.00     0.006 C 
BRANCH  10  11
ATOM     11  C   UNL     1      48.849   9.830  -8.145  1.00  0.00     0.053 C 
BRANCH  11  12
ATOM     12  C   UNL     1      49.912  10.512  -7.333  1.00  0.00     0.041 C 
ATOM     13  O   UNL     1      50.552   9.870  -6.459  1.00  0.00    -0.550 OA
ATOM     14  O   UNL     1      50.153  11.871  -7.499  1.00  0.00    -0.550 OA
ENDBRANCH  11  12
ENDBRANCH  10  11
ENDBRANCH   9  10
ENDBRANCH   8   9
ENDBRANCH   7   8
ENDBRANCH   6   7
ENDBRANCH   5   6
ENDBRANCH   4   5
ENDBRANCH   3   4
ENDBRANCH   2   3
ENDBRANCH   1   2
BRANCH   1  15
ATOM     15  C   UNL     1      47.412  12.148  -5.141  1.00  0.00     0.000 C 
BRANCH  15  16
ATOM     16  C   UNL     1      47.705  10.810  -4.436  1.00  0.00     0.000 C 
BRANCH  16  17
ATOM     17  C   UNL     1      46.762   9.651  -4.819  1.00  0.00     0.000 C 
BRANCH  17  18
ATOM     18  C   UNL     1      46.920   8.369  -3.975  1.00  0.00    -0.000 C 
BRANCH  18  19
ATOM     19  C   UNL     1      46.230   7.119  -4.551  1.00  0.00    -0.000 C 
BRANCH  19  20
ATOM     20  C   UNL     1      44.926   6.768  -3.815  1.00  0.00    -0.000 C 
BRANCH  20  21
ATOM     21  C   UNL     1      43.768   6.432  -4.771  1.00  0.00    -0.000 C 
BRANCH  21  22
ATOM     22  C   UNL     1      42.744   7.564  -4.989  1.00  0.00    -0.000 C 
BRANCH  22  23
ATOM     23  C   UNL     1      43.179   8.657  -5.984  1.00  0.00    -0.000 C 
BRANCH  23  24
ATOM     24  C   UNL     1      43.221  10.086  -5.404  1.00  0.00    -0.000 C 
BRANCH  24  25
ATOM     25  C   UNL     1      42.629  10.228  -3.990  1.00  0.00    -0.003 C 
ATOM     26  C   UNL     1      43.687  10.527  -2.928  1.00  0.00     0.004 C 
ENDBRANCH  24  25
ENDBRANCH  23  24
ENDBRANCH  22  23
ENDBRANCH  21  22
ENDBRANCH  20  21
ENDBRANCH  19  20
ENDBRANCH  18  19
ENDBRANCH  17  18
ENDBRANCH  16  17
ENDBRANCH  15  16
ENDBRANCH   1  15
TORSDOF 22
ENDMDL
MODEL 2
REMARK VINA RESULT:    -5.390      2.532      5.160
REMARK INTER + INTRA:         -16.951
REMARK INTER:                 -12.801
REMARK INTRA:                  -4.150
REMARK UNBOUND:                -4.628
REMARK SMILES CCCCCCCCCCCCCCCCCCCCCCCC(=O)[O-]
REMARK SMILES IDX 13 1 14 2 15 3 16 4 17 5 18 6 19 7 20 8 21 9 22 10 23 11
REMARK SMILES IDX 24 12 25 13 26 14 12 15 11 16 10 17 9 18 8 19 7 20 6 21 5 22
REMARK SMILES IDX 4 23 3 24 2 25 1 26
REMARK H PARENT
REMARK Flexibility Score: inf
ROOT
ATOM      1  C   UNL     1      48.913   8.608  -7.788  1.00  0.00     0.000 C 
ENDROOT
BRANCH   1   2
ATOM      2  C   UNL     1      49.963   9.333  -6.932  1.00  0.00     0.000 C 
BRANCH   2   3
ATOM      3  C   UNL     1      49.933  10.858  -7.118  1.00  0.00     0.000 C 
BRANCH   3   4
ATOM      4  C   UNL     1      50.302  11.623  -5.834  1.00  0.00     0.000 C 
BRANCH   4   5
ATOM      5  C   UNL     1      49.178  11.570  -4.776  1.00  0.00     0.000 C 
BRANCH   5   6
ATOM      6  C   UNL     1      47.790  11.950  -5.324  1.00  0.00     0.000 C 
BRANCH   6   7
ATOM      7  C   UNL     1      46.714  10.903  -5.007  1.00  0.00     0.000 C 
BRANCH   7   8
ATOM      8  C   UNL     1      47.338   9.603  -4.478  1.00  0.00     0.000 C 
BRANCH   8   9
ATOM      9  C   UNL     1      46.267   8.531  -4.180  1.00  0.00     0.000 C 
BRANCH   9  10
ATOM     10  C   UNL     1      45.923   7.642  -5.391  1.00  0.00     0.006 C 
BRANCH  10  11
ATOM     11  C   UNL     1      44.907   6.523  -5.082  1.00  0.00     0.053 C 
BRANCH  11  12
ATOM     12  C   UNL     1      45.565   5.235  -4.679  1.00  0.00     0.041 C 
ATOM     13  O   UNL     1      45.870   4.379  -5.551  1.00  0.00    -0.550 OA
ATOM     14  O   UNL     1      45.784   4.954  -3.335  1.00  0.00    -0.550 OA
ENDBRANCH  11  12
ENDBRANCH  10  11
ENDBRANCH   9  10
ENDBRANCH   8   9
ENDBRANCH   7   8
ENDBRANCH   6   7
ENDBRANCH   5   6
ENDBRANCH   4   5
ENDBRANCH   3   4
ENDBRANCH   2   3
ENDBRANCH   1   2
BRANCH   1  15
ATOM     15  C   UNL     1      47.874   9.598  -8.336  1.00  0.00     0.000 C 
BRANCH  15  16
ATOM     16  C   UNL     1      46.498   8.949  -8.575  1.00  0.00     0.000 C 
BRANCH  16  17
ATOM     17  C   UNL     1      45.618   9.656  -9.626  1.00  0.00     0.000 C 
BRANCH  17  18
ATOM     18  C   UNL     1      45.568  11.194  -9.514  1.00  0.00    -0.000 C 
BRANCH  18  19
ATOM     19  C   UNL     1      44.716  11.737  -8.353  1.00  0.00    -0.000 C 
BRANCH  19  20
ATOM     20  C   UNL     1      43.577  10.783  -7.954  1.00  0.00    -0.000 C 
BRANCH  20  21
ATOM     21  C   UNL     1      43.682  10.298  -6.497  1.00  0.00    -0.000 C 
BRANCH  21  22
ATOM     22  C   UNL     1      42.503   9.434  -6.005  1.00  0.00    -0.000 C 
BRANCH  22  23
ATOM     23  C   UNL     1      42.031   9.728  -4.567  1.00  0.00    -0.000 C 
BRANCH  23  24
ATOM     24  C   UNL     1      43.074   9.441  -3.468  1.00  0.00    -0.000 C 
BRANCH  24  25
ATOM     25  C   UNL     1      43.489  10.667  -2.635  1.00  0.00    -0.003 C 
ATOM     26  C   UNL     1      43.016  11.989  -3.242  1.00  0.00     0.004 C 
ENDBRANCH  24  25
ENDBRANCH  23  24
ENDBRANCH  22  23
ENDBRANCH  21  22
ENDBRANCH  20  21
ENDBRANCH  19  20
ENDBRANCH  18  19
ENDBRANCH  17  18
ENDBRANCH  16  17
ENDBRANCH  15  16
ENDBRANCH   1  15
TORSDOF 22
ENDMDL
MODEL 3
REMARK VINA RESULT:    -5.386     13.510     17.022
REMARK INTER + INTRA:         -16.941
REMARK INTER:                 -12.706
REMARK INTRA:                  -4.235
REMARK UNBOUND:                -4.628
REMARK SMILES CCCCCCCCCCCCCCCCCCCCCCCC(=O)[O-]
REMARK SMILES IDX 13 1 14 2 15 3 16 4 17 5 18 6 19 7 20 8 21 9 22 10 23 11
REMARK SMILES IDX 24 12 25 13 26 14 12 15 11 16 10 17 9 18 8 19 7 20 6 21 5 22
REMARK SMILES IDX 4 23 3 24 2 25 1 26
REMARK H PARENT
REMARK Flexibility Score: inf
ROOT
ATOM      1  C   UNL     1      37.322  -0.489   4.233  1.00  0.00     0.000 C 
ENDROOT
BRANCH   1   2
ATOM      2  C   UNL     1      36.538   0.429   3.282  1.00  0.00     0.000 C 
BRANCH   2   3
ATOM      3  C   UNL     1      35.016   0.321   3.471  1.00  0.00     0.000 C 
BRANCH   3   4
ATOM      4  C   UNL     1      34.353   1.680   3.761  1.00  0.00     0.000 C 
BRANCH   4   5
ATOM      5  C   UNL     1      35.232   2.868   3.314  1.00  0.00     0.000 C 
BRANCH   5   6
ATOM      6  C   UNL     1      35.083   4.121   4.198  1.00  0.00     0.000 C 
BRANCH   6   7
ATOM      7  C   UNL     1      36.145   5.190   3.907  1.00  0.00     0.000 C 
BRANCH   7   8
ATOM      8  C   UNL     1      36.679   5.071   2.472  1.00  0.00     0.000 C 
BRANCH   8   9
ATOM      9  C   UNL     1      38.213   5.232   2.415  1.00  0.00     0.000 C 
BRANCH   9  10
ATOM     10  C   UNL     1      38.956   4.545   3.577  1.00  0.00     0.006 C 
BRANCH  10  11
ATOM     11  C   UNL     1      39.414   3.106   3.269  1.00  0.00     0.053 C 
BRANCH  11  12
ATOM     12  C   UNL     1      40.906   2.948   3.317  1.00  0.00     0.041 C 
ATOM     13  O   UNL     1      41.554   2.721   2.261  1.00  0.00    -0.550 OA
ATOM     14  O   UNL     1      41.574   2.988   4.536  1.00  0.00    -0.550 OA
ENDBRANCH  11  12
ENDBRANCH  10  11
ENDBRANCH   9  10
ENDBRANCH   8   9
ENDBRANCH   7   8
ENDBRANCH   6   7
ENDBRANCH   5   6
ENDBRANCH   4   5
ENDBRANCH   3   4
ENDBRANCH   2   3
ENDBRANCH   1   2
BRANCH   1  15
ATOM     15  C   UNL     1      36.504  -0.797   5.496  1.00  0.00     0.000 C 
BRANCH  15  16
ATOM     16  C   UNL     1      36.657   0.281   6.585  1.00  0.00     0.000 C 
BRANCH  16  17
ATOM     17  C   UNL     1      38.101   0.514   7.073  1.00  0.00     0.000 C 
BRANCH  17  18
ATOM     18  C   UNL     1      38.689   1.903   6.748  1.00  0.00    -0.000 C 
BRANCH  18  19
ATOM     19  C   UNL     1      37.650   3.018   6.531  1.00  0.00    -0.000 C 
BRANCH  19  20
ATOM     20  C   UNL     1      37.379   3.835   7.806  1.00  0.00    -0.000 C 
BRANCH  20  21
ATOM     21  C   UNL     1      36.426   5.019   7.570  1.00  0.00    -0.000 C 
BRANCH  21  22
ATOM     22  C   UNL     1      34.947   4.752   7.913  1.00  0.00    -0.000 C 
BRANCH  22  23
ATOM     23  C   UNL     1      34.651   3.355   8.492  1.00  0.00    -0.000 C 
BRANCH  23  24
ATOM     24  C   UNL     1      33.899   2.402   7.542  1.00  0.00    -0.000 C 
BRANCH  24  25
ATOM     25  C   UNL     1      33.527   1.039   8.154  1.00  0.00    -0.003 C 
ATOM     26  C   UNL     1      33.180  -0.013   7.100  1.00  0.00     0.004 C 
ENDBRANCH  24  25
ENDBRANCH  23  24
ENDBRANCH  22  23
ENDBRANCH  21  22
ENDBRANCH  20  21
ENDBRANCH  19  20
ENDBRANCH  18  19
ENDBRANCH  17  18
ENDBRANCH  16  17
ENDBRANCH  15  16
ENDBRANCH   1  15
TORSDOF 22
ENDMDL
MODEL 4
REMARK VINA RESULT:    -5.372     13.427     16.971
REMARK INTER + INTRA:         -16.908
REMARK INTER:                 -12.765
REMARK INTRA:                  -4.144
REMARK UNBOUND:                -4.628
REMARK SMILES CCCCCCCCCCCCCCCCCCCCCCCC(=O)[O-]
REMARK SMILES IDX 13 1 14 2 15 3 16 4 17 5 18 6 19 7 20 8 21 9 22 10 23 11
REMARK SMILES IDX 24 12 25 13 26 14 12 15 11 16 10 17 9 18 8 19 7 20 6 21 5 22
REMARK SMILES IDX 4 23 3 24 2 25 1 26
REMARK H PARENT
REMARK Flexibility Score: inf
ROOT
ATOM      1  C   UNL     1      37.057   0.543   6.786  1.00  0.00     0.000 C 
ENDROOT
BRANCH   1   2
ATOM      2  C   UNL     1      37.748   1.293   5.637  1.00  0.00     0.000 C 
BRANCH   2   3
ATOM      3  C   UNL     1      38.351   2.636   6.080  1.00  0.00     0.000 C 
BRANCH   3   4
ATOM      4  C   UNL     1      37.514   3.336   7.166  1.00  0.00     0.000 C 
BRANCH   4   5
ATOM      5  C   UNL     1      36.845   4.628   6.649  1.00  0.00     0.000 C 
BRANCH   5   6
ATOM      6  C   UNL     1      36.734   4.701   5.115  1.00  0.00     0.000 C 
BRANCH   6   7
ATOM      7  C   UNL     1      36.515   6.129   4.597  1.00  0.00     0.000 C 
BRANCH   7   8
ATOM      8  C   UNL     1      37.520   6.481   3.489  1.00  0.00     0.000 C 
BRANCH   8   9
ATOM      9  C   UNL     1      38.387   5.267   3.093  1.00  0.00     0.000 C 
BRANCH   9  10
ATOM     10  C   UNL     1      39.873   5.411   3.476  1.00  0.00     0.006 C 
BRANCH  10  11
ATOM     11  C   UNL     1      40.642   4.076   3.529  1.00  0.00     0.053 C 
BRANCH  11  12
ATOM     12  C   UNL     1      40.240   3.129   2.435  1.00  0.00     0.041 C 
ATOM     13  O   UNL     1      39.610   2.073   2.711  1.00  0.00    -0.550 OA
ATOM     14  O   UNL     1      40.614   3.381   1.120  1.00  0.00    -0.550 OA
ENDBRANCH  11  12
ENDBRANCH  10  11
ENDBRANCH   9  10
ENDBRANCH   8   9
ENDBRANCH   7   8
ENDBRANCH   6   7
ENDBRANCH   5   6
ENDBRANCH   4   5
ENDBRANCH   3   4
ENDBRANCH   2   3
ENDBRANCH   1   2
BRANCH   1  15
ATOM     15  C   UNL     1      36.136  -0.560   6.245  1.00  0.00     0.000 C 
BRANCH  15  16
ATOM     16  C   UNL     1      36.608  -1.121   4.890  1.00  0.00     0.000 C 
BRANCH  16  17
ATOM     17  C   UNL     1      35.506  -1.251   3.819  1.00  0.00     0.000 C 
BRANCH  17  18
ATOM     18  C   UNL     1      35.416  -0.075   2.823  1.00  0.00    -0.000 C 
BRANCH  18  19
ATOM     19  C   UNL     1      34.264   0.913   3.081  1.00  0.00    -0.000 C 
BRANCH  19  20
ATOM     20  C   UNL     1      34.761   2.324   3.440  1.00  0.00    -0.000 C 
BRANCH  20  21
ATOM     21  C   UNL     1      33.614   3.323   3.675  1.00  0.00    -0.000 C 
BRANCH  21  22
ATOM     22  C   UNL     1      33.255   3.578   5.153  1.00  0.00    -0.000 C 
BRANCH  22  23
ATOM     23  C   UNL     1      33.819   2.548   6.150  1.00  0.00    -0.000 C 
BRANCH  23  24
ATOM     24  C   UNL     1      33.725   2.959   7.634  1.00  0.00    -0.000 C 
BRANCH  24  25
ATOM     25  C   UNL     1      34.147   1.868   8.635  1.00  0.00    -0.003 C 
ATOM     26  C   UNL     1      33.398   0.550   8.432  1.00  0.00     0.004 C 
ENDBRANCH  24  25
ENDBRANCH  23  24
ENDBRANCH  22  23
ENDBRANCH  21  22
ENDBRANCH  20  21
ENDBRANCH  19  20
ENDBRANCH  18  19
ENDBRANCH  17  18
ENDBRANCH  16  17
ENDBRANCH  15  16
ENDBRANCH   1  15
TORSDOF 22
ENDMDL
MODEL 5
REMARK VINA RESULT:    -5.371      2.755      5.998
REMARK INTER + INTRA:         -16.907
REMARK INTER:                 -12.287
REMARK INTRA:                  -4.619
REMARK UNBOUND:                -4.628
REMARK SMILES CCCCCCCCCCCCCCCCCCCCCCCC(=O)[O-]
REMARK SMILES IDX 13 1 14 2 15 3 16 4 17 5 18 6 19 7 20 8 21 9 22 10 23 11
REMARK SMILES IDX 24 12 25 13 26 14 12 15 11 16 10 17 9 18 8 19 7 20 6 21 5 22
REMARK SMILES IDX 4 23 3 24 2 25 1 26
REMARK H PARENT
REMARK Flexibility Score: inf
ROOT
ATOM      1  C   UNL     1      44.945  11.638  -9.206  1.00  0.00     0.000 C 
ENDROOT
BRANCH   1   2
ATOM      2  C   UNL     1      45.673  10.581 -10.051  1.00  0.00     0.000 C 
BRANCH   2   3
ATOM      3  C   UNL     1      45.395   9.146  -9.578  1.00  0.00     0.000 C 
BRANCH   3   4
ATOM      4  C   UNL     1      46.459   8.625  -8.594  1.00  0.00     0.000 C 
BRANCH   4   5
ATOM      5  C   UNL     1      45.905   8.467  -7.161  1.00  0.00     0.000 C 
BRANCH   5   6
ATOM      6  C   UNL     1      46.570   7.333  -6.359  1.00  0.00     0.000 C 
BRANCH   6   7
ATOM      7  C   UNL     1      45.690   6.813  -5.214  1.00  0.00     0.000 C 
BRANCH   7   8
ATOM      8  C   UNL     1      46.126   7.401  -3.863  1.00  0.00     0.000 C 
BRANCH   8   9
ATOM      9  C   UNL     1      45.209   8.561  -3.418  1.00  0.00     0.000 C 
BRANCH   9  10
ATOM     10  C   UNL     1      43.742   8.401  -3.863  1.00  0.00     0.006 C 
BRANCH  10  11
ATOM     11  C   UNL     1      43.193   9.600  -4.662  1.00  0.00     0.053 C 
BRANCH  11  12
ATOM     12  C   UNL     1      42.598  10.662  -3.784  1.00  0.00     0.041 C 
ATOM     13  O   UNL     1      43.311  11.615  -3.371  1.00  0.00    -0.550 OA
ATOM     14  O   UNL     1      41.274  10.567  -3.371  1.00  0.00    -0.550 OA
ENDBRANCH  11  12
ENDBRANCH  10  11
ENDBRANCH   9  10
ENDBRANCH   8   9
ENDBRANCH   7   8
ENDBRANCH   6   7
ENDBRANCH   5   6
ENDBRANCH   4   5
ENDBRANCH   3   4
ENDBRANCH   2   3
ENDBRANCH   1   2
BRANCH   1  15
ATOM     15  C   UNL     1      45.886  12.798  -8.848  1.00  0.00     0.000 C 
BRANCH  15  16
ATOM     16  C   UNL     1      45.948  13.071  -7.334  1.00  0.00     0.000 C 
BRANCH  16  17
ATOM     17  C   UNL     1      45.395  11.940  -6.443  1.00  0.00     0.000 C 
BRANCH  17  18
ATOM     18  C   UNL     1      46.300  11.529  -5.263  1.00  0.00    -0.000 C 
BRANCH  18  19
ATOM     19  C   UNL     1      47.576  12.373  -5.095  1.00  0.00    -0.000 C 
BRANCH  19  20
ATOM     20  C   UNL     1      48.757  11.560  -4.538  1.00  0.00    -0.000 C 
BRANCH  20  21
ATOM     21  C   UNL     1      48.521  10.040  -4.595  1.00  0.00    -0.000 C 
BRANCH  21  22
ATOM     22  C   UNL     1      49.520   9.251  -5.466  1.00  0.00    -0.000 C 
BRANCH  22  23
ATOM     23  C   UNL     1      50.330  10.100  -6.465  1.00  0.00    -0.000 C 
BRANCH  23  24
ATOM     24  C   UNL     1      49.650  10.325  -7.830  1.00  0.00    -0.000 C 
BRANCH  24  25
ATOM     25  C   UNL     1      49.422  11.801  -8.203  1.00  0.00    -0.003 C 
ATOM     26  C   UNL     1      49.278  12.020  -9.710  1.00  0.00     0.004 C 
ENDBRANCH  24  25
ENDBRANCH  23  24
ENDBRANCH  22  23
ENDBRANCH  21  22
ENDBRANCH  20  21
ENDBRANCH  19  20
ENDBRANCH  18  19
ENDBRANCH  17  18
ENDBRANCH  16  17
ENDBRANCH  15  16
ENDBRANCH   1  15
TORSDOF 22
ENDMDL
MODEL 6
REMARK VINA RESULT:    -5.346      2.771      6.086
REMARK INTER + INTRA:         -16.849
REMARK INTER:                 -12.436
REMARK INTRA:                  -4.412
REMARK UNBOUND:                -4.628
REMARK SMILES CCCCCCCCCCCCCCCCCCCCCCCC(=O)[O-]
REMARK SMILES IDX 13 1 14 2 15 3 16 4 17 5 18 6 19 7 20 8 21 9 22 10 23 11
REMARK SMILES IDX 24 12 25 13 26 14 12 15 11 16 10 17 9 18 8 19 7 20 6 21 5 22
REMARK SMILES IDX 4 23 3 24 2 25 1 26
REMARK H PARENT
REMARK Flexibility Score: inf
ROOT
ATOM      1  C   UNL     1      50.424   9.888  -6.298  1.00  0.00     0.000 C 
ENDROOT
BRANCH   1   2
ATOM      2  C   UNL     1      50.293  11.201  -5.511  1.00  0.00     0.000 C 
BRANCH   2   3
ATOM      3  C   UNL     1      49.118  11.187  -4.520  1.00  0.00     0.000 C 
BRANCH   3   4
ATOM      4  C   UNL     1      48.157  12.374  -4.717  1.00  0.00     0.000 C 
BRANCH   4   5
ATOM      5  C   UNL     1      47.021  12.050  -5.711  1.00  0.00     0.000 C 
BRANCH   5   6
ATOM      6  C   UNL     1      45.755  11.480  -5.044  1.00  0.00     0.000 C 
BRANCH   6   7
ATOM      7  C   UNL     1      45.666   9.951  -5.135  1.00  0.00     0.000 C 
BRANCH   7   8
ATOM      8  C   UNL     1      46.060   9.288  -3.807  1.00  0.00     0.000 C 
BRANCH   8   9
ATOM      9  C   UNL     1      46.406   7.794  -3.990  1.00  0.00     0.000 C 
BRANCH   9  10
ATOM     10  C   UNL     1      45.227   6.842  -3.710  1.00  0.00     0.006 C 
BRANCH  10  11
ATOM     11  C   UNL     1      44.398   6.482  -4.958  1.00  0.00     0.053 C 
BRANCH  11  12
ATOM     12  C   UNL     1      42.985   6.986  -4.885  1.00  0.00     0.041 C 
ATOM     13  O   UNL     1      42.058   6.360  -5.463  1.00  0.00    -0.550 OA
ATOM     14  O   UNL     1      42.703   8.180  -4.231  1.00  0.00    -0.550 OA
ENDBRANCH  11  12
ENDBRANCH  10  11
ENDBRANCH   9  10
ENDBRANCH   8   9
ENDBRANCH   7   8
ENDBRANCH   6   7
ENDBRANCH   5   6
ENDBRANCH   4   5
ENDBRANCH   3   4
ENDBRANCH   2   3
ENDBRANCH   1   2
BRANCH   1  15
ATOM     15  C   UNL     1      49.123   9.074  -6.225  1.00  0.00     0.000 C 
BRANCH  15  16
ATOM     16  C   UNL     1      48.806   8.336  -7.540  1.00  0.00     0.000 C 
BRANCH  16  17
ATOM     17  C   UNL     1      47.357   7.822  -7.665  1.00  0.00     0.000 C 
BRANCH  17  18
ATOM     18  C   UNL     1      46.511   8.503  -8.762  1.00  0.00    -0.000 C 
BRANCH  18  19
ATOM     19  C   UNL     1      45.145   9.038  -8.295  1.00  0.00    -0.000 C 
BRANCH  19  20
ATOM     20  C   UNL     1      44.555  10.082  -9.258  1.00  0.00    -0.000 C 
BRANCH  20  21
ATOM     21  C   UNL     1      44.726  11.527  -8.756  1.00  0.00    -0.000 C 
BRANCH  21  22
ATOM     22  C   UNL     1      45.957  12.273  -9.308  1.00  0.00    -0.000 C 
BRANCH  22  23
ATOM     23  C   UNL     1      46.677  11.574 -10.477  1.00  0.00    -0.000 C 
BRANCH  23  24
ATOM     24  C   UNL     1      48.216  11.562 -10.381  1.00  0.00    -0.000 C 
BRANCH  24  25
ATOM     25  C   UNL     1      48.776  11.712  -8.955  1.00  0.00    -0.003 C 
ATOM     26  C   UNL     1      50.052  12.554  -8.900  1.00  0.00     0.004 C 
ENDBRANCH  24  25
ENDBRANCH  23  24
ENDBRANCH  22  23
ENDBRANCH  21  22
ENDBRANCH  20  21
ENDBRANCH  19  20
ENDBRANCH  18  19
ENDBRANCH  17  18
ENDBRANCH  16  17
ENDBRANCH  15  16
ENDBRANCH   1  15
TORSDOF 22
ENDMDL
MODEL 7
REMARK VINA RESULT:    -5.340      2.742      5.045
REMARK INTER + INTRA:         -16.836
REMARK INTER:                 -12.450
REMARK INTRA:                  -4.387
REMARK UNBOUND:                -4.628
REMARK SMILES CCCCCCCCCCCCCCCCCCCCCCCC(=O)[O-]
REMARK SMILES IDX 13 1 14 2 15 3 16 4 17 5 18 6 19 7 20 8 21 9 22 10 23 11
REMARK SMILES IDX 24 12 25 13 26 14 12 15 11 16 10 17 9 18 8 19 7 20 6 21 5 22
REMARK SMILES IDX 4 23 3 24 2 25 1 26
REMARK H PARENT
REMARK Flexibility Score: inf
ROOT
ATOM      1  C   UNL     1      48.591  10.343  -4.701  1.00  0.00     0.000 C 
ENDROOT
BRANCH   1   2
ATOM      2  C   UNL     1      49.942   9.810  -5.201  1.00  0.00     0.000 C 
BRANCH   2   3
ATOM      3  C   UNL     1      50.074   9.863  -6.731  1.00  0.00     0.000 C 
BRANCH   3   4
ATOM      4  C   UNL     1      49.375   8.684  -7.432  1.00  0.00     0.000 C 
BRANCH   4   5
ATOM      5  C   UNL     1      48.184   9.141  -8.302  1.00  0.00     0.000 C 
BRANCH   5   6
ATOM      6  C   UNL     1      46.822   8.606  -7.825  1.00  0.00     0.000 C 
BRANCH   6   7
ATOM      7  C   UNL     1      46.949   7.477  -6.793  1.00  0.00     0.000 C 
BRANCH   7   8
ATOM      8  C   UNL     1      46.044   7.728  -5.577  1.00  0.00     0.000 C 
BRANCH   8   9
ATOM      9  C   UNL     1      45.249   6.464  -5.183  1.00  0.00     0.000 C 
BRANCH   9  10
ATOM     10  C   UNL     1      45.040   6.306  -3.665  1.00  0.00     0.006 C 
BRANCH  10  11
ATOM     11  C   UNL     1      45.933   7.225  -2.808  1.00  0.00     0.053 C 
BRANCH  11  12
ATOM     12  C   UNL     1      45.689   7.066  -1.335  1.00  0.00     0.041 C 
ATOM     13  O   UNL     1      46.282   6.163  -0.688  1.00  0.00    -0.550 OA
ATOM     14  O   UNL     1      44.760   7.875  -0.690  1.00  0.00    -0.550 OA
ENDBRANCH  11  12
ENDBRANCH  10  11
ENDBRANCH   9  10
ENDBRANCH   8   9
ENDBRANCH   7   8
ENDBRANCH   6   7
ENDBRANCH   5   6
ENDBRANCH   4   5
ENDBRANCH   3   4
ENDBRANCH   2   3
ENDBRANCH   1   2
BRANCH   1  15
ATOM     15  C   UNL     1      48.518  11.870  -4.842  1.00  0.00     0.000 C 
BRANCH  15  16
ATOM     16  C   UNL     1      47.218  12.347  -5.516  1.00  0.00     0.000 C 
BRANCH  16  17
ATOM     17  C   UNL     1      47.259  12.386  -7.058  1.00  0.00     0.000 C 
BRANCH  17  18
ATOM     18  C   UNL     1      45.913  12.699  -7.744  1.00  0.00    -0.000 C 
BRANCH  18  19
ATOM     19  C   UNL     1      45.810  12.251  -9.213  1.00  0.00    -0.000 C 
BRANCH  19  20
ATOM     20  C   UNL     1      44.662  11.255  -9.452  1.00  0.00    -0.000 C 
BRANCH  20  21
ATOM     21  C   UNL     1      43.648  11.218  -8.296  1.00  0.00    -0.000 C 
BRANCH  21  22
ATOM     22  C   UNL     1      43.615   9.903  -7.491  1.00  0.00    -0.000 C 
BRANCH  22  23
ATOM     23  C   UNL     1      43.124  10.038  -6.036  1.00  0.00    -0.000 C 
BRANCH  23  24
ATOM     24  C   UNL     1      44.045  10.860  -5.112  1.00  0.00    -0.000 C 
BRANCH  24  25
ATOM     25  C   UNL     1      44.180  10.311  -3.680  1.00  0.00    -0.003 C 
ATOM     26  C   UNL     1      42.947   9.532  -3.221  1.00  0.00     0.004 C 
ENDBRANCH  24  25
ENDBRANCH  23  24
ENDBRANCH  22  23
ENDBRANCH  21  22
ENDBRANCH  20  21
ENDBRANCH  19  20
ENDBRANCH  18  19
ENDBRANCH  17  18
ENDBRANCH  16  17
ENDBRANCH  15  16
ENDBRANCH   1  15
TORSDOF 22
ENDMDL
MODEL 8
REMARK VINA RESULT:    -5.327      3.305      5.451
REMARK INTER + INTRA:         -16.806
REMARK INTER:                 -12.277
REMARK INTRA:                  -4.529
REMARK UNBOUND:                -4.628
REMARK SMILES CCCCCCCCCCCCCCCCCCCCCCCC(=O)[O-]
REMARK SMILES IDX 13 1 14 2 15 3 16 4 17 5 18 6 19 7 20 8 21 9 22 10 23 11
REMARK SMILES IDX 24 12 25 13 26 14 12 15 11 16 10 17 9 18 8 19 7 20 6 21 5 22
REMARK SMILES IDX 4 23 3 24 2 25 1 26
REMARK H PARENT
REMARK Flexibility Score: inf
ROOT
ATOM      1  C   UNL     1      46.253  12.251  -6.505  1.00  0.00     0.000 C 
ENDROOT
BRANCH   1   2
ATOM      2  C   UNL     1      47.402  12.413  -7.512  1.00  0.00     0.000 C 
BRANCH   2   3
ATOM      3  C   UNL     1      47.139  11.679  -8.837  1.00  0.00     0.000 C 
BRANCH   3   4
ATOM      4  C   UNL     1      45.760  12.006  -9.437  1.00  0.00     0.000 C 
BRANCH   4   5
ATOM      5  C   UNL     1      45.045  10.751  -9.980  1.00  0.00     0.000 C 
BRANCH   5   6
ATOM      6  C   UNL     1      44.434   9.858  -8.884  1.00  0.00     0.000 C 
BRANCH   6   7
ATOM      7  C   UNL     1      43.561  10.640  -7.892  1.00  0.00     0.000 C 
BRANCH   7   8
ATOM      8  C   UNL     1      43.012   9.723  -6.789  1.00  0.00     0.000 C 
BRANCH   8   9
ATOM      9  C   UNL     1      43.522  10.137  -5.391  1.00  0.00     0.000 C 
BRANCH   9  10
ATOM     10  C   UNL     1      42.854   9.372  -4.232  1.00  0.00     0.006 C 
BRANCH  10  11
ATOM     11  C   UNL     1      41.604  10.066  -3.657  1.00  0.00     0.053 C 
BRANCH  11  12
ATOM     12  C   UNL     1      40.376   9.206  -3.728  1.00  0.00     0.041 C 
ATOM     13  O   UNL     1      39.410   9.414  -2.947  1.00  0.00    -0.550 OA
ATOM     14  O   UNL     1      40.323   8.136  -4.615  1.00  0.00    -0.550 OA
ENDBRANCH  11  12
ENDBRANCH  10  11
ENDBRANCH   9  10
ENDBRANCH   8   9
ENDBRANCH   7   8
ENDBRANCH   6   7
ENDBRANCH   5   6
ENDBRANCH   4   5
ENDBRANCH   3   4
ENDBRANCH   2   3
ENDBRANCH   1   2
BRANCH   1  15
ATOM     15  C   UNL     1      46.783  11.794  -5.137  1.00  0.00     0.000 C 
BRANCH  15  16
ATOM     16  C   UNL     1      48.206  12.306  -4.846  1.00  0.00     0.000 C 
BRANCH  16  17
ATOM     17  C   UNL     1      49.244  11.206  -4.540  1.00  0.00     0.000 C 
BRANCH  17  18
ATOM     18  C   UNL     1      50.485  11.200  -5.458  1.00  0.00    -0.000 C 
BRANCH  18  19
ATOM     19  C   UNL     1      50.344  10.358  -6.739  1.00  0.00    -0.000 C 
BRANCH  19  20
ATOM     20  C   UNL     1      49.476   9.105  -6.535  1.00  0.00    -0.000 C 
BRANCH  20  21
ATOM     21  C   UNL     1      48.812   8.616  -7.834  1.00  0.00    -0.000 C 
BRANCH  21  22
ATOM     22  C   UNL     1      47.485   7.853  -7.648  1.00  0.00    -0.000 C 
BRANCH  22  23
ATOM     23  C   UNL     1      46.620   8.322  -6.462  1.00  0.00    -0.000 C 
BRANCH  23  24
ATOM     24  C   UNL     1      45.865   7.200  -5.721  1.00  0.00    -0.000 C 
BRANCH  24  25
ATOM     25  C   UNL     1      45.938   7.277  -4.186  1.00  0.00    -0.003 C 
ATOM     26  C   UNL     1      46.846   8.401  -3.687  1.00  0.00     0.004 C 
ENDBRANCH  24  25
ENDBRANCH  23  24
ENDBRANCH  22  23
ENDBRANCH  21  22
ENDBRANCH  20  21
ENDBRANCH  19  20
ENDBRANCH  18  19
ENDBRANCH  17  18
ENDBRANCH  16  17
ENDBRANCH  15  16
ENDBRANCH   1  15
TORSDOF 22
ENDMDL
MODEL 9
REMARK VINA RESULT:    -5.273     13.171     16.667
REMARK INTER + INTRA:         -16.682
REMARK INTER:                 -12.339
REMARK INTRA:                  -4.343
REMARK UNBOUND:                -4.628
REMARK SMILES CCCCCCCCCCCCCCCCCCCCCCCC(=O)[O-]
REMARK SMILES IDX 13 1 14 2 15 3 16 4 17 5 18 6 19 7 20 8 21 9 22 10 23 11
REMARK SMILES IDX 24 12 25 13 26 14 12 15 11 16 10 17 9 18 8 19 7 20 6 21 5 22
REMARK SMILES IDX 4 23 3 24 2 25 1 26
REMARK H PARENT
REMARK Flexibility Score: inf
ROOT
ATOM      1  C   UNL     1      34.649   5.250   6.429  1.00  0.00     0.000 C 
ENDROOT
BRANCH   1   2
ATOM      2  C   UNL     1      35.461   5.199   7.732  1.00  0.00     0.000 C 
BRANCH   2   3
ATOM      3  C   UNL     1      36.622   4.194   7.671  1.00  0.00     0.000 C 
BRANCH   3   4
ATOM      4  C   UNL     1      37.242   4.083   6.266  1.00  0.00     0.000 C 
BRANCH   4   5
ATOM      5  C   UNL     1      38.267   2.932   6.168  1.00  0.00     0.000 C 
BRANCH   5   6
ATOM      6  C   UNL     1      38.621   2.536   4.722  1.00  0.00     0.000 C 
BRANCH   6   7
ATOM      7  C   UNL     1      40.029   2.982   4.306  1.00  0.00     0.000 C 
BRANCH   7   8
ATOM      8  C   UNL     1      39.981   4.263   3.459  1.00  0.00     0.000 C 
BRANCH   8   9
ATOM      9  C   UNL     1      38.879   4.196   2.379  1.00  0.00     0.000 C 
BRANCH   9  10
ATOM     10  C   UNL     1      37.922   5.403   2.390  1.00  0.00     0.006 C 
BRANCH  10  11
ATOM     11  C   UNL     1      38.293   6.492   3.417  1.00  0.00     0.053 C 
BRANCH  11  12
ATOM     12  C   UNL     1      38.833   7.737   2.776  1.00  0.00     0.041 C 
ATOM     13  O   UNL     1      39.964   8.182   3.109  1.00  0.00    -0.550 OA
ATOM     14  O   UNL     1      38.063   8.440   1.857  1.00  0.00    -0.550 OA
ENDBRANCH  11  12
ENDBRANCH  10  11
ENDBRANCH   9  10
ENDBRANCH   8   9
ENDBRANCH   7   8
ENDBRANCH   6   7
ENDBRANCH   5   6
ENDBRANCH   4   5
ENDBRANCH   3   4
ENDBRANCH   2   3
ENDBRANCH   1   2
BRANCH   1  15
ATOM     15  C   UNL     1      33.602   4.127   6.391  1.00  0.00     0.000 C 
BRANCH  15  16
ATOM     16  C   UNL     1      33.475   3.475   5.001  1.00  0.00     0.000 C 
BRANCH  16  17
ATOM     17  C   UNL     1      34.639   3.772   4.033  1.00  0.00     0.000 C 
BRANCH  17  18
ATOM     18  C   UNL     1      35.148   2.559   3.226  1.00  0.00    -0.000 C 
BRANCH  18  19
ATOM     19  C   UNL     1      34.360   1.254   3.442  1.00  0.00    -0.000 C 
BRANCH  19  20
ATOM     20  C   UNL     1      35.046   0.033   2.805  1.00  0.00    -0.000 C 
BRANCH  20  21
ATOM     21  C   UNL     1      35.445  -1.038   3.836  1.00  0.00    -0.000 C 
BRANCH  21  22
ATOM     22  C   UNL     1      36.554  -0.621   4.823  1.00  0.00    -0.000 C 
BRANCH  22  23
ATOM     23  C   UNL     1      36.137  -0.597   6.306  1.00  0.00    -0.000 C 
BRANCH  23  24
ATOM     24  C   UNL     1      35.603   0.759   6.810  1.00  0.00    -0.000 C 
BRANCH  24  25
ATOM     25  C   UNL     1      34.180   0.716   7.395  1.00  0.00    -0.003 C 
ATOM     26  C   UNL     1      33.294  -0.340   6.733  1.00  0.00     0.004 C 
ENDBRANCH  24  25
ENDBRANCH  23  24
ENDBRANCH  22  23
ENDBRANCH  21  22
ENDBRANCH  20  21
ENDBRANCH  19  20
ENDBRANCH  18  19
ENDBRANCH  17  18
ENDBRANCH  16  17
ENDBRANCH  15  16
ENDBRANCH   1  15
TORSDOF 22
ENDMDL
