MODEL 1
REMARK VINA RESULT:    -6.801      0.000      0.000
REMARK INTER + INTRA:          -8.282
REMARK INTER:                  -7.994
REMARK INTRA:                  -0.288
REMARK UNBOUND:                -0.288
REMARK SMILES O=c1c(O)c(-c2ccc(O)cc2)oc2cc(O)cc(O)c12
REMARK SMILES IDX 5 1 3 2 2 3 1 4 21 5 19 6 18 7 16 8 15 9 14 10 13 11 6 12
REMARK SMILES IDX 7 13 8 14 9 15 12 16 11 17 10 18 4 20 20 22 17 24
REMARK H PARENT 10 19 4 21 20 23 17 25
REMARK Flexibility Score: inf
ROOT
ATOM      1  C   UNL     1     107.919 121.966 119.435  1.00  0.00     0.180 A 
ATOM      2  C   UNL     1     108.031 123.045 118.536  1.00  0.00     0.208 A 
ATOM      3  C   UNL     1     106.877 123.767 118.195  1.00  0.00     0.238 A 
ATOM      4  O   UNL     1     106.968 124.741 117.400  1.00  0.00    -0.285 OA
ATOM      5  C   UNL     1     105.633 123.390 118.738  1.00  0.00     0.111 A 
ATOM      6  C   UNL     1     104.423 124.063 118.443  1.00  0.00     0.134 A 
ATOM      7  C   UNL     1     103.222 123.620 119.017  1.00  0.00     0.093 A 
ATOM      8  C   UNL     1     103.207 122.520 119.879  1.00  0.00     0.123 A 
ATOM      9  C   UNL     1     104.400 121.852 120.176  1.00  0.00     0.094 A 
ATOM     10  C   UNL     1     105.606 122.279 119.614  1.00  0.00     0.146 A 
ATOM     11  O   UNL     1     106.725 121.630 119.916  1.00  0.00    -0.452 OA
ENDROOT
BRANCH   1  12
ATOM     12  C   UNL     1     109.091 121.168 119.859  1.00  0.00     0.021 A 
ATOM     13  C   UNL     1     109.872 121.607 120.941  1.00  0.00     0.016 A 
ATOM     14  C   UNL     1     110.996 120.881 121.344  1.00  0.00     0.047 A 
ATOM     15  C   UNL     1     111.364 119.716 120.659  1.00  0.00     0.115 A 
ATOM     16  C   UNL     1     109.478 120.008 119.164  1.00  0.00     0.016 A 
ATOM     17  C   UNL     1     110.605 119.284 119.568  1.00  0.00     0.047 A 
BRANCH  15  18
ATOM     18  O   UNL     1     112.483 118.984 121.052  1.00  0.00    -0.508 OA
ATOM     19  H   UNL     1     113.263 119.423 121.527  1.00  0.00     0.293 HD
ENDBRANCH  15  18
ENDBRANCH   1  12
BRANCH   2  20
ATOM     20  O   UNL     1     109.269 123.368 117.973  1.00  0.00    -0.502 OA
ATOM     21  H   UNL     1     110.037 123.732 118.525  1.00  0.00     0.293 HD
ENDBRANCH   2  20
BRANCH   6  22
ATOM     22  O   UNL     1     104.404 125.163 117.585  1.00  0.00    -0.507 OA
ATOM     23  H   UNL     1     105.166 125.831 117.558  1.00  0.00     0.293 HD
ENDBRANCH   6  22
BRANCH   8  24
ATOM     24  O   UNL     1     102.001 122.101 120.435  1.00  0.00    -0.508 OA
ATOM     25  H   UNL     1     101.894 121.172 120.828  1.00  0.00     0.293 HD
ENDBRANCH   8  24
TORSDOF 5
ENDMDL
MODEL 2
REMARK VINA RESULT:    -6.729      0.198      1.073
REMARK INTER + INTRA:          -8.197
REMARK INTER:                  -7.904
REMARK INTRA:                  -0.293
REMARK UNBOUND:                -0.288
REMARK SMILES O=c1c(O)c(-c2ccc(O)cc2)oc2cc(O)cc(O)c12
REMARK SMILES IDX 5 1 3 2 2 3 1 4 21 5 19 6 18 7 16 8 15 9 14 10 13 11 6 12
REMARK SMILES IDX 7 13 8 14 9 15 12 16 11 17 10 18 4 20 20 22 17 24
REMARK H PARENT 10 19 4 21 20 23 17 25
REMARK Flexibility Score: inf
ROOT
ATOM      1  C   UNL     1     107.786 122.042 119.359  1.00  0.00     0.180 A 
ATOM      2  C   UNL     1     107.871 123.137 118.477  1.00  0.00     0.208 A 
ATOM      3  C   UNL     1     106.705 123.855 118.172  1.00  0.00     0.238 A 
ATOM      4  O   UNL     1     106.772 124.844 117.392  1.00  0.00    -0.285 OA
ATOM      5  C   UNL     1     105.474 123.458 118.732  1.00  0.00     0.111 A 
ATOM      6  C   UNL     1     104.253 124.125 118.472  1.00  0.00     0.134 A 
ATOM      7  C   UNL     1     103.068 123.661 119.062  1.00  0.00     0.093 A 
ATOM      8  C   UNL     1     103.079 122.547 119.904  1.00  0.00     0.123 A 
ATOM      9  C   UNL     1     104.283 121.884 120.166  1.00  0.00     0.094 A 
ATOM     10  C   UNL     1     105.475 122.331 119.589  1.00  0.00     0.146 A 
ATOM     11  O   UNL     1     106.605 121.687 119.858  1.00  0.00    -0.452 OA
ENDROOT
BRANCH   1  12
ATOM     12  C   UNL     1     108.973 121.248 119.746  1.00  0.00     0.021 A 
ATOM     13  C   UNL     1     109.234 120.032 119.092  1.00  0.00     0.016 A 
ATOM     14  C   UNL     1     110.338 119.255 119.456  1.00  0.00     0.047 A 
ATOM     15  C   UNL     1     111.185 119.676 120.489  1.00  0.00     0.115 A 
ATOM     16  C   UNL     1     109.818 121.654 120.795  1.00  0.00     0.016 A 
ATOM     17  C   UNL     1     110.921 120.874 121.157  1.00  0.00     0.047 A 
BRANCH  15  18
ATOM     18  O   UNL     1     112.288 118.909 120.859  1.00  0.00    -0.508 OA
ATOM     19  H   UNL     1     113.028 119.290 121.436  1.00  0.00     0.293 HD
ENDBRANCH  15  18
ENDBRANCH   1  12
BRANCH   2  20
ATOM     20  O   UNL     1     109.095 123.481 117.896  1.00  0.00    -0.502 OA
ATOM     21  H   UNL     1     109.979 123.353 118.376  1.00  0.00     0.293 HD
ENDBRANCH   2  20
BRANCH   6  22
ATOM     22  O   UNL     1     104.208 125.240 117.635  1.00  0.00    -0.507 OA
ATOM     23  H   UNL     1     104.253 126.184 118.001  1.00  0.00     0.293 HD
ENDBRANCH   6  22
BRANCH   8  24
ATOM     24  O   UNL     1     101.888 122.107 120.477  1.00  0.00    -0.508 OA
ATOM     25  H   UNL     1     101.629 121.127 120.472  1.00  0.00     0.293 HD
ENDBRANCH   8  24
TORSDOF 5
ENDMDL
MODEL 3
REMARK VINA RESULT:    -6.679      1.253      3.052
REMARK INTER + INTRA:          -8.139
REMARK INTER:                  -7.855
REMARK INTRA:                  -0.283
REMARK UNBOUND:                -0.288
REMARK SMILES O=c1c(O)c(-c2ccc(O)cc2)oc2cc(O)cc(O)c12
REMARK SMILES IDX 5 1 3 2 2 3 1 4 21 5 19 6 18 7 16 8 15 9 14 10 13 11 6 12
REMARK SMILES IDX 7 13 8 14 9 15 12 16 11 17 10 18 4 20 20 22 17 24
REMARK H PARENT 10 19 4 21 20 23 17 25
REMARK Flexibility Score: inf
ROOT
ATOM      1  C   UNL     1     107.179 121.202 120.414  1.00  0.00     0.180 A 
ATOM      2  C   UNL     1     106.140 120.614 121.162  1.00  0.00     0.208 A 
ATOM      3  C   UNL     1     104.834 121.109 121.016  1.00  0.00     0.238 A 
ATOM      4  O   UNL     1     103.895 120.582 121.672  1.00  0.00    -0.285 OA
ATOM      5  C   UNL     1     104.592 122.191 120.146  1.00  0.00     0.111 A 
ATOM      6  C   UNL     1     103.307 122.750 119.945  1.00  0.00     0.134 A 
ATOM      7  C   UNL     1     103.150 123.834 119.068  1.00  0.00     0.093 A 
ATOM      8  C   UNL     1     104.248 124.368 118.390  1.00  0.00     0.123 A 
ATOM      9  C   UNL     1     105.520 123.818 118.583  1.00  0.00     0.094 A 
ATOM     10  C   UNL     1     105.697 122.738 119.452  1.00  0.00     0.146 A 
ATOM     11  O   UNL     1     106.915 122.232 119.614  1.00  0.00    -0.452 OA
ENDROOT
BRANCH   1  12
ATOM     12  C   UNL     1     108.577 120.725 120.498  1.00  0.00     0.021 A 
ATOM     13  C   UNL     1     109.420 121.228 121.503  1.00  0.00     0.016 A 
ATOM     14  C   UNL     1     110.751 120.807 121.587  1.00  0.00     0.047 A 
ATOM     15  C   UNL     1     111.259 119.891 120.659  1.00  0.00     0.115 A 
ATOM     16  C   UNL     1     109.100 119.819 119.558  1.00  0.00     0.016 A 
ATOM     17  C   UNL     1     110.433 119.401 119.644  1.00  0.00     0.047 A 
BRANCH  15  18
ATOM     18  O   UNL     1     112.584 119.465 120.734  1.00  0.00    -0.508 OA
ATOM     19  H   UNL     1     112.822 118.481 120.775  1.00  0.00     0.293 HD
ENDBRANCH  15  18
ENDBRANCH   1  12
BRANCH   2  20
ATOM     20  O   UNL     1     106.415 119.575 122.055  1.00  0.00    -0.502 OA
ATOM     21  H   UNL     1     106.968 119.711 122.893  1.00  0.00     0.293 HD
ENDBRANCH   2  20
BRANCH   6  22
ATOM     22  O   UNL     1     102.190 122.241 120.608  1.00  0.00    -0.507 OA
ATOM     23  H   UNL     1     101.247 122.450 120.301  1.00  0.00     0.293 HD
ENDBRANCH   6  22
BRANCH   8  24
ATOM     24  O   UNL     1     104.065 125.444 117.525  1.00  0.00    -0.508 OA
ATOM     25  H   UNL     1     104.571 126.313 117.647  1.00  0.00     0.293 HD
ENDBRANCH   8  24
TORSDOF 5
ENDMDL
MODEL 4
REMARK VINA RESULT:    -6.210      2.136      7.094
REMARK INTER + INTRA:          -7.587
REMARK INTER:                  -7.331
REMARK INTRA:                  -0.256
REMARK UNBOUND:                -0.288
REMARK SMILES O=c1c(O)c(-c2ccc(O)cc2)oc2cc(O)cc(O)c12
REMARK SMILES IDX 5 1 3 2 2 3 1 4 21 5 19 6 18 7 16 8 15 9 14 10 13 11 6 12
REMARK SMILES IDX 7 13 8 14 9 15 12 16 11 17 10 18 4 20 20 22 17 24
REMARK H PARENT 10 19 4 21 20 23 17 25
REMARK Flexibility Score: inf
ROOT
ATOM      1  C   UNL     1     106.209 121.639 120.074  1.00  0.00     0.180 A 
ATOM      2  C   UNL     1     105.701 120.816 121.099  1.00  0.00     0.208 A 
ATOM      3  C   UNL     1     106.602 120.158 121.950  1.00  0.00     0.238 A 
ATOM      4  O   UNL     1     106.158 119.427 122.877  1.00  0.00    -0.285 OA
ATOM      5  C   UNL     1     107.989 120.314 121.753  1.00  0.00     0.111 A 
ATOM      6  C   UNL     1     108.963 119.683 122.564  1.00  0.00     0.134 A 
ATOM      7  C   UNL     1     110.325 119.882 122.298  1.00  0.00     0.093 A 
ATOM      8  C   UNL     1     110.733 120.697 121.239  1.00  0.00     0.123 A 
ATOM      9  C   UNL     1     109.775 121.325 120.434  1.00  0.00     0.094 A 
ATOM     10  C   UNL     1     108.413 121.140 120.685  1.00  0.00     0.146 A 
ATOM     11  O   UNL     1     107.525 121.751 119.909  1.00  0.00    -0.452 OA
ENDROOT
BRANCH   1  12
ATOM     12  C   UNL     1     105.325 122.381 119.149  1.00  0.00     0.021 A 
ATOM     13  C   UNL     1     104.743 121.710 118.060  1.00  0.00     0.016 A 
ATOM     14  C   UNL     1     103.922 122.396 117.161  1.00  0.00     0.047 A 
ATOM     15  C   UNL     1     103.685 123.766 117.330  1.00  0.00     0.115 A 
ATOM     16  C   UNL     1     105.097 123.761 119.300  1.00  0.00     0.016 A 
ATOM     17  C   UNL     1     104.276 124.446 118.398  1.00  0.00     0.047 A 
BRANCH  15  18
ATOM     18  O   UNL     1     102.867 124.460 116.439  1.00  0.00    -0.508 OA
ATOM     19  H   UNL     1     102.990 124.382 115.437  1.00  0.00     0.293 HD
ENDBRANCH  15  18
ENDBRANCH   1  12
BRANCH   2  20
ATOM     20  O   UNL     1     104.322 120.639 121.242  1.00  0.00    -0.502 OA
ATOM     21  H   UNL     1     103.880 119.731 121.154  1.00  0.00     0.293 HD
ENDBRANCH   2  20
BRANCH   6  22
ATOM     22  O   UNL     1     108.588 118.862 123.628  1.00  0.00    -0.507 OA
ATOM     23  H   UNL     1     108.459 117.864 123.512  1.00  0.00     0.293 HD
ENDBRANCH   6  22
BRANCH   8  24
ATOM     24  O   UNL     1     112.092 120.877 120.995  1.00  0.00    -0.508 OA
ATOM     25  H   UNL     1     112.424 121.569 120.333  1.00  0.00     0.293 HD
ENDBRANCH   8  24
TORSDOF 5
ENDMDL
MODEL 5
REMARK VINA RESULT:    -5.848      3.559      6.704
REMARK INTER + INTRA:          -7.162
REMARK INTER:                  -6.872
REMARK INTRA:                  -0.290
REMARK UNBOUND:                -0.288
REMARK SMILES O=c1c(O)c(-c2ccc(O)cc2)oc2cc(O)cc(O)c12
REMARK SMILES IDX 5 1 3 2 2 3 1 4 21 5 19 6 18 7 16 8 15 9 14 10 13 11 6 12
REMARK SMILES IDX 7 13 8 14 9 15 12 16 11 17 10 18 4 20 20 22 17 24
REMARK H PARENT 10 19 4 21 20 23 17 25
REMARK Flexibility Score: inf
ROOT
ATOM      1  C   UNL     1     105.721 119.943 122.276  1.00  0.00     0.180 A 
ATOM      2  C   UNL     1     105.277 120.820 121.267  1.00  0.00     0.208 A 
ATOM      3  C   UNL     1     106.225 121.409 120.416  1.00  0.00     0.238 A 
ATOM      4  O   UNL     1     105.838 122.187 119.502  1.00  0.00    -0.285 OA
ATOM      5  C   UNL     1     107.594 121.132 120.598  1.00  0.00     0.111 A 
ATOM      6  C   UNL     1     108.612 121.688 119.787  1.00  0.00     0.134 A 
ATOM      7  C   UNL     1     109.955 121.369 120.039  1.00  0.00     0.093 A 
ATOM      8  C   UNL     1     110.299 120.508 121.084  1.00  0.00     0.123 A 
ATOM      9  C   UNL     1     109.297 119.955 121.889  1.00  0.00     0.094 A 
ATOM     10  C   UNL     1     107.954 120.259 121.652  1.00  0.00     0.146 A 
ATOM     11  O   UNL     1     107.023 119.716 122.428  1.00  0.00    -0.452 OA
ENDROOT
BRANCH   1  12
ATOM     12  C   UNL     1     104.782 119.267 123.200  1.00  0.00     0.021 A 
ATOM     13  C   UNL     1     104.208 118.041 122.828  1.00  0.00     0.016 A 
ATOM     14  C   UNL     1     103.302 117.396 123.676  1.00  0.00     0.047 A 
ATOM     15  C   UNL     1     102.948 117.978 124.899  1.00  0.00     0.115 A 
ATOM     16  C   UNL     1     104.407 119.855 124.422  1.00  0.00     0.016 A 
ATOM     17  C   UNL     1     103.499 119.208 125.268  1.00  0.00     0.047 A 
BRANCH  15  18
ATOM     18  O   UNL     1     102.046 117.344 125.752  1.00  0.00    -0.508 OA
ATOM     19  H   UNL     1     102.334 116.583 126.357  1.00  0.00     0.293 HD
ENDBRANCH  15  18
ENDBRANCH   1  12
BRANCH   2  20
ATOM     20  O   UNL     1     103.917 121.117 121.138  1.00  0.00    -0.502 OA
ATOM     21  H   UNL     1     103.508 121.413 120.260  1.00  0.00     0.293 HD
ENDBRANCH   2  20
BRANCH   6  22
ATOM     22  O   UNL     1     108.302 122.552 118.736  1.00  0.00    -0.507 OA
ATOM     23  H   UNL     1     108.443 123.553 118.810  1.00  0.00     0.293 HD
ENDBRANCH   6  22
BRANCH   8  24
ATOM     24  O   UNL     1     111.640 120.208 121.313  1.00  0.00    -0.508 OA
ATOM     25  H   UNL     1     111.917 119.372 121.815  1.00  0.00     0.293 HD
ENDBRANCH   8  24
TORSDOF 5
ENDMDL
MODEL 6
REMARK VINA RESULT:    -5.820      2.070      3.008
REMARK INTER + INTRA:          -7.129
REMARK INTER:                  -6.831
REMARK INTRA:                  -0.298
REMARK UNBOUND:                -0.288
REMARK SMILES O=c1c(O)c(-c2ccc(O)cc2)oc2cc(O)cc(O)c12
REMARK SMILES IDX 5 1 3 2 2 3 1 4 21 5 19 6 18 7 16 8 15 9 14 10 13 11 6 12
REMARK SMILES IDX 7 13 8 14 9 15 12 16 11 17 10 18 4 20 20 22 17 24
REMARK H PARENT 10 19 4 21 20 23 17 25
REMARK Flexibility Score: inf
ROOT
ATOM      1  C   UNL     1     107.538 120.652 120.463  1.00  0.00     0.180 A 
ATOM      2  C   UNL     1     106.923 121.563 119.582  1.00  0.00     0.208 A 
ATOM      3  C   UNL     1     105.522 121.601 119.514  1.00  0.00     0.238 A 
ATOM      4  O   UNL     1     104.961 122.421 118.737  1.00  0.00    -0.285 OA
ATOM      5  C   UNL     1     104.761 120.721 120.309  1.00  0.00     0.111 A 
ATOM      6  C   UNL     1     103.346 120.693 120.297  1.00  0.00     0.134 A 
ATOM      7  C   UNL     1     102.661 119.779 121.112  1.00  0.00     0.093 A 
ATOM      8  C   UNL     1     103.361 118.893 121.935  1.00  0.00     0.123 A 
ATOM      9  C   UNL     1     104.760 118.917 121.951  1.00  0.00     0.094 A 
ATOM     10  C   UNL     1     105.460 119.821 121.148  1.00  0.00     0.146 A 
ATOM     11  O   UNL     1     106.788 119.825 121.187  1.00  0.00    -0.452 OA
ENDROOT
BRANCH   1  12
ATOM     12  C   UNL     1     109.008 120.564 120.605  1.00  0.00     0.021 A 
ATOM     13  C   UNL     1     109.724 119.636 119.831  1.00  0.00     0.016 A 
ATOM     14  C   UNL     1     111.111 119.521 119.964  1.00  0.00     0.047 A 
ATOM     15  C   UNL     1     111.797 120.321 120.886  1.00  0.00     0.115 A 
ATOM     16  C   UNL     1     109.703 121.350 121.543  1.00  0.00     0.016 A 
ATOM     17  C   UNL     1     111.090 121.232 121.676  1.00  0.00     0.047 A 
BRANCH  15  18
ATOM     18  O   UNL     1     113.180 120.215 121.028  1.00  0.00    -0.508 OA
ATOM     19  H   UNL     1     113.715 119.536 120.500  1.00  0.00     0.293 HD
ENDBRANCH  15  18
ENDBRANCH   1  12
BRANCH   2  20
ATOM     20  O   UNL     1     107.701 122.391 118.769  1.00  0.00    -0.502 OA
ATOM     21  H   UNL     1     108.588 122.093 118.380  1.00  0.00     0.293 HD
ENDBRANCH   2  20
BRANCH   6  22
ATOM     22  O   UNL     1     102.617 121.563 119.486  1.00  0.00    -0.507 OA
ATOM     23  H   UNL     1     101.726 121.297 119.084  1.00  0.00     0.293 HD
ENDBRANCH   6  22
BRANCH   8  24
ATOM     24  O   UNL     1     102.657 117.996 122.733  1.00  0.00    -0.508 OA
ATOM     25  H   UNL     1     102.853 117.900 123.723  1.00  0.00     0.293 HD
ENDBRANCH   8  24
TORSDOF 5
ENDMDL
MODEL 7
REMARK VINA RESULT:    -5.813      2.092      2.724
REMARK INTER + INTRA:          -7.121
REMARK INTER:                  -7.046
REMARK INTRA:                  -0.075
REMARK UNBOUND:                -0.288
REMARK SMILES O=c1c(O)c(-c2ccc(O)cc2)oc2cc(O)cc(O)c12
REMARK SMILES IDX 5 1 3 2 2 3 1 4 21 5 19 6 18 7 16 8 15 9 14 10 13 11 6 12
REMARK SMILES IDX 7 13 8 14 9 15 12 16 11 17 10 18 4 20 20 22 17 24
REMARK H PARENT 10 19 4 21 20 23 17 25
REMARK Flexibility Score: inf
ROOT
ATOM      1  C   UNL     1     107.225 121.270 121.014  1.00  0.00     0.180 A 
ATOM      2  C   UNL     1     106.621 122.015 119.982  1.00  0.00     0.208 A 
ATOM      3  C   UNL     1     105.307 122.477 120.158  1.00  0.00     0.238 A 
ATOM      4  O   UNL     1     104.761 123.154 119.245  1.00  0.00    -0.285 OA
ATOM      5  C   UNL     1     104.615 122.173 121.347  1.00  0.00     0.111 A 
ATOM      6  C   UNL     1     103.288 122.597 121.601  1.00  0.00     0.134 A 
ATOM      7  C   UNL     1     102.664 122.245 122.806  1.00  0.00     0.093 A 
ATOM      8  C   UNL     1     103.336 121.478 123.761  1.00  0.00     0.123 A 
ATOM      9  C   UNL     1     104.648 121.056 123.516  1.00  0.00     0.094 A 
ATOM     10  C   UNL     1     105.288 121.398 122.321  1.00  0.00     0.146 A 
ATOM     11  O   UNL     1     106.535 120.989 122.116  1.00  0.00    -0.452 OA
ENDROOT
BRANCH   1  12
ATOM     12  C   UNL     1     108.612 120.765 120.912  1.00  0.00     0.021 A 
ATOM     13  C   UNL     1     109.579 121.207 121.830  1.00  0.00     0.016 A 
ATOM     14  C   UNL     1     110.900 120.760 121.739  1.00  0.00     0.047 A 
ATOM     15  C   UNL     1     111.275 119.876 120.719  1.00  0.00     0.115 A 
ATOM     16  C   UNL     1     109.001 119.893 119.879  1.00  0.00     0.016 A 
ATOM     17  C   UNL     1     110.324 119.448 119.789  1.00  0.00     0.047 A 
BRANCH  15  18
ATOM     18  O   UNL     1     112.589 119.424 120.619  1.00  0.00    -0.508 OA
ATOM     19  H   UNL     1     112.923 118.947 119.789  1.00  0.00     0.293 HD
ENDBRANCH  15  18
ENDBRANCH   1  12
BRANCH   2  20
ATOM     20  O   UNL     1     107.312 122.261 118.793  1.00  0.00    -0.502 OA
ATOM     21  H   UNL     1     108.254 121.923 118.632  1.00  0.00     0.293 HD
ENDBRANCH   2  20
BRANCH   6  22
ATOM     22  O   UNL     1     102.588 123.363 120.668  1.00  0.00    -0.507 OA
ATOM     23  H   UNL     1     101.642 123.683 120.843  1.00  0.00     0.293 HD
ENDBRANCH   6  22
BRANCH   8  24
ATOM     24  O   UNL     1     102.693 121.141 124.949  1.00  0.00    -0.508 OA
ATOM     25  H   UNL     1     101.713 121.352 125.099  1.00  0.00     0.293 HD
ENDBRANCH   8  24
TORSDOF 5
ENDMDL
MODEL 8
REMARK VINA RESULT:    -5.710      1.994      3.381
REMARK INTER + INTRA:          -7.000
REMARK INTER:                  -6.768
REMARK INTRA:                  -0.232
REMARK UNBOUND:                -0.288
REMARK SMILES O=c1c(O)c(-c2ccc(O)cc2)oc2cc(O)cc(O)c12
REMARK SMILES IDX 5 1 3 2 2 3 1 4 21 5 19 6 18 7 16 8 15 9 14 10 13 11 6 12
REMARK SMILES IDX 7 13 8 14 9 15 12 16 11 17 10 18 4 20 20 22 17 24
REMARK H PARENT 10 19 4 21 20 23 17 25
REMARK Flexibility Score: inf
ROOT
ATOM      1  C   UNL     1     106.135 121.637 119.570  1.00  0.00     0.180 A 
ATOM      2  C   UNL     1     105.264 120.548 119.370  1.00  0.00     0.208 A 
ATOM      3  C   UNL     1     104.050 120.765 118.700  1.00  0.00     0.238 A 
ATOM      4  O   UNL     1     103.268 119.795 118.505  1.00  0.00    -0.285 OA
ATOM      5  C   UNL     1     103.717 122.062 118.260  1.00  0.00     0.111 A 
ATOM      6  C   UNL     1     102.513 122.365 117.582  1.00  0.00     0.134 A 
ATOM      7  C   UNL     1     102.251 123.685 117.185  1.00  0.00     0.093 A 
ATOM      8  C   UNL     1     103.166 124.705 117.453  1.00  0.00     0.123 A 
ATOM      9  C   UNL     1     104.359 124.412 118.123  1.00  0.00     0.094 A 
ATOM     10  C   UNL     1     104.639 123.103 118.525  1.00  0.00     0.146 A 
ATOM     11  O   UNL     1     105.781 122.851 119.155  1.00  0.00    -0.452 OA
ENDROOT
BRANCH   1  12
ATOM     12  C   UNL     1     107.441 121.486 120.250  1.00  0.00     0.021 A 
ATOM     13  C   UNL     1     107.482 121.364 121.649  1.00  0.00     0.016 A 
ATOM     14  C   UNL     1     108.705 121.243 122.314  1.00  0.00     0.047 A 
ATOM     15  C   UNL     1     109.904 121.258 121.589  1.00  0.00     0.115 A 
ATOM     16  C   UNL     1     108.650 121.520 119.531  1.00  0.00     0.016 A 
ATOM     17  C   UNL     1     109.873 121.399 120.200  1.00  0.00     0.047 A 
BRANCH  15  18
ATOM     18  O   UNL     1     111.130 121.137 122.242  1.00  0.00    -0.508 OA
ATOM     19  H   UNL     1     111.289 120.421 122.941  1.00  0.00     0.293 HD
ENDBRANCH  15  18
ENDBRANCH   1  12
BRANCH   2  20
ATOM     20  O   UNL     1     105.595 119.281 119.858  1.00  0.00    -0.502 OA
ATOM     21  H   UNL     1     105.704 119.093 120.848  1.00  0.00     0.293 HD
ENDBRANCH   2  20
BRANCH   6  22
ATOM     22  O   UNL     1     101.577 121.369 117.300  1.00  0.00    -0.507 OA
ATOM     23  H   UNL     1     100.591 121.579 117.190  1.00  0.00     0.293 HD
ENDBRANCH   6  22
BRANCH   8  24
ATOM     24  O   UNL     1     102.881 126.007 117.049  1.00  0.00    -0.508 OA
ATOM     25  H   UNL     1     102.196 126.575 117.535  1.00  0.00     0.293 HD
ENDBRANCH   8  24
TORSDOF 5
ENDMDL
MODEL 9
REMARK VINA RESULT:    -5.643      3.735      6.350
REMARK INTER + INTRA:          -6.921
REMARK INTER:                  -6.623
REMARK INTRA:                  -0.298
REMARK UNBOUND:                -0.288
REMARK SMILES O=c1c(O)c(-c2ccc(O)cc2)oc2cc(O)cc(O)c12
REMARK SMILES IDX 5 1 3 2 2 3 1 4 21 5 19 6 18 7 16 8 15 9 14 10 13 11 6 12
REMARK SMILES IDX 7 13 8 14 9 15 12 16 11 17 10 18 4 20 20 22 17 24
REMARK H PARENT 10 19 4 21 20 23 17 25
REMARK Flexibility Score: inf
ROOT
ATOM      1  C   UNL     1     105.919 119.902 122.367  1.00  0.00     0.180 A 
ATOM      2  C   UNL     1     107.296 119.644 122.513  1.00  0.00     0.208 A 
ATOM      3  C   UNL     1     108.201 120.273 121.643  1.00  0.00     0.238 A 
ATOM      4  O   UNL     1     109.437 120.057 121.771  1.00  0.00    -0.285 OA
ATOM      5  C   UNL     1     107.716 121.128 120.633  1.00  0.00     0.111 A 
ATOM      6  C   UNL     1     108.560 121.797 119.713  1.00  0.00     0.134 A 
ATOM      7  C   UNL     1     107.999 122.625 118.730  1.00  0.00     0.093 A 
ATOM      8  C   UNL     1     106.616 122.798 118.647  1.00  0.00     0.123 A 
ATOM      9  C   UNL     1     105.777 122.141 119.554  1.00  0.00     0.094 A 
ATOM     10  C   UNL     1     106.316 121.312 120.541  1.00  0.00     0.146 A 
ATOM     11  O   UNL     1     105.498 120.704 121.393  1.00  0.00    -0.452 OA
ENDROOT
BRANCH   1  12
ATOM     12  C   UNL     1     104.906 119.293 123.257  1.00  0.00     0.021 A 
ATOM     13  C   UNL     1     104.294 118.085 122.884  1.00  0.00     0.016 A 
ATOM     14  C   UNL     1     103.318 117.503 123.698  1.00  0.00     0.047 A 
ATOM     15  C   UNL     1     102.930 118.131 124.889  1.00  0.00     0.115 A 
ATOM     16  C   UNL     1     104.497 119.927 124.444  1.00  0.00     0.016 A 
ATOM     17  C   UNL     1     103.519 119.344 125.257  1.00  0.00     0.047 A 
BRANCH  15  18
ATOM     18  O   UNL     1     101.958 117.560 125.709  1.00  0.00    -0.508 OA
ATOM     19  H   UNL     1     100.984 117.530 125.433  1.00  0.00     0.293 HD
ENDBRANCH  15  18
ENDBRANCH   1  12
BRANCH   2  20
ATOM     20  O   UNL     1     107.747 118.753 123.491  1.00  0.00    -0.502 OA
ATOM     21  H   UNL     1     108.104 117.832 123.263  1.00  0.00     0.293 HD
ENDBRANCH   2  20
BRANCH   6  22
ATOM     22  O   UNL     1     109.946 121.644 119.769  1.00  0.00    -0.507 OA
ATOM     23  H   UNL     1     110.554 122.401 120.059  1.00  0.00     0.293 HD
ENDBRANCH   6  22
BRANCH   8  24
ATOM     24  O   UNL     1     106.085 123.625 117.661  1.00  0.00    -0.508 OA
ATOM     25  H   UNL     1     105.481 124.406 117.893  1.00  0.00     0.293 HD
ENDBRANCH   8  24
TORSDOF 5
ENDMDL
