MODEL 1
REMARK VINA RESULT:    -5.603      0.000      0.000
REMARK INTER + INTRA:         -16.696
REMARK INTER:                 -14.121
REMARK INTRA:                  -2.575
REMARK UNBOUND:                -2.575
REMARK SMILES CCCCCCCCCCCCCCCCCCCCCCCCCCCC(=O)[O-]
REMARK SMILES IDX 15 1 16 2 17 3 18 4 19 5 20 6 21 7 22 8 23 9 24 10 25 11
REMARK SMILES IDX 26 12 27 13 28 14 29 15 30 16 14 17 13 18 12 19 11 20 10 21
REMARK SMILES IDX 9 22 8 23 7 24 6 25 5 26 4 27 3 28 2 29 1 30
REMARK H PARENT
REMARK Flexibility Score: inf
ROOT
ATOM      1  C   UNL     1      49.583  30.319  16.993  1.00  0.00     0.000 C 
ENDROOT
BRANCH   1   2
ATOM      2  C   UNL     1      49.621  31.704  17.658  1.00  0.00     0.000 C 
BRANCH   2   3
ATOM      3  C   UNL     1      48.236  32.368  17.738  1.00  0.00     0.000 C 
BRANCH   3   4
ATOM      4  C   UNL     1      48.159  33.792  17.154  1.00  0.00     0.000 C 
BRANCH   4   5
ATOM      5  C   UNL     1      47.370  33.888  15.829  1.00  0.00     0.000 C 
BRANCH   5   6
ATOM      6  C   UNL     1      48.104  33.230  14.648  1.00  0.00     0.000 C 
BRANCH   6   7
ATOM      7  C   UNL     1      48.620  34.250  13.620  1.00  0.00     0.000 C 
BRANCH   7   8
ATOM      8  C   UNL     1      48.091  34.025  12.186  1.00  0.00     0.000 C 
BRANCH   8   9
ATOM      9  C   UNL     1      46.644  34.502  11.936  1.00  0.00     0.000 C 
BRANCH   9  10
ATOM     10  C   UNL     1      46.205  35.764  12.704  1.00  0.00     0.000 C 
BRANCH  10  11
ATOM     11  C   UNL     1      44.746  35.710  13.190  1.00  0.00     0.000 C 
BRANCH  11  12
ATOM     12  C   UNL     1      43.845  36.737  12.478  1.00  0.00     0.006 C 
BRANCH  12  13
ATOM     13  C   UNL     1      42.556  36.148  11.881  1.00  0.00     0.053 C 
BRANCH  13  14
ATOM     14  C   UNL     1      41.642  37.213  11.356  1.00  0.00     0.041 C 
ATOM     15  O   UNL     1      40.441  36.943  11.091  1.00  0.00    -0.550 OA
ATOM     16  O   UNL     1      42.109  38.511  11.193  1.00  0.00    -0.550 OA
ENDBRANCH  13  14
ENDBRANCH  12  13
ENDBRANCH  11  12
ENDBRANCH  10  11
ENDBRANCH   9  10
ENDBRANCH   8   9
ENDBRANCH   7   8
ENDBRANCH   6   7
ENDBRANCH   5   6
ENDBRANCH   4   5
ENDBRANCH   3   4
ENDBRANCH   2   3
ENDBRANCH   1   2
BRANCH   1  17
ATOM     17  C   UNL     1      48.324  29.540  17.405  1.00  0.00     0.000 C 
BRANCH  17  18
ATOM     18  C   UNL     1      47.895  28.491  16.363  1.00  0.00     0.000 C 
BRANCH  18  19
ATOM     19  C   UNL     1      48.521  27.096  16.544  1.00  0.00     0.000 C 
BRANCH  19  20
ATOM     20  C   UNL     1      49.148  26.896  17.935  1.00  0.00     0.000 C 
BRANCH  20  21
ATOM     21  C   UNL     1      49.611  25.449  18.170  1.00  0.00     0.000 C 
BRANCH  21  22
ATOM     22  C   UNL     1      49.550  25.037  19.649  1.00  0.00    -0.000 C 
BRANCH  22  23
ATOM     23  C   UNL     1      48.337  25.677  20.341  1.00  0.00    -0.000 C 
BRANCH  23  24
ATOM     24  C   UNL     1      48.710  26.441  21.626  1.00  0.00    -0.000 C 
BRANCH  24  25
ATOM     25  C   UNL     1      49.909  25.866  22.403  1.00  0.00    -0.000 C 
BRANCH  25  26
ATOM     26  C   UNL     1      51.121  26.812  22.414  1.00  0.00    -0.000 C 
BRANCH  26  27
ATOM     27  C   UNL     1      52.467  26.065  22.415  1.00  0.00    -0.000 C 
BRANCH  27  28
ATOM     28  C   UNL     1      53.139  25.908  21.035  1.00  0.00    -0.000 C 
BRANCH  28  29
ATOM     29  C   UNL     1      52.711  26.943  19.979  1.00  0.00    -0.003 C 
ATOM     30  C   UNL     1      53.211  26.603  18.577  1.00  0.00     0.004 C 
ENDBRANCH  28  29
ENDBRANCH  27  28
ENDBRANCH  26  27
ENDBRANCH  25  26
ENDBRANCH  24  25
ENDBRANCH  23  24
ENDBRANCH  22  23
ENDBRANCH  21  22
ENDBRANCH  20  21
ENDBRANCH  19  20
ENDBRANCH  18  19
ENDBRANCH  17  18
ENDBRANCH   1  17
TORSDOF 26
ENDMDL
MODEL 2
REMARK VINA RESULT:    -5.599      1.383      2.554
REMARK INTER + INTRA:         -16.685
REMARK INTER:                 -14.810
REMARK INTRA:                  -1.874
REMARK UNBOUND:                -2.575
REMARK SMILES CCCCCCCCCCCCCCCCCCCCCCCCCCCC(=O)[O-]
REMARK SMILES IDX 15 1 16 2 17 3 18 4 19 5 20 6 21 7 22 8 23 9 24 10 25 11
REMARK SMILES IDX 26 12 27 13 28 14 29 15 30 16 14 17 13 18 12 19 11 20 10 21
REMARK SMILES IDX 9 22 8 23 7 24 6 25 5 26 4 27 3 28 2 29 1 30
REMARK H PARENT
REMARK Flexibility Score: inf
ROOT
ATOM      1  C   UNL     1      49.169  32.291  17.940  1.00  0.00     0.000 C 
ENDROOT
BRANCH   1   2
ATOM      2  C   UNL     1      48.807  33.653  17.328  1.00  0.00     0.000 C 
BRANCH   2   3
ATOM      3  C   UNL     1      47.702  33.557  16.263  1.00  0.00     0.000 C 
BRANCH   3   4
ATOM      4  C   UNL     1      48.166  33.050  14.883  1.00  0.00     0.000 C 
BRANCH   4   5
ATOM      5  C   UNL     1      48.614  34.170  13.918  1.00  0.00     0.000 C 
BRANCH   5   6
ATOM      6  C   UNL     1      48.503  33.763  12.439  1.00  0.00     0.000 C 
BRANCH   6   7
ATOM      7  C   UNL     1      47.233  34.307  11.762  1.00  0.00     0.000 C 
BRANCH   7   8
ATOM      8  C   UNL     1      46.449  35.326  12.617  1.00  0.00     0.000 C 
BRANCH   8   9
ATOM      9  C   UNL     1      44.937  35.414  12.314  1.00  0.00     0.000 C 
BRANCH   9  10
ATOM     10  C   UNL     1      44.064  36.067  13.405  1.00  0.00     0.000 C 
BRANCH  10  11
ATOM     11  C   UNL     1      42.884  36.877  12.842  1.00  0.00     0.000 C 
BRANCH  11  12
ATOM     12  C   UNL     1      42.455  36.405  11.440  1.00  0.00     0.006 C 
BRANCH  12  13
ATOM     13  C   UNL     1      40.974  36.653  11.110  1.00  0.00     0.053 C 
BRANCH  13  14
ATOM     14  C   UNL     1      40.060  35.953  12.068  1.00  0.00     0.041 C 
ATOM     15  O   UNL     1      39.727  34.755  11.867  1.00  0.00    -0.550 OA
ATOM     16  O   UNL     1      39.604  36.613  13.203  1.00  0.00    -0.550 OA
ENDBRANCH  13  14
ENDBRANCH  12  13
ENDBRANCH  11  12
ENDBRANCH  10  11
ENDBRANCH   9  10
ENDBRANCH   8   9
ENDBRANCH   7   8
ENDBRANCH   6   7
ENDBRANCH   5   6
ENDBRANCH   4   5
ENDBRANCH   3   4
ENDBRANCH   2   3
ENDBRANCH   1   2
BRANCH   1  17
ATOM     17  C   UNL     1      47.908  31.499  18.316  1.00  0.00     0.000 C 
BRANCH  17  18
ATOM     18  C   UNL     1      47.814  30.137  17.602  1.00  0.00     0.000 C 
BRANCH  18  19
ATOM     19  C   UNL     1      48.964  29.832  16.624  1.00  0.00     0.000 C 
BRANCH  19  20
ATOM     20  C   UNL     1      48.635  28.685  15.652  1.00  0.00     0.000 C 
BRANCH  20  21
ATOM     21  C   UNL     1      49.416  27.400  15.973  1.00  0.00     0.000 C 
BRANCH  21  22
ATOM     22  C   UNL     1      48.524  26.289  16.548  1.00  0.00    -0.000 C 
BRANCH  22  23
ATOM     23  C   UNL     1      49.205  25.610  17.746  1.00  0.00    -0.000 C 
BRANCH  23  24
ATOM     24  C   UNL     1      48.344  25.636  19.023  1.00  0.00    -0.000 C 
BRANCH  24  25
ATOM     25  C   UNL     1      49.108  25.356  20.330  1.00  0.00    -0.000 C 
BRANCH  25  26
ATOM     26  C   UNL     1      48.696  26.296  21.475  1.00  0.00    -0.000 C 
BRANCH  26  27
ATOM     27  C   UNL     1      49.724  26.339  22.619  1.00  0.00    -0.000 C 
BRANCH  27  28
ATOM     28  C   UNL     1      50.872  25.313  22.517  1.00  0.00    -0.000 C 
BRANCH  28  29
ATOM     29  C   UNL     1      52.255  25.909  22.205  1.00  0.00    -0.003 C 
ATOM     30  C   UNL     1      52.302  27.426  22.381  1.00  0.00     0.004 C 
ENDBRANCH  28  29
ENDBRANCH  27  28
ENDBRANCH  26  27
ENDBRANCH  25  26
ENDBRANCH  24  25
ENDBRANCH  23  24
ENDBRANCH  22  23
ENDBRANCH  21  22
ENDBRANCH  20  21
ENDBRANCH  19  20
ENDBRANCH  18  19
ENDBRANCH  17  18
ENDBRANCH   1  17
TORSDOF 26
ENDMDL
MODEL 3
REMARK VINA RESULT:    -5.599      4.934     12.820
REMARK INTER + INTRA:         -16.684
REMARK INTER:                 -14.609
REMARK INTRA:                  -2.075
REMARK UNBOUND:                -2.575
REMARK SMILES CCCCCCCCCCCCCCCCCCCCCCCCCCCC(=O)[O-]
REMARK SMILES IDX 15 1 16 2 17 3 18 4 19 5 20 6 21 7 22 8 23 9 24 10 25 11
REMARK SMILES IDX 26 12 27 13 28 14 29 15 30 16 14 17 13 18 12 19 11 20 10 21
REMARK SMILES IDX 9 22 8 23 7 24 6 25 5 26 4 27 3 28 2 29 1 30
REMARK H PARENT
REMARK Flexibility Score: inf
ROOT
ATOM      1  C   UNL     1      48.687  31.803  17.948  1.00  0.00     0.000 C 
ENDROOT
BRANCH   1   2
ATOM      2  C   UNL     1      49.261  30.715  17.027  1.00  0.00     0.000 C 
BRANCH   2   3
ATOM      3  C   UNL     1      48.456  30.543  15.728  1.00  0.00     0.000 C 
BRANCH   3   4
ATOM      4  C   UNL     1      48.102  29.088  15.365  1.00  0.00     0.000 C 
BRANCH   4   5
ATOM      5  C   UNL     1      49.066  28.037  15.957  1.00  0.00     0.000 C 
BRANCH   5   6
ATOM      6  C   UNL     1      48.332  26.864  16.629  1.00  0.00     0.000 C 
BRANCH   6   7
ATOM      7  C   UNL     1      49.224  25.623  16.809  1.00  0.00     0.000 C 
BRANCH   7   8
ATOM      8  C   UNL     1      49.532  25.276  18.283  1.00  0.00     0.000 C 
BRANCH   8   9
ATOM      9  C   UNL     1      48.383  25.550  19.277  1.00  0.00     0.000 C 
BRANCH   9  10
ATOM     10  C   UNL     1      48.699  25.294  20.764  1.00  0.00     0.000 C 
BRANCH  10  11
ATOM     11  C   UNL     1      48.343  26.477  21.680  1.00  0.00     0.000 C 
BRANCH  11  12
ATOM     12  C   UNL     1      49.476  26.830  22.662  1.00  0.00     0.006 C 
BRANCH  12  13
ATOM     13  C   UNL     1      50.718  25.931  22.552  1.00  0.00     0.053 C 
BRANCH  13  14
ATOM     14  C   UNL     1      51.879  26.649  21.937  1.00  0.00     0.041 C 
ATOM     15  O   UNL     1      52.215  26.411  20.746  1.00  0.00    -0.550 OA
ATOM     16  O   UNL     1      52.570  27.608  22.668  1.00  0.00    -0.550 OA
ENDBRANCH  13  14
ENDBRANCH  12  13
ENDBRANCH  11  12
ENDBRANCH  10  11
ENDBRANCH   9  10
ENDBRANCH   8   9
ENDBRANCH   7   8
ENDBRANCH   6   7
ENDBRANCH   5   6
ENDBRANCH   4   5
ENDBRANCH   3   4
ENDBRANCH   2   3
ENDBRANCH   1   2
BRANCH   1  17
ATOM     17  C   UNL     1      49.543  33.077  17.900  1.00  0.00     0.000 C 
BRANCH  17  18
ATOM     18  C   UNL     1      48.893  34.212  17.087  1.00  0.00     0.000 C 
BRANCH  18  19
ATOM     19  C   UNL     1      47.378  34.065  16.854  1.00  0.00     0.000 C 
BRANCH  19  20
ATOM     20  C   UNL     1      47.007  33.973  15.363  1.00  0.00     0.000 C 
BRANCH  20  21
ATOM     21  C   UNL     1      48.244  33.905  14.452  1.00  0.00     0.000 C 
BRANCH  21  22
ATOM     22  C   UNL     1      47.929  34.265  12.992  1.00  0.00    -0.000 C 
BRANCH  22  23
ATOM     23  C   UNL     1      47.026  35.506  12.922  1.00  0.00    -0.000 C 
BRANCH  23  24
ATOM     24  C   UNL     1      45.597  35.186  12.447  1.00  0.00    -0.000 C 
BRANCH  24  25
ATOM     25  C   UNL     1      44.484  36.005  13.128  1.00  0.00    -0.000 C 
BRANCH  25  26
ATOM     26  C   UNL     1      43.744  36.934  12.152  1.00  0.00    -0.000 C 
BRANCH  26  27
ATOM     27  C   UNL     1      42.347  36.413  11.769  1.00  0.00    -0.000 C 
BRANCH  27  28
ATOM     28  C   UNL     1      41.465  37.402  10.979  1.00  0.00    -0.000 C 
BRANCH  28  29
ATOM     29  C   UNL     1      41.994  38.846  10.922  1.00  0.00    -0.003 C 
ATOM     30  C   UNL     1      41.327  39.764  11.944  1.00  0.00     0.004 C 
ENDBRANCH  28  29
ENDBRANCH  27  28
ENDBRANCH  26  27
ENDBRANCH  25  26
ENDBRANCH  24  25
ENDBRANCH  23  24
ENDBRANCH  22  23
ENDBRANCH  21  22
ENDBRANCH  20  21
ENDBRANCH  19  20
ENDBRANCH  18  19
ENDBRANCH  17  18
ENDBRANCH   1  17
TORSDOF 26
ENDMDL
MODEL 4
REMARK VINA RESULT:    -5.420      4.839     12.767
REMARK INTER + INTRA:         -16.232
REMARK INTER:                 -14.594
REMARK INTRA:                  -1.638
REMARK UNBOUND:                -2.575
REMARK SMILES CCCCCCCCCCCCCCCCCCCCCCCCCCCC(=O)[O-]
REMARK SMILES IDX 15 1 16 2 17 3 18 4 19 5 20 6 21 7 22 8 23 9 24 10 25 11
REMARK SMILES IDX 26 12 27 13 28 14 29 15 30 16 14 17 13 18 12 19 11 20 10 21
REMARK SMILES IDX 9 22 8 23 7 24 6 25 5 26 4 27 3 28 2 29 1 30
REMARK H PARENT
REMARK Flexibility Score: inf
ROOT
ATOM      1  C   UNL     1      48.556  33.710  17.638  1.00  0.00     0.000 C 
ENDROOT
BRANCH   1   2
ATOM      2  C   UNL     1      49.072  32.283  17.398  1.00  0.00     0.000 C 
BRANCH   2   3
ATOM      3  C   UNL     1      48.181  31.208  18.042  1.00  0.00     0.000 C 
BRANCH   3   4
ATOM      4  C   UNL     1      47.718  30.086  17.091  1.00  0.00     0.000 C 
BRANCH   4   5
ATOM      5  C   UNL     1      48.776  29.669  16.046  1.00  0.00     0.000 C 
BRANCH   5   6
ATOM      6  C   UNL     1      48.574  28.234  15.530  1.00  0.00     0.000 C 
BRANCH   6   7
ATOM      7  C   UNL     1      49.743  27.300  15.884  1.00  0.00     0.000 C 
BRANCH   7   8
ATOM      8  C   UNL     1      49.309  25.949  16.497  1.00  0.00     0.000 C 
BRANCH   8   9
ATOM      9  C   UNL     1      48.180  26.036  17.547  1.00  0.00     0.000 C 
BRANCH   9  10
ATOM     10  C   UNL     1      48.534  25.548  18.965  1.00  0.00     0.000 C 
BRANCH  10  11
ATOM     11  C   UNL     1      50.014  25.161  19.129  1.00  0.00     0.000 C 
BRANCH  11  12
ATOM     12  C   UNL     1      50.436  25.039  20.606  1.00  0.00     0.006 C 
BRANCH  12  13
ATOM     13  C   UNL     1      49.387  25.541  21.612  1.00  0.00     0.053 C 
BRANCH  13  14
ATOM     14  C   UNL     1      49.888  26.702  22.415  1.00  0.00     0.041 C 
ATOM     15  O   UNL     1      51.126  26.873  22.578  1.00  0.00    -0.550 OA
ATOM     16  O   UNL     1      48.990  27.615  22.953  1.00  0.00    -0.550 OA
ENDBRANCH  13  14
ENDBRANCH  12  13
ENDBRANCH  11  12
ENDBRANCH  10  11
ENDBRANCH   9  10
ENDBRANCH   8   9
ENDBRANCH   7   8
ENDBRANCH   6   7
ENDBRANCH   5   6
ENDBRANCH   4   5
ENDBRANCH   3   4
ENDBRANCH   2   3
ENDBRANCH   1   2
BRANCH   1  17
ATOM     17  C   UNL     1      47.717  34.203  16.449  1.00  0.00     0.000 C 
BRANCH  17  18
ATOM     18  C   UNL     1      48.082  33.509  15.123  1.00  0.00     0.000 C 
BRANCH  18  19
ATOM     19  C   UNL     1      48.446  34.459  13.966  1.00  0.00     0.000 C 
BRANCH  19  20
ATOM     20  C   UNL     1      48.319  33.795  12.584  1.00  0.00     0.000 C 
BRANCH  20  21
ATOM     21  C   UNL     1      47.101  34.306  11.795  1.00  0.00     0.000 C 
BRANCH  21  22
ATOM     22  C   UNL     1      46.305  35.377  12.557  1.00  0.00    -0.000 C 
BRANCH  22  23
ATOM     23  C   UNL     1      44.829  35.361  12.132  1.00  0.00    -0.000 C 
BRANCH  23  24
ATOM     24  C   UNL     1      43.978  36.414  12.868  1.00  0.00    -0.000 C 
BRANCH  24  25
ATOM     25  C   UNL     1      43.485  37.581  11.993  1.00  0.00    -0.000 C 
BRANCH  25  26
ATOM     26  C   UNL     1      42.207  37.240  11.208  1.00  0.00    -0.000 C 
BRANCH  26  27
ATOM     27  C   UNL     1      41.723  35.798  11.444  1.00  0.00    -0.000 C 
BRANCH  27  28
ATOM     28  C   UNL     1      40.947  35.160  10.274  1.00  0.00    -0.000 C 
BRANCH  28  29
ATOM     29  C   UNL     1      39.417  35.302  10.350  1.00  0.00    -0.003 C 
ATOM     30  C   UNL     1      38.789  34.403  11.413  1.00  0.00     0.004 C 
ENDBRANCH  28  29
ENDBRANCH  27  28
ENDBRANCH  26  27
ENDBRANCH  25  26
ENDBRANCH  24  25
ENDBRANCH  23  24
ENDBRANCH  22  23
ENDBRANCH  21  22
ENDBRANCH  20  21
ENDBRANCH  19  20
ENDBRANCH  18  19
ENDBRANCH  17  18
ENDBRANCH   1  17
TORSDOF 26
ENDMDL
MODEL 5
REMARK VINA RESULT:    -5.383      4.986     13.582
REMARK INTER + INTRA:         -16.140
REMARK INTER:                 -13.854
REMARK INTRA:                  -2.286
REMARK UNBOUND:                -2.575
REMARK SMILES CCCCCCCCCCCCCCCCCCCCCCCCCCCC(=O)[O-]
REMARK SMILES IDX 15 1 16 2 17 3 18 4 19 5 20 6 21 7 22 8 23 9 24 10 25 11
REMARK SMILES IDX 26 12 27 13 28 14 29 15 30 16 14 17 13 18 12 19 11 20 10 21
REMARK SMILES IDX 9 22 8 23 7 24 6 25 5 26 4 27 3 28 2 29 1 30
REMARK H PARENT
REMARK Flexibility Score: inf
ROOT
ATOM      1  C   UNL     1      46.700  34.248  15.755  1.00  0.00     0.000 C 
ENDROOT
BRANCH   1   2
ATOM      2  C   UNL     1      47.720  34.142  16.899  1.00  0.00     0.000 C 
BRANCH   2   3
ATOM      3  C   UNL     1      48.438  32.783  16.938  1.00  0.00     0.000 C 
BRANCH   3   4
ATOM      4  C   UNL     1      48.160  31.861  15.734  1.00  0.00     0.000 C 
BRANCH   4   5
ATOM      5  C   UNL     1      48.105  30.359  16.089  1.00  0.00     0.000 C 
BRANCH   5   6
ATOM      6  C   UNL     1      49.386  29.860  16.778  1.00  0.00     0.000 C 
BRANCH   6   7
ATOM      7  C   UNL     1      49.449  28.328  16.890  1.00  0.00     0.000 C 
BRANCH   7   8
ATOM      8  C   UNL     1      48.156  27.608  16.445  1.00  0.00     0.000 C 
BRANCH   8   9
ATOM      9  C   UNL     1      48.065  26.118  16.837  1.00  0.00     0.000 C 
BRANCH   9  10
ATOM     10  C   UNL     1      49.284  25.536  17.580  1.00  0.00     0.000 C 
BRANCH  10  11
ATOM     11  C   UNL     1      48.998  25.192  19.052  1.00  0.00     0.000 C 
BRANCH  11  12
ATOM     12  C   UNL     1      49.392  26.328  20.015  1.00  0.00     0.006 C 
BRANCH  12  13
ATOM     13  C   UNL     1      48.521  26.425  21.278  1.00  0.00     0.053 C 
BRANCH  13  14
ATOM     14  C   UNL     1      49.328  26.774  22.491  1.00  0.00     0.041 C 
ATOM     15  O   UNL     1      48.988  27.741  23.222  1.00  0.00    -0.550 OA
ATOM     16  O   UNL     1      50.436  26.009  22.834  1.00  0.00    -0.550 OA
ENDBRANCH  13  14
ENDBRANCH  12  13
ENDBRANCH  11  12
ENDBRANCH  10  11
ENDBRANCH   9  10
ENDBRANCH   8   9
ENDBRANCH   7   8
ENDBRANCH   6   7
ENDBRANCH   5   6
ENDBRANCH   4   5
ENDBRANCH   3   4
ENDBRANCH   2   3
ENDBRANCH   1   2
BRANCH   1  17
ATOM     17  C   UNL     1      45.447  35.018  16.199  1.00  0.00     0.000 C 
BRANCH  17  18
ATOM     18  C   UNL     1      44.593  35.515  15.017  1.00  0.00     0.000 C 
BRANCH  18  19
ATOM     19  C   UNL     1      45.355  35.698  13.692  1.00  0.00     0.000 C 
BRANCH  19  20
ATOM     20  C   UNL     1      44.438  35.620  12.458  1.00  0.00     0.000 C 
BRANCH  20  21
ATOM     21  C   UNL     1      43.175  36.484  12.608  1.00  0.00     0.000 C 
BRANCH  21  22
ATOM     22  C   UNL     1      43.297  37.844  11.904  1.00  0.00    -0.000 C 
BRANCH  22  23
ATOM     23  C   UNL     1      42.563  37.826  10.555  1.00  0.00    -0.000 C 
BRANCH  23  24
ATOM     24  C   UNL     1      41.737  39.101  10.301  1.00  0.00    -0.000 C 
BRANCH  24  25
ATOM     25  C   UNL     1      40.861  39.558  11.482  1.00  0.00    -0.000 C 
BRANCH  25  26
ATOM     26  C   UNL     1      39.512  38.823  11.543  1.00  0.00    -0.000 C 
BRANCH  26  27
ATOM     27  C   UNL     1      39.258  38.142  12.899  1.00  0.00    -0.000 C 
BRANCH  27  28
ATOM     28  C   UNL     1      39.482  36.616  12.927  1.00  0.00    -0.000 C 
BRANCH  28  29
ATOM     29  C   UNL     1      39.600  35.948  11.546  1.00  0.00    -0.003 C 
ATOM     30  C   UNL     1      39.262  34.459  11.575  1.00  0.00     0.004 C 
ENDBRANCH  28  29
ENDBRANCH  27  28
ENDBRANCH  26  27
ENDBRANCH  25  26
ENDBRANCH  24  25
ENDBRANCH  23  24
ENDBRANCH  22  23
ENDBRANCH  21  22
ENDBRANCH  20  21
ENDBRANCH  19  20
ENDBRANCH  18  19
ENDBRANCH  17  18
ENDBRANCH   1  17
TORSDOF 26
ENDMDL
MODEL 6
REMARK VINA RESULT:    -5.349      2.008      5.778
REMARK INTER + INTRA:         -16.055
REMARK INTER:                 -13.919
REMARK INTRA:                  -2.136
REMARK UNBOUND:                -2.575
REMARK SMILES CCCCCCCCCCCCCCCCCCCCCCCCCCCC(=O)[O-]
REMARK SMILES IDX 15 1 16 2 17 3 18 4 19 5 20 6 21 7 22 8 23 9 24 10 25 11
REMARK SMILES IDX 26 12 27 13 28 14 29 15 30 16 14 17 13 18 12 19 11 20 10 21
REMARK SMILES IDX 9 22 8 23 7 24 6 25 5 26 4 27 3 28 2 29 1 30
REMARK H PARENT
REMARK Flexibility Score: inf
ROOT
ATOM      1  C   UNL     1      45.600  34.988  16.336  1.00  0.00     0.000 C 
ENDROOT
BRANCH   1   2
ATOM      2  C   UNL     1      44.762  35.399  15.115  1.00  0.00     0.000 C 
BRANCH   2   3
ATOM      3  C   UNL     1      45.581  35.441  13.814  1.00  0.00     0.000 C 
BRANCH   3   4
ATOM      4  C   UNL     1      44.805  35.910  12.568  1.00  0.00     0.000 C 
BRANCH   4   5
ATOM      5  C   UNL     1      43.378  36.420  12.867  1.00  0.00     0.000 C 
BRANCH   5   6
ATOM      6  C   UNL     1      42.506  36.533  11.605  1.00  0.00     0.000 C 
BRANCH   6   7
ATOM      7  C   UNL     1      42.577  37.923  10.950  1.00  0.00     0.000 C 
BRANCH   7   8
ATOM      8  C   UNL     1      41.449  38.199   9.931  1.00  0.00     0.000 C 
BRANCH   8   9
ATOM      9  C   UNL     1      40.295  37.174   9.934  1.00  0.00     0.000 C 
BRANCH   9  10
ATOM     10  C   UNL     1      39.038  37.571  10.733  1.00  0.00     0.000 C 
BRANCH  10  11
ATOM     11  C   UNL     1      38.809  36.707  11.985  1.00  0.00     0.000 C 
BRANCH  11  12
ATOM     12  C   UNL     1      38.625  37.549  13.262  1.00  0.00     0.006 C 
BRANCH  12  13
ATOM     13  C   UNL     1      39.936  38.062  13.881  1.00  0.00     0.053 C 
BRANCH  13  14
ATOM     14  C   UNL     1      40.042  39.554  13.814  1.00  0.00     0.041 C 
ATOM     15  O   UNL     1      40.748  40.101  12.925  1.00  0.00    -0.550 OA
ATOM     16  O   UNL     1      39.335  40.344  14.712  1.00  0.00    -0.550 OA
ENDBRANCH  13  14
ENDBRANCH  12  13
ENDBRANCH  11  12
ENDBRANCH  10  11
ENDBRANCH   9  10
ENDBRANCH   8   9
ENDBRANCH   7   8
ENDBRANCH   6   7
ENDBRANCH   5   6
ENDBRANCH   4   5
ENDBRANCH   3   4
ENDBRANCH   2   3
ENDBRANCH   1   2
BRANCH   1  17
ATOM     17  C   UNL     1      46.848  34.200  15.913  1.00  0.00     0.000 C 
BRANCH  17  18
ATOM     18  C   UNL     1      47.911  34.108  17.024  1.00  0.00     0.000 C 
BRANCH  18  19
ATOM     19  C   UNL     1      48.704  32.789  17.063  1.00  0.00     0.000 C 
BRANCH  19  20
ATOM     20  C   UNL     1      48.253  31.853  18.198  1.00  0.00     0.000 C 
BRANCH  20  21
ATOM     21  C   UNL     1      47.789  30.481  17.681  1.00  0.00     0.000 C 
BRANCH  21  22
ATOM     22  C   UNL     1      47.774  30.397  16.147  1.00  0.00    -0.000 C 
BRANCH  22  23
ATOM     23  C   UNL     1      47.818  28.934  15.682  1.00  0.00    -0.000 C 
BRANCH  23  24
ATOM     24  C   UNL     1      48.574  28.013  16.658  1.00  0.00    -0.000 C 
BRANCH  24  25
ATOM     25  C   UNL     1      48.117  26.543  16.654  1.00  0.00    -0.000 C 
BRANCH  25  26
ATOM     26  C   UNL     1      48.997  25.642  17.537  1.00  0.00    -0.000 C 
BRANCH  26  27
ATOM     27  C   UNL     1      48.479  25.525  18.982  1.00  0.00    -0.000 C 
BRANCH  27  28
ATOM     28  C   UNL     1      49.567  25.417  20.069  1.00  0.00    -0.000 C 
BRANCH  28  29
ATOM     29  C   UNL     1      49.041  25.300  21.510  1.00  0.00    -0.003 C 
ATOM     30  C   UNL     1      49.814  26.170  22.498  1.00  0.00     0.004 C 
ENDBRANCH  28  29
ENDBRANCH  27  28
ENDBRANCH  26  27
ENDBRANCH  25  26
ENDBRANCH  24  25
ENDBRANCH  23  24
ENDBRANCH  22  23
ENDBRANCH  21  22
ENDBRANCH  20  21
ENDBRANCH  19  20
ENDBRANCH  18  19
ENDBRANCH  17  18
ENDBRANCH   1  17
TORSDOF 26
ENDMDL
MODEL 7
REMARK VINA RESULT:    -5.342      1.723      4.037
REMARK INTER + INTRA:         -16.036
REMARK INTER:                 -13.672
REMARK INTRA:                  -2.364
REMARK UNBOUND:                -2.575
REMARK SMILES CCCCCCCCCCCCCCCCCCCCCCCCCCCC(=O)[O-]
REMARK SMILES IDX 15 1 16 2 17 3 18 4 19 5 20 6 21 7 22 8 23 9 24 10 25 11
REMARK SMILES IDX 26 12 27 13 28 14 29 15 30 16 14 17 13 18 12 19 11 20 10 21
REMARK SMILES IDX 9 22 8 23 7 24 6 25 5 26 4 27 3 28 2 29 1 30
REMARK H PARENT
REMARK Flexibility Score: inf
ROOT
ATOM      1  C   UNL     1      48.594  34.157  16.978  1.00  0.00     0.000 C 
ENDROOT
BRANCH   1   2
ATOM      2  C   UNL     1      47.356  34.230  16.071  1.00  0.00     0.000 C 
BRANCH   2   3
ATOM      3  C   UNL     1      47.432  33.266  14.875  1.00  0.00     0.000 C 
BRANCH   3   4
ATOM      4  C   UNL     1      48.449  33.655  13.784  1.00  0.00     0.000 C 
BRANCH   4   5
ATOM      5  C   UNL     1      47.934  34.722  12.794  1.00  0.00     0.000 C 
BRANCH   5   6
ATOM      6  C   UNL     1      46.407  34.679  12.609  1.00  0.00     0.000 C 
BRANCH   6   7
ATOM      7  C   UNL     1      45.745  36.057  12.778  1.00  0.00     0.000 C 
BRANCH   7   8
ATOM      8  C   UNL     1      44.277  35.998  13.258  1.00  0.00     0.000 C 
BRANCH   8   9
ATOM      9  C   UNL     1      43.216  36.095  12.141  1.00  0.00     0.000 C 
BRANCH   9  10
ATOM     10  C   UNL     1      42.973  37.502  11.558  1.00  0.00     0.000 C 
BRANCH  10  11
ATOM     11  C   UNL     1      41.909  38.308  12.323  1.00  0.00     0.000 C 
BRANCH  11  12
ATOM     12  C   UNL     1      40.828  37.412  12.958  1.00  0.00     0.006 C 
BRANCH  12  13
ATOM     13  C   UNL     1      40.593  37.661  14.456  1.00  0.00     0.053 C 
BRANCH  13  14
ATOM     14  C   UNL     1      39.450  38.599  14.697  1.00  0.00     0.041 C 
ATOM     15  O   UNL     1      39.165  38.965  15.868  1.00  0.00    -0.550 OA
ATOM     16  O   UNL     1      38.720  39.096  13.624  1.00  0.00    -0.550 OA
ENDBRANCH  13  14
ENDBRANCH  12  13
ENDBRANCH  11  12
ENDBRANCH  10  11
ENDBRANCH   9  10
ENDBRANCH   8   9
ENDBRANCH   7   8
ENDBRANCH   6   7
ENDBRANCH   5   6
ENDBRANCH   4   5
ENDBRANCH   3   4
ENDBRANCH   2   3
ENDBRANCH   1   2
BRANCH   1  17
ATOM     17  C   UNL     1      48.513  32.954  17.930  1.00  0.00     0.000 C 
BRANCH  17  18
ATOM     18  C   UNL     1      49.672  31.957  17.744  1.00  0.00     0.000 C 
BRANCH  18  19
ATOM     19  C   UNL     1      49.315  30.676  16.967  1.00  0.00     0.000 C 
BRANCH  19  20
ATOM     20  C   UNL     1      47.825  30.306  17.076  1.00  0.00     0.000 C 
BRANCH  20  21
ATOM     21  C   UNL     1      47.373  29.348  15.961  1.00  0.00     0.000 C 
BRANCH  21  22
ATOM     22  C   UNL     1      48.380  28.216  15.705  1.00  0.00    -0.000 C 
BRANCH  22  23
ATOM     23  C   UNL     1      48.113  27.029  16.642  1.00  0.00    -0.000 C 
BRANCH  23  24
ATOM     24  C   UNL     1      49.397  26.282  17.052  1.00  0.00    -0.000 C 
BRANCH  24  25
ATOM     25  C   UNL     1      49.807  26.450  18.526  1.00  0.00    -0.000 C 
BRANCH  25  26
ATOM     26  C   UNL     1      49.483  25.213  19.380  1.00  0.00    -0.000 C 
BRANCH  26  27
ATOM     27  C   UNL     1      48.305  25.438  20.344  1.00  0.00    -0.000 C 
BRANCH  27  28
ATOM     28  C   UNL     1      48.561  26.452  21.478  1.00  0.00    -0.000 C 
BRANCH  28  29
ATOM     29  C   UNL     1      49.571  25.997  22.545  1.00  0.00    -0.003 C 
ATOM     30  C   UNL     1      50.967  26.578  22.329  1.00  0.00     0.004 C 
ENDBRANCH  28  29
ENDBRANCH  27  28
ENDBRANCH  26  27
ENDBRANCH  25  26
ENDBRANCH  24  25
ENDBRANCH  23  24
ENDBRANCH  22  23
ENDBRANCH  21  22
ENDBRANCH  20  21
ENDBRANCH  19  20
ENDBRANCH  18  19
ENDBRANCH  17  18
ENDBRANCH   1  17
TORSDOF 26
ENDMDL
MODEL 8
REMARK VINA RESULT:    -5.293      1.504      2.835
REMARK INTER + INTRA:         -15.914
REMARK INTER:                 -13.693
REMARK INTRA:                  -2.221
REMARK UNBOUND:                -2.575
REMARK SMILES CCCCCCCCCCCCCCCCCCCCCCCCCCCC(=O)[O-]
REMARK SMILES IDX 15 1 16 2 17 3 18 4 19 5 20 6 21 7 22 8 23 9 24 10 25 11
REMARK SMILES IDX 26 12 27 13 28 14 29 15 30 16 14 17 13 18 12 19 11 20 10 21
REMARK SMILES IDX 9 22 8 23 7 24 6 25 5 26 4 27 3 28 2 29 1 30
REMARK H PARENT
REMARK Flexibility Score: inf
ROOT
ATOM      1  C   UNL     1      50.022  29.249  16.527  1.00  0.00     0.000 C 
ENDROOT
BRANCH   1   2
ATOM      2  C   UNL     1      48.926  30.309  16.331  1.00  0.00     0.000 C 
BRANCH   2   3
ATOM      3  C   UNL     1      48.043  30.496  17.575  1.00  0.00     0.000 C 
BRANCH   3   4
ATOM      4  C   UNL     1      48.180  31.861  18.276  1.00  0.00     0.000 C 
BRANCH   4   5
ATOM      5  C   UNL     1      49.240  32.791  17.645  1.00  0.00     0.000 C 
BRANCH   5   6
ATOM      6  C   UNL     1      48.643  34.108  17.122  1.00  0.00     0.000 C 
BRANCH   6   7
ATOM      7  C   UNL     1      47.513  33.890  16.101  1.00  0.00     0.000 C 
BRANCH   7   8
ATOM      8  C   UNL     1      47.984  33.299  14.754  1.00  0.00     0.000 C 
BRANCH   8   9
ATOM      9  C   UNL     1      48.693  34.295  13.810  1.00  0.00     0.000 C 
BRANCH   9  10
ATOM     10  C   UNL     1      48.853  33.844  12.345  1.00  0.00     0.000 C 
BRANCH  10  11
ATOM     11  C   UNL     1      47.701  34.299  11.433  1.00  0.00     0.000 C 
BRANCH  11  12
ATOM     12  C   UNL     1      46.356  34.395  12.178  1.00  0.00     0.006 C 
BRANCH  12  13
ATOM     13  C   UNL     1      45.949  35.822  12.579  1.00  0.00     0.053 C 
BRANCH  13  14
ATOM     14  C   UNL     1      44.709  35.838  13.419  1.00  0.00     0.041 C 
ATOM     15  O   UNL     1      43.598  36.133  12.904  1.00  0.00    -0.550 OA
ATOM     16  O   UNL     1      44.775  35.492  14.763  1.00  0.00    -0.550 OA
ENDBRANCH  13  14
ENDBRANCH  12  13
ENDBRANCH  11  12
ENDBRANCH  10  11
ENDBRANCH   9  10
ENDBRANCH   8   9
ENDBRANCH   7   8
ENDBRANCH   6   7
ENDBRANCH   5   6
ENDBRANCH   4   5
ENDBRANCH   3   4
ENDBRANCH   2   3
ENDBRANCH   1   2
BRANCH   1  17
ATOM     17  C   UNL     1      49.436  27.830  16.477  1.00  0.00     0.000 C 
BRANCH  17  18
ATOM     18  C   UNL     1      50.056  26.882  17.521  1.00  0.00     0.000 C 
BRANCH  18  19
ATOM     19  C   UNL     1      49.283  25.571  17.754  1.00  0.00     0.000 C 
BRANCH  19  20
ATOM     20  C   UNL     1      48.437  25.595  19.039  1.00  0.00     0.000 C 
BRANCH  20  21
ATOM     21  C   UNL     1      49.270  25.298  20.297  1.00  0.00     0.000 C 
BRANCH  21  22
ATOM     22  C   UNL     1      48.954  26.252  21.459  1.00  0.00    -0.000 C 
BRANCH  22  23
ATOM     23  C   UNL     1      50.132  26.318  22.443  1.00  0.00    -0.000 C 
BRANCH  23  24
ATOM     24  C   UNL     1      51.196  25.235  22.184  1.00  0.00    -0.000 C 
BRANCH  24  25
ATOM     25  C   UNL     1      52.608  25.573  22.697  1.00  0.00    -0.000 C 
BRANCH  25  26
ATOM     26  C   UNL     1      53.694  25.380  21.626  1.00  0.00    -0.000 C 
BRANCH  26  27
ATOM     27  C   UNL     1      53.150  25.494  20.191  1.00  0.00    -0.000 C 
BRANCH  27  28
ATOM     28  C   UNL     1      54.122  26.107  19.161  1.00  0.00    -0.000 C 
BRANCH  28  29
ATOM     29  C   UNL     1      53.532  27.235  18.297  1.00  0.00    -0.003 C 
ATOM     30  C   UNL     1      53.637  28.607  18.959  1.00  0.00     0.004 C 
ENDBRANCH  28  29
ENDBRANCH  27  28
ENDBRANCH  26  27
ENDBRANCH  25  26
ENDBRANCH  24  25
ENDBRANCH  23  24
ENDBRANCH  22  23
ENDBRANCH  21  22
ENDBRANCH  20  21
ENDBRANCH  19  20
ENDBRANCH  18  19
ENDBRANCH  17  18
ENDBRANCH   1  17
TORSDOF 26
ENDMDL
MODEL 9
REMARK VINA RESULT:    -5.261      4.725     12.366
REMARK INTER + INTRA:         -15.833
REMARK INTER:                 -13.456
REMARK INTRA:                  -2.378
REMARK UNBOUND:                -2.575
REMARK SMILES CCCCCCCCCCCCCCCCCCCCCCCCCCCC(=O)[O-]
REMARK SMILES IDX 15 1 16 2 17 3 18 4 19 5 20 6 21 7 22 8 23 9 24 10 25 11
REMARK SMILES IDX 26 12 27 13 28 14 29 15 30 16 14 17 13 18 12 19 11 20 10 21
REMARK SMILES IDX 9 22 8 23 7 24 6 25 5 26 4 27 3 28 2 29 1 30
REMARK H PARENT
REMARK Flexibility Score: inf
ROOT
ATOM      1  C   UNL     1      48.031  30.126  17.367  1.00  0.00     0.000 C 
ENDROOT
BRANCH   1   2
ATOM      2  C   UNL     1      49.248  29.946  16.446  1.00  0.00     0.000 C 
BRANCH   2   3
ATOM      3  C   UNL     1      50.259  28.919  16.983  1.00  0.00     0.000 C 
BRANCH   3   4
ATOM      4  C   UNL     1      50.430  27.655  16.117  1.00  0.00     0.000 C 
BRANCH   4   5
ATOM      5  C   UNL     1      49.111  27.115  15.521  1.00  0.00     0.000 C 
BRANCH   5   6
ATOM      6  C   UNL     1      48.257  26.356  16.550  1.00  0.00     0.000 C 
BRANCH   6   7
ATOM      7  C   UNL     1      49.103  25.606  17.594  1.00  0.00     0.000 C 
BRANCH   7   8
ATOM      8  C   UNL     1      48.482  25.579  19.008  1.00  0.00     0.000 C 
BRANCH   8   9
ATOM      9  C   UNL     1      49.411  25.054  20.124  1.00  0.00     0.000 C 
BRANCH   9  10
ATOM     10  C   UNL     1      50.904  24.928  19.760  1.00  0.00     0.000 C 
BRANCH  10  11
ATOM     11  C   UNL     1      51.850  25.295  20.916  1.00  0.00     0.000 C 
BRANCH  11  12
ATOM     12  C   UNL     1      53.002  26.217  20.471  1.00  0.00     0.006 C 
BRANCH  12  13
ATOM     13  C   UNL     1      52.700  27.053  19.217  1.00  0.00     0.053 C 
BRANCH  13  14
ATOM     14  C   UNL     1      53.951  27.471  18.507  1.00  0.00     0.041 C 
ATOM     15  O   UNL     1      54.495  26.699  17.673  1.00  0.00    -0.550 OA
ATOM     16  O   UNL     1      54.497  28.727  18.740  1.00  0.00    -0.550 OA
ENDBRANCH  13  14
ENDBRANCH  12  13
ENDBRANCH  11  12
ENDBRANCH  10  11
ENDBRANCH   9  10
ENDBRANCH   8   9
ENDBRANCH   7   8
ENDBRANCH   6   7
ENDBRANCH   5   6
ENDBRANCH   4   5
ENDBRANCH   3   4
ENDBRANCH   2   3
ENDBRANCH   1   2
BRANCH   1  17
ATOM     17  C   UNL     1      48.126  31.435  18.164  1.00  0.00     0.000 C 
BRANCH  17  18
ATOM     18  C   UNL     1      49.279  32.344  17.696  1.00  0.00     0.000 C 
BRANCH  18  19
ATOM     19  C   UNL     1      48.875  33.792  17.362  1.00  0.00     0.000 C 
BRANCH  19  20
ATOM     20  C   UNL     1      47.747  33.873  16.318  1.00  0.00     0.000 C 
BRANCH  20  21
ATOM     21  C   UNL     1      48.153  33.267  14.964  1.00  0.00     0.000 C 
BRANCH  21  22
ATOM     22  C   UNL     1      48.653  34.323  13.966  1.00  0.00    -0.000 C 
BRANCH  22  23
ATOM     23  C   UNL     1      48.492  33.824  12.522  1.00  0.00    -0.000 C 
BRANCH  23  24
ATOM     24  C   UNL     1      47.157  34.250  11.882  1.00  0.00    -0.000 C 
BRANCH  24  25
ATOM     25  C   UNL     1      46.362  35.305  12.673  1.00  0.00    -0.000 C 
BRANCH  25  26
ATOM     26  C   UNL     1      44.962  35.559  12.088  1.00  0.00    -0.000 C 
BRANCH  26  27
ATOM     27  C   UNL     1      44.170  36.626  12.865  1.00  0.00    -0.000 C 
BRANCH  27  28
ATOM     28  C   UNL     1      42.647  36.629  12.621  1.00  0.00    -0.000 C 
BRANCH  28  29
ATOM     29  C   UNL     1      42.184  37.435  11.395  1.00  0.00    -0.003 C 
ATOM     30  C   UNL     1      42.720  38.866  11.388  1.00  0.00     0.004 C 
ENDBRANCH  28  29
ENDBRANCH  27  28
ENDBRANCH  26  27
ENDBRANCH  25  26
ENDBRANCH  24  25
ENDBRANCH  23  24
ENDBRANCH  22  23
ENDBRANCH  21  22
ENDBRANCH  20  21
ENDBRANCH  19  20
ENDBRANCH  18  19
ENDBRANCH  17  18
ENDBRANCH   1  17
TORSDOF 26
ENDMDL
