MODEL 1
REMARK VINA RESULT:    -4.620      0.000      0.000
REMARK INTER + INTRA:          -5.444
REMARK INTER:                  -5.296
REMARK INTRA:                  -0.148
REMARK UNBOUND:                -0.148
REMARK SMILES O=C([O-])C=Cc1ccc(O)cc1
REMARK SMILES IDX 6 1 7 2 12 3 8 4 11 5 9 6 5 7 4 8 2 9 1 10 3 11 10 12
REMARK H PARENT 10 13
REMARK Flexibility Score: inf
ROOT
ATOM      1  C   UNL     1       5.692   8.205  -2.050  1.00  0.00    -0.025 A 
ATOM      2  C   UNL     1       4.804   7.123  -1.932  1.00  0.00     0.012 A 
ATOM      3  C   UNL     1       5.169   9.489  -2.301  1.00  0.00     0.012 A 
ATOM      4  C   UNL     1       3.424   7.320  -2.037  1.00  0.00     0.047 A 
ATOM      5  C   UNL     1       3.788   9.683  -2.406  1.00  0.00     0.047 A 
ATOM      6  C   UNL     1       2.912   8.598  -2.272  1.00  0.00     0.115 A 
ENDROOT
BRANCH   1   7
ATOM      7  C   UNL     1       7.149   7.942  -1.941  1.00  0.00     0.010 C 
ATOM      8  C   UNL     1       7.720   6.770  -2.248  1.00  0.00     0.025 C 
BRANCH   8   9
ATOM      9  C   UNL     1       9.172   6.559  -2.136  1.00  0.00     0.064 C 
ATOM     10  O   UNL     1       9.608   5.563  -1.501  1.00  0.00    -0.545 OA
ATOM     11  O   UNL     1      10.073   7.443  -2.718  1.00  0.00    -0.545 OA
ENDBRANCH   8   9
ENDBRANCH   1   7
BRANCH   6  12
ATOM     12  O   UNL     1       1.534   8.781  -2.373  1.00  0.00    -0.508 OA
ATOM     13  H   UNL     1       0.916   8.020  -2.626  1.00  0.00     0.293 HD
ENDBRANCH   6  12
TORSDOF 3
ENDMDL
MODEL 2
REMARK VINA RESULT:    -4.599      0.262      1.696
REMARK INTER + INTRA:          -5.420
REMARK INTER:                  -5.281
REMARK INTRA:                  -0.139
REMARK UNBOUND:                -0.148
REMARK SMILES O=C([O-])C=Cc1ccc(O)cc1
REMARK SMILES IDX 6 1 7 2 12 3 8 4 11 5 9 6 5 7 4 8 2 9 1 10 3 11 10 12
REMARK H PARENT 10 13
REMARK Flexibility Score: inf
ROOT
ATOM      1  C   UNL     1       5.695   8.269  -2.047  1.00  0.00    -0.025 A 
ATOM      2  C   UNL     1       5.142   9.537  -2.292  1.00  0.00     0.012 A 
ATOM      3  C   UNL     1       4.830   7.167  -1.899  1.00  0.00     0.012 A 
ATOM      4  C   UNL     1       3.758   9.699  -2.411  1.00  0.00     0.047 A 
ATOM      5  C   UNL     1       3.446   7.333  -2.018  1.00  0.00     0.047 A 
ATOM      6  C   UNL     1       2.907   8.600  -2.277  1.00  0.00     0.115 A 
ENDROOT
BRANCH   1   7
ATOM      7  C   UNL     1       7.169   8.150  -1.919  1.00  0.00     0.010 C 
ATOM      8  C   UNL     1       7.844   7.007  -2.104  1.00  0.00     0.025 C 
BRANCH   8   9
ATOM      9  C   UNL     1       9.308   6.939  -1.978  1.00  0.00     0.064 C 
ATOM     10  O   UNL     1      10.014   7.887  -2.413  1.00  0.00    -0.545 OA
ATOM     11  O   UNL     1       9.927   5.843  -1.388  1.00  0.00    -0.545 OA
ENDBRANCH   8   9
ENDBRANCH   1   7
BRANCH   6  12
ATOM     12  O   UNL     1       1.531   8.775  -2.399  1.00  0.00    -0.508 OA
ATOM     13  H   UNL     1       0.899   7.985  -2.461  1.00  0.00     0.293 HD
ENDBRANCH   6  12
TORSDOF 3
ENDMDL
MODEL 3
REMARK VINA RESULT:    -4.428     13.962     15.969
REMARK INTER + INTRA:          -5.224
REMARK INTER:                  -5.073
REMARK INTRA:                  -0.151
REMARK UNBOUND:                -0.148
REMARK SMILES O=C([O-])C=Cc1ccc(O)cc1
REMARK SMILES IDX 6 1 7 2 12 3 8 4 11 5 9 6 5 7 4 8 2 9 1 10 3 11 10 12
REMARK H PARENT 10 13
REMARK Flexibility Score: inf
ROOT
ATOM      1  C   UNL     1      -7.360   2.292  -6.326  1.00  0.00    -0.025 A 
ATOM      2  C   UNL     1      -7.523   1.484  -7.463  1.00  0.00     0.012 A 
ATOM      3  C   UNL     1      -6.420   3.341  -6.365  1.00  0.00     0.012 A 
ATOM      4  C   UNL     1      -6.782   1.731  -8.624  1.00  0.00     0.047 A 
ATOM      5  C   UNL     1      -5.680   3.585  -7.527  1.00  0.00     0.047 A 
ATOM      6  C   UNL     1      -5.862   2.782  -8.660  1.00  0.00     0.115 A 
ENDROOT
BRANCH   1   7
ATOM      7  C   UNL     1      -8.162   1.983  -5.115  1.00  0.00     0.010 C 
ATOM      8  C   UNL     1      -8.538   0.745  -4.766  1.00  0.00     0.025 C 
BRANCH   8   9
ATOM      9  C   UNL     1      -9.324   0.484  -3.550  1.00  0.00     0.064 C 
ATOM     10  O   UNL     1      -9.793   1.452  -2.894  1.00  0.00    -0.545 OA
ATOM     11  O   UNL     1      -9.555  -0.814  -3.109  1.00  0.00    -0.545 OA
ENDBRANCH   8   9
ENDBRANCH   1   7
BRANCH   6  12
ATOM     12  O   UNL     1      -5.131   3.017  -9.823  1.00  0.00    -0.508 OA
ATOM     13  H   UNL     1      -4.278   3.564  -9.811  1.00  0.00     0.293 HD
ENDBRANCH   6  12
TORSDOF 3
ENDMDL
MODEL 4
REMARK VINA RESULT:    -4.384     14.572     16.586
REMARK INTER + INTRA:          -5.173
REMARK INTER:                  -5.037
REMARK INTRA:                  -0.137
REMARK UNBOUND:                -0.148
REMARK SMILES O=C([O-])C=Cc1ccc(O)cc1
REMARK SMILES IDX 6 1 7 2 12 3 8 4 11 5 9 6 5 7 4 8 2 9 1 10 3 11 10 12
REMARK H PARENT 10 13
REMARK Flexibility Score: inf
ROOT
ATOM      1  C   UNL     1      -9.053   1.229  -4.181  1.00  0.00    -0.025 A 
ATOM      2  C   UNL     1      -9.018  -0.099  -4.637  1.00  0.00     0.012 A 
ATOM      3  C   UNL     1      -9.373   1.477  -2.831  1.00  0.00     0.012 A 
ATOM      4  C   UNL     1      -9.272  -1.159  -3.760  1.00  0.00     0.047 A 
ATOM      5  C   UNL     1      -9.626   0.414  -1.957  1.00  0.00     0.047 A 
ATOM      6  C   UNL     1      -9.574  -0.907  -2.420  1.00  0.00     0.115 A 
ENDROOT
BRANCH   1   7
ATOM      7  C   UNL     1      -8.787   2.320  -5.152  1.00  0.00     0.010 C 
ATOM      8  C   UNL     1      -7.565   2.636  -5.601  1.00  0.00     0.025 C 
BRANCH   8   9
ATOM      9  C   UNL     1      -7.349   3.719  -6.574  1.00  0.00     0.064 C 
ATOM     10  O   UNL     1      -6.208   4.240  -6.680  1.00  0.00    -0.545 OA
ATOM     11  O   UNL     1      -8.387   4.179  -7.377  1.00  0.00    -0.545 OA
ENDBRANCH   8   9
ENDBRANCH   1   7
BRANCH   6  12
ATOM     12  O   UNL     1      -9.824  -1.972  -1.557  1.00  0.00    -0.508 OA
ATOM     13  H   UNL     1      -9.161  -2.730  -1.446  1.00  0.00     0.293 HD
ENDBRANCH   6  12
TORSDOF 3
ENDMDL
MODEL 5
REMARK VINA RESULT:    -4.329     14.949     16.491
REMARK INTER + INTRA:          -5.110
REMARK INTER:                  -4.966
REMARK INTRA:                  -0.144
REMARK UNBOUND:                -0.148
REMARK SMILES O=C([O-])C=Cc1ccc(O)cc1
REMARK SMILES IDX 6 1 7 2 12 3 8 4 11 5 9 6 5 7 4 8 2 9 1 10 3 11 10 12
REMARK H PARENT 10 13
REMARK Flexibility Score: inf
ROOT
ATOM      1  C   UNL     1      -8.350   1.672  -5.290  1.00  0.00    -0.025 A 
ATOM      2  C   UNL     1      -9.195   2.754  -5.584  1.00  0.00     0.012 A 
ATOM      3  C   UNL     1      -7.134   1.549  -5.991  1.00  0.00     0.012 A 
ATOM      4  C   UNL     1      -8.826   3.707  -6.538  1.00  0.00     0.047 A 
ATOM      5  C   UNL     1      -6.768   2.503  -6.946  1.00  0.00     0.047 A 
ATOM      6  C   UNL     1      -7.612   3.586  -7.219  1.00  0.00     0.115 A 
ENDROOT
BRANCH   1   7
ATOM      7  C   UNL     1      -8.792   0.681  -4.276  1.00  0.00     0.010 C 
ATOM      8  C   UNL     1      -9.164   1.005  -3.030  1.00  0.00     0.025 C 
BRANCH   8   9
ATOM      9  C   UNL     1      -9.605  -0.010  -2.061  1.00  0.00     0.064 C 
ATOM     10  O   UNL     1      -9.772  -1.199  -2.441  1.00  0.00    -0.545 OA
ATOM     11  O   UNL     1      -9.846   0.321  -0.733  1.00  0.00    -0.545 OA
ENDBRANCH   8   9
ENDBRANCH   1   7
BRANCH   6  12
ATOM     12  O   UNL     1      -7.256   4.543  -8.167  1.00  0.00    -0.508 OA
ATOM     13  H   UNL     1      -7.644   4.533  -9.103  1.00  0.00     0.293 HD
ENDBRANCH   6  12
TORSDOF 3
ENDMDL
MODEL 6
REMARK VINA RESULT:    -4.274      1.947      2.426
REMARK INTER + INTRA:          -5.048
REMARK INTER:                  -4.909
REMARK INTRA:                  -0.139
REMARK UNBOUND:                -0.148
REMARK SMILES O=C([O-])C=Cc1ccc(O)cc1
REMARK SMILES IDX 6 1 7 2 12 3 8 4 11 5 9 6 5 7 4 8 2 9 1 10 3 11 10 12
REMARK H PARENT 10 13
REMARK Flexibility Score: inf
ROOT
ATOM      1  C   UNL     1       6.413   6.715  -2.807  1.00  0.00    -0.025 A 
ATOM      2  C   UNL     1       5.611   7.070  -1.710  1.00  0.00     0.012 A 
ATOM      3  C   UNL     1       5.992   7.077  -4.103  1.00  0.00     0.012 A 
ATOM      4  C   UNL     1       4.428   7.792  -1.897  1.00  0.00     0.047 A 
ATOM      5  C   UNL     1       4.807   7.798  -4.286  1.00  0.00     0.047 A 
ATOM      6  C   UNL     1       4.024   8.160  -3.183  1.00  0.00     0.115 A 
ENDROOT
BRANCH   1   7
ATOM      7  C   UNL     1       7.654   5.941  -2.558  1.00  0.00     0.010 C 
ATOM      8  C   UNL     1       7.825   4.666  -2.933  1.00  0.00     0.025 C 
BRANCH   8   9
ATOM      9  C   UNL     1       9.079   3.940  -2.675  1.00  0.00     0.064 C 
ATOM     10  O   UNL     1      10.040   4.538  -2.123  1.00  0.00    -0.545 OA
ATOM     11  O   UNL     1       9.223   2.605  -3.033  1.00  0.00    -0.545 OA
ENDBRANCH   8   9
ENDBRANCH   1   7
BRANCH   6  12
ATOM     12  O   UNL     1       2.843   8.879  -3.355  1.00  0.00    -0.508 OA
ATOM     13  H   UNL     1       1.939   8.423  -3.349  1.00  0.00     0.293 HD
ENDBRANCH   6  12
TORSDOF 3
ENDMDL
MODEL 7
REMARK VINA RESULT:    -4.152     13.731     15.506
REMARK INTER + INTRA:          -4.907
REMARK INTER:                  -4.769
REMARK INTRA:                  -0.138
REMARK UNBOUND:                -0.148
REMARK SMILES O=C([O-])C=Cc1ccc(O)cc1
REMARK SMILES IDX 6 1 7 2 12 3 8 4 11 5 9 6 5 7 4 8 2 9 1 10 3 11 10 12
REMARK H PARENT 10 13
REMARK Flexibility Score: inf
ROOT
ATOM      1  C   UNL     1      -7.342   3.394  -6.352  1.00  0.00    -0.025 A 
ATOM      2  C   UNL     1      -6.004   3.244  -6.750  1.00  0.00     0.012 A 
ATOM      3  C   UNL     1      -8.130   4.384  -6.974  1.00  0.00     0.012 A 
ATOM      4  C   UNL     1      -5.468   4.046  -7.764  1.00  0.00     0.047 A 
ATOM      5  C   UNL     1      -7.591   5.184  -7.987  1.00  0.00     0.047 A 
ATOM      6  C   UNL     1      -6.259   5.015  -8.385  1.00  0.00     0.115 A 
ENDROOT
BRANCH   1   7
ATOM      7  C   UNL     1      -7.861   2.526  -5.266  1.00  0.00     0.010 C 
ATOM      8  C   UNL     1      -8.366   1.301  -5.467  1.00  0.00     0.025 C 
BRANCH   8   9
ATOM      9  C   UNL     1      -8.858   0.471  -4.357  1.00  0.00     0.064 C 
ATOM     10  O   UNL     1      -8.694   0.859  -3.170  1.00  0.00    -0.545 OA
ATOM     11  O   UNL     1      -9.500  -0.739  -4.595  1.00  0.00    -0.545 OA
ENDBRANCH   8   9
ENDBRANCH   1   7
BRANCH   6  12
ATOM     12  O   UNL     1      -5.713   5.807  -9.394  1.00  0.00    -0.508 OA
ATOM     13  H   UNL     1      -6.211   5.980 -10.259  1.00  0.00     0.293 HD
ENDBRANCH   6  12
TORSDOF 3
ENDMDL
MODEL 8
REMARK VINA RESULT:    -4.115     13.645     15.238
REMARK INTER + INTRA:          -4.865
REMARK INTER:                  -4.727
REMARK INTRA:                  -0.139
REMARK UNBOUND:                -0.148
REMARK SMILES O=C([O-])C=Cc1ccc(O)cc1
REMARK SMILES IDX 6 1 7 2 12 3 8 4 11 5 9 6 5 7 4 8 2 9 1 10 3 11 10 12
REMARK H PARENT 10 13
REMARK Flexibility Score: inf
ROOT
ATOM      1  C   UNL     1       6.633  -6.720  -0.556  1.00  0.00    -0.025 A 
ATOM      2  C   UNL     1       6.216  -6.598   0.779  1.00  0.00     0.012 A 
ATOM      3  C   UNL     1       7.648  -5.865  -1.032  1.00  0.00     0.012 A 
ATOM      4  C   UNL     1       6.814  -5.663   1.630  1.00  0.00     0.047 A 
ATOM      5  C   UNL     1       8.243  -4.930  -0.179  1.00  0.00     0.047 A 
ATOM      6  C   UNL     1       7.829  -4.829   1.155  1.00  0.00     0.115 A 
ENDROOT
BRANCH   1   7
ATOM      7  C   UNL     1       5.960  -7.721  -1.422  1.00  0.00     0.010 C 
ATOM      8  C   UNL     1       5.552  -7.469  -2.673  1.00  0.00     0.025 C 
BRANCH   8   9
ATOM      9  C   UNL     1       4.899  -8.497  -3.499  1.00  0.00     0.064 C 
ATOM     10  O   UNL     1       5.538  -9.533  -3.821  1.00  0.00    -0.545 OA
ATOM     11  O   UNL     1       3.588  -8.342  -3.934  1.00  0.00    -0.545 OA
ENDBRANCH   8   9
ENDBRANCH   1   7
BRANCH   6  12
ATOM     12  O   UNL     1       8.417  -3.902   2.013  1.00  0.00    -0.508 OA
ATOM     13  H   UNL     1       8.224  -3.903   3.007  1.00  0.00     0.293 HD
ENDBRANCH   6  12
TORSDOF 3
ENDMDL
MODEL 9
REMARK VINA RESULT:    -4.044     11.512     13.554
REMARK INTER + INTRA:          -4.784
REMARK INTER:                  -4.648
REMARK INTRA:                  -0.136
REMARK UNBOUND:                -0.148
REMARK SMILES O=C([O-])C=Cc1ccc(O)cc1
REMARK SMILES IDX 6 1 7 2 12 3 8 4 11 5 9 6 5 7 4 8 2 9 1 10 3 11 10 12
REMARK H PARENT 10 13
REMARK Flexibility Score: inf
ROOT
ATOM      1  C   UNL     1      -5.580   3.810  -8.152  1.00  0.00    -0.025 A 
ATOM      2  C   UNL     1      -6.070   2.751  -8.934  1.00  0.00     0.012 A 
ATOM      3  C   UNL     1      -5.930   3.866  -6.787  1.00  0.00     0.012 A 
ATOM      4  C   UNL     1      -6.871   1.756  -8.365  1.00  0.00     0.047 A 
ATOM      5  C   UNL     1      -6.732   2.869  -6.222  1.00  0.00     0.047 A 
ATOM      6  C   UNL     1      -7.202   1.811  -7.009  1.00  0.00     0.115 A 
ENDROOT
BRANCH   1   7
ATOM      7  C   UNL     1      -4.742   4.847  -8.805  1.00  0.00     0.010 C 
ATOM      8  C   UNL     1      -3.413   4.935  -8.652  1.00  0.00     0.025 C 
BRANCH   8   9
ATOM      9  C   UNL     1      -2.621   5.974  -9.329  1.00  0.00     0.064 C 
ATOM     10  O   UNL     1      -3.109   7.124  -9.486  1.00  0.00    -0.545 OA
ATOM     11  O   UNL     1      -1.341   5.707  -9.802  1.00  0.00    -0.545 OA
ENDBRANCH   8   9
ENDBRANCH   1   7
BRANCH   6  12
ATOM     12  O   UNL     1      -8.001   0.812  -6.454  1.00  0.00    -0.508 OA
ATOM     13  H   UNL     1      -7.607  -0.064  -6.133  1.00  0.00     0.293 HD
ENDBRANCH   6  12
TORSDOF 3
ENDMDL
