MODEL 1
REMARK VINA RESULT:    -2.301      0.000      0.000
REMARK INTER + INTRA:          -7.832
REMARK INTER:                  -6.067
REMARK INTRA:                  -1.765
REMARK UNBOUND:                -1.765
REMARK SMILES CCCCCCCCCCCCCCCCCCCCCCCCCCCCCC(=O)[O-]
REMARK SMILES IDX 16 1 17 2 18 3 19 4 20 5 21 6 22 7 23 8 24 9 25 10 26 11
REMARK SMILES IDX 27 12 28 13 29 14 30 15 31 16 32 17 15 18 14 19 13 20 12 21
REMARK SMILES IDX 11 22 10 23 9 24 8 25 7 26 6 27 5 28 4 29 3 30 2 31 1 32
REMARK H PARENT
REMARK Flexibility Score: inf
ROOT
ATOM      1  C   UNL     1      41.219   9.986  12.037  1.00  0.00     0.000 C 
ENDROOT
BRANCH   1   2
ATOM      2  C   UNL     1      41.556  11.223  12.882  1.00  0.00     0.000 C 
BRANCH   2   3
ATOM      3  C   UNL     1      40.524  12.355  12.711  1.00  0.00     0.000 C 
BRANCH   3   4
ATOM      4  C   UNL     1      39.097  11.833  12.485  1.00  0.00     0.000 C 
BRANCH   4   5
ATOM      5  C   UNL     1      38.095  12.371  13.522  1.00  0.00     0.000 C 
BRANCH   5   6
ATOM      6  C   UNL     1      38.476  11.964  14.956  1.00  0.00     0.000 C 
BRANCH   6   7
ATOM      7  C   UNL     1      37.939  12.951  16.007  1.00  0.00     0.000 C 
BRANCH   7   8
ATOM      8  C   UNL     1      38.744  12.910  17.323  1.00  0.00     0.000 C 
BRANCH   8   9
ATOM      9  C   UNL     1      37.925  13.283  18.576  1.00  0.00     0.000 C 
BRANCH   9  10
ATOM     10  C   UNL     1      38.094  14.732  19.067  1.00  0.00     0.000 C 
BRANCH  10  11
ATOM     11  C   UNL     1      39.031  15.562  18.171  1.00  0.00     0.000 C 
BRANCH  11  12
ATOM     12  C   UNL     1      38.363  16.839  17.626  1.00  0.00     0.000 C 
BRANCH  12  13
ATOM     13  C   UNL     1      39.309  18.037  17.412  1.00  0.00     0.006 C 
BRANCH  13  14
ATOM     14  C   UNL     1      40.300  18.280  18.562  1.00  0.00     0.053 C 
BRANCH  14  15
ATOM     15  C   UNL     1      41.702  17.925  18.174  1.00  0.00     0.041 C 
ATOM     16  O   UNL     1      42.203  18.385  17.113  1.00  0.00    -0.550 OA
ATOM     17  O   UNL     1      42.460  17.094  18.991  1.00  0.00    -0.550 OA
ENDBRANCH  14  15
ENDBRANCH  13  14
ENDBRANCH  12  13
ENDBRANCH  11  12
ENDBRANCH  10  11
ENDBRANCH   9  10
ENDBRANCH   8   9
ENDBRANCH   7   8
ENDBRANCH   6   7
ENDBRANCH   5   6
ENDBRANCH   4   5
ENDBRANCH   3   4
ENDBRANCH   2   3
ENDBRANCH   1   2
BRANCH   1  18
ATOM     18  C   UNL     1      40.355   8.966  12.798  1.00  0.00     0.000 C 
BRANCH  18  19
ATOM     19  C   UNL     1      39.293   8.298  11.907  1.00  0.00     0.000 C 
BRANCH  19  20
ATOM     20  C   UNL     1      37.907   8.120  12.563  1.00  0.00     0.000 C 
BRANCH  20  21
ATOM     21  C   UNL     1      37.928   7.954  14.095  1.00  0.00     0.000 C 
BRANCH  21  22
ATOM     22  C   UNL     1      38.281   9.232  14.879  1.00  0.00     0.000 C 
BRANCH  22  23
ATOM     23  C   UNL     1      37.875   9.224  16.366  1.00  0.00     0.000 C 
BRANCH  23  24
ATOM     24  C   UNL     1      38.074   7.878  17.092  1.00  0.00    -0.000 C 
BRANCH  24  25
ATOM     25  C   UNL     1      38.248   8.038  18.612  1.00  0.00    -0.000 C 
BRANCH  25  26
ATOM     26  C   UNL     1      38.470   9.499  19.028  1.00  0.00    -0.000 C 
BRANCH  26  27
ATOM     27  C   UNL     1      39.961   9.868  19.125  1.00  0.00    -0.000 C 
BRANCH  27  28
ATOM     28  C   UNL     1      40.768   9.358  17.912  1.00  0.00    -0.000 C 
BRANCH  28  29
ATOM     29  C   UNL     1      42.016  10.206  17.593  1.00  0.00    -0.000 C 
BRANCH  29  30
ATOM     30  C   UNL     1      41.776  11.374  16.620  1.00  0.00    -0.000 C 
BRANCH  30  31
ATOM     31  C   UNL     1      42.661  12.590  16.924  1.00  0.00    -0.003 C 
ATOM     32  C   UNL     1      41.922  13.606  17.790  1.00  0.00     0.004 C 
ENDBRANCH  30  31
ENDBRANCH  29  30
ENDBRANCH  28  29
ENDBRANCH  27  28
ENDBRANCH  26  27
ENDBRANCH  25  26
ENDBRANCH  24  25
ENDBRANCH  23  24
ENDBRANCH  22  23
ENDBRANCH  21  22
ENDBRANCH  20  21
ENDBRANCH  19  20
ENDBRANCH  18  19
ENDBRANCH   1  18
TORSDOF 28
ENDMDL
MODEL 2
REMARK VINA RESULT:    -1.984      2.569      6.712
REMARK INTER + INTRA:          -6.996
REMARK INTER:                  -6.436
REMARK INTRA:                  -0.560
REMARK UNBOUND:                -1.765
REMARK SMILES CCCCCCCCCCCCCCCCCCCCCCCCCCCCCC(=O)[O-]
REMARK SMILES IDX 16 1 17 2 18 3 19 4 20 5 21 6 22 7 23 8 24 9 25 10 26 11
REMARK SMILES IDX 27 12 28 13 29 14 30 15 31 16 32 17 15 18 14 19 13 20 12 21
REMARK SMILES IDX 11 22 10 23 9 24 8 25 7 26 6 27 5 28 4 29 3 30 2 31 1 32
REMARK H PARENT
REMARK Flexibility Score: inf
ROOT
ATOM      1  C   UNL     1      41.970  12.506  15.186  1.00  0.00     0.000 C 
ENDROOT
BRANCH   1   2
ATOM      2  C   UNL     1      42.002  12.196  13.682  1.00  0.00     0.000 C 
BRANCH   2   3
ATOM      3  C   UNL     1      40.813  11.325  13.232  1.00  0.00     0.000 C 
BRANCH   3   4
ATOM      4  C   UNL     1      40.158  11.831  11.938  1.00  0.00     0.000 C 
BRANCH   4   5
ATOM      5  C   UNL     1      39.714  10.687  11.009  1.00  0.00     0.000 C 
BRANCH   5   6
ATOM      6  C   UNL     1      39.045   9.540  11.787  1.00  0.00     0.000 C 
BRANCH   6   7
ATOM      7  C   UNL     1      38.380  10.025  13.087  1.00  0.00     0.000 C 
BRANCH   7   8
ATOM      8  C   UNL     1      38.012   8.861  14.033  1.00  0.00     0.000 C 
BRANCH   8   9
ATOM      9  C   UNL     1      38.143   9.201  15.532  1.00  0.00     0.000 C 
BRANCH   9  10
ATOM     10  C   UNL     1      38.923  10.489  15.850  1.00  0.00     0.000 C 
BRANCH  10  11
ATOM     11  C   UNL     1      38.082  11.523  16.621  1.00  0.00     0.000 C 
BRANCH  11  12
ATOM     12  C   UNL     1      37.875  11.144  18.100  1.00  0.00     0.000 C 
BRANCH  12  13
ATOM     13  C   UNL     1      38.868  10.106  18.658  1.00  0.00     0.006 C 
BRANCH  13  14
ATOM     14  C   UNL     1      40.326  10.590  18.725  1.00  0.00     0.053 C 
BRANCH  14  15
ATOM     15  C   UNL     1      41.282   9.549  18.230  1.00  0.00     0.041 C 
ATOM     16  O   UNL     1      42.383   9.888  17.720  1.00  0.00    -0.550 OA
ATOM     17  O   UNL     1      40.961   8.201  18.344  1.00  0.00    -0.550 OA
ENDBRANCH  14  15
ENDBRANCH  13  14
ENDBRANCH  12  13
ENDBRANCH  11  12
ENDBRANCH  10  11
ENDBRANCH   9  10
ENDBRANCH   8   9
ENDBRANCH   7   8
ENDBRANCH   6   7
ENDBRANCH   5   6
ENDBRANCH   4   5
ENDBRANCH   3   4
ENDBRANCH   2   3
ENDBRANCH   1   2
BRANCH   1  18
ATOM     18  C   UNL     1      40.649  13.159  15.628  1.00  0.00     0.000 C 
BRANCH  18  19
ATOM     19  C   UNL     1      40.141  14.216  14.632  1.00  0.00     0.000 C 
BRANCH  19  20
ATOM     20  C   UNL     1      40.859  15.580  14.702  1.00  0.00     0.000 C 
BRANCH  20  21
ATOM     21  C   UNL     1      40.311  16.550  15.768  1.00  0.00     0.000 C 
BRANCH  21  22
ATOM     22  C   UNL     1      41.250  16.790  16.965  1.00  0.00     0.000 C 
BRANCH  22  23
ATOM     23  C   UNL     1      41.352  18.255  17.436  1.00  0.00     0.000 C 
BRANCH  23  24
ATOM     24  C   UNL     1      40.859  18.518  18.873  1.00  0.00    -0.000 C 
BRANCH  24  25
ATOM     25  C   UNL     1      39.332  18.683  18.960  1.00  0.00    -0.000 C 
BRANCH  25  26
ATOM     26  C   UNL     1      38.638  18.461  17.609  1.00  0.00    -0.000 C 
BRANCH  26  27
ATOM     27  C   UNL     1      37.976  17.075  17.502  1.00  0.00    -0.000 C 
BRANCH  27  28
ATOM     28  C   UNL     1      37.877  16.370  18.872  1.00  0.00    -0.000 C 
BRANCH  28  29
ATOM     29  C   UNL     1      38.526  14.971  18.901  1.00  0.00    -0.000 C 
BRANCH  29  30
ATOM     30  C   UNL     1      40.048  14.967  19.124  1.00  0.00    -0.000 C 
BRANCH  30  31
ATOM     31  C   UNL     1      40.702  13.637  18.722  1.00  0.00    -0.003 C 
ATOM     32  C   UNL     1      42.223  13.753  18.712  1.00  0.00     0.004 C 
ENDBRANCH  30  31
ENDBRANCH  29  30
ENDBRANCH  28  29
ENDBRANCH  27  28
ENDBRANCH  26  27
ENDBRANCH  25  26
ENDBRANCH  24  25
ENDBRANCH  23  24
ENDBRANCH  22  23
ENDBRANCH  21  22
ENDBRANCH  20  21
ENDBRANCH  19  20
ENDBRANCH  18  19
ENDBRANCH   1  18
TORSDOF 28
ENDMDL
MODEL 3
REMARK VINA RESULT:    -1.435      2.340      6.525
REMARK INTER + INTRA:          -5.549
REMARK INTER:                  -3.882
REMARK INTRA:                  -1.666
REMARK UNBOUND:                -1.765
REMARK SMILES CCCCCCCCCCCCCCCCCCCCCCCCCCCCCC(=O)[O-]
REMARK SMILES IDX 16 1 17 2 18 3 19 4 20 5 21 6 22 7 23 8 24 9 25 10 26 11
REMARK SMILES IDX 27 12 28 13 29 14 30 15 31 16 32 17 15 18 14 19 13 20 12 21
REMARK SMILES IDX 11 22 10 23 9 24 8 25 7 26 6 27 5 28 4 29 3 30 2 31 1 32
REMARK H PARENT
REMARK Flexibility Score: inf
ROOT
ATOM      1  C   UNL     1      41.916  11.730  13.690  1.00  0.00     0.000 C 
ENDROOT
BRANCH   1   2
ATOM      2  C   UNL     1      42.456  11.083  12.406  1.00  0.00     0.000 C 
BRANCH   2   3
ATOM      3  C   UNL     1      41.340  10.476  11.534  1.00  0.00     0.000 C 
BRANCH   3   4
ATOM      4  C   UNL     1      40.051  11.311  11.548  1.00  0.00     0.000 C 
BRANCH   4   5
ATOM      5  C   UNL     1      38.782  10.445  11.640  1.00  0.00     0.000 C 
BRANCH   5   6
ATOM      6  C   UNL     1      39.109   8.942  11.643  1.00  0.00     0.000 C 
BRANCH   6   7
ATOM      7  C   UNL     1      39.122   8.349  13.063  1.00  0.00     0.000 C 
BRANCH   7   8
ATOM      8  C   UNL     1      38.168   9.092  14.024  1.00  0.00     0.000 C 
BRANCH   8   9
ATOM      9  C   UNL     1      37.875   8.333  15.334  1.00  0.00     0.000 C 
BRANCH   9  10
ATOM     10  C   UNL     1      38.891   8.559  16.468  1.00  0.00     0.000 C 
BRANCH  10  11
ATOM     11  C   UNL     1      38.220   8.814  17.830  1.00  0.00     0.000 C 
BRANCH  11  12
ATOM     12  C   UNL     1      38.419  10.255  18.336  1.00  0.00     0.000 C 
BRANCH  12  13
ATOM     13  C   UNL     1      39.758  10.523  19.051  1.00  0.00     0.006 C 
BRANCH  13  14
ATOM     14  C   UNL     1      40.725   9.328  19.062  1.00  0.00     0.053 C 
BRANCH  14  15
ATOM     15  C   UNL     1      41.963   9.606  18.266  1.00  0.00     0.041 C 
ATOM     16  O   UNL     1      42.659   8.654  17.823  1.00  0.00    -0.550 OA
ATOM     17  O   UNL     1      42.341  10.917  18.006  1.00  0.00    -0.550 OA
ENDBRANCH  14  15
ENDBRANCH  13  14
ENDBRANCH  12  13
ENDBRANCH  11  12
ENDBRANCH  10  11
ENDBRANCH   9  10
ENDBRANCH   8   9
ENDBRANCH   7   8
ENDBRANCH   6   7
ENDBRANCH   5   6
ENDBRANCH   4   5
ENDBRANCH   3   4
ENDBRANCH   2   3
ENDBRANCH   1   2
BRANCH   1  18
ATOM     18  C   UNL     1      40.628  11.057  14.196  1.00  0.00     0.000 C 
BRANCH  18  19
ATOM     19  C   UNL     1      39.808  11.963  15.132  1.00  0.00     0.000 C 
BRANCH  19  20
ATOM     20  C   UNL     1      40.521  13.255  15.582  1.00  0.00     0.000 C 
BRANCH  20  21
ATOM     21  C   UNL     1      39.586  14.377  16.077  1.00  0.00     0.000 C 
BRANCH  21  22
ATOM     22  C   UNL     1      38.405  14.692  15.140  1.00  0.00     0.000 C 
BRANCH  22  23
ATOM     23  C   UNL     1      37.875  16.139  15.216  1.00  0.00     0.000 C 
BRANCH  23  24
ATOM     24  C   UNL     1      38.740  17.111  16.041  1.00  0.00    -0.000 C 
BRANCH  24  25
ATOM     25  C   UNL     1      37.999  18.408  16.409  1.00  0.00    -0.000 C 
BRANCH  25  26
ATOM     26  C   UNL     1      38.141  18.766  17.895  1.00  0.00    -0.000 C 
BRANCH  26  27
ATOM     27  C   UNL     1      39.236  17.945  18.601  1.00  0.00    -0.000 C 
BRANCH  27  28
ATOM     28  C   UNL     1      40.504  18.781  18.879  1.00  0.00    -0.000 C 
BRANCH  28  29
ATOM     29  C   UNL     1      41.798  17.945  18.946  1.00  0.00    -0.000 C 
BRANCH  29  30
ATOM     30  C   UNL     1      41.754  16.618  18.168  1.00  0.00    -0.000 C 
BRANCH  30  31
ATOM     31  C   UNL     1      41.747  15.390  19.089  1.00  0.00    -0.003 C 
ATOM     32  C   UNL     1      42.229  14.146  18.350  1.00  0.00     0.004 C 
ENDBRANCH  30  31
ENDBRANCH  29  30
ENDBRANCH  28  29
ENDBRANCH  27  28
ENDBRANCH  26  27
ENDBRANCH  25  26
ENDBRANCH  24  25
ENDBRANCH  23  24
ENDBRANCH  22  23
ENDBRANCH  21  22
ENDBRANCH  20  21
ENDBRANCH  19  20
ENDBRANCH  18  19
ENDBRANCH   1  18
TORSDOF 28
ENDMDL
MODEL 4
REMARK VINA RESULT:    -1.396      2.369      7.269
REMARK INTER + INTRA:          -5.446
REMARK INTER:                  -3.829
REMARK INTRA:                  -1.617
REMARK UNBOUND:                -1.765
REMARK SMILES CCCCCCCCCCCCCCCCCCCCCCCCCCCCCC(=O)[O-]
REMARK SMILES IDX 16 1 17 2 18 3 19 4 20 5 21 6 22 7 23 8 24 9 25 10 26 11
REMARK SMILES IDX 27 12 28 13 29 14 30 15 31 16 32 17 15 18 14 19 13 20 12 21
REMARK SMILES IDX 11 22 10 23 9 24 8 25 7 26 6 27 5 28 4 29 3 30 2 31 1 32
REMARK H PARENT
REMARK Flexibility Score: inf
ROOT
ATOM      1  C   UNL     1      39.357  17.053  16.011  1.00  0.00     0.000 C 
ENDROOT
BRANCH   1   2
ATOM      2  C   UNL     1      38.524  16.099  16.881  1.00  0.00     0.000 C 
BRANCH   2   3
ATOM      3  C   UNL     1      38.275  14.741  16.197  1.00  0.00     0.000 C 
BRANCH   3   4
ATOM      4  C   UNL     1      37.878  13.637  17.189  1.00  0.00     0.000 C 
BRANCH   4   5
ATOM      5  C   UNL     1      38.417  12.252  16.786  1.00  0.00     0.000 C 
BRANCH   5   6
ATOM      6  C   UNL     1      38.950  12.240  15.343  1.00  0.00     0.000 C 
BRANCH   6   7
ATOM      7  C   UNL     1      37.906  11.721  14.338  1.00  0.00     0.000 C 
BRANCH   7   8
ATOM      8  C   UNL     1      38.063  10.213  14.046  1.00  0.00     0.000 C 
BRANCH   8   9
ATOM      9  C   UNL     1      39.148   9.517  14.893  1.00  0.00     0.000 C 
BRANCH   9  10
ATOM     10  C   UNL     1      38.623   8.615  16.025  1.00  0.00     0.000 C 
BRANCH  10  11
ATOM     11  C   UNL     1      37.879   9.401  17.120  1.00  0.00     0.000 C 
BRANCH  11  12
ATOM     12  C   UNL     1      38.214   8.911  18.542  1.00  0.00     0.000 C 
BRANCH  12  13
ATOM     13  C   UNL     1      39.553   9.417  19.115  1.00  0.00     0.006 C 
BRANCH  13  14
ATOM     14  C   UNL     1      40.693   8.386  19.073  1.00  0.00     0.053 C 
BRANCH  14  15
ATOM     15  C   UNL     1      41.979   8.996  18.608  1.00  0.00     0.041 C 
ATOM     16  O   UNL     1      42.217  10.216  18.819  1.00  0.00    -0.550 OA
ATOM     17  O   UNL     1      42.921   8.214  17.951  1.00  0.00    -0.550 OA
ENDBRANCH  14  15
ENDBRANCH  13  14
ENDBRANCH  12  13
ENDBRANCH  11  12
ENDBRANCH  10  11
ENDBRANCH   9  10
ENDBRANCH   8   9
ENDBRANCH   7   8
ENDBRANCH   6   7
ENDBRANCH   5   6
ENDBRANCH   4   5
ENDBRANCH   3   4
ENDBRANCH   2   3
ENDBRANCH   1   2
BRANCH   1  18
ATOM     18  C   UNL     1      40.850  17.040  16.380  1.00  0.00     0.000 C 
BRANCH  18  19
ATOM     19  C   UNL     1      41.154  17.815  17.675  1.00  0.00     0.000 C 
BRANCH  19  20
ATOM     20  C   UNL     1      41.058  16.984  18.972  1.00  0.00     0.000 C 
BRANCH  20  21
ATOM     21  C   UNL     1      42.031  15.792  19.056  1.00  0.00     0.000 C 
BRANCH  21  22
ATOM     22  C   UNL     1      41.379  14.411  18.857  1.00  0.00     0.000 C 
BRANCH  22  23
ATOM     23  C   UNL     1      41.501  13.825  17.436  1.00  0.00     0.000 C 
BRANCH  23  24
ATOM     24  C   UNL     1      42.544  12.702  17.277  1.00  0.00    -0.000 C 
BRANCH  24  25
ATOM     25  C   UNL     1      42.545  12.079  15.871  1.00  0.00    -0.000 C 
BRANCH  25  26
ATOM     26  C   UNL     1      41.415  12.625  14.985  1.00  0.00    -0.000 C 
BRANCH  26  27
ATOM     27  C   UNL     1      41.838  12.783  13.514  1.00  0.00    -0.000 C 
BRANCH  27  28
ATOM     28  C   UNL     1      42.281  11.443  12.888  1.00  0.00    -0.000 C 
BRANCH  28  29
ATOM     29  C   UNL     1      41.107  10.541  12.453  1.00  0.00    -0.000 C 
BRANCH  29  30
ATOM     30  C   UNL     1      40.014  11.249  11.634  1.00  0.00    -0.000 C 
BRANCH  30  31
ATOM     31  C   UNL     1      39.022  10.268  10.995  1.00  0.00    -0.003 C 
ATOM     32  C   UNL     1      39.476   8.824  11.187  1.00  0.00     0.004 C 
ENDBRANCH  30  31
ENDBRANCH  29  30
ENDBRANCH  28  29
ENDBRANCH  27  28
ENDBRANCH  26  27
ENDBRANCH  25  26
ENDBRANCH  24  25
ENDBRANCH  23  24
ENDBRANCH  22  23
ENDBRANCH  21  22
ENDBRANCH  20  21
ENDBRANCH  19  20
ENDBRANCH  18  19
ENDBRANCH   1  18
TORSDOF 28
ENDMDL
MODEL 5
REMARK VINA RESULT:    -1.028      1.878      5.082
REMARK INTER + INTRA:          -4.476
REMARK INTER:                  -5.554
REMARK INTRA:                   1.078
REMARK UNBOUND:                -1.765
REMARK SMILES CCCCCCCCCCCCCCCCCCCCCCCCCCCCCC(=O)[O-]
REMARK SMILES IDX 16 1 17 2 18 3 19 4 20 5 21 6 22 7 23 8 24 9 25 10 26 11
REMARK SMILES IDX 27 12 28 13 29 14 30 15 31 16 32 17 15 18 14 19 13 20 12 21
REMARK SMILES IDX 11 22 10 23 9 24 8 25 7 26 6 27 5 28 4 29 3 30 2 31 1 32
REMARK H PARENT
REMARK Flexibility Score: inf
ROOT
ATOM      1  C   UNL     1      38.279  13.711  14.478  1.00  0.00     0.000 C 
ENDROOT
BRANCH   1   2
ATOM      2  C   UNL     1      37.877  15.194  14.480  1.00  0.00     0.000 C 
BRANCH   2   3
ATOM      3  C   UNL     1      37.884  15.807  15.894  1.00  0.00     0.000 C 
BRANCH   3   4
ATOM      4  C   UNL     1      37.974  17.341  15.879  1.00  0.00     0.000 C 
BRANCH   4   5
ATOM      5  C   UNL     1      39.261  17.867  16.539  1.00  0.00     0.000 C 
BRANCH   5   6
ATOM      6  C   UNL     1      40.467  16.953  16.260  1.00  0.00     0.000 C 
BRANCH   6   7
ATOM      7  C   UNL     1      41.672  17.283  17.159  1.00  0.00     0.000 C 
BRANCH   7   8
ATOM      8  C   UNL     1      41.369  18.417  18.162  1.00  0.00     0.000 C 
BRANCH   8   9
ATOM      9  C   UNL     1      40.203  18.112  19.125  1.00  0.00     0.000 C 
BRANCH   9  10
ATOM     10  C   UNL     1      39.681  16.665  19.091  1.00  0.00     0.000 C 
BRANCH  10  11
ATOM     11  C   UNL     1      40.810  15.624  18.981  1.00  0.00     0.000 C 
BRANCH  11  12
ATOM     12  C   UNL     1      40.289  14.206  18.679  1.00  0.00     0.000 C 
BRANCH  12  13
ATOM     13  C   UNL     1      41.354  13.092  18.716  1.00  0.00     0.006 C 
BRANCH  13  14
ATOM     14  C   UNL     1      42.324  13.097  17.522  1.00  0.00     0.053 C 
BRANCH  14  15
ATOM     15  C   UNL     1      41.615  12.844  16.228  1.00  0.00     0.041 C 
ATOM     16  O   UNL     1      40.860  11.843  16.102  1.00  0.00    -0.550 OA
ATOM     17  O   UNL     1      41.782  13.720  15.162  1.00  0.00    -0.550 OA
ENDBRANCH  14  15
ENDBRANCH  13  14
ENDBRANCH  12  13
ENDBRANCH  11  12
ENDBRANCH  10  11
ENDBRANCH   9  10
ENDBRANCH   8   9
ENDBRANCH   7   8
ENDBRANCH   6   7
ENDBRANCH   5   6
ENDBRANCH   4   5
ENDBRANCH   3   4
ENDBRANCH   2   3
ENDBRANCH   1   2
BRANCH   1  18
ATOM     18  C   UNL     1      38.446  13.144  13.058  1.00  0.00     0.000 C 
BRANCH  18  19
ATOM     19  C   UNL     1      39.275  11.848  13.025  1.00  0.00     0.000 C 
BRANCH  19  20
ATOM     20  C   UNL     1      40.495  11.875  12.080  1.00  0.00     0.000 C 
BRANCH  20  21
ATOM     21  C   UNL     1      41.587  10.834  12.395  1.00  0.00     0.000 C 
BRANCH  21  22
ATOM     22  C   UNL     1      41.506   9.541  11.563  1.00  0.00     0.000 C 
BRANCH  22  23
ATOM     23  C   UNL     1      40.416   8.543  12.005  1.00  0.00     0.000 C 
BRANCH  23  24
ATOM     24  C   UNL     1      38.988   8.882  11.537  1.00  0.00    -0.000 C 
BRANCH  24  25
ATOM     25  C   UNL     1      37.918   7.982  12.178  1.00  0.00    -0.000 C 
BRANCH  25  26
ATOM     26  C   UNL     1      38.075   7.875  13.702  1.00  0.00    -0.000 C 
BRANCH  26  27
ATOM     27  C   UNL     1      38.378   9.232  14.364  1.00  0.00    -0.000 C 
BRANCH  27  28
ATOM     28  C   UNL     1      37.946   9.267  15.845  1.00  0.00    -0.000 C 
BRANCH  28  29
ATOM     29  C   UNL     1      39.072   9.689  16.811  1.00  0.00    -0.000 C 
BRANCH  29  30
ATOM     30  C   UNL     1      39.231   8.794  18.053  1.00  0.00    -0.000 C 
BRANCH  30  31
ATOM     31  C   UNL     1      40.389   9.236  18.958  1.00  0.00    -0.003 C 
ATOM     32  C   UNL     1      41.716   9.207  18.206  1.00  0.00     0.004 C 
ENDBRANCH  30  31
ENDBRANCH  29  30
ENDBRANCH  28  29
ENDBRANCH  27  28
ENDBRANCH  26  27
ENDBRANCH  25  26
ENDBRANCH  24  25
ENDBRANCH  23  24
ENDBRANCH  22  23
ENDBRANCH  21  22
ENDBRANCH  20  21
ENDBRANCH  19  20
ENDBRANCH  18  19
ENDBRANCH   1  18
TORSDOF 28
ENDMDL
MODEL 6
REMARK VINA RESULT:    -0.958      2.178      5.347
REMARK INTER + INTRA:          -4.290
REMARK INTER:                  -5.463
REMARK INTRA:                   1.173
REMARK UNBOUND:                -1.765
REMARK SMILES CCCCCCCCCCCCCCCCCCCCCCCCCCCCCC(=O)[O-]
REMARK SMILES IDX 16 1 17 2 18 3 19 4 20 5 21 6 22 7 23 8 24 9 25 10 26 11
REMARK SMILES IDX 27 12 28 13 29 14 30 15 31 16 32 17 15 18 14 19 13 20 12 21
REMARK SMILES IDX 11 22 10 23 9 24 8 25 7 26 6 27 5 28 4 29 3 30 2 31 1 32
REMARK H PARENT
REMARK Flexibility Score: inf
ROOT
ATOM      1  C   UNL     1      40.719  14.358  13.800  1.00  0.00     0.000 C 
ENDROOT
BRANCH   1   2
ATOM      2  C   UNL     1      40.365  14.950  15.173  1.00  0.00     0.000 C 
BRANCH   2   3
ATOM      3  C   UNL     1      39.128  14.282  15.804  1.00  0.00     0.000 C 
BRANCH   3   4
ATOM      4  C   UNL     1      39.024  14.526  17.317  1.00  0.00     0.000 C 
BRANCH   4   5
ATOM      5  C   UNL     1      37.883  15.490  17.687  1.00  0.00     0.000 C 
BRANCH   5   6
ATOM      6  C   UNL     1      37.950  16.799  16.882  1.00  0.00     0.000 C 
BRANCH   6   7
ATOM      7  C   UNL     1      39.385  17.343  16.768  1.00  0.00     0.000 C 
BRANCH   7   8
ATOM      8  C   UNL     1      39.708  18.392  17.854  1.00  0.00     0.000 C 
BRANCH   8   9
ATOM      9  C   UNL     1      41.214  18.684  18.022  1.00  0.00     0.000 C 
BRANCH   9  10
ATOM     10  C   UNL     1      42.007  17.624  18.807  1.00  0.00     0.000 C 
BRANCH  10  11
ATOM     11  C   UNL     1      41.175  16.368  19.125  1.00  0.00     0.000 C 
BRANCH  11  12
ATOM     12  C   UNL     1      41.972  15.061  18.947  1.00  0.00     0.000 C 
BRANCH  12  13
ATOM     13  C   UNL     1      41.129  13.770  18.957  1.00  0.00     0.006 C 
BRANCH  13  14
ATOM     14  C   UNL     1      41.951  12.474  19.051  1.00  0.00     0.053 C 
BRANCH  14  15
ATOM     15  C   UNL     1      41.952  11.719  17.758  1.00  0.00     0.041 C 
ATOM     16  O   UNL     1      42.128  12.326  16.668  1.00  0.00    -0.550 OA
ATOM     17  O   UNL     1      41.771  10.341  17.758  1.00  0.00    -0.550 OA
ENDBRANCH  14  15
ENDBRANCH  13  14
ENDBRANCH  12  13
ENDBRANCH  11  12
ENDBRANCH  10  11
ENDBRANCH   9  10
ENDBRANCH   8   9
ENDBRANCH   7   8
ENDBRANCH   6   7
ENDBRANCH   5   6
ENDBRANCH   4   5
ENDBRANCH   3   4
ENDBRANCH   2   3
ENDBRANCH   1   2
BRANCH   1  18
ATOM     18  C   UNL     1      40.016  13.016  13.535  1.00  0.00     0.000 C 
BRANCH  18  19
ATOM     19  C   UNL     1      38.512  13.053  13.860  1.00  0.00     0.000 C 
BRANCH  19  20
ATOM     20  C   UNL     1      37.908  11.707  14.315  1.00  0.00     0.000 C 
BRANCH  20  21
ATOM     21  C   UNL     1      38.455  11.167  15.651  1.00  0.00     0.000 C 
BRANCH  21  22
ATOM     22  C   UNL     1      38.959   9.713  15.601  1.00  0.00     0.000 C 
BRANCH  22  23
ATOM     23  C   UNL     1      38.141   8.764  14.702  1.00  0.00     0.000 C 
BRANCH  23  24
ATOM     24  C   UNL     1      38.939   8.077  13.577  1.00  0.00    -0.000 C 
BRANCH  24  25
ATOM     25  C   UNL     1      38.359   8.349  12.178  1.00  0.00    -0.000 C 
BRANCH  25  26
ATOM     26  C   UNL     1      37.875   9.798  12.014  1.00  0.00    -0.000 C 
BRANCH  26  27
ATOM     27  C   UNL     1      38.141  10.356  10.605  1.00  0.00    -0.000 C 
BRANCH  27  28
ATOM     28  C   UNL     1      39.433  11.200  10.547  1.00  0.00    -0.000 C 
BRANCH  28  29
ATOM     29  C   UNL     1      40.708  10.369  10.296  1.00  0.00    -0.000 C 
BRANCH  29  30
ATOM     30  C   UNL     1      41.568  10.108  11.544  1.00  0.00    -0.000 C 
BRANCH  30  31
ATOM     31  C   UNL     1      41.474  11.241  12.576  1.00  0.00    -0.003 C 
ATOM     32  C   UNL     1      42.720  11.290  13.455  1.00  0.00     0.004 C 
ENDBRANCH  30  31
ENDBRANCH  29  30
ENDBRANCH  28  29
ENDBRANCH  27  28
ENDBRANCH  26  27
ENDBRANCH  25  26
ENDBRANCH  24  25
ENDBRANCH  23  24
ENDBRANCH  22  23
ENDBRANCH  21  22
ENDBRANCH  20  21
ENDBRANCH  19  20
ENDBRANCH  18  19
ENDBRANCH   1  18
TORSDOF 28
ENDMDL
MODEL 7
REMARK VINA RESULT:    -0.759      1.413      2.033
REMARK INTER + INTRA:          -3.765
REMARK INTER:                  -2.910
REMARK INTRA:                  -0.855
REMARK UNBOUND:                -1.765
REMARK SMILES CCCCCCCCCCCCCCCCCCCCCCCCCCCCCC(=O)[O-]
REMARK SMILES IDX 16 1 17 2 18 3 19 4 20 5 21 6 22 7 23 8 24 9 25 10 26 11
REMARK SMILES IDX 27 12 28 13 29 14 30 15 31 16 32 17 15 18 14 19 13 20 12 21
REMARK SMILES IDX 11 22 10 23 9 24 8 25 7 26 6 27 5 28 4 29 3 30 2 31 1 32
REMARK H PARENT
REMARK Flexibility Score: inf
ROOT
ATOM      1  C   UNL     1      40.535  11.318  10.915  1.00  0.00     0.000 C 
ENDROOT
BRANCH   1   2
ATOM      2  C   UNL     1      39.974  12.720  11.197  1.00  0.00     0.000 C 
BRANCH   2   3
ATOM      3  C   UNL     1      40.633  13.386  12.420  1.00  0.00     0.000 C 
BRANCH   3   4
ATOM      4  C   UNL     1      39.964  12.996  13.746  1.00  0.00     0.000 C 
BRANCH   4   5
ATOM      5  C   UNL     1      38.441  13.217  13.732  1.00  0.00     0.000 C 
BRANCH   5   6
ATOM      6  C   UNL     1      37.949  13.915  15.012  1.00  0.00     0.000 C 
BRANCH   6   7
ATOM      7  C   UNL     1      38.773  15.171  15.347  1.00  0.00     0.000 C 
BRANCH   7   8
ATOM      8  C   UNL     1      37.939  16.467  15.255  1.00  0.00     0.000 C 
BRANCH   8   9
ATOM      9  C   UNL     1      37.933  17.306  16.550  1.00  0.00     0.000 C 
BRANCH   9  10
ATOM     10  C   UNL     1      38.090  16.506  17.855  1.00  0.00     0.000 C 
BRANCH  10  11
ATOM     11  C   UNL     1      37.966  17.384  19.113  1.00  0.00     0.000 C 
BRANCH  11  12
ATOM     12  C   UNL     1      38.344  18.856  18.857  1.00  0.00     0.000 C 
BRANCH  12  13
ATOM     13  C   UNL     1      39.819  19.213  19.125  1.00  0.00     0.006 C 
BRANCH  13  14
ATOM     14  C   UNL     1      40.789  18.023  19.040  1.00  0.00     0.053 C 
BRANCH  14  15
ATOM     15  C   UNL     1      41.537  18.005  17.743  1.00  0.00     0.041 C 
ATOM     16  O   UNL     1      42.719  18.438  17.686  1.00  0.00    -0.550 OA
ATOM     17  O   UNL     1      40.932  17.499  16.599  1.00  0.00    -0.550 OA
ENDBRANCH  14  15
ENDBRANCH  13  14
ENDBRANCH  12  13
ENDBRANCH  11  12
ENDBRANCH  10  11
ENDBRANCH   9  10
ENDBRANCH   8   9
ENDBRANCH   7   8
ENDBRANCH   6   7
ENDBRANCH   5   6
ENDBRANCH   4   5
ENDBRANCH   3   4
ENDBRANCH   2   3
ENDBRANCH   1   2
BRANCH   1  18
ATOM     18  C   UNL     1      40.116  10.288  11.978  1.00  0.00     0.000 C 
BRANCH  18  19
ATOM     19  C   UNL     1      38.664  10.474  12.452  1.00  0.00     0.000 C 
BRANCH  19  20
ATOM     20  C   UNL     1      37.890   9.165  12.720  1.00  0.00     0.000 C 
BRANCH  20  21
ATOM     21  C   UNL     1      38.769   7.953  13.090  1.00  0.00     0.000 C 
BRANCH  21  22
ATOM     22  C   UNL     1      39.239   7.921  14.556  1.00  0.00     0.000 C 
BRANCH  22  23
ATOM     23  C   UNL     1      38.572   8.957  15.483  1.00  0.00     0.000 C 
BRANCH  23  24
ATOM     24  C   UNL     1      37.876   8.371  16.727  1.00  0.00    -0.000 C 
BRANCH  24  25
ATOM     25  C   UNL     1      38.410   8.958  18.044  1.00  0.00    -0.000 C 
BRANCH  25  26
ATOM     26  C   UNL     1      38.454  10.493  18.029  1.00  0.00    -0.000 C 
BRANCH  26  27
ATOM     27  C   UNL     1      39.862  11.049  18.308  1.00  0.00    -0.000 C 
BRANCH  27  28
ATOM     28  C   UNL     1      40.842  10.764  17.150  1.00  0.00    -0.000 C 
BRANCH  28  29
ATOM     29  C   UNL     1      42.227  11.418  17.331  1.00  0.00    -0.000 C 
BRANCH  29  30
ATOM     30  C   UNL     1      42.237  12.684  18.205  1.00  0.00    -0.000 C 
BRANCH  30  31
ATOM     31  C   UNL     1      40.986  13.552  18.006  1.00  0.00    -0.003 C 
ATOM     32  C   UNL     1      40.912  14.658  19.054  1.00  0.00     0.004 C 
ENDBRANCH  30  31
ENDBRANCH  29  30
ENDBRANCH  28  29
ENDBRANCH  27  28
ENDBRANCH  26  27
ENDBRANCH  25  26
ENDBRANCH  24  25
ENDBRANCH  23  24
ENDBRANCH  22  23
ENDBRANCH  21  22
ENDBRANCH  20  21
ENDBRANCH  19  20
ENDBRANCH  18  19
ENDBRANCH   1  18
TORSDOF 28
ENDMDL
MODEL 8
REMARK VINA RESULT:    -0.685      2.367      6.969
REMARK INTER + INTRA:          -3.571
REMARK INTER:                  -3.412
REMARK INTRA:                  -0.160
REMARK UNBOUND:                -1.765
REMARK SMILES CCCCCCCCCCCCCCCCCCCCCCCCCCCCCC(=O)[O-]
REMARK SMILES IDX 16 1 17 2 18 3 19 4 20 5 21 6 22 7 23 8 24 9 25 10 26 11
REMARK SMILES IDX 27 12 28 13 29 14 30 15 31 16 32 17 15 18 14 19 13 20 12 21
REMARK SMILES IDX 11 22 10 23 9 24 8 25 7 26 6 27 5 28 4 29 3 30 2 31 1 32
REMARK H PARENT
REMARK Flexibility Score: inf
ROOT
ATOM      1  C   UNL     1      39.264  12.500  12.809  1.00  0.00     0.000 C 
ENDROOT
BRANCH   1   2
ATOM      2  C   UNL     1      39.170  11.837  11.427  1.00  0.00     0.000 C 
BRANCH   2   3
ATOM      3  C   UNL     1      40.464  11.099  11.035  1.00  0.00     0.000 C 
BRANCH   3   4
ATOM      4  C   UNL     1      41.240  10.567  12.250  1.00  0.00     0.000 C 
BRANCH   4   5
ATOM      5  C   UNL     1      40.879   9.111  12.595  1.00  0.00     0.000 C 
BRANCH   5   6
ATOM      6  C   UNL     1      40.139   8.412  11.443  1.00  0.00     0.000 C 
BRANCH   6   7
ATOM      7  C   UNL     1      38.731   8.990  11.216  1.00  0.00     0.000 C 
BRANCH   7   8
ATOM      8  C   UNL     1      37.899   9.050  12.515  1.00  0.00     0.000 C 
BRANCH   8   9
ATOM      9  C   UNL     1      38.152   7.875  13.481  1.00  0.00     0.000 C 
BRANCH   9  10
ATOM     10  C   UNL     1      38.746   8.261  14.847  1.00  0.00     0.000 C 
BRANCH  10  11
ATOM     11  C   UNL     1      38.284   9.648  15.330  1.00  0.00     0.000 C 
BRANCH  11  12
ATOM     12  C   UNL     1      37.986   9.688  16.841  1.00  0.00     0.000 C 
BRANCH  12  13
ATOM     13  C   UNL     1      38.379   8.420  17.624  1.00  0.00     0.006 C 
BRANCH  13  14
ATOM     14  C   UNL     1      39.385   8.659  18.762  1.00  0.00     0.053 C 
BRANCH  14  15
ATOM     15  C   UNL     1      40.761   8.935  18.241  1.00  0.00     0.041 C 
ATOM     16  O   UNL     1      41.060  10.080  17.809  1.00  0.00    -0.550 OA
ATOM     17  O   UNL     1      41.719   7.927  18.243  1.00  0.00    -0.550 OA
ENDBRANCH  14  15
ENDBRANCH  13  14
ENDBRANCH  12  13
ENDBRANCH  11  12
ENDBRANCH  10  11
ENDBRANCH   9  10
ENDBRANCH   8   9
ENDBRANCH   7   8
ENDBRANCH   6   7
ENDBRANCH   5   6
ENDBRANCH   4   5
ENDBRANCH   3   4
ENDBRANCH   2   3
ENDBRANCH   1   2
BRANCH   1  18
ATOM     18  C   UNL     1      37.900  12.988  13.326  1.00  0.00     0.000 C 
BRANCH  18  19
ATOM     19  C   UNL     1      37.969  13.555  14.755  1.00  0.00     0.000 C 
BRANCH  19  20
ATOM     20  C   UNL     1      38.798  12.718  15.752  1.00  0.00     0.000 C 
BRANCH  20  21
ATOM     21  C   UNL     1      39.668  13.537  16.726  1.00  0.00     0.000 C 
BRANCH  21  22
ATOM     22  C   UNL     1      41.007  12.878  17.106  1.00  0.00     0.000 C 
BRANCH  22  23
ATOM     23  C   UNL     1      42.143  13.858  17.462  1.00  0.00     0.000 C 
BRANCH  23  24
ATOM     24  C   UNL     1      42.118  14.394  18.907  1.00  0.00    -0.000 C 
BRANCH  24  25
ATOM     25  C   UNL     1      41.053  15.483  19.123  1.00  0.00    -0.000 C 
BRANCH  25  26
ATOM     26  C   UNL     1      41.283  16.714  18.234  1.00  0.00    -0.000 C 
BRANCH  26  27
ATOM     27  C   UNL     1      41.245  18.033  19.027  1.00  0.00    -0.000 C 
BRANCH  27  28
ATOM     28  C   UNL     1      39.891  18.761  18.882  1.00  0.00    -0.000 C 
BRANCH  28  29
ATOM     29  C   UNL     1      38.802  17.919  18.187  1.00  0.00    -0.000 C 
BRANCH  29  30
ATOM     30  C   UNL     1      37.887  18.704  17.232  1.00  0.00    -0.000 C 
BRANCH  30  31
ATOM     31  C   UNL     1      37.888  18.134  15.807  1.00  0.00    -0.003 C 
ATOM     32  C   UNL     1      38.451  16.716  15.782  1.00  0.00     0.004 C 
ENDBRANCH  30  31
ENDBRANCH  29  30
ENDBRANCH  28  29
ENDBRANCH  27  28
ENDBRANCH  26  27
ENDBRANCH  25  26
ENDBRANCH  24  25
ENDBRANCH  23  24
ENDBRANCH  22  23
ENDBRANCH  21  22
ENDBRANCH  20  21
ENDBRANCH  19  20
ENDBRANCH  18  19
ENDBRANCH   1  18
TORSDOF 28
ENDMDL
