MODEL 1
REMARK VINA RESULT:    -5.246      0.000      0.000
REMARK INTER + INTRA:          -6.000
REMARK INTER:                  -5.706
REMARK INTRA:                  -0.295
REMARK UNBOUND:                -0.295
REMARK SMILES C[C@@H]1[C@H]2C3=CC[C@@H]4[C@@]5(C)CC[C@@H](O)C(C)(C)[C@@H]5CC[C@]4(C)[C@]3(C)CC[C@@]2(C(=O)[O-])CC[C@@H]1C
REMARK SMILES IDX 26 1 30 2 25 3 3 4 31 5 24 6 4 7 2 8 32 9 22 10 5 11 1 12
REMARK SMILES IDX 33 13 23 14 20 15 6 16 7 17 19 18 21 19 8 20 18 21 17 22
REMARK SMILES IDX 10 23 9 24 14 25 11 26 12 27 15 28 16 29 27 30 28 31 29 32
REMARK SMILES IDX 13 33
REMARK H PARENT 13 34
REMARK Flexibility Score: inf
ROOT
ATOM      1  C   UNL     1      10.154  48.281   3.132  1.00  0.00     0.017 C 
ATOM      2  C   UNL     1       9.335  48.811   1.893  1.00  0.00     0.014 C 
ATOM      3  C   UNL     1       9.691  49.053   4.405  1.00  0.00     0.014 C 
ATOM      4  C   UNL     1      11.719  48.419   2.954  1.00  0.00     0.030 C 
ATOM      5  C   UNL     1      10.161  49.547   0.834  1.00  0.00     0.004 C 
ATOM      6  C   UNL     1      10.482  48.681   5.680  1.00  0.00     0.013 C 
ATOM      7  C   UNL     1      12.471  48.157   4.277  1.00  0.00    -0.063 C 
ATOM      8  C   UNL     1      12.273  49.694   2.211  1.00  0.00    -0.003 C 
ATOM      9  C   UNL     1      11.151  50.501   1.501  1.00  0.00    -0.011 C 
ATOM     10  C   UNL     1      12.027  48.868   5.587  1.00  0.00    -0.006 C 
ATOM     11  C   UNL     1      13.406  47.180   4.253  1.00  0.00    -0.027 C 
ATOM     12  C   UNL     1      13.431  49.296   1.266  1.00  0.00     0.008 C 
ATOM     13  C   UNL     1      11.669  51.548   0.500  1.00  0.00     0.008 C 
ATOM     14  C   UNL     1      12.246  50.414   5.450  1.00  0.00     0.017 C 
ATOM     15  C   UNL     1      12.831  48.321   6.907  1.00  0.00    -0.020 C 
ATOM     16  C   UNL     1      14.125  46.638   5.444  1.00  0.00     0.032 C 
ATOM     17  C   UNL     1      13.368  46.834   6.775  1.00  0.00     0.006 C 
ATOM     18  C   UNL     1      12.027  48.478   8.246  1.00  0.00     0.008 C 
ATOM     19  C   UNL     1      14.122  49.200   7.133  1.00  0.00     0.012 C 
ATOM     20  C   UNL     1      12.465  45.604   7.243  1.00  0.00    -0.025 C 
ATOM     21  C   UNL     1      11.102  47.312   8.627  1.00  0.00     0.005 C 
ATOM     22  C   UNL     1      11.853  45.959   8.648  1.00  0.00     0.003 C 
ATOM     23  C   UNL     1      13.404  44.340   7.408  1.00  0.00     0.010 C 
ATOM     24  C   UNL     1      11.361  45.248   6.199  1.00  0.00     0.012 C 
ATOM     25  C   UNL     1      11.069  44.786   9.392  1.00  0.00    -0.006 C 
ATOM     26  C   UNL     1      13.085  43.421   8.601  1.00  0.00     0.033 C 
ATOM     27  C   UNL     1      11.592  43.382   8.926  1.00  0.00     0.120 C 
ATOM     28  C   UNL     1       9.534  44.827   9.157  1.00  0.00     0.014 C 
ATOM     29  C   UNL     1      11.293  44.948  10.923  1.00  0.00     0.014 C 
ENDROOT
BRANCH   1  30
ATOM     30  C   UNL     1       9.798  46.795   3.266  1.00  0.00     0.048 C 
ATOM     31  O   UNL     1       8.810  46.413   3.955  1.00  0.00    -0.550 OA
ATOM     32  O   UNL     1      10.497  45.844   2.526  1.00  0.00    -0.550 OA
ENDBRANCH   1  30
BRANCH  27  33
ATOM     33  O   UNL     1      11.374  42.392   9.901  1.00  0.00    -0.393 OA
ATOM     34  H   UNL     1      12.266  42.094  10.228  1.00  0.00     0.210 HD
ENDBRANCH  27  33
TORSDOF 2
ENDMDL
MODEL 2
REMARK VINA RESULT:    -4.945      2.022      7.313
REMARK INTER + INTRA:          -5.674
REMARK INTER:                  -5.368
REMARK INTRA:                  -0.306
REMARK UNBOUND:                -0.295
REMARK SMILES C[C@@H]1[C@H]2C3=CC[C@@H]4[C@@]5(C)CC[C@@H](O)C(C)(C)[C@@H]5CC[C@]4(C)[C@]3(C)CC[C@@]2(C(=O)[O-])CC[C@@H]1C
REMARK SMILES IDX 26 1 30 2 25 3 3 4 31 5 24 6 4 7 2 8 32 9 22 10 5 11 1 12
REMARK SMILES IDX 33 13 23 14 20 15 6 16 7 17 19 18 21 19 8 20 18 21 17 22
REMARK SMILES IDX 10 23 9 24 14 25 11 26 12 27 15 28 16 29 27 30 28 31 29 32
REMARK SMILES IDX 13 33
REMARK H PARENT 13 34
REMARK Flexibility Score: inf
ROOT
ATOM      1  C   UNL     1      10.557  46.151   8.572  1.00  0.00     0.017 C 
ATOM      2  C   UNL     1       9.952  45.767   9.976  1.00  0.00     0.014 C 
ATOM      3  C   UNL     1      10.045  45.130   7.511  1.00  0.00     0.014 C 
ATOM      4  C   UNL     1      12.137  46.196   8.562  1.00  0.00     0.030 C 
ATOM      5  C   UNL     1      10.972  45.307  11.021  1.00  0.00     0.004 C 
ATOM      6  C   UNL     1      10.638  45.350   6.100  1.00  0.00     0.013 C 
ATOM      7  C   UNL     1      12.699  46.296   7.128  1.00  0.00    -0.063 C 
ATOM      8  C   UNL     1      12.916  45.127   9.420  1.00  0.00    -0.003 C 
ATOM      9  C   UNL     1      11.984  44.352  10.391  1.00  0.00    -0.011 C 
ATOM     10  C   UNL     1      12.195  45.330   6.018  1.00  0.00    -0.006 C 
ATOM     11  C   UNL     1      13.511  47.348   6.873  1.00  0.00    -0.027 C 
ATOM     12  C   UNL     1      14.121  45.792  10.129  1.00  0.00     0.008 C 
ATOM     13  C   UNL     1      12.731  43.547  11.469  1.00  0.00     0.008 C 
ATOM     14  C   UNL     1      12.606  43.859   6.370  1.00  0.00     0.017 C 
ATOM     15  C   UNL     1      12.774  45.716   4.533  1.00  0.00    -0.020 C 
ATOM     16  C   UNL     1      14.022  47.742   5.527  1.00  0.00     0.032 C 
ATOM     17  C   UNL     1      13.146  47.247   4.355  1.00  0.00     0.006 C 
ATOM     18  C   UNL     1      11.847  45.254   3.354  1.00  0.00     0.008 C 
ATOM     19  C   UNL     1      14.125  44.939   4.283  1.00  0.00     0.012 C 
ATOM     20  C   UNL     1      12.059  48.287   3.820  1.00  0.00    -0.025 C 
ATOM     21  C   UNL     1      10.756  46.243   2.917  1.00  0.00     0.005 C 
ATOM     22  C   UNL     1      11.337  47.638   2.582  1.00  0.00     0.003 C 
ATOM     23  C   UNL     1      12.820  49.587   3.333  1.00  0.00     0.010 C 
ATOM     24  C   UNL     1      11.048  48.710   4.929  1.00  0.00     0.012 C 
ATOM     25  C   UNL     1      10.343  48.584   1.770  1.00  0.00    -0.006 C 
ATOM     26  C   UNL     1      12.263  50.252   2.062  1.00  0.00     0.033 C 
ATOM     27  C   UNL     1      10.749  50.091   1.933  1.00  0.00     0.120 C 
ATOM     28  C   UNL     1       8.860  48.437   2.208  1.00  0.00     0.014 C 
ATOM     29  C   UNL     1      10.409  48.183   0.268  1.00  0.00     0.014 C 
ENDROOT
BRANCH   1  30
ATOM     30  C   UNL     1      10.018  47.551   8.251  1.00  0.00     0.048 C 
ATOM     31  O   UNL     1       8.871  47.716   7.745  1.00  0.00    -0.550 OA
ATOM     32  O   UNL     1      10.745  48.678   8.625  1.00  0.00    -0.550 OA
ENDBRANCH   1  30
BRANCH  27  33
ATOM     33  O   UNL     1      10.308  50.873   0.849  1.00  0.00    -0.393 OA
ATOM     34  H   UNL     1      11.116  51.233   0.394  1.00  0.00     0.210 HD
ENDBRANCH  27  33
TORSDOF 2
ENDMDL
MODEL 3
REMARK VINA RESULT:    -4.896      1.060      1.128
REMARK INTER + INTRA:          -5.620
REMARK INTER:                  -5.348
REMARK INTRA:                  -0.272
REMARK UNBOUND:                -0.295
REMARK SMILES C[C@@H]1[C@H]2C3=CC[C@@H]4[C@@]5(C)CC[C@@H](O)C(C)(C)[C@@H]5CC[C@]4(C)[C@]3(C)CC[C@@]2(C(=O)[O-])CC[C@@H]1C
REMARK SMILES IDX 26 1 30 2 25 3 3 4 31 5 24 6 4 7 2 8 32 9 22 10 5 11 1 12
REMARK SMILES IDX 33 13 23 14 20 15 6 16 7 17 19 18 21 19 8 20 18 21 17 22
REMARK SMILES IDX 10 23 9 24 14 25 11 26 12 27 15 28 16 29 27 30 28 31 29 32
REMARK SMILES IDX 13 33
REMARK H PARENT 13 34
REMARK Flexibility Score: inf
ROOT
ATOM      1  C   UNL     1      10.798  47.705   3.141  1.00  0.00     0.017 C 
ATOM      2  C   UNL     1      10.365  47.944   1.644  1.00  0.00     0.014 C 
ATOM      3  C   UNL     1       9.721  48.330   4.079  1.00  0.00     0.014 C 
ATOM      4  C   UNL     1      12.224  48.297   3.483  1.00  0.00     0.030 C 
ATOM      5  C   UNL     1      11.283  48.871   0.841  1.00  0.00     0.004 C 
ATOM      6  C   UNL     1      10.074  48.235   5.581  1.00  0.00     0.013 C 
ATOM      7  C   UNL     1      12.495  48.296   5.003  1.00  0.00    -0.063 C 
ATOM      8  C   UNL     1      12.640  49.664   2.817  1.00  0.00    -0.003 C 
ATOM      9  C   UNL     1      11.673  50.088   1.678  1.00  0.00    -0.011 C 
ATOM     10  C   UNL     1      11.439  48.870   5.990  1.00  0.00    -0.006 C 
ATOM     11  C   UNL     1      13.604  47.639   5.414  1.00  0.00    -0.027 C 
ATOM     12  C   UNL     1      14.121  49.608   2.372  1.00  0.00     0.008 C 
ATOM     13  C   UNL     1      12.210  51.222   0.788  1.00  0.00     0.008 C 
ATOM     14  C   UNL     1      11.265  50.408   5.744  1.00  0.00     0.017 C 
ATOM     15  C   UNL     1      11.834  48.611   7.560  1.00  0.00    -0.020 C 
ATOM     16  C   UNL     1      13.968  47.359   6.835  1.00  0.00     0.032 C 
ATOM     17  C   UNL     1      12.762  47.348   7.800  1.00  0.00     0.006 C 
ATOM     18  C   UNL     1      10.594  48.550   8.521  1.00  0.00     0.008 C 
ATOM     19  C   UNL     1      12.671  49.838   8.095  1.00  0.00     0.012 C 
ATOM     20  C   UNL     1      12.121  45.915   8.086  1.00  0.00    -0.025 C 
ATOM     21  C   UNL     1       9.947  47.169   8.711  1.00  0.00     0.005 C 
ATOM     22  C   UNL     1      10.976  46.100   9.149  1.00  0.00     0.003 C 
ATOM     23  C   UNL     1      13.243  44.989   8.711  1.00  0.00     0.010 C 
ATOM     24  C   UNL     1      11.603  45.227   6.785  1.00  0.00     0.012 C 
ATOM     25  C   UNL     1      10.327  44.763   9.726  1.00  0.00    -0.006 C 
ATOM     26  C   UNL     1      12.780  44.041   9.831  1.00  0.00     0.033 C 
ATOM     27  C   UNL     1      11.340  43.568   9.639  1.00  0.00     0.120 C 
ATOM     28  C   UNL     1       9.026  44.343   8.986  1.00  0.00     0.014 C 
ATOM     29  C   UNL     1       9.937  45.014  11.211  1.00  0.00     0.014 C 
ENDROOT
BRANCH   1  30
ATOM     30  C   UNL     1      10.834  46.183   3.330  1.00  0.00     0.048 C 
ATOM     31  O   UNL     1       9.823  45.546   3.743  1.00  0.00    -0.550 OA
ATOM     32  O   UNL     1      11.956  45.459   2.933  1.00  0.00    -0.550 OA
ENDBRANCH   1  30
BRANCH  27  33
ATOM     33  O   UNL     1      11.065  42.577  10.600  1.00  0.00    -0.393 OA
ATOM     34  H   UNL     1      11.700  41.827  10.444  1.00  0.00     0.210 HD
ENDBRANCH  27  33
TORSDOF 2
ENDMDL
MODEL 4
REMARK VINA RESULT:    -4.276      1.830      7.410
REMARK INTER + INTRA:          -4.945
REMARK INTER:                  -5.687
REMARK INTRA:                   0.742
REMARK UNBOUND:                -0.295
REMARK SMILES C[C@@H]1[C@H]2C3=CC[C@@H]4[C@@]5(C)CC[C@@H](O)C(C)(C)[C@@H]5CC[C@]4(C)[C@]3(C)CC[C@@]2(C(=O)[O-])CC[C@@H]1C
REMARK SMILES IDX 26 1 30 2 25 3 3 4 31 5 24 6 4 7 2 8 32 9 22 10 5 11 1 12
REMARK SMILES IDX 33 13 23 14 20 15 6 16 7 17 19 18 21 19 8 20 18 21 17 22
REMARK SMILES IDX 10 23 9 24 14 25 11 26 12 27 15 28 16 29 27 30 28 31 29 32
REMARK SMILES IDX 13 33
REMARK H PARENT 13 34
REMARK Flexibility Score: inf
ROOT
ATOM      1  C   UNL     1      13.252  44.084   7.629  1.00  0.00     0.017 C 
ATOM      2  C   UNL     1      14.125  43.000   8.370  1.00  0.00     0.014 C 
ATOM      3  C   UNL     1      14.003  45.449   7.678  1.00  0.00     0.014 C 
ATOM      4  C   UNL     1      11.801  44.241   8.237  1.00  0.00     0.030 C 
ATOM      5  C   UNL     1      13.513  42.440   9.657  1.00  0.00     0.004 C 
ATOM      6  C   UNL     1      13.207  46.619   7.054  1.00  0.00     0.013 C 
ATOM      7  C   UNL     1      11.079  45.488   7.681  1.00  0.00    -0.063 C 
ATOM      8  C   UNL     1      11.633  44.119   9.800  1.00  0.00    -0.003 C 
ATOM      9  C   UNL     1      12.909  43.567  10.493  1.00  0.00    -0.011 C 
ATOM     10  C   UNL     1      11.794  46.869   7.666  1.00  0.00    -0.006 C 
ATOM     11  C   UNL     1       9.886  45.273   7.081  1.00  0.00    -0.027 C 
ATOM     12  C   UNL     1      10.357  43.309  10.134  1.00  0.00     0.008 C 
ATOM     13  C   UNL     1      12.689  43.120  11.948  1.00  0.00     0.008 C 
ATOM     14  C   UNL     1      12.063  47.341   9.136  1.00  0.00     0.017 C 
ATOM     15  C   UNL     1      10.935  48.018   6.874  1.00  0.00    -0.020 C 
ATOM     16  C   UNL     1       9.101  46.292   6.323  1.00  0.00     0.032 C 
ATOM     17  C   UNL     1       9.954  47.451   5.764  1.00  0.00     0.006 C 
ATOM     18  C   UNL     1      11.821  49.162   6.266  1.00  0.00     0.008 C 
ATOM     19  C   UNL     1       9.997  48.766   7.900  1.00  0.00     0.012 C 
ATOM     20  C   UNL     1      10.452  47.277   4.257  1.00  0.00    -0.025 C 
ATOM     21  C   UNL     1      12.354  48.928   4.844  1.00  0.00     0.005 C 
ATOM     22  C   UNL     1      11.221  48.587   3.847  1.00  0.00     0.003 C 
ATOM     23  C   UNL     1       9.176  47.132   3.332  1.00  0.00     0.010 C 
ATOM     24  C   UNL     1      11.329  46.001   4.067  1.00  0.00     0.012 C 
ATOM     25  C   UNL     1      11.639  48.707   2.313  1.00  0.00    -0.006 C 
ATOM     26  C   UNL     1       9.258  47.836   1.965  1.00  0.00     0.033 C 
ATOM     27  C   UNL     1      10.679  47.862   1.405  1.00  0.00     0.120 C 
ATOM     28  C   UNL     1      13.095  48.242   2.035  1.00  0.00     0.014 C 
ATOM     29  C   UNL     1      11.562  50.207   1.906  1.00  0.00     0.014 C 
ENDROOT
BRANCH   1  30
ATOM     30  C   UNL     1      13.133  43.606   6.176  1.00  0.00     0.048 C 
ATOM     31  O   UNL     1      13.259  44.407   5.206  1.00  0.00    -0.550 OA
ATOM     32  O   UNL     1      12.999  42.247   5.900  1.00  0.00    -0.550 OA
ENDBRANCH   1  30
BRANCH  27  33
ATOM     33  O   UNL     1      10.630  48.358   0.089  1.00  0.00    -0.393 OA
ATOM     34  H   UNL     1      10.316  47.618  -0.497  1.00  0.00     0.210 HD
ENDBRANCH  27  33
TORSDOF 2
ENDMDL
MODEL 5
REMARK VINA RESULT:    -4.142      1.684      7.296
REMARK INTER + INTRA:          -4.800
REMARK INTER:                  -4.723
REMARK INTRA:                  -0.077
REMARK UNBOUND:                -0.295
REMARK SMILES C[C@@H]1[C@H]2C3=CC[C@@H]4[C@@]5(C)CC[C@@H](O)C(C)(C)[C@@H]5CC[C@]4(C)[C@]3(C)CC[C@@]2(C(=O)[O-])CC[C@@H]1C
REMARK SMILES IDX 26 1 30 2 25 3 3 4 31 5 24 6 4 7 2 8 32 9 22 10 5 11 1 12
REMARK SMILES IDX 33 13 23 14 20 15 6 16 7 17 19 18 21 19 8 20 18 21 17 22
REMARK SMILES IDX 10 23 9 24 14 25 11 26 12 27 15 28 16 29 27 30 28 31 29 32
REMARK SMILES IDX 13 33
REMARK H PARENT 13 34
REMARK Flexibility Score: inf
ROOT
ATOM      1  C   UNL     1      12.950  45.208   7.189  1.00  0.00     0.017 C 
ATOM      2  C   UNL     1      13.411  43.959   8.034  1.00  0.00     0.014 C 
ATOM      3  C   UNL     1      14.125  46.231   7.126  1.00  0.00     0.014 C 
ATOM      4  C   UNL     1      11.653  45.908   7.764  1.00  0.00     0.030 C 
ATOM      5  C   UNL     1      12.668  43.759   9.358  1.00  0.00     0.004 C 
ATOM      6  C   UNL     1      13.768  47.544   6.392  1.00  0.00     0.013 C 
ATOM      7  C   UNL     1      11.393  47.273   7.091  1.00  0.00    -0.063 C 
ATOM      8  C   UNL     1      11.483  45.988   9.329  1.00  0.00    -0.003 C 
ATOM      9  C   UNL     1      12.504  45.093  10.083  1.00  0.00    -0.011 C 
ATOM     10  C   UNL     1      12.539  48.316   6.962  1.00  0.00    -0.006 C 
ATOM     11  C   UNL     1      10.187  47.430   6.497  1.00  0.00    -0.027 C 
ATOM     12  C   UNL     1      10.013  45.699   9.718  1.00  0.00     0.008 C 
ATOM     13  C   UNL     1      12.173  44.878  11.570  1.00  0.00     0.008 C 
ATOM     14  C   UNL     1      12.982  48.795   8.388  1.00  0.00     0.017 C 
ATOM     15  C   UNL     1      12.112  49.618   6.061  1.00  0.00    -0.020 C 
ATOM     16  C   UNL     1       9.786  48.587   5.643  1.00  0.00     0.032 C 
ATOM     17  C   UNL     1      10.975  49.328   4.993  1.00  0.00     0.006 C 
ATOM     18  C   UNL     1      13.326  50.329   5.364  1.00  0.00     0.008 C 
ATOM     19  C   UNL     1      11.509  50.730   7.005  1.00  0.00     0.012 C 
ATOM     20  C   UNL     1      11.354  48.862   3.514  1.00  0.00    -0.025 C 
ATOM     21  C   UNL     1      13.719  49.803   3.976  1.00  0.00     0.005 C 
ATOM     22  C   UNL     1      12.518  49.786   2.999  1.00  0.00     0.003 C 
ATOM     23  C   UNL     1      10.089  49.085   2.590  1.00  0.00     0.010 C 
ATOM     24  C   UNL     1      11.736  47.351   3.448  1.00  0.00     0.012 C 
ATOM     25  C   UNL     1      12.923  49.621   1.466  1.00  0.00    -0.006 C 
ATOM     26  C   UNL     1      10.381  49.596   1.167  1.00  0.00     0.033 C 
ATOM     27  C   UNL     1      11.714  49.082   0.624  1.00  0.00     0.120 C 
ATOM     28  C   UNL     1      14.125  48.661   1.248  1.00  0.00     0.014 C 
ATOM     29  C   UNL     1      13.358  51.014   0.926  1.00  0.00     0.014 C 
ENDROOT
BRANCH   1  30
ATOM     30  C   UNL     1      12.646  44.676   5.784  1.00  0.00     0.048 C 
ATOM     31  O   UNL     1      11.462  44.614   5.344  1.00  0.00    -0.550 OA
ATOM     32  O   UNL     1      13.691  44.360   4.919  1.00  0.00    -0.550 OA
ENDBRANCH   1  30
BRANCH  27  33
ATOM     33  O   UNL     1      11.814  49.448  -0.731  1.00  0.00    -0.393 OA
ATOM     34  H   UNL     1      12.012  50.423  -0.762  1.00  0.00     0.210 HD
ENDBRANCH  27  33
TORSDOF 2
ENDMDL
MODEL 6
REMARK VINA RESULT:    -4.050      2.192      7.415
REMARK INTER + INTRA:          -4.700
REMARK INTER:                  -4.694
REMARK INTRA:                  -0.006
REMARK UNBOUND:                -0.295
REMARK SMILES C[C@@H]1[C@H]2C3=CC[C@@H]4[C@@]5(C)CC[C@@H](O)C(C)(C)[C@@H]5CC[C@]4(C)[C@]3(C)CC[C@@]2(C(=O)[O-])CC[C@@H]1C
REMARK SMILES IDX 26 1 30 2 25 3 3 4 31 5 24 6 4 7 2 8 32 9 22 10 5 11 1 12
REMARK SMILES IDX 33 13 23 14 20 15 6 16 7 17 19 18 21 19 8 20 18 21 17 22
REMARK SMILES IDX 10 23 9 24 14 25 11 26 12 27 15 28 16 29 27 30 28 31 29 32
REMARK SMILES IDX 13 33
REMARK H PARENT 13 34
REMARK Flexibility Score: inf
ROOT
ATOM      1  C   UNL     1      12.610  47.660   7.727  1.00  0.00     0.017 C 
ATOM      2  C   UNL     1      13.313  47.823   9.129  1.00  0.00     0.014 C 
ATOM      3  C   UNL     1      11.461  48.708   7.618  1.00  0.00     0.014 C 
ATOM      4  C   UNL     1      12.041  46.206   7.478  1.00  0.00     0.030 C 
ATOM      5  C   UNL     1      13.149  46.636  10.082  1.00  0.00     0.004 C 
ATOM      6  C   UNL     1      10.636  48.593   6.315  1.00  0.00     0.013 C 
ATOM      7  C   UNL     1      11.125  46.153   6.236  1.00  0.00    -0.063 C 
ATOM      8  C   UNL     1      11.410  45.435   8.700  1.00  0.00    -0.003 C 
ATOM      9  C   UNL     1      11.708  46.129  10.057  1.00  0.00    -0.011 C 
ATOM     10  C   UNL     1       9.989  47.199   6.054  1.00  0.00    -0.006 C 
ATOM     11  C   UNL     1      11.470  45.267   5.273  1.00  0.00    -0.027 C 
ATOM     12  C   UNL     1      11.839  43.948   8.668  1.00  0.00     0.008 C 
ATOM     13  C   UNL     1      11.408  45.257  11.288  1.00  0.00     0.008 C 
ATOM     14  C   UNL     1       8.921  47.023   7.187  1.00  0.00     0.017 C 
ATOM     15  C   UNL     1       9.254  47.086   4.592  1.00  0.00    -0.020 C 
ATOM     16  C   UNL     1      10.841  45.168   3.923  1.00  0.00     0.032 C 
ATOM     17  C   UNL     1      10.165  46.472   3.448  1.00  0.00     0.006 C 
ATOM     18  C   UNL     1       8.617  48.433   4.100  1.00  0.00     0.008 C 
ATOM     19  C   UNL     1       8.025  46.101   4.703  1.00  0.00     0.012 C 
ATOM     20  C   UNL     1      11.065  47.423   2.535  1.00  0.00    -0.025 C 
ATOM     21  C   UNL     1       9.535  49.365   3.293  1.00  0.00     0.005 C 
ATOM     22  C   UNL     1      10.179  48.643   2.085  1.00  0.00     0.003 C 
ATOM     23  C   UNL     1      11.489  46.608   1.245  1.00  0.00     0.010 C 
ATOM     24  C   UNL     1      12.367  47.883   3.260  1.00  0.00     0.012 C 
ATOM     25  C   UNL     1      10.824  49.621   1.004  1.00  0.00    -0.006 C 
ATOM     26  C   UNL     1      11.508  47.403  -0.072  1.00  0.00     0.033 C 
ATOM     27  C   UNL     1      11.890  48.868   0.134  1.00  0.00     0.120 C 
ATOM     28  C   UNL     1      11.512  50.864   1.634  1.00  0.00     0.014 C 
ATOM     29  C   UNL     1       9.683  50.155   0.091  1.00  0.00     0.014 C 
ENDROOT
BRANCH   1  30
ATOM     30  C   UNL     1      13.689  47.957   6.679  1.00  0.00     0.048 C 
ATOM     31  O   UNL     1      14.125  47.056   5.907  1.00  0.00    -0.550 OA
ATOM     32  O   UNL     1      14.124  49.266   6.481  1.00  0.00    -0.550 OA
ENDBRANCH   1  30
BRANCH  27  33
ATOM     33  O   UNL     1      12.055  49.467  -1.128  1.00  0.00    -0.393 OA
ATOM     34  H   UNL     1      12.838  50.079  -1.068  1.00  0.00     0.210 HD
ENDBRANCH  27  33
TORSDOF 2
ENDMDL
MODEL 7
REMARK VINA RESULT:    -3.857      4.957      7.812
REMARK INTER + INTRA:          -4.490
REMARK INTER:                  -4.254
REMARK INTRA:                  -0.235
REMARK UNBOUND:                -0.295
REMARK SMILES C[C@@H]1[C@H]2C3=CC[C@@H]4[C@@]5(C)CC[C@@H](O)C(C)(C)[C@@H]5CC[C@]4(C)[C@]3(C)CC[C@@]2(C(=O)[O-])CC[C@@H]1C
REMARK SMILES IDX 26 1 30 2 25 3 3 4 31 5 24 6 4 7 2 8 32 9 22 10 5 11 1 12
REMARK SMILES IDX 33 13 23 14 20 15 6 16 7 17 19 18 21 19 8 20 18 21 17 22
REMARK SMILES IDX 10 23 9 24 14 25 11 26 12 27 15 28 16 29 27 30 28 31 29 32
REMARK SMILES IDX 13 33
REMARK H PARENT 13 34
REMARK Flexibility Score: inf
ROOT
ATOM      1  C   UNL     1      12.366  44.309   8.802  1.00  0.00     0.017 C 
ATOM      2  C   UNL     1      13.422  44.978   7.842  1.00  0.00     0.014 C 
ATOM      3  C   UNL     1      10.948  44.464   8.173  1.00  0.00     0.014 C 
ATOM      4  C   UNL     1      12.378  44.913  10.264  1.00  0.00     0.030 C 
ATOM      5  C   UNL     1      14.124  46.215   8.407  1.00  0.00     0.004 C 
ATOM      6  C   UNL     1       9.809  43.919   9.066  1.00  0.00     0.013 C 
ATOM      7  C   UNL     1      11.162  44.442  11.089  1.00  0.00    -0.063 C 
ATOM      8  C   UNL     1      12.628  46.461  10.426  1.00  0.00    -0.003 C 
ATOM      9  C   UNL     1      13.118  47.124   9.109  1.00  0.00    -0.011 C 
ATOM     10  C   UNL     1       9.727  44.534  10.496  1.00  0.00    -0.006 C 
ATOM     11  C   UNL     1      11.435  43.816  12.257  1.00  0.00    -0.027 C 
ATOM     12  C   UNL     1      13.568  46.723  11.628  1.00  0.00     0.008 C 
ATOM     13  C   UNL     1      13.686  48.541   9.294  1.00  0.00     0.008 C 
ATOM     14  C   UNL     1       9.341  46.037  10.275  1.00  0.00     0.017 C 
ATOM     15  C   UNL     1       8.601  43.818  11.449  1.00  0.00    -0.020 C 
ATOM     16  C   UNL     1      10.434  43.126  13.125  1.00  0.00     0.032 C 
ATOM     17  C   UNL     1       9.168  42.661  12.374  1.00  0.00     0.006 C 
ATOM     18  C   UNL     1       7.344  43.303  10.664  1.00  0.00     0.008 C 
ATOM     19  C   UNL     1       8.013  44.886  12.452  1.00  0.00     0.012 C 
ATOM     20  C   UNL     1       9.189  41.150  11.858  1.00  0.00    -0.025 C 
ATOM     21  C   UNL     1       7.427  41.873  10.107  1.00  0.00     0.005 C 
ATOM     22  C   UNL     1       7.791  40.843  11.204  1.00  0.00     0.003 C 
ATOM     23  C   UNL     1       9.375  40.204  13.113  1.00  0.00     0.010 C 
ATOM     24  C   UNL     1      10.366  40.876  10.872  1.00  0.00     0.012 C 
ATOM     25  C   UNL     1       7.524  39.326  10.792  1.00  0.00    -0.006 C 
ATOM     26  C   UNL     1       8.569  38.893  13.088  1.00  0.00     0.033 C 
ATOM     27  C   UNL     1       8.380  38.350  11.672  1.00  0.00     0.120 C 
ATOM     28  C   UNL     1       7.840  39.029   9.300  1.00  0.00     0.014 C 
ATOM     29  C   UNL     1       6.010  39.027  10.998  1.00  0.00     0.014 C 
ENDROOT
BRANCH   1  30
ATOM     30  C   UNL     1      12.745  42.825   8.875  1.00  0.00     0.048 C 
ATOM     31  O   UNL     1      12.532  42.042   7.906  1.00  0.00    -0.550 OA
ATOM     32  O   UNL     1      13.444  42.339   9.978  1.00  0.00    -0.550 OA
ENDBRANCH   1  30
BRANCH  27  33
ATOM     33  O   UNL     1       7.795  37.073  11.759  1.00  0.00    -0.393 OA
ATOM     34  H   UNL     1       8.371  36.446  11.245  1.00  0.00     0.210 HD
ENDBRANCH  27  33
TORSDOF 2
ENDMDL
MODEL 8
REMARK VINA RESULT:    -3.517      2.002      3.808
REMARK INTER + INTRA:          -4.120
REMARK INTER:                  -3.822
REMARK INTRA:                  -0.298
REMARK UNBOUND:                -0.295
REMARK SMILES C[C@@H]1[C@H]2C3=CC[C@@H]4[C@@]5(C)CC[C@@H](O)C(C)(C)[C@@H]5CC[C@]4(C)[C@]3(C)CC[C@@]2(C(=O)[O-])CC[C@@H]1C
REMARK SMILES IDX 26 1 30 2 25 3 3 4 31 5 24 6 4 7 2 8 32 9 22 10 5 11 1 12
REMARK SMILES IDX 33 13 23 14 20 15 6 16 7 17 19 18 21 19 8 20 18 21 17 22
REMARK SMILES IDX 10 23 9 24 14 25 11 26 12 27 15 28 16 29 27 30 28 31 29 32
REMARK SMILES IDX 13 33
REMARK H PARENT 13 34
REMARK Flexibility Score: inf
ROOT
ATOM      1  C   UNL     1      12.750  48.964   5.073  1.00  0.00     0.017 C 
ATOM      2  C   UNL     1      13.026  50.223   4.163  1.00  0.00     0.014 C 
ATOM      3  C   UNL     1      14.116  48.379   5.545  1.00  0.00     0.014 C 
ATOM      4  C   UNL     1      11.902  47.843   4.349  1.00  0.00     0.030 C 
ATOM      5  C   UNL     1      12.617  50.067   2.696  1.00  0.00     0.004 C 
ATOM      6  C   UNL     1      13.982  47.085   6.380  1.00  0.00     0.013 C 
ATOM      7  C   UNL     1      11.889  46.525   5.153  1.00  0.00    -0.063 C 
ATOM      8  C   UNL     1      12.164  47.586   2.815  1.00  0.00    -0.003 C 
ATOM      9  C   UNL     1      13.037  48.697   2.169  1.00  0.00    -0.011 C 
ATOM     10  C   UNL     1      13.218  45.917   5.686  1.00  0.00    -0.006 C 
ATOM     11  C   UNL     1      10.672  46.040   5.491  1.00  0.00    -0.027 C 
ATOM     12  C   UNL     1      10.821  47.359   2.079  1.00  0.00     0.008 C 
ATOM     13  C   UNL     1      13.043  48.674   0.631  1.00  0.00     0.008 C 
ATOM     14  C   UNL     1      14.125  45.491   4.480  1.00  0.00     0.017 C 
ATOM     15  C   UNL     1      12.974  44.625   6.665  1.00  0.00    -0.020 C 
ATOM     16  C   UNL     1      10.422  44.889   6.408  1.00  0.00     0.032 C 
ATOM     17  C   UNL     1      11.571  44.621   7.405  1.00  0.00     0.006 C 
ATOM     18  C   UNL     1      14.125  44.397   7.708  1.00  0.00     0.008 C 
ATOM     19  C   UNL     1      12.979  43.306   5.798  1.00  0.00     0.012 C 
ATOM     20  C   UNL     1      11.412  45.301   8.840  1.00  0.00    -0.025 C 
ATOM     21  C   UNL     1      13.984  45.132   9.050  1.00  0.00     0.005 C 
ATOM     22  C   UNL     1      12.624  44.842   9.730  1.00  0.00     0.003 C 
ATOM     23  C   UNL     1      10.075  44.761   9.494  1.00  0.00     0.010 C 
ATOM     24  C   UNL     1      11.308  46.855   8.751  1.00  0.00     0.012 C 
ATOM     25  C   UNL     1      12.563  45.252  11.270  1.00  0.00    -0.006 C 
ATOM     26  C   UNL     1      10.134  44.487  11.008  1.00  0.00     0.033 C 
ATOM     27  C   UNL     1      11.077  45.442  11.738  1.00  0.00     0.120 C 
ATOM     28  C   UNL     1      13.337  46.560  11.590  1.00  0.00     0.014 C 
ATOM     29  C   UNL     1      13.233  44.119  12.101  1.00  0.00     0.014 C 
ENDROOT
BRANCH   1  30
ATOM     30  C   UNL     1      11.959  49.483   6.280  1.00  0.00     0.048 C 
ATOM     31  O   UNL     1      12.536  50.054   7.249  1.00  0.00    -0.550 OA
ATOM     32  O   UNL     1      10.567  49.438   6.271  1.00  0.00    -0.550 OA
ENDBRANCH   1  30
BRANCH  27  33
ATOM     33  O   UNL     1      10.934  45.238  13.123  1.00  0.00    -0.393 OA
ATOM     34  H   UNL     1      10.677  46.110  13.527  1.00  0.00     0.210 HD
ENDBRANCH  27  33
TORSDOF 2
ENDMDL
