MODEL 1
REMARK VINA RESULT:    -6.519      0.000      0.000
REMARK INTER + INTRA:          -7.926
REMARK INTER:                  -7.663
REMARK INTRA:                  -0.263
REMARK UNBOUND:                -0.263
REMARK SMILES O=c1cc(-c2ccc(O)c(O)c2)oc2cc(O)cc(O)c12
REMARK SMILES IDX 4 1 3 2 2 3 1 4 21 5 19 6 18 7 16 8 15 9 14 10 13 11 5 12
REMARK SMILES IDX 6 13 7 14 8 15 12 16 10 17 9 18 11 20 20 22 17 24
REMARK H PARENT 9 19 11 21 20 23 17 25
REMARK Flexibility Score: inf
ROOT
ATOM      1  C   UNL     1       7.925  -7.869  42.309  1.00  0.00     0.138 A 
ATOM      2  C   UNL     1       7.851  -8.460  43.578  1.00  0.00     0.100 A 
ATOM      3  C   UNL     1       7.415  -9.779  43.702  1.00  0.00     0.197 A 
ATOM      4  O   UNL     1       7.308 -10.262  44.858  1.00  0.00    -0.289 OA
ATOM      5  C   UNL     1       7.084 -10.523  42.543  1.00  0.00     0.107 A 
ATOM      6  C   UNL     1       6.659 -11.885  42.543  1.00  0.00     0.134 A 
ATOM      7  C   UNL     1       6.264 -12.485  41.341  1.00  0.00     0.093 A 
ATOM      8  C   UNL     1       6.333 -11.793  40.133  1.00  0.00     0.123 A 
ATOM      9  C   UNL     1       6.794 -10.476  40.113  1.00  0.00     0.094 A 
ATOM     10  C   UNL     1       7.162  -9.839  41.300  1.00  0.00     0.146 A 
ATOM     11  O   UNL     1       7.578  -8.577  41.240  1.00  0.00    -0.456 OA
ENDROOT
BRANCH   1  12
ATOM     12  C   UNL     1       8.386  -6.470  42.120  1.00  0.00     0.021 A 
ATOM     13  C   UNL     1       7.475  -5.498  41.668  1.00  0.00     0.016 A 
ATOM     14  C   UNL     1       7.881  -4.174  41.488  1.00  0.00     0.051 A 
ATOM     15  C   UNL     1       9.200  -3.795  41.766  1.00  0.00     0.157 A 
ATOM     16  C   UNL     1       9.708  -6.079  42.410  1.00  0.00     0.062 A 
ATOM     17  C   UNL     1      10.114  -4.749  42.231  1.00  0.00     0.158 A 
BRANCH  15  18
ATOM     18  O   UNL     1       9.609  -2.475  41.587  1.00  0.00    -0.504 OA
ATOM     19  H   UNL     1      10.545  -2.173  41.829  1.00  0.00     0.293 HD
ENDBRANCH  15  18
BRANCH  17  20
ATOM     20  O   UNL     1      11.423  -4.365  42.517  1.00  0.00    -0.504 OA
ATOM     21  H   UNL     1      12.104  -5.027  42.874  1.00  0.00     0.293 HD
ENDBRANCH  17  20
ENDBRANCH   1  12
BRANCH   6  22
ATOM     22  O   UNL     1       6.629 -12.696  43.682  1.00  0.00    -0.507 OA
ATOM     23  H   UNL     1       6.754 -13.696  43.685  1.00  0.00     0.293 HD
ENDBRANCH   6  22
BRANCH   8  24
ATOM     24  O   UNL     1       5.946 -12.427  38.954  1.00  0.00    -0.508 OA
ATOM     25  H   UNL     1       5.639 -11.901  38.144  1.00  0.00     0.293 HD
ENDBRANCH   8  24
TORSDOF 5
ENDMDL
MODEL 2
REMARK VINA RESULT:    -6.399      5.725      8.864
REMARK INTER + INTRA:          -7.785
REMARK INTER:                  -7.470
REMARK INTRA:                  -0.315
REMARK UNBOUND:                -0.263
REMARK SMILES O=c1cc(-c2ccc(O)c(O)c2)oc2cc(O)cc(O)c12
REMARK SMILES IDX 4 1 3 2 2 3 1 4 21 5 19 6 18 7 16 8 15 9 14 10 13 11 5 12
REMARK SMILES IDX 6 13 7 14 8 15 12 16 10 17 9 18 11 20 20 22 17 24
REMARK H PARENT 9 19 11 21 20 23 17 25
REMARK Flexibility Score: inf
ROOT
ATOM      1  C   UNL     1       7.526  -2.435  38.438  1.00  0.00     0.138 A 
ATOM      2  C   UNL     1       7.919  -3.739  38.767  1.00  0.00     0.100 A 
ATOM      3  C   UNL     1       8.498  -3.993  40.012  1.00  0.00     0.197 A 
ATOM      4  O   UNL     1       8.890  -5.163  40.256  1.00  0.00    -0.289 OA
ATOM      5  C   UNL     1       8.651  -2.939  40.945  1.00  0.00     0.107 A 
ATOM      6  C   UNL     1       9.197  -3.085  42.255  1.00  0.00     0.134 A 
ATOM      7  C   UNL     1       9.389  -1.949  43.052  1.00  0.00     0.093 A 
ATOM      8  C   UNL     1       9.004  -0.684  42.612  1.00  0.00     0.123 A 
ATOM      9  C   UNL     1       8.424  -0.536  41.352  1.00  0.00     0.094 A 
ATOM     10  C   UNL     1       8.251  -1.644  40.519  1.00  0.00     0.146 A 
ATOM     11  O   UNL     1       7.710  -1.457  39.318  1.00  0.00    -0.456 OA
ENDROOT
BRANCH   1  12
ATOM     12  C   UNL     1       6.902  -2.109  37.130  1.00  0.00     0.021 A 
ATOM     13  C   UNL     1       6.943  -3.055  36.091  1.00  0.00     0.016 A 
ATOM     14  C   UNL     1       6.358  -2.776  34.854  1.00  0.00     0.051 A 
ATOM     15  C   UNL     1       5.712  -1.554  34.636  1.00  0.00     0.157 A 
ATOM     16  C   UNL     1       6.239  -0.886  36.909  1.00  0.00     0.062 A 
ATOM     17  C   UNL     1       5.650  -0.608  35.667  1.00  0.00     0.158 A 
BRANCH  15  18
ATOM     18  O   UNL     1       5.129  -1.272  33.403  1.00  0.00    -0.504 OA
ATOM     19  H   UNL     1       4.125  -1.175  33.302  1.00  0.00     0.293 HD
ENDBRANCH  15  18
BRANCH  17  20
ATOM     20  O   UNL     1       4.997   0.604  35.451  1.00  0.00    -0.504 OA
ATOM     21  H   UNL     1       3.985   0.667  35.440  1.00  0.00     0.293 HD
ENDBRANCH  17  20
ENDBRANCH   1  12
BRANCH   6  22
ATOM     22  O   UNL     1       9.542  -4.312  42.828  1.00  0.00    -0.507 OA
ATOM     23  H   UNL     1      10.168  -4.432  43.609  1.00  0.00     0.293 HD
ENDBRANCH   6  22
BRANCH   8  24
ATOM     24  O   UNL     1       9.197   0.420  43.439  1.00  0.00    -0.508 OA
ATOM     25  H   UNL     1       9.771   1.204  43.151  1.00  0.00     0.293 HD
ENDBRANCH   8  24
TORSDOF 5
ENDMDL
MODEL 3
REMARK VINA RESULT:    -6.290      4.115      7.261
REMARK INTER + INTRA:          -7.656
REMARK INTER:                  -7.391
REMARK INTRA:                  -0.266
REMARK UNBOUND:                -0.263
REMARK SMILES O=c1cc(-c2ccc(O)c(O)c2)oc2cc(O)cc(O)c12
REMARK SMILES IDX 4 1 3 2 2 3 1 4 21 5 19 6 18 7 16 8 15 9 14 10 13 11 5 12
REMARK SMILES IDX 6 13 7 14 8 15 12 16 10 17 9 18 11 20 20 22 17 24
REMARK H PARENT 9 19 11 21 20 23 17 25
REMARK Flexibility Score: inf
ROOT
ATOM      1  C   UNL     1       8.159  -3.156  38.832  1.00  0.00     0.138 A 
ATOM      2  C   UNL     1       9.331  -2.522  39.265  1.00  0.00     0.100 A 
ATOM      3  C   UNL     1      10.014  -3.017  40.376  1.00  0.00     0.197 A 
ATOM      4  O   UNL     1      11.032  -2.394  40.773  1.00  0.00    -0.289 OA
ATOM      5  C   UNL     1       9.539  -4.178  41.035  1.00  0.00     0.107 A 
ATOM      6  C   UNL     1      10.172  -4.793  42.157  1.00  0.00     0.134 A 
ATOM      7  C   UNL     1       9.553  -5.881  42.786  1.00  0.00     0.093 A 
ATOM      8  C   UNL     1       8.359  -6.411  42.301  1.00  0.00     0.123 A 
ATOM      9  C   UNL     1       7.757  -5.849  41.175  1.00  0.00     0.094 A 
ATOM     10  C   UNL     1       8.331  -4.741  40.546  1.00  0.00     0.146 A 
ATOM     11  O   UNL     1       7.716  -4.224  39.487  1.00  0.00    -0.456 OA
ENDROOT
BRANCH   1  12
ATOM     12  C   UNL     1       7.394  -2.674  37.654  1.00  0.00     0.021 A 
ATOM     13  C   UNL     1       7.338  -3.466  36.495  1.00  0.00     0.016 A 
ATOM     14  C   UNL     1       6.620  -3.039  35.376  1.00  0.00     0.051 A 
ATOM     15  C   UNL     1       5.935  -1.818  35.399  1.00  0.00     0.157 A 
ATOM     16  C   UNL     1       6.692  -1.452  37.676  1.00  0.00     0.062 A 
ATOM     17  C   UNL     1       5.969  -1.025  36.553  1.00  0.00     0.158 A 
BRANCH  15  18
ATOM     18  O   UNL     1       5.219  -1.388  34.285  1.00  0.00    -0.504 OA
ATOM     19  H   UNL     1       5.157  -0.406  34.041  1.00  0.00     0.293 HD
ENDBRANCH  15  18
BRANCH  17  20
ATOM     20  O   UNL     1       5.278   0.185  36.576  1.00  0.00    -0.504 OA
ATOM     21  H   UNL     1       4.613   0.402  37.311  1.00  0.00     0.293 HD
ENDBRANCH  17  20
ENDBRANCH   1  12
BRANCH   6  22
ATOM     22  O   UNL     1      11.407  -4.395  42.676  1.00  0.00    -0.507 OA
ATOM     23  H   UNL     1      11.687  -4.481  43.640  1.00  0.00     0.293 HD
ENDBRANCH   6  22
BRANCH   8  24
ATOM     24  O   UNL     1       7.781  -7.504  42.943  1.00  0.00    -0.508 OA
ATOM     25  H   UNL     1       7.300  -8.230  42.426  1.00  0.00     0.293 HD
ENDBRANCH   8  24
TORSDOF 5
ENDMDL
MODEL 4
REMARK VINA RESULT:    -6.268      2.030      7.260
REMARK INTER + INTRA:          -7.631
REMARK INTER:                  -7.334
REMARK INTRA:                  -0.297
REMARK UNBOUND:                -0.263
REMARK SMILES O=c1cc(-c2ccc(O)c(O)c2)oc2cc(O)cc(O)c12
REMARK SMILES IDX 4 1 3 2 2 3 1 4 21 5 19 6 18 7 16 8 15 9 14 10 13 11 5 12
REMARK SMILES IDX 6 13 7 14 8 15 12 16 10 17 9 18 11 20 20 22 17 24
REMARK H PARENT 9 19 11 21 20 23 17 25
REMARK Flexibility Score: inf
ROOT
ATOM      1  C   UNL     1       7.248 -11.204  41.670  1.00  0.00     0.138 A 
ATOM      2  C   UNL     1       6.874 -11.140  43.019  1.00  0.00     0.100 A 
ATOM      3  C   UNL     1       7.212 -10.018  43.777  1.00  0.00     0.197 A 
ATOM      4  O   UNL     1       6.910 -10.015  44.998  1.00  0.00    -0.289 OA
ATOM      5  C   UNL     1       7.899  -8.939  43.171  1.00  0.00     0.107 A 
ATOM      6  C   UNL     1       8.267  -7.731  43.836  1.00  0.00     0.134 A 
ATOM      7  C   UNL     1       9.032  -6.775  43.156  1.00  0.00     0.093 A 
ATOM      8  C   UNL     1       9.393  -6.955  41.822  1.00  0.00     0.123 A 
ATOM      9  C   UNL     1       8.997  -8.110  41.147  1.00  0.00     0.094 A 
ATOM     10  C   UNL     1       8.263  -9.098  41.807  1.00  0.00     0.146 A 
ATOM     11  O   UNL     1       7.920 -10.192  41.132  1.00  0.00    -0.456 OA
ENDROOT
BRANCH   1  12
ATOM     12  C   UNL     1       6.912 -12.371  40.816  1.00  0.00     0.021 A 
ATOM     13  C   UNL     1       7.388 -12.419  39.493  1.00  0.00     0.016 A 
ATOM     14  C   UNL     1       7.091 -13.508  38.671  1.00  0.00     0.051 A 
ATOM     15  C   UNL     1       6.325 -14.573  39.158  1.00  0.00     0.157 A 
ATOM     16  C   UNL     1       6.152 -13.452  41.303  1.00  0.00     0.062 A 
ATOM     17  C   UNL     1       5.857 -14.546  40.478  1.00  0.00     0.158 A 
BRANCH  15  18
ATOM     18  O   UNL     1       6.026 -15.661  38.341  1.00  0.00    -0.504 OA
ATOM     19  H   UNL     1       6.713 -16.050  37.704  1.00  0.00     0.293 HD
ENDBRANCH  15  18
BRANCH  17  20
ATOM     20  O   UNL     1       5.103 -15.614  40.963  1.00  0.00    -0.504 OA
ATOM     21  H   UNL     1       4.202 -15.469  41.405  1.00  0.00     0.293 HD
ENDBRANCH  17  20
ENDBRANCH   1  12
BRANCH   6  22
ATOM     22  O   UNL     1       7.890  -7.411  45.144  1.00  0.00    -0.507 OA
ATOM     23  H   UNL     1       7.893  -8.052  45.922  1.00  0.00     0.293 HD
ENDBRANCH   6  22
BRANCH   8  24
ATOM     24  O   UNL     1      10.141  -5.975  41.174  1.00  0.00    -0.508 OA
ATOM     25  H   UNL     1      10.206  -5.031  41.536  1.00  0.00     0.293 HD
ENDBRANCH   8  24
TORSDOF 5
ENDMDL
MODEL 5
REMARK VINA RESULT:    -6.251      1.773      7.370
REMARK INTER + INTRA:          -7.611
REMARK INTER:                  -7.306
REMARK INTRA:                  -0.305
REMARK UNBOUND:                -0.263
REMARK SMILES O=c1cc(-c2ccc(O)c(O)c2)oc2cc(O)cc(O)c12
REMARK SMILES IDX 4 1 3 2 2 3 1 4 21 5 19 6 18 7 16 8 15 9 14 10 13 11 5 12
REMARK SMILES IDX 6 13 7 14 8 15 12 16 10 17 9 18 11 20 20 22 17 24
REMARK H PARENT 9 19 11 21 20 23 17 25
REMARK Flexibility Score: inf
ROOT
ATOM      1  C   UNL     1       8.583  -6.227  41.888  1.00  0.00     0.138 A 
ATOM      2  C   UNL     1       9.741  -5.701  42.476  1.00  0.00     0.100 A 
ATOM      3  C   UNL     1      10.178  -4.424  42.120  1.00  0.00     0.197 A 
ATOM      4  O   UNL     1      11.250  -4.003  42.624  1.00  0.00    -0.289 OA
ATOM      5  C   UNL     1       9.429  -3.656  41.195  1.00  0.00     0.107 A 
ATOM      6  C   UNL     1       9.760  -2.331  40.782  1.00  0.00     0.134 A 
ATOM      7  C   UNL     1       8.997  -1.709  39.786  1.00  0.00     0.093 A 
ATOM      8  C   UNL     1       7.885  -2.338  39.230  1.00  0.00     0.123 A 
ATOM      9  C   UNL     1       7.523  -3.615  39.661  1.00  0.00     0.094 A 
ATOM     10  C   UNL     1       8.284  -4.276  40.628  1.00  0.00     0.146 A 
ATOM     11  O   UNL     1       7.916  -5.499  40.999  1.00  0.00    -0.456 OA
ENDROOT
BRANCH   1  12
ATOM     12  C   UNL     1       8.071  -7.577  42.232  1.00  0.00     0.021 A 
ATOM     13  C   UNL     1       8.266  -8.080  43.531  1.00  0.00     0.016 A 
ATOM     14  C   UNL     1       7.789  -9.344  43.882  1.00  0.00     0.051 A 
ATOM     15  C   UNL     1       7.097 -10.124  42.947  1.00  0.00     0.157 A 
ATOM     16  C   UNL     1       7.363  -8.362  41.300  1.00  0.00     0.062 A 
ATOM     17  C   UNL     1       6.882  -9.630  41.655  1.00  0.00     0.158 A 
BRANCH  15  18
ATOM     18  O   UNL     1       6.620 -11.386  43.294  1.00  0.00    -0.504 OA
ATOM     19  H   UNL     1       6.720 -11.750  44.235  1.00  0.00     0.293 HD
ENDBRANCH  15  18
BRANCH  17  20
ATOM     20  O   UNL     1       6.184 -10.405  40.730  1.00  0.00    -0.504 OA
ATOM     21  H   UNL     1       5.609  -9.981  40.009  1.00  0.00     0.293 HD
ENDBRANCH  17  20
ENDBRANCH   1  12
BRANCH   6  22
ATOM     22  O   UNL     1      10.802  -1.576  41.329  1.00  0.00    -0.507 OA
ATOM     23  H   UNL     1      11.573  -1.951  41.860  1.00  0.00     0.293 HD
ENDBRANCH   6  22
BRANCH   8  24
ATOM     24  O   UNL     1       7.141  -1.682  38.252  1.00  0.00    -0.508 OA
ATOM     25  H   UNL     1       6.975  -2.099  37.343  1.00  0.00     0.293 HD
ENDBRANCH   8  24
TORSDOF 5
ENDMDL
MODEL 6
REMARK VINA RESULT:    -6.247      5.801     10.066
REMARK INTER + INTRA:          -7.606
REMARK INTER:                  -7.338
REMARK INTRA:                  -0.268
REMARK UNBOUND:                -0.263
REMARK SMILES O=c1cc(-c2ccc(O)c(O)c2)oc2cc(O)cc(O)c12
REMARK SMILES IDX 4 1 3 2 2 3 1 4 21 5 19 6 18 7 16 8 15 9 14 10 13 11 5 12
REMARK SMILES IDX 6 13 7 14 8 15 12 16 10 17 9 18 11 20 20 22 17 24
REMARK H PARENT 9 19 11 21 20 23 17 25
REMARK Flexibility Score: inf
ROOT
ATOM      1  C   UNL     1      10.012  -1.143  42.842  1.00  0.00     0.138 A 
ATOM      2  C   UNL     1      11.374  -0.880  42.636  1.00  0.00     0.100 A 
ATOM      3  C   UNL     1      12.132  -0.324  43.667  1.00  0.00     0.197 A 
ATOM      4  O   UNL     1      13.337  -0.048  43.433  1.00  0.00    -0.289 OA
ATOM      5  C   UNL     1      11.531  -0.062  44.922  1.00  0.00     0.107 A 
ATOM      6  C   UNL     1      12.214   0.473  46.056  1.00  0.00     0.134 A 
ATOM      7  C   UNL     1      11.490   0.781  47.214  1.00  0.00     0.093 A 
ATOM      8  C   UNL     1      10.123   0.521  47.302  1.00  0.00     0.123 A 
ATOM      9  C   UNL     1       9.455  -0.048  46.217  1.00  0.00     0.094 A 
ATOM     10  C   UNL     1      10.142  -0.334  45.035  1.00  0.00     0.146 A 
ATOM     11  O   UNL     1       9.464  -0.859  44.018  1.00  0.00    -0.456 OA
ENDROOT
BRANCH   1  12
ATOM     12  C   UNL     1       9.158  -1.737  41.782  1.00  0.00     0.021 A 
ATOM     13  C   UNL     1       8.721  -0.933  40.716  1.00  0.00     0.016 A 
ATOM     14  C   UNL     1       7.923  -1.468  39.703  1.00  0.00     0.051 A 
ATOM     15  C   UNL     1       7.558  -2.820  39.730  1.00  0.00     0.157 A 
ATOM     16  C   UNL     1       8.798  -3.099  41.797  1.00  0.00     0.062 A 
ATOM     17  C   UNL     1       7.999  -3.637  40.778  1.00  0.00     0.158 A 
BRANCH  15  18
ATOM     18  O   UNL     1       6.761  -3.358  38.722  1.00  0.00    -0.504 OA
ATOM     19  H   UNL     1       7.159  -3.905  37.967  1.00  0.00     0.293 HD
ENDBRANCH  15  18
BRANCH  17  20
ATOM     20  O   UNL     1       7.642  -4.984  40.797  1.00  0.00    -0.504 OA
ATOM     21  H   UNL     1       8.280  -5.697  41.134  1.00  0.00     0.293 HD
ENDBRANCH  17  20
ENDBRANCH   1  12
BRANCH   6  22
ATOM     22  O   UNL     1      13.593   0.697  46.107  1.00  0.00    -0.507 OA
ATOM     23  H   UNL     1      14.090   1.078  46.897  1.00  0.00     0.293 HD
ENDBRANCH   6  22
BRANCH   8  24
ATOM     24  O   UNL     1       9.439   0.826  48.476  1.00  0.00    -0.508 OA
ATOM     25  H   UNL     1       8.812   0.160  48.913  1.00  0.00     0.293 HD
ENDBRANCH   8  24
TORSDOF 5
ENDMDL
MODEL 7
REMARK VINA RESULT:    -6.098      1.804      7.743
REMARK INTER + INTRA:          -7.431
REMARK INTER:                  -7.163
REMARK INTRA:                  -0.267
REMARK UNBOUND:                -0.263
REMARK SMILES O=c1cc(-c2ccc(O)c(O)c2)oc2cc(O)cc(O)c12
REMARK SMILES IDX 4 1 3 2 2 3 1 4 21 5 19 6 18 7 16 8 15 9 14 10 13 11 5 12
REMARK SMILES IDX 6 13 7 14 8 15 12 16 10 17 9 18 11 20 20 22 17 24
REMARK H PARENT 9 19 11 21 20 23 17 25
REMARK Flexibility Score: inf
ROOT
ATOM      1  C   UNL     1       8.947  -6.482  41.872  1.00  0.00     0.138 A 
ATOM      2  C   UNL     1       9.890  -6.441  40.835  1.00  0.00     0.100 A 
ATOM      3  C   UNL     1      10.489  -5.228  40.494  1.00  0.00     0.197 A 
ATOM      4  O   UNL     1      11.288  -5.214  39.524  1.00  0.00    -0.289 OA
ATOM      5  C   UNL     1      10.167  -4.055  41.220  1.00  0.00     0.107 A 
ATOM      6  C   UNL     1      10.738  -2.769  40.984  1.00  0.00     0.134 A 
ATOM      7  C   UNL     1      10.268  -1.663  41.702  1.00  0.00     0.093 A 
ATOM      8  C   UNL     1       9.290  -1.804  42.686  1.00  0.00     0.123 A 
ATOM      9  C   UNL     1       8.760  -3.064  42.960  1.00  0.00     0.094 A 
ATOM     10  C   UNL     1       9.183  -4.182  42.237  1.00  0.00     0.146 A 
ATOM     11  O   UNL     1       8.639  -5.362  42.517  1.00  0.00    -0.456 OA
ENDROOT
BRANCH   1  12
ATOM     12  C   UNL     1       8.282  -7.746  42.279  1.00  0.00     0.021 A 
ATOM     13  C   UNL     1       8.422  -8.206  43.601  1.00  0.00     0.016 A 
ATOM     14  C   UNL     1       7.802  -9.387  44.011  1.00  0.00     0.051 A 
ATOM     15  C   UNL     1       7.021 -10.125  43.113  1.00  0.00     0.157 A 
ATOM     16  C   UNL     1       7.485  -8.486  41.384  1.00  0.00     0.062 A 
ATOM     17  C   UNL     1       6.860  -9.672  41.798  1.00  0.00     0.158 A 
BRANCH  15  18
ATOM     18  O   UNL     1       6.401 -11.305  43.518  1.00  0.00    -0.504 OA
ATOM     19  H   UNL     1       6.770 -12.213  43.260  1.00  0.00     0.293 HD
ENDBRANCH  15  18
BRANCH  17  20
ATOM     20  O   UNL     1       6.074 -10.402  40.909  1.00  0.00    -0.504 OA
ATOM     21  H   UNL     1       6.265 -10.410  39.913  1.00  0.00     0.293 HD
ENDBRANCH  17  20
ENDBRANCH   1  12
BRANCH   6  22
ATOM     22  O   UNL     1      11.778  -2.527  40.081  1.00  0.00    -0.507 OA
ATOM     23  H   UNL     1      12.732  -2.831  40.199  1.00  0.00     0.293 HD
ENDBRANCH   6  22
BRANCH   8  24
ATOM     24  O   UNL     1       8.858  -0.683  43.391  1.00  0.00    -0.508 OA
ATOM     25  H   UNL     1       8.938   0.251  43.004  1.00  0.00     0.293 HD
ENDBRANCH   8  24
TORSDOF 5
ENDMDL
MODEL 8
REMARK VINA RESULT:    -6.073      1.807      7.248
REMARK INTER + INTRA:          -7.401
REMARK INTER:                  -7.127
REMARK INTRA:                  -0.274
REMARK UNBOUND:                -0.263
REMARK SMILES O=c1cc(-c2ccc(O)c(O)c2)oc2cc(O)cc(O)c12
REMARK SMILES IDX 4 1 3 2 2 3 1 4 21 5 19 6 18 7 16 8 15 9 14 10 13 11 5 12
REMARK SMILES IDX 6 13 7 14 8 15 12 16 10 17 9 18 11 20 20 22 17 24
REMARK H PARENT 9 19 11 21 20 23 17 25
REMARK Flexibility Score: inf
ROOT
ATOM      1  C   UNL     1       8.367  -6.367  42.034  1.00  0.00     0.138 A 
ATOM      2  C   UNL     1       7.869  -5.275  42.758  1.00  0.00     0.100 A 
ATOM      3  C   UNL     1       8.315  -3.987  42.461  1.00  0.00     0.197 A 
ATOM      4  O   UNL     1       7.890  -3.035  43.164  1.00  0.00    -0.289 OA
ATOM      5  C   UNL     1       9.240  -3.788  41.407  1.00  0.00     0.107 A 
ATOM      6  C   UNL     1       9.740  -2.518  40.992  1.00  0.00     0.134 A 
ATOM      7  C   UNL     1      10.728  -2.456  40.001  1.00  0.00     0.093 A 
ATOM      8  C   UNL     1      11.192  -3.609  39.371  1.00  0.00     0.123 A 
ATOM      9  C   UNL     1      10.674  -4.853  39.734  1.00  0.00     0.094 A 
ATOM     10  C   UNL     1       9.713  -4.951  40.743  1.00  0.00     0.146 A 
ATOM     11  O   UNL     1       9.259  -6.157  41.072  1.00  0.00    -0.456 OA
ENDROOT
BRANCH   1  12
ATOM     12  C   UNL     1       7.925  -7.758  42.306  1.00  0.00     0.021 A 
ATOM     13  C   UNL     1       7.492  -8.566  41.240  1.00  0.00     0.016 A 
ATOM     14  C   UNL     1       7.077  -9.880  41.468  1.00  0.00     0.051 A 
ATOM     15  C   UNL     1       7.098 -10.414  42.762  1.00  0.00     0.157 A 
ATOM     16  C   UNL     1       7.956  -8.306  43.604  1.00  0.00     0.062 A 
ATOM     17  C   UNL     1       7.541  -9.626  43.831  1.00  0.00     0.158 A 
BRANCH  15  18
ATOM     18  O   UNL     1       6.684 -11.724  42.993  1.00  0.00    -0.504 OA
ATOM     19  H   UNL     1       6.499 -12.063  43.930  1.00  0.00     0.293 HD
ENDBRANCH  15  18
BRANCH  17  20
ATOM     20  O   UNL     1       7.571 -10.164  45.116  1.00  0.00    -0.504 OA
ATOM     21  H   UNL     1       8.366 -10.700  45.449  1.00  0.00     0.293 HD
ENDBRANCH  17  20
ENDBRANCH   1  12
BRANCH   6  22
ATOM     22  O   UNL     1       9.289  -1.295  41.497  1.00  0.00    -0.507 OA
ATOM     23  H   UNL     1       8.652  -0.672  41.025  1.00  0.00     0.293 HD
ENDBRANCH   6  22
BRANCH   8  24
ATOM     24  O   UNL     1      12.164  -3.507  38.379  1.00  0.00    -0.508 OA
ATOM     25  H   UNL     1      12.714  -4.309  38.090  1.00  0.00     0.293 HD
ENDBRANCH   8  24
TORSDOF 5
ENDMDL
MODEL 9
REMARK VINA RESULT:    -6.020      1.612      7.259
REMARK INTER + INTRA:          -7.339
REMARK INTER:                  -7.074
REMARK INTRA:                  -0.265
REMARK UNBOUND:                -0.263
REMARK SMILES O=c1cc(-c2ccc(O)c(O)c2)oc2cc(O)cc(O)c12
REMARK SMILES IDX 4 1 3 2 2 3 1 4 21 5 19 6 18 7 16 8 15 9 14 10 13 11 5 12
REMARK SMILES IDX 6 13 7 14 8 15 12 16 10 17 9 18 11 20 20 22 17 24
REMARK H PARENT 9 19 11 21 20 23 17 25
REMARK Flexibility Score: inf
ROOT
ATOM      1  C   UNL     1       8.180  -8.327  41.975  1.00  0.00     0.138 A 
ATOM      2  C   UNL     1       9.333  -8.452  41.188  1.00  0.00     0.100 A 
ATOM      3  C   UNL     1      10.109  -7.325  40.916  1.00  0.00     0.197 A 
ATOM      4  O   UNL     1      11.106  -7.460  40.162  1.00  0.00    -0.289 OA
ATOM      5  C   UNL     1       9.747  -6.071  41.466  1.00  0.00     0.107 A 
ATOM      6  C   UNL     1      10.481  -4.861  41.285  1.00  0.00     0.134 A 
ATOM      7  C   UNL     1       9.970  -3.661  41.797  1.00  0.00     0.093 A 
ATOM      8  C   UNL     1       8.785  -3.637  42.531  1.00  0.00     0.123 A 
ATOM      9  C   UNL     1       8.085  -4.822  42.757  1.00  0.00     0.094 A 
ATOM     10  C   UNL     1       8.550  -6.029  42.230  1.00  0.00     0.146 A 
ATOM     11  O   UNL     1       7.844  -7.133  42.453  1.00  0.00    -0.456 OA
ENDROOT
BRANCH   1  12
ATOM     12  C   UNL     1       7.319  -9.493  42.298  1.00  0.00     0.021 A 
ATOM     13  C   UNL     1       7.258  -9.960  43.623  1.00  0.00     0.016 A 
ATOM     14  C   UNL     1       6.451 -11.051  43.955  1.00  0.00     0.051 A 
ATOM     15  C   UNL     1       5.682 -11.685  42.973  1.00  0.00     0.157 A 
ATOM     16  C   UNL     1       6.531 -10.128  41.318  1.00  0.00     0.062 A 
ATOM     17  C   UNL     1       5.720 -11.221  41.653  1.00  0.00     0.158 A 
BRANCH  15  18
ATOM     18  O   UNL     1       4.876 -12.774  43.300  1.00  0.00    -0.504 OA
ATOM     19  H   UNL     1       3.971 -12.651  43.739  1.00  0.00     0.293 HD
ENDBRANCH  15  18
BRANCH  17  20
ATOM     20  O   UNL     1       4.944 -11.849  40.680  1.00  0.00    -0.504 OA
ATOM     21  H   UNL     1       4.311 -12.607  40.913  1.00  0.00     0.293 HD
ENDBRANCH  17  20
ENDBRANCH   1  12
BRANCH   6  22
ATOM     22  O   UNL     1      11.717  -4.783  40.637  1.00  0.00    -0.507 OA
ATOM     23  H   UNL     1      12.109  -5.500  40.047  1.00  0.00     0.293 HD
ENDBRANCH   6  22
BRANCH   8  24
ATOM     24  O   UNL     1       8.316  -2.427  43.039  1.00  0.00    -0.508 OA
ATOM     25  H   UNL     1       8.948  -1.672  43.278  1.00  0.00     0.293 HD
ENDBRANCH   8  24
TORSDOF 5
ENDMDL
