MODEL 1
REMARK VINA RESULT:    -4.388      0.000      0.000
REMARK INTER + INTRA:          -9.376
REMARK INTER:                  -7.980
REMARK INTRA:                  -1.396
REMARK UNBOUND:                -1.396
REMARK SMILES CCCCCCCCCCCCCCCC(=O)[O-]
REMARK SMILES IDX 9 1 10 2 11 3 12 4 13 5 14 6 15 7 16 8 17 9 18 10 8 11 7 12
REMARK SMILES IDX 6 13 5 14 4 15 3 16 2 17 1 18
REMARK H PARENT
REMARK Flexibility Score: inf
ROOT
ATOM      1  C   UNL     1      17.071   1.724  -4.800  1.00  0.00     0.000 C 
ENDROOT
BRANCH   1   2
ATOM      2  C   UNL     1      17.039   3.002  -3.942  1.00  0.00     0.000 C 
BRANCH   2   3
ATOM      3  C   UNL     1      18.437   3.602  -3.711  1.00  0.00     0.000 C 
BRANCH   3   4
ATOM      4  C   UNL     1      18.881   3.528  -2.241  1.00  0.00     0.000 C 
BRANCH   4   5
ATOM      5  C   UNL     1      18.422   4.705  -1.357  1.00  0.00     0.000 C 
BRANCH   5   6
ATOM      6  C   UNL     1      17.722   4.269  -0.052  1.00  0.00     0.006 C 
BRANCH   6   7
ATOM      7  C   UNL     1      16.998   2.924  -0.202  1.00  0.00     0.053 C 
BRANCH   7   8
ATOM      8  C   UNL     1      15.954   2.770   0.859  1.00  0.00     0.041 C 
ATOM      9  O   UNL     1      14.733   2.842   0.560  1.00  0.00    -0.550 OA
ATOM     10  O   UNL     1      16.330   2.597   2.184  1.00  0.00    -0.550 OA
ENDBRANCH   7   8
ENDBRANCH   6   7
ENDBRANCH   5   6
ENDBRANCH   4   5
ENDBRANCH   3   4
ENDBRANCH   2   3
ENDBRANCH   1   2
BRANCH   1  11
ATOM     11  C   UNL     1      16.740   1.922  -6.289  1.00  0.00     0.000 C 
BRANCH  11  12
ATOM     12  C   UNL     1      17.936   2.444  -7.105  1.00  0.00    -0.000 C 
BRANCH  12  13
ATOM     13  C   UNL     1      17.536   2.888  -8.521  1.00  0.00    -0.000 C 
BRANCH  13  14
ATOM     14  C   UNL     1      17.580   4.413  -8.701  1.00  0.00    -0.000 C 
BRANCH  14  15
ATOM     15  C   UNL     1      17.662   5.122  -7.341  1.00  0.00    -0.000 C 
BRANCH  15  16
ATOM     16  C   UNL     1      16.432   5.998  -7.053  1.00  0.00    -0.000 C 
BRANCH  16  17
ATOM     17  C   UNL     1      15.251   5.193  -6.490  1.00  0.00    -0.003 C 
ATOM     18  C   UNL     1      13.933   5.929  -6.709  1.00  0.00     0.004 C 
ENDBRANCH  16  17
ENDBRANCH  15  16
ENDBRANCH  14  15
ENDBRANCH  13  14
ENDBRANCH  12  13
ENDBRANCH  11  12
ENDBRANCH   1  11
TORSDOF 14
ENDMDL
MODEL 2
REMARK VINA RESULT:    -4.357      9.194     11.499
REMARK INTER + INTRA:          -9.319
REMARK INTER:                  -6.769
REMARK INTRA:                  -2.550
REMARK UNBOUND:                -1.396
REMARK SMILES CCCCCCCCCCCCCCCC(=O)[O-]
REMARK SMILES IDX 9 1 10 2 11 3 12 4 13 5 14 6 15 7 16 8 17 9 18 10 8 11 7 12
REMARK SMILES IDX 6 13 5 14 4 15 3 16 2 17 1 18
REMARK H PARENT
REMARK Flexibility Score: inf
ROOT
ATOM      1  C   UNL     1      15.588  13.058 -10.042  1.00  0.00     0.000 C 
ENDROOT
BRANCH   1   2
ATOM      2  C   UNL     1      15.397  12.506  -8.617  1.00  0.00     0.000 C 
BRANCH   2   3
ATOM      3  C   UNL     1      15.009  13.594  -7.601  1.00  0.00     0.000 C 
BRANCH   3   4
ATOM      4  C   UNL     1      16.046  13.758  -6.478  1.00  0.00     0.000 C 
BRANCH   4   5
ATOM      5  C   UNL     1      16.209  15.193  -5.941  1.00  0.00     0.000 C 
BRANCH   5   6
ATOM      6  C   UNL     1      17.605  15.484  -5.351  1.00  0.00     0.006 C 
BRANCH   6   7
ATOM      7  C   UNL     1      17.961  14.530  -4.202  1.00  0.00     0.053 C 
BRANCH   7   8
ATOM      8  C   UNL     1      19.403  14.673  -3.831  1.00  0.00     0.041 C 
ATOM      9  O   UNL     1      19.981  15.786  -3.950  1.00  0.00    -0.550 OA
ATOM     10  O   UNL     1      20.123  13.566  -3.400  1.00  0.00    -0.550 OA
ENDBRANCH   7   8
ENDBRANCH   6   7
ENDBRANCH   5   6
ENDBRANCH   4   5
ENDBRANCH   3   4
ENDBRANCH   2   3
ENDBRANCH   1   2
BRANCH   1  11
ATOM     11  C   UNL     1      16.200  14.468 -10.125  1.00  0.00     0.000 C 
BRANCH  11  12
ATOM     12  C   UNL     1      17.732  14.466  -9.974  1.00  0.00    -0.000 C 
BRANCH  12  13
ATOM     13  C   UNL     1      18.227  15.517  -8.968  1.00  0.00    -0.000 C 
BRANCH  13  14
ATOM     14  C   UNL     1      19.616  15.190  -8.400  1.00  0.00    -0.000 C 
BRANCH  14  15
ATOM     15  C   UNL     1      19.921  13.690  -8.531  1.00  0.00    -0.000 C 
BRANCH  15  16
ATOM     16  C   UNL     1      19.818  12.945  -7.191  1.00  0.00    -0.000 C 
BRANCH  16  17
ATOM     17  C   UNL     1      18.917  11.703  -7.273  1.00  0.00    -0.003 C 
ATOM     18  C   UNL     1      18.414  11.298  -5.891  1.00  0.00     0.004 C 
ENDBRANCH  16  17
ENDBRANCH  15  16
ENDBRANCH  14  15
ENDBRANCH  13  14
ENDBRANCH  12  13
ENDBRANCH  11  12
ENDBRANCH   1  11
TORSDOF 14
ENDMDL
MODEL 3
REMARK VINA RESULT:    -4.284      3.311      7.767
REMARK INTER + INTRA:          -9.185
REMARK INTER:                  -7.224
REMARK INTRA:                  -1.961
REMARK UNBOUND:                -1.396
REMARK SMILES CCCCCCCCCCCCCCCC(=O)[O-]
REMARK SMILES IDX 9 1 10 2 11 3 12 4 13 5 14 6 15 7 16 8 17 9 18 10 8 11 7 12
REMARK SMILES IDX 6 13 5 14 4 15 3 16 2 17 1 18
REMARK H PARENT
REMARK Flexibility Score: inf
ROOT
ATOM      1  C   UNL     1      18.254   5.718  -0.203  1.00  0.00     0.000 C 
ENDROOT
BRANCH   1   2
ATOM      2  C   UNL     1      19.571   5.020  -0.590  1.00  0.00     0.000 C 
BRANCH   2   3
ATOM      3  C   UNL     1      19.434   4.136  -1.842  1.00  0.00     0.000 C 
BRANCH   3   4
ATOM      4  C   UNL     1      17.983   3.702  -2.110  1.00  0.00     0.000 C 
BRANCH   4   5
ATOM      5  C   UNL     1      17.826   2.330  -2.794  1.00  0.00     0.000 C 
BRANCH   5   6
ATOM      6  C   UNL     1      18.095   2.356  -4.313  1.00  0.00     0.006 C 
BRANCH   6   7
ATOM      7  C   UNL     1      16.929   1.770  -5.120  1.00  0.00     0.053 C 
BRANCH   7   8
ATOM      8  C   UNL     1      16.270   2.835  -5.938  1.00  0.00     0.041 C 
ATOM      9  O   UNL     1      16.748   3.999  -5.966  1.00  0.00    -0.550 OA
ATOM     10  O   UNL     1      15.099   2.555  -6.631  1.00  0.00    -0.550 OA
ENDBRANCH   7   8
ENDBRANCH   6   7
ENDBRANCH   5   6
ENDBRANCH   4   5
ENDBRANCH   3   4
ENDBRANCH   2   3
ENDBRANCH   1   2
BRANCH   1  11
ATOM     11  C   UNL     1      18.151   6.163   1.266  1.00  0.00     0.000 C 
BRANCH  11  12
ATOM     12  C   UNL     1      19.400   5.802   2.090  1.00  0.00    -0.000 C 
BRANCH  12  13
ATOM     13  C   UNL     1      19.052   5.088   3.406  1.00  0.00    -0.000 C 
BRANCH  13  14
ATOM     14  C   UNL     1      17.981   4.001   3.229  1.00  0.00    -0.000 C 
BRANCH  14  15
ATOM     15  C   UNL     1      18.549   2.792   2.471  1.00  0.00    -0.000 C 
BRANCH  15  16
ATOM     16  C   UNL     1      17.652   2.347   1.305  1.00  0.00    -0.000 C 
BRANCH  16  17
ATOM     17  C   UNL     1      16.156   2.433   1.643  1.00  0.00    -0.003 C 
ATOM     18  C   UNL     1      15.358   2.980   0.463  1.00  0.00     0.004 C 
ENDBRANCH  16  17
ENDBRANCH  15  16
ENDBRANCH  14  15
ENDBRANCH  13  14
ENDBRANCH  12  13
ENDBRANCH  11  12
ENDBRANCH   1  11
TORSDOF 14
ENDMDL
MODEL 4
REMARK VINA RESULT:    -4.224      2.210      3.067
REMARK INTER + INTRA:          -9.077
REMARK INTER:                  -8.008
REMARK INTRA:                  -1.070
REMARK UNBOUND:                -1.396
REMARK SMILES CCCCCCCCCCCCCCCC(=O)[O-]
REMARK SMILES IDX 9 1 10 2 11 3 12 4 13 5 14 6 15 7 16 8 17 9 18 10 8 11 7 12
REMARK SMILES IDX 6 13 5 14 4 15 3 16 2 17 1 18
REMARK H PARENT
REMARK Flexibility Score: inf
ROOT
ATOM      1  C   UNL     1      17.391   3.149  -3.072  1.00  0.00     0.000 C 
ENDROOT
BRANCH   1   2
ATOM      2  C   UNL     1      17.564   3.097  -1.542  1.00  0.00     0.000 C 
BRANCH   2   3
ATOM      3  C   UNL     1      16.969   4.326  -0.832  1.00  0.00     0.000 C 
BRANCH   3   4
ATOM      4  C   UNL     1      17.967   5.490  -0.719  1.00  0.00     0.000 C 
BRANCH   4   5
ATOM      5  C   UNL     1      19.017   5.347   0.400  1.00  0.00     0.000 C 
BRANCH   5   6
ATOM      6  C   UNL     1      18.579   5.959   1.748  1.00  0.00     0.006 C 
BRANCH   6   7
ATOM      7  C   UNL     1      17.955   4.917   2.685  1.00  0.00     0.053 C 
BRANCH   7   8
ATOM      8  C   UNL     1      18.711   4.851   3.974  1.00  0.00     0.041 C 
ATOM      9  O   UNL     1      18.263   4.174   4.937  1.00  0.00    -0.550 OA
ATOM     10  O   UNL     1      19.885   5.577   4.129  1.00  0.00    -0.550 OA
ENDBRANCH   7   8
ENDBRANCH   6   7
ENDBRANCH   5   6
ENDBRANCH   4   5
ENDBRANCH   3   4
ENDBRANCH   2   3
ENDBRANCH   1   2
BRANCH   1  11
ATOM     11  C   UNL     1      18.645   2.791  -3.889  1.00  0.00     0.000 C 
BRANCH  11  12
ATOM     12  C   UNL     1      18.333   2.491  -5.365  1.00  0.00    -0.000 C 
BRANCH  12  13
ATOM     13  C   UNL     1      16.924   1.911  -5.565  1.00  0.00    -0.000 C 
BRANCH  13  14
ATOM     14  C   UNL     1      16.133   2.633  -6.666  1.00  0.00    -0.000 C 
BRANCH  14  15
ATOM     15  C   UNL     1      16.949   3.794  -7.254  1.00  0.00    -0.000 C 
BRANCH  15  16
ATOM     16  C   UNL     1      16.324   5.167  -6.961  1.00  0.00    -0.000 C 
BRANCH  16  17
ATOM     17  C   UNL     1      14.980   5.061  -6.225  1.00  0.00    -0.003 C 
ATOM     18  C   UNL     1      13.949   6.012  -6.826  1.00  0.00     0.004 C 
ENDBRANCH  16  17
ENDBRANCH  15  16
ENDBRANCH  14  15
ENDBRANCH  13  14
ENDBRANCH  12  13
ENDBRANCH  11  12
ENDBRANCH   1  11
TORSDOF 14
ENDMDL
MODEL 5
REMARK VINA RESULT:    -4.155      1.718      3.300
REMARK INTER + INTRA:          -8.951
REMARK INTER:                  -7.662
REMARK INTRA:                  -1.289
REMARK UNBOUND:                -1.396
REMARK SMILES CCCCCCCCCCCCCCCC(=O)[O-]
REMARK SMILES IDX 9 1 10 2 11 3 12 4 13 5 14 6 15 7 16 8 17 9 18 10 8 11 7 12
REMARK SMILES IDX 6 13 5 14 4 15 3 16 2 17 1 18
REMARK H PARENT
REMARK Flexibility Score: inf
ROOT
ATOM      1  C   UNL     1      19.171   3.841  -1.965  1.00  0.00     0.000 C 
ENDROOT
BRANCH   1   2
ATOM      2  C   UNL     1      18.464   4.919  -1.123  1.00  0.00     0.000 C 
BRANCH   2   3
ATOM      3  C   UNL     1      16.978   4.605  -0.875  1.00  0.00     0.000 C 
BRANCH   3   4
ATOM      4  C   UNL     1      16.731   3.127  -0.530  1.00  0.00     0.000 C 
BRANCH   4   5
ATOM      5  C   UNL     1      15.572   2.869   0.453  1.00  0.00     0.000 C 
BRANCH   5   6
ATOM      6  C   UNL     1      16.029   2.356   1.835  1.00  0.00     0.006 C 
BRANCH   6   7
ATOM      7  C   UNL     1      17.529   2.578   2.071  1.00  0.00     0.053 C 
BRANCH   7   8
ATOM      8  C   UNL     1      17.748   3.719   3.013  1.00  0.00     0.041 C 
ATOM      9  O   UNL     1      17.964   3.500   4.234  1.00  0.00    -0.550 OA
ATOM     10  O   UNL     1      17.664   5.026   2.552  1.00  0.00    -0.550 OA
ENDBRANCH   7   8
ENDBRANCH   6   7
ENDBRANCH   5   6
ENDBRANCH   4   5
ENDBRANCH   3   4
ENDBRANCH   2   3
ENDBRANCH   1   2
BRANCH   1  11
ATOM     11  C   UNL     1      19.146   4.073  -3.486  1.00  0.00     0.000 C 
BRANCH  11  12
ATOM     12  C   UNL     1      18.785   2.805  -4.280  1.00  0.00    -0.000 C 
BRANCH  12  13
ATOM     13  C   UNL     1      17.284   2.481  -4.224  1.00  0.00    -0.000 C 
BRANCH  13  14
ATOM     14  C   UNL     1      16.748   1.912  -5.546  1.00  0.00    -0.000 C 
BRANCH  14  15
ATOM     15  C   UNL     1      16.402   3.041  -6.528  1.00  0.00    -0.000 C 
BRANCH  15  16
ATOM     16  C   UNL     1      15.476   4.102  -5.911  1.00  0.00    -0.000 C 
BRANCH  16  17
ATOM     17  C   UNL     1      15.409   5.388  -6.748  1.00  0.00    -0.003 C 
ATOM     18  C   UNL     1      13.999   5.970  -6.747  1.00  0.00     0.004 C 
ENDBRANCH  16  17
ENDBRANCH  15  16
ENDBRANCH  14  15
ENDBRANCH  13  14
ENDBRANCH  12  13
ENDBRANCH  11  12
ENDBRANCH   1  11
TORSDOF 14
ENDMDL
MODEL 6
REMARK VINA RESULT:    -4.136      1.812      3.831
REMARK INTER + INTRA:          -8.917
REMARK INTER:                  -7.580
REMARK INTRA:                  -1.337
REMARK UNBOUND:                -1.396
REMARK SMILES CCCCCCCCCCCCCCCC(=O)[O-]
REMARK SMILES IDX 9 1 10 2 11 3 12 4 13 5 14 6 15 7 16 8 17 9 18 10 8 11 7 12
REMARK SMILES IDX 6 13 5 14 4 15 3 16 2 17 1 18
REMARK H PARENT
REMARK Flexibility Score: inf
ROOT
ATOM      1  C   UNL     1      17.134   4.648  -0.750  1.00  0.00     0.000 C 
ENDROOT
BRANCH   1   2
ATOM      2  C   UNL     1      18.265   5.662  -0.497  1.00  0.00     0.000 C 
BRANCH   2   3
ATOM      3  C   UNL     1      18.325   6.140   0.964  1.00  0.00     0.000 C 
BRANCH   3   4
ATOM      4  C   UNL     1      19.462   5.481   1.761  1.00  0.00     0.000 C 
BRANCH   4   5
ATOM      5  C   UNL     1      19.026   4.758   3.050  1.00  0.00     0.000 C 
BRANCH   5   6
ATOM      6  C   UNL     1      17.503   4.527   3.151  1.00  0.00     0.006 C 
BRANCH   6   7
ATOM      7  C   UNL     1      17.152   3.047   3.355  1.00  0.00     0.053 C 
BRANCH   7   8
ATOM      8  C   UNL     1      16.941   2.372   2.037  1.00  0.00     0.041 C 
ATOM      9  O   UNL     1      15.787   2.303   1.538  1.00  0.00    -0.550 OA
ATOM     10  O   UNL     1      18.011   1.776   1.383  1.00  0.00    -0.550 OA
ENDBRANCH   7   8
ENDBRANCH   6   7
ENDBRANCH   5   6
ENDBRANCH   4   5
ENDBRANCH   3   4
ENDBRANCH   2   3
ENDBRANCH   1   2
BRANCH   1  11
ATOM     11  C   UNL     1      17.504   3.461  -1.657  1.00  0.00     0.000 C 
BRANCH  11  12
ATOM     12  C   UNL     1      18.636   3.793  -2.645  1.00  0.00    -0.000 C 
BRANCH  12  13
ATOM     13  C   UNL     1      18.366   3.248  -4.057  1.00  0.00    -0.000 C 
BRANCH  13  14
ATOM     14  C   UNL     1      16.871   3.020  -4.330  1.00  0.00    -0.000 C 
BRANCH  14  15
ATOM     15  C   UNL     1      16.670   2.167  -5.592  1.00  0.00    -0.000 C 
BRANCH  15  16
ATOM     16  C   UNL     1      15.916   2.917  -6.701  1.00  0.00    -0.000 C 
BRANCH  16  17
ATOM     17  C   UNL     1      15.516   4.341  -6.287  1.00  0.00    -0.003 C 
ATOM     18  C   UNL     1      16.289   5.383  -7.089  1.00  0.00     0.004 C 
ENDBRANCH  16  17
ENDBRANCH  15  16
ENDBRANCH  14  15
ENDBRANCH  13  14
ENDBRANCH  12  13
ENDBRANCH  11  12
ENDBRANCH   1  11
TORSDOF 14
ENDMDL
MODEL 7
REMARK VINA RESULT:    -4.135      1.512      2.706
REMARK INTER + INTRA:          -8.914
REMARK INTER:                  -7.823
REMARK INTRA:                  -1.091
REMARK UNBOUND:                -1.396
REMARK SMILES CCCCCCCCCCCCCCCC(=O)[O-]
REMARK SMILES IDX 9 1 10 2 11 3 12 4 13 5 14 6 15 7 16 8 17 9 18 10 8 11 7 12
REMARK SMILES IDX 6 13 5 14 4 15 3 16 2 17 1 18
REMARK H PARENT
REMARK Flexibility Score: inf
ROOT
ATOM      1  C   UNL     1      17.680   3.620  -2.210  1.00  0.00     0.000 C 
ENDROOT
BRANCH   1   2
ATOM      2  C   UNL     1      18.873   4.578  -2.039  1.00  0.00     0.000 C 
BRANCH   2   3
ATOM      3  C   UNL     1      18.599   5.699  -1.021  1.00  0.00     0.000 C 
BRANCH   3   4
ATOM      4  C   UNL     1      19.152   5.382   0.378  1.00  0.00     0.000 C 
BRANCH   4   5
ATOM      5  C   UNL     1      18.357   5.989   1.550  1.00  0.00     0.000 C 
BRANCH   5   6
ATOM      6  C   UNL     1      17.752   4.938   2.505  1.00  0.00     0.006 C 
BRANCH   6   7
ATOM      7  C   UNL     1      18.308   3.531   2.248  1.00  0.00     0.053 C 
BRANCH   7   8
ATOM      8  C   UNL     1      17.207   2.596   1.858  1.00  0.00     0.041 C 
ATOM      9  O   UNL     1      17.193   1.416   2.298  1.00  0.00    -0.550 OA
ATOM     10  O   UNL     1      16.224   3.012   0.970  1.00  0.00    -0.550 OA
ENDBRANCH   7   8
ENDBRANCH   6   7
ENDBRANCH   5   6
ENDBRANCH   4   5
ENDBRANCH   3   4
ENDBRANCH   2   3
ENDBRANCH   1   2
BRANCH   1  11
ATOM     11  C   UNL     1      18.014   2.259  -2.845  1.00  0.00     0.000 C 
BRANCH  11  12
ATOM     12  C   UNL     1      18.105   2.320  -4.380  1.00  0.00    -0.000 C 
BRANCH  12  13
ATOM     13  C   UNL     1      16.850   1.760  -5.068  1.00  0.00    -0.000 C 
BRANCH  13  14
ATOM     14  C   UNL     1      16.448   2.561  -6.316  1.00  0.00    -0.000 C 
BRANCH  14  15
ATOM     15  C   UNL     1      17.196   3.901  -6.370  1.00  0.00    -0.000 C 
BRANCH  15  16
ATOM     16  C   UNL     1      16.281   5.077  -6.749  1.00  0.00    -0.000 C 
BRANCH  16  17
ATOM     17  C   UNL     1      14.812   4.829  -6.375  1.00  0.00    -0.003 C 
ATOM     18  C   UNL     1      13.941   6.023  -6.752  1.00  0.00     0.004 C 
ENDBRANCH  16  17
ENDBRANCH  15  16
ENDBRANCH  14  15
ENDBRANCH  13  14
ENDBRANCH  12  13
ENDBRANCH  11  12
ENDBRANCH   1  11
TORSDOF 14
ENDMDL
MODEL 8
REMARK VINA RESULT:    -4.120      3.078      7.699
REMARK INTER + INTRA:          -8.889
REMARK INTER:                  -7.539
REMARK INTRA:                  -1.350
REMARK UNBOUND:                -1.396
REMARK SMILES CCCCCCCCCCCCCCCC(=O)[O-]
REMARK SMILES IDX 9 1 10 2 11 3 12 4 13 5 14 6 15 7 16 8 17 9 18 10 8 11 7 12
REMARK SMILES IDX 6 13 5 14 4 15 3 16 2 17 1 18
REMARK H PARENT
REMARK Flexibility Score: inf
ROOT
ATOM      1  C   UNL     1      19.217   3.314  -0.944  1.00  0.00     0.000 C 
ENDROOT
BRANCH   1   2
ATOM      2  C   UNL     1      17.878   3.230  -1.700  1.00  0.00     0.000 C 
BRANCH   2   3
ATOM      3  C   UNL     1      17.952   2.335  -2.950  1.00  0.00     0.000 C 
BRANCH   3   4
ATOM      4  C   UNL     1      17.151   2.899  -4.135  1.00  0.00     0.000 C 
BRANCH   4   5
ATOM      5  C   UNL     1      16.745   1.864  -5.202  1.00  0.00     0.000 C 
BRANCH   5   6
ATOM      6  C   UNL     1      15.923   2.458  -6.366  1.00  0.00     0.006 C 
BRANCH   6   7
ATOM      7  C   UNL     1      16.690   3.552  -7.121  1.00  0.00     0.053 C 
BRANCH   7   8
ATOM      8  C   UNL     1      16.083   4.893  -6.858  1.00  0.00     0.041 C 
ATOM      9  O   UNL     1      14.916   4.980  -6.394  1.00  0.00    -0.550 OA
ATOM     10  O   UNL     1      16.787   6.049  -7.172  1.00  0.00    -0.550 OA
ENDBRANCH   7   8
ENDBRANCH   6   7
ENDBRANCH   5   6
ENDBRANCH   4   5
ENDBRANCH   3   4
ENDBRANCH   2   3
ENDBRANCH   1   2
BRANCH   1  11
ATOM     11  C   UNL     1      19.604   4.717  -0.444  1.00  0.00     0.000 C 
BRANCH  11  12
ATOM     12  C   UNL     1      18.396   5.659  -0.308  1.00  0.00    -0.000 C 
BRANCH  12  13
ATOM     13  C   UNL     1      18.241   6.218   1.115  1.00  0.00    -0.000 C 
BRANCH  13  14
ATOM     14  C   UNL     1      18.785   5.267   2.191  1.00  0.00    -0.000 C 
BRANCH  14  15
ATOM     15  C   UNL     1      17.652   4.435   2.810  1.00  0.00    -0.000 C 
BRANCH  15  16
ATOM     16  C   UNL     1      17.701   2.958   2.389  1.00  0.00    -0.000 C 
BRANCH  16  17
ATOM     17  C   UNL     1      16.304   2.337   2.241  1.00  0.00    -0.003 C 
ATOM     18  C   UNL     1      15.646   2.771   0.935  1.00  0.00     0.004 C 
ENDBRANCH  16  17
ENDBRANCH  15  16
ENDBRANCH  14  15
ENDBRANCH  13  14
ENDBRANCH  12  13
ENDBRANCH  11  12
ENDBRANCH   1  11
TORSDOF 14
ENDMDL
MODEL 9
REMARK VINA RESULT:    -3.926      1.525      2.863
REMARK INTER + INTRA:          -8.536
REMARK INTER:                  -7.098
REMARK INTRA:                  -1.438
REMARK UNBOUND:                -1.396
REMARK SMILES CCCCCCCCCCCCCCCC(=O)[O-]
REMARK SMILES IDX 9 1 10 2 11 3 12 4 13 5 14 6 15 7 16 8 17 9 18 10 8 11 7 12
REMARK SMILES IDX 6 13 5 14 4 15 3 16 2 17 1 18
REMARK H PARENT
REMARK Flexibility Score: inf
ROOT
ATOM      1  C   UNL     1      19.273   3.947  -3.763  1.00  0.00     0.000 C 
ENDROOT
BRANCH   1   2
ATOM      2  C   UNL     1      20.123   3.480  -2.566  1.00  0.00     0.000 C 
BRANCH   2   3
ATOM      3  C   UNL     1      19.534   3.907  -1.211  1.00  0.00     0.000 C 
BRANCH   3   4
ATOM      4  C   UNL     1      19.191   5.405  -1.156  1.00  0.00     0.000 C 
BRANCH   4   5
ATOM      5  C   UNL     1      18.150   5.800  -0.090  1.00  0.00     0.000 C 
BRANCH   5   6
ATOM      6  C   UNL     1      18.719   5.870   1.342  1.00  0.00     0.006 C 
BRANCH   6   7
ATOM      7  C   UNL     1      17.839   5.126   2.355  1.00  0.00     0.053 C 
BRANCH   7   8
ATOM      8  C   UNL     1      17.781   3.668   2.026  1.00  0.00     0.041 C 
ATOM      9  O   UNL     1      18.815   2.956   2.122  1.00  0.00    -0.550 OA
ATOM     10  O   UNL     1      16.597   3.105   1.567  1.00  0.00    -0.550 OA
ENDBRANCH   7   8
ENDBRANCH   6   7
ENDBRANCH   5   6
ENDBRANCH   4   5
ENDBRANCH   3   4
ENDBRANCH   2   3
ENDBRANCH   1   2
BRANCH   1  11
ATOM     11  C   UNL     1      18.686   2.821  -4.632  1.00  0.00     0.000 C 
BRANCH  11  12
ATOM     12  C   UNL     1      17.150   2.752  -4.567  1.00  0.00    -0.000 C 
BRANCH  12  13
ATOM     13  C   UNL     1      16.541   2.018  -5.772  1.00  0.00    -0.000 C 
BRANCH  13  14
ATOM     14  C   UNL     1      15.648   2.926  -6.632  1.00  0.00    -0.000 C 
BRANCH  14  15
ATOM     15  C   UNL     1      15.512   4.319  -5.998  1.00  0.00    -0.000 C 
BRANCH  15  16
ATOM     16  C   UNL     1      15.845   5.453  -6.981  1.00  0.00    -0.000 C 
BRANCH  16  17
ATOM     17  C   UNL     1      17.056   5.130  -7.869  1.00  0.00    -0.003 C 
ATOM     18  C   UNL     1      18.356   5.572  -7.204  1.00  0.00     0.004 C 
ENDBRANCH  16  17
ENDBRANCH  15  16
ENDBRANCH  14  15
ENDBRANCH  13  14
ENDBRANCH  12  13
ENDBRANCH  11  12
ENDBRANCH   1  11
TORSDOF 14
ENDMDL
