MODEL 1
REMARK VINA RESULT:    -6.415      0.000      0.000
REMARK INTER + INTRA:          -6.602
REMARK INTER:                  -6.602
REMARK INTRA:                   0.000
REMARK UNBOUND:                 0.000
REMARK SMILES CC1(C)CC[C@@]2(C)CC[C@@]3(C)C(=CC[C@@H]4[C@@]5(C)CC[C@@H](O)C(C)(C)[C@@H]5CC[C@@]43C)[C@@H]2C1
REMARK SMILES IDX 1 1 2 2 4 3 5 4 6 5 8 6 9 7 10 8 12 9 13 10 14 11 15 12
REMARK SMILES IDX 28 13 27 14 26 15 25 16 16 17 18 18 19 19 20 20 22 21 23 22
REMARK SMILES IDX 24 23 17 24 29 25 30 26 31 27 11 28 7 29 3 30 21 31
REMARK H PARENT 21 32
REMARK Flexibility Score: inf
ROOT
ATOM      1  C   UNL     1      12.681 -36.758  46.629  1.00  0.00     0.011 C 
ATOM      2  C   UNL     1      11.184 -36.381  46.678  1.00  0.00    -0.035 C 
ATOM      3  C   UNL     1      10.956 -35.437  47.884  1.00  0.00     0.007 C 
ATOM      4  C   UNL     1       9.471 -35.155  48.161  1.00  0.00     0.008 C 
ATOM      5  C   UNL     1       8.632 -36.448  48.356  1.00  0.00    -0.026 C 
ATOM      6  C   UNL     1       7.124 -36.077  48.394  1.00  0.00     0.008 C 
ATOM      7  C   UNL     1       6.151 -37.292  48.328  1.00  0.00     0.012 C 
ATOM      8  C   UNL     1       6.412 -38.361  47.183  1.00  0.00    -0.006 C 
ATOM      9  C   UNL     1       7.931 -38.616  47.271  1.00  0.00    -0.064 C 
ATOM     10  C   UNL     1       8.405 -39.702  47.886  1.00  0.00    -0.027 C 
ATOM     11  C   UNL     1       7.629 -40.944  48.002  1.00  0.00     0.032 C 
ATOM     12  C   UNL     1       6.124 -40.775  48.315  1.00  0.00     0.006 C 
ATOM     13  C   UNL     1       5.458 -39.693  47.350  1.00  0.00    -0.020 C 
ATOM     14  C   UNL     1       5.175 -40.464  46.018  1.00  0.00     0.008 C 
ATOM     15  C   UNL     1       4.244 -41.708  46.174  1.00  0.00     0.005 C 
ATOM     16  C   UNL     1       4.083 -42.253  47.627  1.00  0.00     0.003 C 
ATOM     17  C   UNL     1       5.437 -42.248  48.369  1.00  0.00    -0.025 C 
ATOM     18  C   UNL     1       5.148 -42.568  49.854  1.00  0.00     0.010 C 
ATOM     19  C   UNL     1       4.442 -43.912  50.125  1.00  0.00     0.033 C 
ATOM     20  C   UNL     1       3.548 -44.499  48.973  1.00  0.00     0.120 C 
ATOM     21  C   UNL     1       3.126 -43.532  47.789  1.00  0.00    -0.006 C 
ATOM     22  C   UNL     1       1.671 -43.014  48.055  1.00  0.00     0.014 C 
ATOM     23  C   UNL     1       3.042 -44.395  46.494  1.00  0.00     0.014 C 
ATOM     24  C   UNL     1       6.335 -43.383  47.760  1.00  0.00     0.012 C 
ATOM     25  C   UNL     1       4.061 -39.170  47.870  1.00  0.00     0.012 C 
ATOM     26  C   UNL     1       8.851 -37.391  47.149  1.00  0.00     0.022 C 
ATOM     27  C   UNL     1      10.350 -37.679  46.860  1.00  0.00     0.015 C 
ATOM     28  C   UNL     1       6.088 -37.684  45.814  1.00  0.00     0.017 C 
ATOM     29  C   UNL     1       9.025 -37.113  49.706  1.00  0.00     0.012 C 
ATOM     30  C   UNL     1      10.826 -35.660  45.353  1.00  0.00     0.011 C 
ENDROOT
BRANCH  20  31
ATOM     31  O   UNL     1       2.436 -45.231  49.466  1.00  0.00    -0.393 OA
ATOM     32  H   UNL     1       2.481 -45.334  50.459  1.00  0.00     0.210 HD
ENDBRANCH  20  31
TORSDOF 1
ENDMDL
MODEL 2
REMARK VINA RESULT:    -5.929      5.907     10.271
REMARK INTER + INTRA:          -6.102
REMARK INTER:                  -6.102
REMARK INTRA:                   0.000
REMARK UNBOUND:                 0.000
REMARK SMILES CC1(C)CC[C@@]2(C)CC[C@@]3(C)C(=CC[C@@H]4[C@@]5(C)CC[C@@H](O)C(C)(C)[C@@H]5CC[C@@]43C)[C@@H]2C1
REMARK SMILES IDX 1 1 2 2 4 3 5 4 6 5 8 6 9 7 10 8 12 9 13 10 14 11 15 12
REMARK SMILES IDX 28 13 27 14 26 15 25 16 16 17 18 18 19 19 20 20 22 21 23 22
REMARK SMILES IDX 24 23 17 24 29 25 30 26 31 27 11 28 7 29 3 30 21 31
REMARK H PARENT 21 32
REMARK Flexibility Score: inf
ROOT
ATOM      1  C   UNL     1       3.226 -47.195  40.012  1.00  0.00     0.011 C 
ATOM      2  C   UNL     1       2.757 -46.885  41.451  1.00  0.00    -0.035 C 
ATOM      3  C   UNL     1       1.374 -47.545  41.668  1.00  0.00     0.007 C 
ATOM      4  C   UNL     1       0.709 -47.137  42.993  1.00  0.00     0.008 C 
ATOM      5  C   UNL     1       0.575 -45.598  43.158  1.00  0.00    -0.026 C 
ATOM      6  C   UNL     1       0.116 -45.279  44.608  1.00  0.00     0.008 C 
ATOM      7  C   UNL     1       0.185 -43.772  44.997  1.00  0.00     0.012 C 
ATOM      8  C   UNL     1       1.542 -43.010  44.684  1.00  0.00    -0.006 C 
ATOM      9  C   UNL     1       1.861 -43.429  43.234  1.00  0.00    -0.064 C 
ATOM     10  C   UNL     1       1.593 -42.609  42.214  1.00  0.00    -0.027 C 
ATOM     11  C   UNL     1       1.540 -41.150  42.368  1.00  0.00     0.032 C 
ATOM     12  C   UNL     1       0.858 -40.630  43.655  1.00  0.00     0.006 C 
ATOM     13  C   UNL     1       1.415 -41.389  44.943  1.00  0.00    -0.020 C 
ATOM     14  C   UNL     1       2.767 -40.674  45.276  1.00  0.00     0.008 C 
ATOM     15  C   UNL     1       2.640 -39.142  45.553  1.00  0.00     0.005 C 
ATOM     16  C   UNL     1       1.321 -38.472  45.054  1.00  0.00     0.003 C 
ATOM     17  C   UNL     1       0.928 -39.005  43.659  1.00  0.00    -0.025 C 
ATOM     18  C   UNL     1      -0.494 -38.480  43.351  1.00  0.00     0.010 C 
ATOM     19  C   UNL     1      -0.659 -36.947  43.358  1.00  0.00     0.033 C 
ATOM     20  C   UNL     1       0.343 -36.121  44.244  1.00  0.00     0.120 C 
ATOM     21  C   UNL     1       1.188 -36.898  45.338  1.00  0.00    -0.006 C 
ATOM     22  C   UNL     1       0.496 -36.717  46.732  1.00  0.00     0.014 C 
ATOM     23  C   UNL     1       2.569 -36.183  45.450  1.00  0.00     0.014 C 
ATOM     24  C   UNL     1       1.936 -38.417  42.608  1.00  0.00     0.012 C 
ATOM     25  C   UNL     1       0.494 -41.217  46.215  1.00  0.00     0.012 C 
ATOM     26  C   UNL     1       1.958 -44.936  42.949  1.00  0.00     0.022 C 
ATOM     27  C   UNL     1       2.638 -45.345  41.614  1.00  0.00     0.015 C 
ATOM     28  C   UNL     1       2.642 -43.582  45.633  1.00  0.00     0.017 C 
ATOM     29  C   UNL     1      -0.493 -45.068  42.159  1.00  0.00     0.012 C 
ATOM     30  C   UNL     1       3.798 -47.479  42.433  1.00  0.00     0.011 C 
ENDROOT
BRANCH  20  31
ATOM     31  O   UNL     1      -0.246 -34.946  44.781  1.00  0.00    -0.393 OA
ATOM     32  H   UNL     1      -0.537 -34.323  44.056  1.00  0.00     0.210 HD
ENDBRANCH  20  31
TORSDOF 1
ENDMDL
MODEL 3
REMARK VINA RESULT:    -5.429      5.695      8.233
REMARK INTER + INTRA:          -5.588
REMARK INTER:                  -5.588
REMARK INTRA:                   0.000
REMARK UNBOUND:                 0.000
REMARK SMILES CC1(C)CC[C@@]2(C)CC[C@@]3(C)C(=CC[C@@H]4[C@@]5(C)CC[C@@H](O)C(C)(C)[C@@H]5CC[C@@]43C)[C@@H]2C1
REMARK SMILES IDX 1 1 2 2 4 3 5 4 6 5 8 6 9 7 10 8 12 9 13 10 14 11 15 12
REMARK SMILES IDX 28 13 27 14 26 15 25 16 16 17 18 18 19 19 20 20 22 21 23 22
REMARK SMILES IDX 24 23 17 24 29 25 30 26 31 27 11 28 7 29 3 30 21 31
REMARK H PARENT 21 32
REMARK Flexibility Score: inf
ROOT
ATOM      1  C   UNL     1       3.139 -36.929  45.277  1.00  0.00     0.011 C 
ATOM      2  C   UNL     1       2.085 -37.698  44.449  1.00  0.00    -0.035 C 
ATOM      3  C   UNL     1       0.695 -37.464  45.088  1.00  0.00     0.007 C 
ATOM      4  C   UNL     1      -0.409 -38.341  44.477  1.00  0.00     0.008 C 
ATOM      5  C   UNL     1      -0.074 -39.858  44.519  1.00  0.00    -0.026 C 
ATOM      6  C   UNL     1      -1.123 -40.635  43.677  1.00  0.00     0.008 C 
ATOM      7  C   UNL     1      -0.773 -42.131  43.417  1.00  0.00     0.012 C 
ATOM      8  C   UNL     1       0.687 -42.443  42.875  1.00  0.00    -0.006 C 
ATOM      9  C   UNL     1       1.598 -41.605  43.797  1.00  0.00    -0.064 C 
ATOM     10  C   UNL     1       2.249 -42.177  44.813  1.00  0.00    -0.027 C 
ATOM     11  C   UNL     1       2.624 -43.597  44.809  1.00  0.00     0.032 C 
ATOM     12  C   UNL     1       1.567 -44.574  44.245  1.00  0.00     0.006 C 
ATOM     13  C   UNL     1       1.004 -44.059  42.844  1.00  0.00    -0.020 C 
ATOM     14  C   UNL     1       2.080 -44.492  41.794  1.00  0.00     0.008 C 
ATOM     15  C   UNL     1       2.355 -46.029  41.744  1.00  0.00     0.005 C 
ATOM     16  C   UNL     1       1.872 -46.843  42.985  1.00  0.00     0.003 C 
ATOM     17  C   UNL     1       2.176 -46.081  44.294  1.00  0.00    -0.025 C 
ATOM     18  C   UNL     1       1.458 -46.832  45.439  1.00  0.00     0.010 C 
ATOM     19  C   UNL     1       1.857 -48.310  45.624  1.00  0.00     0.033 C 
ATOM     20  C   UNL     1       2.398 -49.072  44.360  1.00  0.00     0.120 C 
ATOM     21  C   UNL     1       2.154 -48.422  42.935  1.00  0.00    -0.006 C 
ATOM     22  C   UNL     1       0.913 -49.112  42.272  1.00  0.00     0.014 C 
ATOM     23  C   UNL     1       3.376 -48.792  42.041  1.00  0.00     0.014 C 
ATOM     24  C   UNL     1       3.727 -46.125  44.537  1.00  0.00     0.012 C 
ATOM     25  C   UNL     1      -0.345 -44.762  42.418  1.00  0.00     0.012 C 
ATOM     26  C   UNL     1       1.312 -40.097  43.874  1.00  0.00     0.022 C 
ATOM     27  C   UNL     1       2.433 -39.211  44.484  1.00  0.00     0.015 C 
ATOM     28  C   UNL     1       0.787 -41.887  41.420  1.00  0.00     0.017 C 
ATOM     29  C   UNL     1      -0.136 -40.354  45.992  1.00  0.00     0.012 C 
ATOM     30  C   UNL     1       2.114 -37.144  43.002  1.00  0.00     0.011 C 
ENDROOT
BRANCH  20  31
ATOM     31  O   UNL     1       2.057 -50.451  44.368  1.00  0.00    -0.393 OA
ATOM     32  H   UNL     1       2.406 -50.906  45.186  1.00  0.00     0.210 HD
ENDBRANCH  20  31
TORSDOF 1
ENDMDL
MODEL 4
REMARK VINA RESULT:    -5.341      3.872      5.794
REMARK INTER + INTRA:          -5.497
REMARK INTER:                  -5.497
REMARK INTRA:                   0.000
REMARK UNBOUND:                 0.000
REMARK SMILES CC1(C)CC[C@@]2(C)CC[C@@]3(C)C(=CC[C@@H]4[C@@]5(C)CC[C@@H](O)C(C)(C)[C@@H]5CC[C@@]43C)[C@@H]2C1
REMARK SMILES IDX 1 1 2 2 4 3 5 4 6 5 8 6 9 7 10 8 12 9 13 10 14 11 15 12
REMARK SMILES IDX 28 13 27 14 26 15 25 16 16 17 18 18 19 19 20 20 22 21 23 22
REMARK SMILES IDX 24 23 17 24 29 25 30 26 31 27 11 28 7 29 3 30 21 31
REMARK H PARENT 21 32
REMARK Flexibility Score: inf
ROOT
ATOM      1  C   UNL     1       5.977 -35.197  45.866  1.00  0.00     0.011 C 
ATOM      2  C   UNL     1       4.682 -35.621  45.137  1.00  0.00    -0.035 C 
ATOM      3  C   UNL     1       3.490 -34.875  45.784  1.00  0.00     0.007 C 
ATOM      4  C   UNL     1       2.123 -35.366  45.281  1.00  0.00     0.008 C 
ATOM      5  C   UNL     1       1.925 -36.898  45.454  1.00  0.00    -0.026 C 
ATOM      6  C   UNL     1       0.631 -37.332  44.712  1.00  0.00     0.008 C 
ATOM      7  C   UNL     1       0.440 -38.872  44.581  1.00  0.00     0.012 C 
ATOM      8  C   UNL     1       1.676 -39.707  44.036  1.00  0.00    -0.006 C 
ATOM      9  C   UNL     1       2.864 -39.162  44.856  1.00  0.00    -0.064 C 
ATOM     10  C   UNL     1       3.337 -39.842  45.904  1.00  0.00    -0.027 C 
ATOM     11  C   UNL     1       3.207 -41.300  46.021  1.00  0.00     0.032 C 
ATOM     12  C   UNL     1       1.853 -41.896  45.574  1.00  0.00     0.006 C 
ATOM     13  C   UNL     1       1.423 -41.330  44.146  1.00  0.00    -0.020 C 
ATOM     14  C   UNL     1       2.232 -42.187  43.115  1.00  0.00     0.008 C 
ATOM     15  C   UNL     1       1.966 -43.724  43.199  1.00  0.00     0.005 C 
ATOM     16  C   UNL     1       1.302 -44.223  44.520  1.00  0.00     0.003 C 
ATOM     17  C   UNL     1       1.916 -43.513  45.746  1.00  0.00    -0.025 C 
ATOM     18  C   UNL     1       1.048 -43.881  46.972  1.00  0.00     0.010 C 
ATOM     19  C   UNL     1       0.931 -45.387  47.282  1.00  0.00     0.033 C 
ATOM     20  C   UNL     1       1.114 -46.384  46.081  1.00  0.00     0.120 C 
ATOM     21  C   UNL     1       1.028 -45.803  44.608  1.00  0.00    -0.006 C 
ATOM     22  C   UNL     1      -0.406 -46.075  44.040  1.00  0.00     0.014 C 
ATOM     23  C   UNL     1       2.004 -46.638  43.724  1.00  0.00     0.014 C 
ATOM     24  C   UNL     1       3.371 -44.066  45.956  1.00  0.00     0.012 C 
ATOM     25  C   UNL     1      -0.105 -41.560  43.817  1.00  0.00     0.012 C 
ATOM     26  C   UNL     1       3.112 -37.647  44.801  1.00  0.00     0.022 C 
ATOM     27  C   UNL     1       4.497 -37.154  45.302  1.00  0.00     0.015 C 
ATOM     28  C   UNL     1       1.881 -39.333  42.534  1.00  0.00     0.017 C 
ATOM     29  C   UNL     1       1.777 -37.227  46.967  1.00  0.00     0.012 C 
ATOM     30  C   UNL     1       4.820 -35.225  43.645  1.00  0.00     0.011 C 
ENDROOT
BRANCH  20  31
ATOM     31  O   UNL     1       0.326 -47.557  46.222  1.00  0.00    -0.393 OA
ATOM     32  H   UNL     1      -0.463 -47.540  45.608  1.00  0.00     0.210 HD
ENDBRANCH  20  31
TORSDOF 1
ENDMDL
MODEL 5
REMARK VINA RESULT:    -5.311      6.547     10.858
REMARK INTER + INTRA:          -5.466
REMARK INTER:                  -5.466
REMARK INTRA:                   0.000
REMARK UNBOUND:                 0.000
REMARK SMILES CC1(C)CC[C@@]2(C)CC[C@@]3(C)C(=CC[C@@H]4[C@@]5(C)CC[C@@H](O)C(C)(C)[C@@H]5CC[C@@]43C)[C@@H]2C1
REMARK SMILES IDX 1 1 2 2 4 3 5 4 6 5 8 6 9 7 10 8 12 9 13 10 14 11 15 12
REMARK SMILES IDX 28 13 27 14 26 15 25 16 16 17 18 18 19 19 20 20 22 21 23 22
REMARK SMILES IDX 24 23 17 24 29 25 30 26 31 27 11 28 7 29 3 30 21 31
REMARK H PARENT 21 32
REMARK Flexibility Score: inf
ROOT
ATOM      1  C   UNL     1       5.181 -44.614  48.062  1.00  0.00     0.011 C 
ATOM      2  C   UNL     1       3.985 -44.148  47.202  1.00  0.00    -0.035 C 
ATOM      3  C   UNL     1       2.686 -44.348  48.021  1.00  0.00     0.007 C 
ATOM      4  C   UNL     1       1.409 -44.113  47.198  1.00  0.00     0.008 C 
ATOM      5  C   UNL     1       1.344 -44.984  45.913  1.00  0.00    -0.026 C 
ATOM      6  C   UNL     1       0.151 -44.512  45.037  1.00  0.00     0.008 C 
ATOM      7  C   UNL     1       0.114 -45.119  43.603  1.00  0.00     0.012 C 
ATOM      8  C   UNL     1       1.457 -45.053  42.759  1.00  0.00    -0.006 C 
ATOM      9  C   UNL     1       2.530 -45.539  43.756  1.00  0.00    -0.064 C 
ATOM     10  C   UNL     1       2.991 -46.792  43.703  1.00  0.00    -0.027 C 
ATOM     11  C   UNL     1       2.990 -47.580  42.464  1.00  0.00     0.032 C 
ATOM     12  C   UNL     1       1.731 -47.444  41.577  1.00  0.00     0.006 C 
ATOM     13  C   UNL     1       1.351 -45.910  41.357  1.00  0.00    -0.020 C 
ATOM     14  C   UNL     1       2.305 -45.419  40.218  1.00  0.00     0.008 C 
ATOM     15  C   UNL     1       2.179 -46.212  38.879  1.00  0.00     0.005 C 
ATOM     16  C   UNL     1       1.475 -47.602  38.981  1.00  0.00     0.003 C 
ATOM     17  C   UNL     1       1.934 -48.359  40.246  1.00  0.00    -0.025 C 
ATOM     18  C   UNL     1       1.021 -49.598  40.396  1.00  0.00     0.010 C 
ATOM     19  C   UNL     1       1.024 -50.580  39.206  1.00  0.00     0.033 C 
ATOM     20  C   UNL     1       1.382 -49.993  37.792  1.00  0.00     0.120 C 
ATOM     21  C   UNL     1       1.345 -48.419  37.606  1.00  0.00    -0.006 C 
ATOM     22  C   UNL     1      -0.015 -48.022  36.937  1.00  0.00     0.014 C 
ATOM     23  C   UNL     1       2.453 -48.049  36.573  1.00  0.00     0.014 C 
ATOM     24  C   UNL     1       3.416 -48.829  40.027  1.00  0.00     0.012 C 
ATOM     25  C   UNL     1      -0.123 -45.703  40.826  1.00  0.00     0.012 C 
ATOM     26  C   UNL     1       2.638 -44.781  45.088  1.00  0.00     0.022 C 
ATOM     27  C   UNL     1       3.934 -45.013  45.913  1.00  0.00     0.015 C 
ATOM     28  C   UNL     1       1.729 -43.556  42.409  1.00  0.00     0.017 C 
ATOM     29  C   UNL     1       1.124 -46.470  46.313  1.00  0.00     0.012 C 
ATOM     30  C   UNL     1       4.188 -42.648  46.869  1.00  0.00     0.011 C 
ENDROOT
BRANCH  20  31
ATOM     31  O   UNL     1       0.700 -50.657  36.739  1.00  0.00    -0.393 OA
ATOM     32  H   UNL     1       0.725 -50.120  35.896  1.00  0.00     0.210 HD
ENDBRANCH  20  31
TORSDOF 1
ENDMDL
MODEL 6
REMARK VINA RESULT:    -5.247      6.248     10.474
REMARK INTER + INTRA:          -5.401
REMARK INTER:                  -5.401
REMARK INTRA:                   0.000
REMARK UNBOUND:                 0.000
REMARK SMILES CC1(C)CC[C@@]2(C)CC[C@@]3(C)C(=CC[C@@H]4[C@@]5(C)CC[C@@H](O)C(C)(C)[C@@H]5CC[C@@]43C)[C@@H]2C1
REMARK SMILES IDX 1 1 2 2 4 3 5 4 6 5 8 6 9 7 10 8 12 9 13 10 14 11 15 12
REMARK SMILES IDX 28 13 27 14 26 15 25 16 16 17 18 18 19 19 20 20 22 21 23 22
REMARK SMILES IDX 24 23 17 24 29 25 30 26 31 27 11 28 7 29 3 30 21 31
REMARK H PARENT 21 32
REMARK Flexibility Score: inf
ROOT
ATOM      1  C   UNL     1       3.499 -48.328  43.416  1.00  0.00     0.011 C 
ATOM      2  C   UNL     1       2.175 -47.569  43.179  1.00  0.00    -0.035 C 
ATOM      3  C   UNL     1       1.822 -47.660  41.674  1.00  0.00     0.007 C 
ATOM      4  C   UNL     1       0.633 -46.771  41.275  1.00  0.00     0.008 C 
ATOM      5  C   UNL     1       0.830 -45.280  41.665  1.00  0.00    -0.026 C 
ATOM      6  C   UNL     1      -0.502 -44.514  41.441  1.00  0.00     0.008 C 
ATOM      7  C   UNL     1      -0.531 -43.071  42.027  1.00  0.00     0.012 C 
ATOM      8  C   UNL     1      -0.061 -42.897  43.534  1.00  0.00    -0.006 C 
ATOM      9  C   UNL     1       1.250 -43.709  43.595  1.00  0.00    -0.064 C 
ATOM     10  C   UNL     1       2.435 -43.094  43.539  1.00  0.00    -0.027 C 
ATOM     11  C   UNL     1       2.624 -41.706  43.979  1.00  0.00     0.032 C 
ATOM     12  C   UNL     1       1.498 -40.717  43.598  1.00  0.00     0.006 C 
ATOM     13  C   UNL     1       0.065 -41.313  43.965  1.00  0.00    -0.020 C 
ATOM     14  C   UNL     1      -0.104 -41.038  45.496  1.00  0.00     0.008 C 
ATOM     15  C   UNL     1      -0.016 -39.532  45.899  1.00  0.00     0.005 C 
ATOM     16  C   UNL     1       0.635 -38.587  44.841  1.00  0.00     0.003 C 
ATOM     17  C   UNL     1       1.871 -39.251  44.198  1.00  0.00    -0.025 C 
ATOM     18  C   UNL     1       2.304 -38.362  43.009  1.00  0.00     0.010 C 
ATOM     19  C   UNL     1       2.654 -36.901  43.357  1.00  0.00     0.033 C 
ATOM     20  C   UNL     1       1.976 -36.285  44.635  1.00  0.00     0.120 C 
ATOM     21  C   UNL     1       0.725 -37.038  45.253  1.00  0.00    -0.006 C 
ATOM     22  C   UNL     1      -0.583 -36.331  44.759  1.00  0.00     0.014 C 
ATOM     23  C   UNL     1       0.771 -36.822  46.796  1.00  0.00     0.014 C 
ATOM     24  C   UNL     1       3.022 -39.284  45.266  1.00  0.00     0.012 C 
ATOM     25  C   UNL     1      -1.125 -40.566  43.243  1.00  0.00     0.012 C 
ATOM     26  C   UNL     1       1.177 -45.184  43.171  1.00  0.00     0.022 C 
ATOM     27  C   UNL     1       2.375 -46.083  43.583  1.00  0.00     0.015 C 
ATOM     28  C   UNL     1      -1.125 -43.581  44.449  1.00  0.00     0.017 C 
ATOM     29  C   UNL     1       1.934 -44.657  40.763  1.00  0.00     0.012 C 
ATOM     30  C   UNL     1       1.074 -48.245  44.033  1.00  0.00     0.011 C 
ENDROOT
BRANCH  20  31
ATOM     31  O   UNL     1       1.731 -34.893  44.504  1.00  0.00    -0.393 OA
ATOM     32  H   UNL     1       2.568 -34.363  44.638  1.00  0.00     0.210 HD
ENDBRANCH  20  31
TORSDOF 1
ENDMDL
MODEL 7
REMARK VINA RESULT:    -5.229      4.194     10.074
REMARK INTER + INTRA:          -5.382
REMARK INTER:                  -5.382
REMARK INTRA:                   0.000
REMARK UNBOUND:                 0.000
REMARK SMILES CC1(C)CC[C@@]2(C)CC[C@@]3(C)C(=CC[C@@H]4[C@@]5(C)CC[C@@H](O)C(C)(C)[C@@H]5CC[C@@]43C)[C@@H]2C1
REMARK SMILES IDX 1 1 2 2 4 3 5 4 6 5 8 6 9 7 10 8 12 9 13 10 14 11 15 12
REMARK SMILES IDX 28 13 27 14 26 15 25 16 16 17 18 18 19 19 20 20 22 21 23 22
REMARK SMILES IDX 24 23 17 24 29 25 30 26 31 27 11 28 7 29 3 30 21 31
REMARK H PARENT 21 32
REMARK Flexibility Score: inf
ROOT
ATOM      1  C   UNL     1       1.606 -50.311  45.621  1.00  0.00     0.011 C 
ATOM      2  C   UNL     1       1.335 -49.222  44.559  1.00  0.00    -0.035 C 
ATOM      3  C   UNL     1       2.239 -49.500  43.332  1.00  0.00     0.007 C 
ATOM      4  C   UNL     1       2.211 -48.369  42.291  1.00  0.00     0.008 C 
ATOM      5  C   UNL     1       2.570 -46.981  42.889  1.00  0.00    -0.026 C 
ATOM      6  C   UNL     1       2.287 -45.881  41.830  1.00  0.00     0.008 C 
ATOM      7  C   UNL     1       2.357 -44.421  42.371  1.00  0.00     0.012 C 
ATOM      8  C   UNL     1       1.545 -44.107  43.699  1.00  0.00    -0.006 C 
ATOM      9  C   UNL     1       1.923 -45.276  44.634  1.00  0.00    -0.064 C 
ATOM     10  C   UNL     1       2.839 -45.113  45.591  1.00  0.00    -0.027 C 
ATOM     11  C   UNL     1       3.119 -43.806  46.200  1.00  0.00     0.032 C 
ATOM     12  C   UNL     1       3.149 -42.601  45.232  1.00  0.00     0.006 C 
ATOM     13  C   UNL     1       1.868 -42.601  44.281  1.00  0.00    -0.020 C 
ATOM     14  C   UNL     1       0.724 -41.977  45.148  1.00  0.00     0.008 C 
ATOM     15  C   UNL     1       1.020 -40.536  45.671  1.00  0.00     0.005 C 
ATOM     16  C   UNL     1       2.517 -40.098  45.637  1.00  0.00     0.003 C 
ATOM     17  C   UNL     1       3.437 -41.251  46.093  1.00  0.00    -0.025 C 
ATOM     18  C   UNL     1       4.894 -40.820  45.801  1.00  0.00     0.010 C 
ATOM     19  C   UNL     1       5.357 -39.519  46.486  1.00  0.00     0.033 C 
ATOM     20  C   UNL     1       4.249 -38.464  46.850  1.00  0.00     0.120 C 
ATOM     21  C   UNL     1       2.823 -38.617  46.174  1.00  0.00    -0.006 C 
ATOM     22  C   UNL     1       2.733 -37.635  44.957  1.00  0.00     0.014 C 
ATOM     23  C   UNL     1       1.766 -38.116  47.206  1.00  0.00     0.014 C 
ATOM     24  C   UNL     1       3.254 -41.442  47.641  1.00  0.00     0.012 C 
ATOM     25  C   UNL     1       2.030 -41.667  43.017  1.00  0.00     0.012 C 
ATOM     26  C   UNL     1       1.663 -46.697  44.111  1.00  0.00     0.022 C 
ATOM     27  C   UNL     1       1.683 -47.836  45.167  1.00  0.00     0.015 C 
ATOM     28  C   UNL     1       0.023 -44.197  43.363  1.00  0.00     0.017 C 
ATOM     29  C   UNL     1       4.081 -46.958  43.256  1.00  0.00     0.012 C 
ATOM     30  C   UNL     1      -0.160 -49.305  44.157  1.00  0.00     0.011 C 
ENDROOT
BRANCH  20  31
ATOM     31  O   UNL     1       4.721 -37.128  46.769  1.00  0.00    -0.393 OA
ATOM     32  H   UNL     1       4.148 -36.508  47.303  1.00  0.00     0.210 HD
ENDBRANCH  20  31
TORSDOF 1
ENDMDL
MODEL 8
REMARK VINA RESULT:    -5.212      5.696      8.196
REMARK INTER + INTRA:          -5.365
REMARK INTER:                  -5.365
REMARK INTRA:                   0.000
REMARK UNBOUND:                 0.000
REMARK SMILES CC1(C)CC[C@@]2(C)CC[C@@]3(C)C(=CC[C@@H]4[C@@]5(C)CC[C@@H](O)C(C)(C)[C@@H]5CC[C@@]43C)[C@@H]2C1
REMARK SMILES IDX 1 1 2 2 4 3 5 4 6 5 8 6 9 7 10 8 12 9 13 10 14 11 15 12
REMARK SMILES IDX 28 13 27 14 26 15 25 16 16 17 18 18 19 19 20 20 22 21 23 22
REMARK SMILES IDX 24 23 17 24 29 25 30 26 31 27 11 28 7 29 3 30 21 31
REMARK H PARENT 21 32
REMARK Flexibility Score: inf
ROOT
ATOM      1  C   UNL     1       1.878 -36.691  43.010  1.00  0.00     0.011 C 
ATOM      2  C   UNL     1       1.280 -37.657  44.055  1.00  0.00    -0.035 C 
ATOM      3  C   UNL     1       2.039 -37.464  45.391  1.00  0.00     0.007 C 
ATOM      4  C   UNL     1       1.673 -38.513  46.453  1.00  0.00     0.008 C 
ATOM      5  C   UNL     1       1.867 -39.973  45.959  1.00  0.00    -0.026 C 
ATOM      6  C   UNL     1       1.256 -40.950  47.001  1.00  0.00     0.008 C 
ATOM      7  C   UNL     1       1.148 -42.429  46.524  1.00  0.00     0.012 C 
ATOM      8  C   UNL     1       0.486 -42.680  45.102  1.00  0.00    -0.006 C 
ATOM      9  C   UNL     1       1.185 -41.644  44.196  1.00  0.00    -0.064 C 
ATOM     10  C   UNL     1       2.183 -42.011  43.388  1.00  0.00    -0.027 C 
ATOM     11  C   UNL     1       2.315 -43.379  42.869  1.00  0.00     0.032 C 
ATOM     12  C   UNL     1       2.003 -44.515  43.870  1.00  0.00     0.006 C 
ATOM     13  C   UNL     1       0.623 -44.249  44.624  1.00  0.00    -0.020 C 
ATOM     14  C   UNL     1      -0.480 -44.723  43.620  1.00  0.00     0.008 C 
ATOM     15  C   UNL     1      -0.368 -46.221  43.192  1.00  0.00     0.005 C 
ATOM     16  C   UNL     1       1.013 -46.898  43.459  1.00  0.00     0.003 C 
ATOM     17  C   UNL     1       2.172 -45.941  43.105  1.00  0.00    -0.025 C 
ATOM     18  C   UNL     1       3.477 -46.590  43.620  1.00  0.00     0.010 C 
ATOM     19  C   UNL     1       3.800 -47.987  43.053  1.00  0.00     0.033 C 
ATOM     20  C   UNL     1       2.589 -48.862  42.566  1.00  0.00     0.120 C 
ATOM     21  C   UNL     1       1.131 -48.437  43.020  1.00  0.00    -0.006 C 
ATOM     22  C   UNL     1       0.706 -49.320  44.243  1.00  0.00     0.014 C 
ATOM     23  C   UNL     1       0.156 -48.814  41.863  1.00  0.00     0.014 C 
ATOM     24  C   UNL     1       2.240 -45.810  41.541  1.00  0.00     0.012 C 
ATOM     25  C   UNL     1       0.445 -45.123  45.928  1.00  0.00     0.012 C 
ATOM     26  C   UNL     1       1.103 -40.172  44.628  1.00  0.00     0.022 C 
ATOM     27  C   UNL     1       1.465 -39.114  43.550  1.00  0.00     0.015 C 
ATOM     28  C   UNL     1      -1.030 -42.320  45.210  1.00  0.00     0.017 C 
ATOM     29  C   UNL     1       3.388 -40.268  45.819  1.00  0.00     0.012 C 
ATOM     30  C   UNL     1      -0.219 -37.306  44.232  1.00  0.00     0.011 C 
ENDROOT
BRANCH  20  31
ATOM     31  O   UNL     1       2.808 -50.252  42.759  1.00  0.00    -0.393 OA
ATOM     32  H   UNL     1       2.109 -50.796  42.297  1.00  0.00     0.210 HD
ENDBRANCH  20  31
TORSDOF 1
ENDMDL
MODEL 9
REMARK VINA RESULT:    -5.084      7.224     11.792
REMARK INTER + INTRA:          -5.232
REMARK INTER:                  -5.232
REMARK INTRA:                   0.000
REMARK UNBOUND:                 0.000
REMARK SMILES CC1(C)CC[C@@]2(C)CC[C@@]3(C)C(=CC[C@@H]4[C@@]5(C)CC[C@@H](O)C(C)(C)[C@@H]5CC[C@@]43C)[C@@H]2C1
REMARK SMILES IDX 1 1 2 2 4 3 5 4 6 5 8 6 9 7 10 8 12 9 13 10 14 11 15 12
REMARK SMILES IDX 28 13 27 14 26 15 25 16 16 17 18 18 19 19 20 20 22 21 23 22
REMARK SMILES IDX 24 23 17 24 29 25 30 26 31 27 11 28 7 29 3 30 21 31
REMARK H PARENT 21 32
REMARK Flexibility Score: inf
ROOT
ATOM      1  C   UNL     1       1.715 -41.372  45.703  1.00  0.00     0.011 C 
ATOM      2  C   UNL     1       1.256 -42.842  45.823  1.00  0.00    -0.035 C 
ATOM      3  C   UNL     1       2.123 -43.538  46.902  1.00  0.00     0.007 C 
ATOM      4  C   UNL     1       1.901 -45.057  46.970  1.00  0.00     0.008 C 
ATOM      5  C   UNL     1       2.116 -45.766  45.604  1.00  0.00    -0.026 C 
ATOM      6  C   UNL     1       1.644 -47.242  45.715  1.00  0.00     0.008 C 
ATOM      7  C   UNL     1       1.560 -48.004  44.359  1.00  0.00     0.012 C 
ATOM      8  C   UNL     1       0.786 -47.282  43.175  1.00  0.00    -0.006 C 
ATOM      9  C   UNL     1       1.354 -45.848  43.200  1.00  0.00    -0.064 C 
ATOM     10  C   UNL     1       2.291 -45.472  42.326  1.00  0.00    -0.027 C 
ATOM     11  C   UNL     1       2.438 -46.102  41.007  1.00  0.00     0.032 C 
ATOM     12  C   UNL     1       2.268 -47.638  40.969  1.00  0.00     0.006 C 
ATOM     13  C   UNL     1       0.950 -48.086  41.748  1.00  0.00    -0.020 C 
ATOM     14  C   UNL     1      -0.216 -47.853  40.730  1.00  0.00     0.008 C 
ATOM     15  C   UNL     1      -0.075 -48.641  39.390  1.00  0.00     0.005 C 
ATOM     16  C   UNL     1       1.352 -49.185  39.073  1.00  0.00     0.003 C 
ATOM     17  C   UNL     1       2.431 -48.139  39.430  1.00  0.00    -0.025 C 
ATOM     18  C   UNL     1       3.805 -48.839  39.316  1.00  0.00     0.010 C 
ATOM     19  C   UNL     1       4.139 -49.440  37.935  1.00  0.00     0.033 C 
ATOM     20  C   UNL     1       2.929 -49.859  37.023  1.00  0.00     0.120 C 
ATOM     21  C   UNL     1       1.499 -49.996  37.696  1.00  0.00    -0.006 C 
ATOM     22  C   UNL     1       1.226 -51.510  37.996  1.00  0.00     0.014 C 
ATOM     23  C   UNL     1       0.443 -49.575  36.628  1.00  0.00     0.014 C 
ATOM     24  C   UNL     1       2.353 -46.976  38.379  1.00  0.00     0.012 C 
ATOM     25  C   UNL     1       0.929 -49.625  42.105  1.00  0.00     0.012 C 
ATOM     26  C   UNL     1       1.245 -45.077  44.525  1.00  0.00     0.022 C 
ATOM     27  C   UNL     1       1.461 -43.541  44.452  1.00  0.00     0.015 C 
ATOM     28  C   UNL     1      -0.729 -47.237  43.552  1.00  0.00     0.017 C 
ATOM     29  C   UNL     1       3.630 -45.741  45.247  1.00  0.00     0.012 C 
ATOM     30  C   UNL     1      -0.235 -42.847  46.244  1.00  0.00     0.011 C 
ENDROOT
BRANCH  20  31
ATOM     31  O   UNL     1       3.227 -50.981  36.205  1.00  0.00    -0.393 OA
ATOM     32  H   UNL     1       2.716 -50.949  35.347  1.00  0.00     0.210 HD
ENDBRANCH  20  31
TORSDOF 1
ENDMDL
