MODEL 1
REMARK VINA RESULT:    -4.447      0.000      0.000
REMARK INTER + INTRA:         -15.946
REMARK INTER:                 -11.206
REMARK INTRA:                  -4.740
REMARK UNBOUND:                -4.740
REMARK SMILES CCCCCCCCCCCCCCCCCCCCCCCCCCCC(=O)[O-]
REMARK SMILES IDX 15 1 16 2 17 3 18 4 19 5 20 6 21 7 22 8 23 9 24 10 25 11
REMARK SMILES IDX 26 12 27 13 28 14 29 15 30 16 14 17 13 18 12 19 11 20 10 21
REMARK SMILES IDX 9 22 8 23 7 24 6 25 5 26 4 27 3 28 2 29 1 30
REMARK H PARENT
REMARK Flexibility Score: inf
ROOT
ATOM      1  C   UNL     1     133.747 135.519 140.031  1.00  0.00     0.000 C 
ENDROOT
BRANCH   1   2
ATOM      2  C   UNL     1     133.396 136.517 141.154  1.00  0.00     0.000 C 
BRANCH   2   3
ATOM      3  C   UNL     1     133.261 137.975 140.674  1.00  0.00     0.000 C 
BRANCH   3   4
ATOM      4  C   UNL     1     134.534 138.831 140.810  1.00  0.00     0.000 C 
BRANCH   4   5
ATOM      5  C   UNL     1     135.454 138.836 139.576  1.00  0.00     0.000 C 
BRANCH   5   6
ATOM      6  C   UNL     1     136.583 137.796 139.659  1.00  0.00     0.000 C 
BRANCH   6   7
ATOM      7  C   UNL     1     137.200 137.695 141.070  1.00  0.00     0.000 C 
BRANCH   7   8
ATOM      8  C   UNL     1     136.980 136.331 141.758  1.00  0.00     0.000 C 
BRANCH   8   9
ATOM      9  C   UNL     1     138.272 135.573 142.115  1.00  0.00     0.000 C 
BRANCH   9  10
ATOM     10  C   UNL     1     139.559 136.370 141.793  1.00  0.00     0.000 C 
BRANCH  10  11
ATOM     11  C   UNL     1     140.418 135.678 140.722  1.00  0.00     0.000 C 
BRANCH  11  12
ATOM     12  C   UNL     1     140.014 136.082 139.294  1.00  0.00     0.006 C 
BRANCH  12  13
ATOM     13  C   UNL     1     139.137 135.022 138.613  1.00  0.00     0.053 C 
BRANCH  13  14
ATOM     14  C   UNL     1     139.658 133.649 138.902  1.00  0.00     0.041 C 
ATOM     15  O   UNL     1     140.723 133.249 138.362  1.00  0.00    -0.550 OA
ATOM     16  O   UNL     1     138.993 132.827 139.805  1.00  0.00    -0.550 OA
ENDBRANCH  13  14
ENDBRANCH  12  13
ENDBRANCH  11  12
ENDBRANCH  10  11
ENDBRANCH   9  10
ENDBRANCH   8   9
ENDBRANCH   7   8
ENDBRANCH   6   7
ENDBRANCH   5   6
ENDBRANCH   4   5
ENDBRANCH   3   4
ENDBRANCH   2   3
ENDBRANCH   1   2
BRANCH   1  17
ATOM     17  C   UNL     1     132.978 135.794 138.726  1.00  0.00     0.000 C 
BRANCH  17  18
ATOM     18  C   UNL     1     132.134 134.580 138.283  1.00  0.00     0.000 C 
BRANCH  18  19
ATOM     19  C   UNL     1     132.554 133.261 138.955  1.00  0.00     0.000 C 
BRANCH  19  20
ATOM     20  C   UNL     1     131.386 132.274 139.113  1.00  0.00     0.000 C 
BRANCH  20  21
ATOM     21  C   UNL     1     130.741 132.335 140.506  1.00  0.00     0.000 C 
BRANCH  21  22
ATOM     22  C   UNL     1     129.581 133.344 140.581  1.00  0.00    -0.000 C 
BRANCH  22  23
ATOM     23  C   UNL     1     129.916 134.570 141.456  1.00  0.00    -0.000 C 
BRANCH  23  24
ATOM     24  C   UNL     1     129.791 135.922 140.725  1.00  0.00    -0.000 C 
BRANCH  24  25
ATOM     25  C   UNL     1     128.896 135.932 139.471  1.00  0.00    -0.000 C 
BRANCH  25  26
ATOM     26  C   UNL     1     129.269 136.969 138.387  1.00  0.00    -0.000 C 
BRANCH  26  27
ATOM     27  C   UNL     1     129.878 138.273 138.936  1.00  0.00    -0.000 C 
BRANCH  27  28
ATOM     28  C   UNL     1     130.928 138.916 138.001  1.00  0.00    -0.000 C 
BRANCH  28  29
ATOM     29  C   UNL     1     131.105 140.414 138.287  1.00  0.00    -0.003 C 
ATOM     30  C   UNL     1     130.883 140.724 139.762  1.00  0.00     0.004 C 
ENDBRANCH  28  29
ENDBRANCH  27  28
ENDBRANCH  26  27
ENDBRANCH  25  26
ENDBRANCH  24  25
ENDBRANCH  23  24
ENDBRANCH  22  23
ENDBRANCH  21  22
ENDBRANCH  20  21
ENDBRANCH  19  20
ENDBRANCH  18  19
ENDBRANCH  17  18
ENDBRANCH   1  17
TORSDOF 26
ENDMDL
MODEL 2
REMARK VINA RESULT:    -4.441      3.181      6.440
REMARK INTER + INTRA:         -15.931
REMARK INTER:                 -12.637
REMARK INTRA:                  -3.294
REMARK UNBOUND:                -4.740
REMARK SMILES CCCCCCCCCCCCCCCCCCCCCCCCCCCC(=O)[O-]
REMARK SMILES IDX 15 1 16 2 17 3 18 4 19 5 20 6 21 7 22 8 23 9 24 10 25 11
REMARK SMILES IDX 26 12 27 13 28 14 29 15 30 16 14 17 13 18 12 19 11 20 10 21
REMARK SMILES IDX 9 22 8 23 7 24 6 25 5 26 4 27 3 28 2 29 1 30
REMARK H PARENT
REMARK Flexibility Score: inf
ROOT
ATOM      1  C   UNL     1     137.561 137.137 139.312  1.00  0.00     0.000 C 
ENDROOT
BRANCH   1   2
ATOM      2  C   UNL     1     138.919 137.065 140.042  1.00  0.00     0.000 C 
BRANCH   2   3
ATOM      3  C   UNL     1     140.007 136.301 139.264  1.00  0.00     0.000 C 
BRANCH   3   4
ATOM      4  C   UNL     1     139.487 135.199 138.320  1.00  0.00     0.000 C 
BRANCH   4   5
ATOM      5  C   UNL     1     139.889 133.764 138.706  1.00  0.00     0.000 C 
BRANCH   5   6
ATOM      6  C   UNL     1     138.903 133.102 139.683  1.00  0.00     0.000 C 
BRANCH   6   7
ATOM      7  C   UNL     1     139.242 133.388 141.161  1.00  0.00     0.000 C 
BRANCH   7   8
ATOM      8  C   UNL     1     138.056 133.935 141.984  1.00  0.00     0.000 C 
BRANCH   8   9
ATOM      9  C   UNL     1     136.763 134.162 141.180  1.00  0.00     0.000 C 
BRANCH   9  10
ATOM     10  C   UNL     1     135.787 135.154 141.856  1.00  0.00     0.000 C 
BRANCH  10  11
ATOM     11  C   UNL     1     134.329 134.917 141.429  1.00  0.00     0.000 C 
BRANCH  11  12
ATOM     12  C   UNL     1     134.130 135.075 139.912  1.00  0.00     0.006 C 
BRANCH  12  13
ATOM     13  C   UNL     1     133.504 136.428 139.543  1.00  0.00     0.053 C 
BRANCH  13  14
ATOM     14  C   UNL     1     132.562 136.271 138.391  1.00  0.00     0.041 C 
ATOM     15  O   UNL     1     132.246 135.122 137.984  1.00  0.00    -0.550 OA
ATOM     16  O   UNL     1     131.997 137.393 137.795  1.00  0.00    -0.550 OA
ENDBRANCH  13  14
ENDBRANCH  12  13
ENDBRANCH  11  12
ENDBRANCH  10  11
ENDBRANCH   9  10
ENDBRANCH   8   9
ENDBRANCH   7   8
ENDBRANCH   6   7
ENDBRANCH   5   6
ENDBRANCH   4   5
ENDBRANCH   3   4
ENDBRANCH   2   3
ENDBRANCH   1   2
BRANCH   1  17
ATOM     17  C   UNL     1     136.621 138.202 139.904  1.00  0.00     0.000 C 
BRANCH  17  18
ATOM     18  C   UNL     1     137.000 138.568 141.355  1.00  0.00     0.000 C 
BRANCH  18  19
ATOM     19  C   UNL     1     136.051 139.597 141.996  1.00  0.00     0.000 C 
BRANCH  19  20
ATOM     20  C   UNL     1     135.898 140.873 141.153  1.00  0.00     0.000 C 
BRANCH  20  21
ATOM     21  C   UNL     1     135.077 141.960 141.864  1.00  0.00     0.000 C 
BRANCH  21  22
ATOM     22  C   UNL     1     133.644 142.077 141.315  1.00  0.00    -0.000 C 
BRANCH  22  23
ATOM     23  C   UNL     1     132.989 140.702 141.066  1.00  0.00    -0.000 C 
BRANCH  23  24
ATOM     24  C   UNL     1     132.279 140.576 139.703  1.00  0.00    -0.000 C 
BRANCH  24  25
ATOM     25  C   UNL     1     130.915 141.282 139.584  1.00  0.00    -0.000 C 
BRANCH  25  26
ATOM     26  C   UNL     1     130.070 141.335 140.878  1.00  0.00    -0.000 C 
BRANCH  26  27
ATOM     27  C   UNL     1     128.551 141.428 140.642  1.00  0.00    -0.000 C 
BRANCH  27  28
ATOM     28  C   UNL     1     127.964 142.837 140.887  1.00  0.00    -0.000 C 
BRANCH  28  29
ATOM     29  C   UNL     1     127.231 143.373 139.649  1.00  0.00    -0.003 C 
ATOM     30  C   UNL     1     127.374 142.421 138.468  1.00  0.00     0.004 C 
ENDBRANCH  28  29
ENDBRANCH  27  28
ENDBRANCH  26  27
ENDBRANCH  25  26
ENDBRANCH  24  25
ENDBRANCH  23  24
ENDBRANCH  22  23
ENDBRANCH  21  22
ENDBRANCH  20  21
ENDBRANCH  19  20
ENDBRANCH  18  19
ENDBRANCH  17  18
ENDBRANCH   1  17
TORSDOF 26
ENDMDL
MODEL 3
REMARK VINA RESULT:    -4.441      4.177      7.937
REMARK INTER + INTRA:         -15.931
REMARK INTER:                 -12.206
REMARK INTRA:                  -3.724
REMARK UNBOUND:                -4.740
REMARK SMILES CCCCCCCCCCCCCCCCCCCCCCCCCCCC(=O)[O-]
REMARK SMILES IDX 15 1 16 2 17 3 18 4 19 5 20 6 21 7 22 8 23 9 24 10 25 11
REMARK SMILES IDX 26 12 27 13 28 14 29 15 30 16 14 17 13 18 12 19 11 20 10 21
REMARK SMILES IDX 9 22 8 23 7 24 6 25 5 26 4 27 3 28 2 29 1 30
REMARK H PARENT
REMARK Flexibility Score: inf
ROOT
ATOM      1  C   UNL     1     130.593 141.255 139.071  1.00  0.00     0.000 C 
ENDROOT
BRANCH   1   2
ATOM      2  C   UNL     1     130.197 139.871 138.514  1.00  0.00     0.000 C 
BRANCH   2   3
ATOM      3  C   UNL     1     128.704 139.534 138.682  1.00  0.00     0.000 C 
BRANCH   3   4
ATOM      4  C   UNL     1     128.407 138.240 139.464  1.00  0.00     0.000 C 
BRANCH   4   5
ATOM      5  C   UNL     1     129.125 136.982 138.943  1.00  0.00     0.000 C 
BRANCH   5   6
ATOM      6  C   UNL     1     128.566 135.677 139.534  1.00  0.00     0.000 C 
BRANCH   6   7
ATOM      7  C   UNL     1     129.522 135.025 140.555  1.00  0.00     0.000 C 
BRANCH   7   8
ATOM      8  C   UNL     1     129.413 133.487 140.628  1.00  0.00     0.000 C 
BRANCH   8   9
ATOM      9  C   UNL     1     130.492 132.726 139.836  1.00  0.00     0.000 C 
BRANCH   9  10
ATOM     10  C   UNL     1     131.927 133.236 140.109  1.00  0.00     0.000 C 
BRANCH  10  11
ATOM     11  C   UNL     1     132.651 133.649 138.818  1.00  0.00     0.000 C 
BRANCH  11  12
ATOM     12  C   UNL     1     132.270 135.067 138.359  1.00  0.00     0.006 C 
BRANCH  12  13
ATOM     13  C   UNL     1     133.104 136.151 139.057  1.00  0.00     0.053 C 
BRANCH  13  14
ATOM     14  C   UNL     1     133.054 137.429 138.281  1.00  0.00     0.041 C 
ATOM     15  O   UNL     1     133.513 138.491 138.779  1.00  0.00    -0.550 OA
ATOM     16  O   UNL     1     132.543 137.440 136.988  1.00  0.00    -0.550 OA
ENDBRANCH  13  14
ENDBRANCH  12  13
ENDBRANCH  11  12
ENDBRANCH  10  11
ENDBRANCH   9  10
ENDBRANCH   8   9
ENDBRANCH   7   8
ENDBRANCH   6   7
ENDBRANCH   5   6
ENDBRANCH   4   5
ENDBRANCH   3   4
ENDBRANCH   2   3
ENDBRANCH   1   2
BRANCH   1  17
ATOM     17  C   UNL     1     130.864 141.232 140.586  1.00  0.00     0.000 C 
BRANCH  17  18
ATOM     18  C   UNL     1     129.902 142.157 141.362  1.00  0.00     0.000 C 
BRANCH  18  19
ATOM     19  C   UNL     1     128.663 141.431 141.915  1.00  0.00     0.000 C 
BRANCH  19  20
ATOM     20  C   UNL     1     127.345 141.986 141.351  1.00  0.00     0.000 C 
BRANCH  20  21
ATOM     21  C   UNL     1     127.552 143.227 140.469  1.00  0.00     0.000 C 
BRANCH  21  22
ATOM     22  C   UNL     1     126.466 143.378 139.390  1.00  0.00    -0.000 C 
BRANCH  22  23
ATOM     23  C   UNL     1     126.816 142.630 138.086  1.00  0.00    -0.000 C 
BRANCH  23  24
ATOM     24  C   UNL     1     126.143 143.206 136.824  1.00  0.00    -0.000 C 
BRANCH  24  25
ATOM     25  C   UNL     1     125.398 142.194 135.934  1.00  0.00    -0.000 C 
BRANCH  25  26
ATOM     26  C   UNL     1     125.007 140.861 136.614  1.00  0.00    -0.000 C 
BRANCH  26  27
ATOM     27  C   UNL     1     125.278 139.608 135.760  1.00  0.00    -0.000 C 
BRANCH  27  28
ATOM     28  C   UNL     1     125.782 138.393 136.574  1.00  0.00    -0.000 C 
BRANCH  28  29
ATOM     29  C   UNL     1     125.835 137.118 135.721  1.00  0.00    -0.003 C 
ATOM     30  C   UNL     1     126.513 135.979 136.474  1.00  0.00     0.004 C 
ENDBRANCH  28  29
ENDBRANCH  27  28
ENDBRANCH  26  27
ENDBRANCH  25  26
ENDBRANCH  24  25
ENDBRANCH  23  24
ENDBRANCH  22  23
ENDBRANCH  21  22
ENDBRANCH  20  21
ENDBRANCH  19  20
ENDBRANCH  18  19
ENDBRANCH  17  18
ENDBRANCH   1  17
TORSDOF 26
ENDMDL
MODEL 4
REMARK VINA RESULT:    -4.430      2.675      8.412
REMARK INTER + INTRA:         -15.904
REMARK INTER:                 -11.089
REMARK INTRA:                  -4.815
REMARK UNBOUND:                -4.740
REMARK SMILES CCCCCCCCCCCCCCCCCCCCCCCCCCCC(=O)[O-]
REMARK SMILES IDX 15 1 16 2 17 3 18 4 19 5 20 6 21 7 22 8 23 9 24 10 25 11
REMARK SMILES IDX 26 12 27 13 28 14 29 15 30 16 14 17 13 18 12 19 11 20 10 21
REMARK SMILES IDX 9 22 8 23 7 24 6 25 5 26 4 27 3 28 2 29 1 30
REMARK H PARENT
REMARK Flexibility Score: inf
ROOT
ATOM      1  C   UNL     1     133.323 135.338 141.011  1.00  0.00     0.000 C 
ENDROOT
BRANCH   1   2
ATOM      2  C   UNL     1     133.584 135.284 139.491  1.00  0.00     0.000 C 
BRANCH   2   3
ATOM      3  C   UNL     1     132.512 134.509 138.701  1.00  0.00     0.000 C 
BRANCH   3   4
ATOM      4  C   UNL     1     132.623 132.975 138.776  1.00  0.00     0.000 C 
BRANCH   4   5
ATOM      5  C   UNL     1     131.406 132.260 139.391  1.00  0.00     0.000 C 
BRANCH   5   6
ATOM      6  C   UNL     1     131.494 132.123 140.920  1.00  0.00     0.000 C 
BRANCH   6   7
ATOM      7  C   UNL     1     130.135 132.340 141.618  1.00  0.00     0.000 C 
BRANCH   7   8
ATOM      8  C   UNL     1     128.972 132.652 140.652  1.00  0.00     0.000 C 
BRANCH   8   9
ATOM      9  C   UNL     1     128.382 134.067 140.790  1.00  0.00     0.000 C 
BRANCH   9  10
ATOM     10  C   UNL     1     129.074 135.111 139.881  1.00  0.00     0.000 C 
BRANCH  10  11
ATOM     11  C   UNL     1     129.905 136.122 140.687  1.00  0.00     0.000 C 
BRANCH  11  12
ATOM     12  C   UNL     1     129.778 137.554 140.140  1.00  0.00     0.006 C 
BRANCH  12  13
ATOM     13  C   UNL     1     129.965 137.616 138.617  1.00  0.00     0.053 C 
BRANCH  13  14
ATOM     14  C   UNL     1     131.303 138.193 138.278  1.00  0.00     0.041 C 
ATOM     15  O   UNL     1     131.763 139.161 138.942  1.00  0.00    -0.550 OA
ATOM     16  O   UNL     1     132.067 137.634 137.259  1.00  0.00    -0.550 OA
ENDBRANCH  13  14
ENDBRANCH  12  13
ENDBRANCH  11  12
ENDBRANCH  10  11
ENDBRANCH   9  10
ENDBRANCH   8   9
ENDBRANCH   7   8
ENDBRANCH   6   7
ENDBRANCH   5   6
ENDBRANCH   4   5
ENDBRANCH   3   4
ENDBRANCH   2   3
ENDBRANCH   1   2
BRANCH   1  17
ATOM     17  C   UNL     1     134.309 134.472 141.816  1.00  0.00     0.000 C 
BRANCH  17  18
ATOM     18  C   UNL     1     135.744 135.040 141.780  1.00  0.00     0.000 C 
BRANCH  18  19
ATOM     19  C   UNL     1     136.792 134.031 141.277  1.00  0.00     0.000 C 
BRANCH  19  20
ATOM     20  C   UNL     1     137.085 134.175 139.774  1.00  0.00     0.000 C 
BRANCH  20  21
ATOM     21  C   UNL     1     138.272 133.313 139.316  1.00  0.00     0.000 C 
BRANCH  21  22
ATOM     22  C   UNL     1     139.419 134.149 138.721  1.00  0.00    -0.000 C 
BRANCH  22  23
ATOM     23  C   UNL     1     140.714 134.060 139.555  1.00  0.00    -0.000 C 
BRANCH  23  24
ATOM     24  C   UNL     1     141.074 135.356 140.308  1.00  0.00    -0.000 C 
BRANCH  24  25
ATOM     25  C   UNL     1     140.575 135.452 141.763  1.00  0.00    -0.000 C 
BRANCH  25  26
ATOM     26  C   UNL     1     139.408 136.436 142.010  1.00  0.00    -0.000 C 
BRANCH  26  27
ATOM     27  C   UNL     1     138.936 137.192 140.754  1.00  0.00    -0.000 C 
BRANCH  27  28
ATOM     28  C   UNL     1     137.677 138.060 140.981  1.00  0.00    -0.000 C 
BRANCH  28  29
ATOM     29  C   UNL     1     136.712 137.989 139.790  1.00  0.00    -0.003 C 
ATOM     30  C   UNL     1     135.315 138.453 140.184  1.00  0.00     0.004 C 
ENDBRANCH  28  29
ENDBRANCH  27  28
ENDBRANCH  26  27
ENDBRANCH  25  26
ENDBRANCH  24  25
ENDBRANCH  23  24
ENDBRANCH  22  23
ENDBRANCH  21  22
ENDBRANCH  20  21
ENDBRANCH  19  20
ENDBRANCH  18  19
ENDBRANCH  17  18
ENDBRANCH   1  17
TORSDOF 26
ENDMDL
MODEL 5
REMARK VINA RESULT:    -4.371      4.563      8.099
REMARK INTER + INTRA:         -15.756
REMARK INTER:                 -12.148
REMARK INTRA:                  -3.608
REMARK UNBOUND:                -4.740
REMARK SMILES CCCCCCCCCCCCCCCCCCCCCCCCCCCC(=O)[O-]
REMARK SMILES IDX 15 1 16 2 17 3 18 4 19 5 20 6 21 7 22 8 23 9 24 10 25 11
REMARK SMILES IDX 26 12 27 13 28 14 29 15 30 16 14 17 13 18 12 19 11 20 10 21
REMARK SMILES IDX 9 22 8 23 7 24 6 25 5 26 4 27 3 28 2 29 1 30
REMARK H PARENT
REMARK Flexibility Score: inf
ROOT
ATOM      1  C   UNL     1     128.399 138.395 137.501  1.00  0.00     0.000 C 
ENDROOT
BRANCH   1   2
ATOM      2  C   UNL     1     127.747 137.033 137.821  1.00  0.00     0.000 C 
BRANCH   2   3
ATOM      3  C   UNL     1     127.486 136.803 139.322  1.00  0.00     0.000 C 
BRANCH   3   4
ATOM      4  C   UNL     1     127.372 135.327 139.749  1.00  0.00     0.000 C 
BRANCH   4   5
ATOM      5  C   UNL     1     128.532 134.805 140.616  1.00  0.00     0.000 C 
BRANCH   5   6
ATOM      6  C   UNL     1     128.251 133.427 141.238  1.00  0.00     0.000 C 
BRANCH   6   7
ATOM      7  C   UNL     1     129.151 132.316 140.659  1.00  0.00     0.000 C 
BRANCH   7   8
ATOM      8  C   UNL     1     130.638 132.712 140.528  1.00  0.00     0.000 C 
BRANCH   8   9
ATOM      9  C   UNL     1     131.319 132.236 139.232  1.00  0.00     0.000 C 
BRANCH   9  10
ATOM     10  C   UNL     1     132.460 133.170 138.762  1.00  0.00     0.000 C 
BRANCH  10  11
ATOM     11  C   UNL     1     132.345 134.578 139.367  1.00  0.00     0.000 C 
BRANCH  11  12
ATOM     12  C   UNL     1     131.480 135.516 138.508  1.00  0.00     0.006 C 
BRANCH  12  13
ATOM     13  C   UNL     1     131.432 136.944 139.071  1.00  0.00     0.053 C 
BRANCH  13  14
ATOM     14  C   UNL     1     132.387 137.828 138.334  1.00  0.00     0.041 C 
ATOM     15  O   UNL     1     133.035 137.380 137.350  1.00  0.00    -0.550 OA
ATOM     16  O   UNL     1     132.530 139.162 138.701  1.00  0.00    -0.550 OA
ENDBRANCH  13  14
ENDBRANCH  12  13
ENDBRANCH  11  12
ENDBRANCH  10  11
ENDBRANCH   9  10
ENDBRANCH   8   9
ENDBRANCH   7   8
ENDBRANCH   6   7
ENDBRANCH   5   6
ENDBRANCH   4   5
ENDBRANCH   3   4
ENDBRANCH   2   3
ENDBRANCH   1   2
BRANCH   1  17
ATOM     17  C   UNL     1     128.031 139.486 138.521  1.00  0.00     0.000 C 
BRANCH  17  18
ATOM     18  C   UNL     1     129.269 140.020 139.273  1.00  0.00     0.000 C 
BRANCH  18  19
ATOM     19  C   UNL     1     129.025 140.248 140.775  1.00  0.00     0.000 C 
BRANCH  19  20
ATOM     20  C   UNL     1     129.625 141.569 141.283  1.00  0.00     0.000 C 
BRANCH  20  21
ATOM     21  C   UNL     1     128.721 142.779 141.002  1.00  0.00     0.000 C 
BRANCH  21  22
ATOM     22  C   UNL     1     127.232 142.401 140.915  1.00  0.00    -0.000 C 
BRANCH  22  23
ATOM     23  C   UNL     1     126.371 143.518 140.288  1.00  0.00    -0.000 C 
BRANCH  23  24
ATOM     24  C   UNL     1     126.734 143.854 138.828  1.00  0.00    -0.000 C 
BRANCH  24  25
ATOM     25  C   UNL     1     126.544 142.716 137.806  1.00  0.00    -0.000 C 
BRANCH  25  26
ATOM     26  C   UNL     1     125.809 143.100 136.502  1.00  0.00    -0.000 C 
BRANCH  26  27
ATOM     27  C   UNL     1     125.199 141.908 135.740  1.00  0.00    -0.000 C 
BRANCH  27  28
ATOM     28  C   UNL     1     125.402 140.546 136.443  1.00  0.00    -0.000 C 
BRANCH  28  29
ATOM     29  C   UNL     1     124.810 139.389 135.627  1.00  0.00    -0.003 C 
ATOM     30  C   UNL     1     124.431 138.218 136.525  1.00  0.00     0.004 C 
ENDBRANCH  28  29
ENDBRANCH  27  28
ENDBRANCH  26  27
ENDBRANCH  25  26
ENDBRANCH  24  25
ENDBRANCH  23  24
ENDBRANCH  22  23
ENDBRANCH  21  22
ENDBRANCH  20  21
ENDBRANCH  19  20
ENDBRANCH  18  19
ENDBRANCH  17  18
ENDBRANCH   1  17
TORSDOF 26
ENDMDL
MODEL 6
REMARK VINA RESULT:    -4.365      3.220      9.369
REMARK INTER + INTRA:         -15.740
REMARK INTER:                 -12.307
REMARK INTRA:                  -3.432
REMARK UNBOUND:                -4.740
REMARK SMILES CCCCCCCCCCCCCCCCCCCCCCCCCCCC(=O)[O-]
REMARK SMILES IDX 15 1 16 2 17 3 18 4 19 5 20 6 21 7 22 8 23 9 24 10 25 11
REMARK SMILES IDX 26 12 27 13 28 14 29 15 30 16 14 17 13 18 12 19 11 20 10 21
REMARK SMILES IDX 9 22 8 23 7 24 6 25 5 26 4 27 3 28 2 29 1 30
REMARK H PARENT
REMARK Flexibility Score: inf
ROOT
ATOM      1  C   UNL     1     130.630 141.599 139.610  1.00  0.00     0.000 C 
ENDROOT
BRANCH   1   2
ATOM      2  C   UNL     1     130.076 141.518 141.048  1.00  0.00     0.000 C 
BRANCH   2   3
ATOM      3  C   UNL     1     129.037 142.606 141.380  1.00  0.00     0.000 C 
BRANCH   3   4
ATOM      4  C   UNL     1     127.631 142.371 140.794  1.00  0.00     0.000 C 
BRANCH   4   5
ATOM      5  C   UNL     1     126.920 143.634 140.276  1.00  0.00     0.000 C 
BRANCH   5   6
ATOM      6  C   UNL     1     126.357 143.471 138.855  1.00  0.00     0.000 C 
BRANCH   6   7
ATOM      7  C   UNL     1     127.134 142.432 138.019  1.00  0.00     0.000 C 
BRANCH   7   8
ATOM      8  C   UNL     1     126.236 141.413 137.286  1.00  0.00     0.000 C 
BRANCH   8   9
ATOM      9  C   UNL     1     126.811 139.987 137.206  1.00  0.00     0.000 C 
BRANCH   9  10
ATOM     10  C   UNL     1     127.992 139.748 138.177  1.00  0.00     0.000 C 
BRANCH  10  11
ATOM     11  C   UNL     1     129.097 138.886 137.546  1.00  0.00     0.000 C 
BRANCH  11  12
ATOM     12  C   UNL     1     129.708 137.890 138.547  1.00  0.00     0.006 C 
BRANCH  12  13
ATOM     13  C   UNL     1     131.129 137.462 138.150  1.00  0.00     0.053 C 
BRANCH  13  14
ATOM     14  C   UNL     1     131.319 135.998 138.392  1.00  0.00     0.041 C 
ATOM     15  O   UNL     1     132.359 135.418 137.980  1.00  0.00    -0.550 OA
ATOM     16  O   UNL     1     130.371 135.281 139.114  1.00  0.00    -0.550 OA
ENDBRANCH  13  14
ENDBRANCH  12  13
ENDBRANCH  11  12
ENDBRANCH  10  11
ENDBRANCH   9  10
ENDBRANCH   8   9
ENDBRANCH   7   8
ENDBRANCH   6   7
ENDBRANCH   5   6
ENDBRANCH   4   5
ENDBRANCH   3   4
ENDBRANCH   2   3
ENDBRANCH   1   2
BRANCH   1  17
ATOM     17  C   UNL     1     131.983 140.882 139.452  1.00  0.00     0.000 C 
BRANCH  17  18
ATOM     18  C   UNL     1     132.739 140.766 140.792  1.00  0.00     0.000 C 
BRANCH  18  19
ATOM     19  C   UNL     1     133.960 139.831 140.729  1.00  0.00     0.000 C 
BRANCH  19  20
ATOM     20  C   UNL     1     133.613 138.374 141.075  1.00  0.00     0.000 C 
BRANCH  20  21
ATOM     21  C   UNL     1     134.350 137.361 140.185  1.00  0.00     0.000 C 
BRANCH  21  22
ATOM     22  C   UNL     1     135.157 138.034 139.061  1.00  0.00    -0.000 C 
BRANCH  22  23
ATOM     23  C   UNL     1     136.616 137.536 138.996  1.00  0.00    -0.000 C 
BRANCH  23  24
ATOM     24  C   UNL     1     137.191 137.082 140.353  1.00  0.00    -0.000 C 
BRANCH  24  25
ATOM     25  C   UNL     1     138.693 137.345 140.572  1.00  0.00    -0.000 C 
BRANCH  25  26
ATOM     26  C   UNL     1     139.643 136.745 139.510  1.00  0.00    -0.000 C 
BRANCH  26  27
ATOM     27  C   UNL     1     140.568 135.632 140.039  1.00  0.00    -0.000 C 
BRANCH  27  28
ATOM     28  C   UNL     1     140.253 134.231 139.467  1.00  0.00    -0.000 C 
BRANCH  28  29
ATOM     29  C   UNL     1     139.179 134.290 138.373  1.00  0.00    -0.003 C 
ATOM     30  C   UNL     1     138.070 133.277 138.632  1.00  0.00     0.004 C 
ENDBRANCH  28  29
ENDBRANCH  27  28
ENDBRANCH  26  27
ENDBRANCH  25  26
ENDBRANCH  24  25
ENDBRANCH  23  24
ENDBRANCH  22  23
ENDBRANCH  21  22
ENDBRANCH  20  21
ENDBRANCH  19  20
ENDBRANCH  18  19
ENDBRANCH  17  18
ENDBRANCH   1  17
TORSDOF 26
ENDMDL
MODEL 7
REMARK VINA RESULT:    -4.344      1.360      2.879
REMARK INTER + INTRA:         -15.688
REMARK INTER:                 -11.684
REMARK INTRA:                  -4.004
REMARK UNBOUND:                -4.740
REMARK SMILES CCCCCCCCCCCCCCCCCCCCCCCCCCCC(=O)[O-]
REMARK SMILES IDX 15 1 16 2 17 3 18 4 19 5 20 6 21 7 22 8 23 9 24 10 25 11
REMARK SMILES IDX 26 12 27 13 28 14 29 15 30 16 14 17 13 18 12 19 11 20 10 21
REMARK SMILES IDX 9 22 8 23 7 24 6 25 5 26 4 27 3 28 2 29 1 30
REMARK H PARENT
REMARK Flexibility Score: inf
ROOT
ATOM      1  C   UNL     1     132.532 134.071 138.642  1.00  0.00     0.000 C 
ENDROOT
BRANCH   1   2
ATOM      2  C   UNL     1     133.638 134.394 139.669  1.00  0.00     0.000 C 
BRANCH   2   3
ATOM      3  C   UNL     1     133.885 135.902 139.866  1.00  0.00     0.000 C 
BRANCH   3   4
ATOM      4  C   UNL     1     134.300 136.318 141.291  1.00  0.00     0.000 C 
BRANCH   4   5
ATOM      5  C   UNL     1     134.278 137.833 141.561  1.00  0.00     0.000 C 
BRANCH   5   6
ATOM      6  C   UNL     1     135.682 138.457 141.624  1.00  0.00     0.000 C 
BRANCH   6   7
ATOM      7  C   UNL     1     136.361 138.542 140.240  1.00  0.00     0.000 C 
BRANCH   7   8
ATOM      8  C   UNL     1     137.540 137.563 140.055  1.00  0.00     0.000 C 
BRANCH   8   9
ATOM      9  C   UNL     1     137.944 136.793 141.326  1.00  0.00     0.000 C 
BRANCH   9  10
ATOM     10  C   UNL     1     137.896 135.256 141.153  1.00  0.00     0.000 C 
BRANCH  10  11
ATOM     11  C   UNL     1     137.487 134.844 139.729  1.00  0.00     0.000 C 
BRANCH  11  12
ATOM     12  C   UNL     1     137.864 133.387 139.410  1.00  0.00     0.006 C 
BRANCH  12  13
ATOM     13  C   UNL     1     139.241 133.004 139.971  1.00  0.00     0.053 C 
BRANCH  13  14
ATOM     14  C   UNL     1     140.329 133.612 139.145  1.00  0.00     0.041 C 
ATOM     15  O   UNL     1     140.379 133.397 137.904  1.00  0.00    -0.550 OA
ATOM     16  O   UNL     1     141.265 134.456 139.734  1.00  0.00    -0.550 OA
ENDBRANCH  13  14
ENDBRANCH  12  13
ENDBRANCH  11  12
ENDBRANCH  10  11
ENDBRANCH   9  10
ENDBRANCH   8   9
ENDBRANCH   7   8
ENDBRANCH   6   7
ENDBRANCH   5   6
ENDBRANCH   4   5
ENDBRANCH   3   4
ENDBRANCH   2   3
ENDBRANCH   1   2
BRANCH   1  17
ATOM     17  C   UNL     1     132.025 132.622 138.749  1.00  0.00     0.000 C 
BRANCH  17  18
ATOM     18  C   UNL     1     131.439 132.312 140.143  1.00  0.00     0.000 C 
BRANCH  18  19
ATOM     19  C   UNL     1     129.948 132.668 140.275  1.00  0.00     0.000 C 
BRANCH  19  20
ATOM     20  C   UNL     1     129.713 133.978 141.045  1.00  0.00     0.000 C 
BRANCH  20  21
ATOM     21  C   UNL     1     129.517 135.186 140.116  1.00  0.00     0.000 C 
BRANCH  21  22
ATOM     22  C   UNL     1     130.351 136.406 140.544  1.00  0.00    -0.000 C 
BRANCH  22  23
ATOM     23  C   UNL     1     130.024 137.668 139.718  1.00  0.00    -0.000 C 
BRANCH  23  24
ATOM     24  C   UNL     1     130.936 137.877 138.492  1.00  0.00    -0.000 C 
BRANCH  24  25
ATOM     25  C   UNL     1     132.099 138.870 138.678  1.00  0.00    -0.000 C 
BRANCH  25  26
ATOM     26  C   UNL     1     131.870 139.988 139.722  1.00  0.00    -0.000 C 
BRANCH  26  27
ATOM     27  C   UNL     1     131.240 141.272 139.151  1.00  0.00    -0.000 C 
BRANCH  27  28
ATOM     28  C   UNL     1     129.711 141.366 139.360  1.00  0.00    -0.000 C 
BRANCH  28  29
ATOM     29  C   UNL     1     129.359 142.011 140.708  1.00  0.00    -0.003 C 
ATOM     30  C   UNL     1     128.068 142.816 140.613  1.00  0.00     0.004 C 
ENDBRANCH  28  29
ENDBRANCH  27  28
ENDBRANCH  26  27
ENDBRANCH  25  26
ENDBRANCH  24  25
ENDBRANCH  23  24
ENDBRANCH  22  23
ENDBRANCH  21  22
ENDBRANCH  20  21
ENDBRANCH  19  20
ENDBRANCH  18  19
ENDBRANCH  17  18
ENDBRANCH   1  17
TORSDOF 26
ENDMDL
MODEL 8
REMARK VINA RESULT:    -4.328      3.130      6.218
REMARK INTER + INTRA:         -15.646
REMARK INTER:                 -11.012
REMARK INTRA:                  -4.634
REMARK UNBOUND:                -4.740
REMARK SMILES CCCCCCCCCCCCCCCCCCCCCCCCCCCC(=O)[O-]
REMARK SMILES IDX 15 1 16 2 17 3 18 4 19 5 20 6 21 7 22 8 23 9 24 10 25 11
REMARK SMILES IDX 26 12 27 13 28 14 29 15 30 16 14 17 13 18 12 19 11 20 10 21
REMARK SMILES IDX 9 22 8 23 7 24 6 25 5 26 4 27 3 28 2 29 1 30
REMARK H PARENT
REMARK Flexibility Score: inf
ROOT
ATOM      1  C   UNL     1     131.332 138.468 137.569  1.00  0.00     0.000 C 
ENDROOT
BRANCH   1   2
ATOM      2  C   UNL     1     130.474 139.735 137.772  1.00  0.00     0.000 C 
BRANCH   2   3
ATOM      3  C   UNL     1     129.252 139.522 138.686  1.00  0.00     0.000 C 
BRANCH   3   4
ATOM      4  C   UNL     1     128.159 140.603 138.583  1.00  0.00     0.000 C 
BRANCH   4   5
ATOM      5  C   UNL     1     128.637 142.042 138.848  1.00  0.00     0.000 C 
BRANCH   5   6
ATOM      6  C   UNL     1     127.773 142.786 139.880  1.00  0.00     0.000 C 
BRANCH   6   7
ATOM      7  C   UNL     1     128.076 142.361 141.331  1.00  0.00     0.000 C 
BRANCH   7   8
ATOM      8  C   UNL     1     129.575 142.397 141.699  1.00  0.00     0.000 C 
BRANCH   8   9
ATOM      9  C   UNL     1     130.209 141.017 141.955  1.00  0.00     0.000 C 
BRANCH   9  10
ATOM     10  C   UNL     1     131.582 140.836 141.264  1.00  0.00     0.000 C 
BRANCH  10  11
ATOM     11  C   UNL     1     131.975 139.356 141.132  1.00  0.00     0.000 C 
BRANCH  11  12
ATOM     12  C   UNL     1     133.496 139.144 141.214  1.00  0.00     0.006 C 
BRANCH  12  13
ATOM     13  C   UNL     1     134.165 139.175 139.831  1.00  0.00     0.053 C 
BRANCH  13  14
ATOM     14  C   UNL     1     135.554 138.624 139.911  1.00  0.00     0.041 C 
ATOM     15  O   UNL     1     135.848 137.558 139.307  1.00  0.00    -0.550 OA
ATOM     16  O   UNL     1     136.538 139.312 140.612  1.00  0.00    -0.550 OA
ENDBRANCH  13  14
ENDBRANCH  12  13
ENDBRANCH  11  12
ENDBRANCH  10  11
ENDBRANCH   9  10
ENDBRANCH   8   9
ENDBRANCH   7   8
ENDBRANCH   6   7
ENDBRANCH   5   6
ENDBRANCH   4   5
ENDBRANCH   3   4
ENDBRANCH   2   3
ENDBRANCH   1   2
BRANCH   1  17
ATOM     17  C   UNL     1     130.846 137.278 138.414  1.00  0.00     0.000 C 
BRANCH  17  18
ATOM     18  C   UNL     1     131.725 136.024 138.212  1.00  0.00     0.000 C 
BRANCH  18  19
ATOM     19  C   UNL     1     132.766 135.817 139.326  1.00  0.00     0.000 C 
BRANCH  19  20
ATOM     20  C   UNL     1     132.854 134.356 139.795  1.00  0.00     0.000 C 
BRANCH  20  21
ATOM     21  C   UNL     1     132.545 133.352 138.674  1.00  0.00     0.000 C 
BRANCH  21  22
ATOM     22  C   UNL     1     131.543 132.267 139.108  1.00  0.00    -0.000 C 
BRANCH  22  23
ATOM     23  C   UNL     1     131.236 132.311 140.619  1.00  0.00    -0.000 C 
BRANCH  23  24
ATOM     24  C   UNL     1     129.737 132.197 140.965  1.00  0.00    -0.000 C 
BRANCH  24  25
ATOM     25  C   UNL     1     128.861 133.404 140.578  1.00  0.00    -0.000 C 
BRANCH  25  26
ATOM     26  C   UNL     1     129.368 134.784 141.057  1.00  0.00    -0.000 C 
BRANCH  26  27
ATOM     27  C   UNL     1     128.477 135.970 140.639  1.00  0.00    -0.000 C 
BRANCH  27  28
ATOM     28  C   UNL     1     127.294 135.573 139.727  1.00  0.00    -0.000 C 
BRANCH  28  29
ATOM     29  C   UNL     1     127.321 136.336 138.395  1.00  0.00    -0.003 C 
ATOM     30  C   UNL     1     126.116 137.261 138.265  1.00  0.00     0.004 C 
ENDBRANCH  28  29
ENDBRANCH  27  28
ENDBRANCH  26  27
ENDBRANCH  25  26
ENDBRANCH  24  25
ENDBRANCH  23  24
ENDBRANCH  22  23
ENDBRANCH  21  22
ENDBRANCH  20  21
ENDBRANCH  19  20
ENDBRANCH  18  19
ENDBRANCH  17  18
ENDBRANCH   1  17
TORSDOF 26
ENDMDL
MODEL 9
REMARK VINA RESULT:    -4.319      4.540      8.348
REMARK INTER + INTRA:         -15.625
REMARK INTER:                 -11.812
REMARK INTRA:                  -3.813
REMARK UNBOUND:                -4.740
REMARK SMILES CCCCCCCCCCCCCCCCCCCCCCCCCCCC(=O)[O-]
REMARK SMILES IDX 15 1 16 2 17 3 18 4 19 5 20 6 21 7 22 8 23 9 24 10 25 11
REMARK SMILES IDX 26 12 27 13 28 14 29 15 30 16 14 17 13 18 12 19 11 20 10 21
REMARK SMILES IDX 9 22 8 23 7 24 6 25 5 26 4 27 3 28 2 29 1 30
REMARK H PARENT
REMARK Flexibility Score: inf
ROOT
ATOM      1  C   UNL     1     138.886 137.121 140.100  1.00  0.00     0.000 C 
ENDROOT
BRANCH   1   2
ATOM      2  C   UNL     1     137.634 137.278 139.211  1.00  0.00     0.000 C 
BRANCH   2   3
ATOM      3  C   UNL     1     136.567 138.224 139.795  1.00  0.00     0.000 C 
BRANCH   3   4
ATOM      4  C   UNL     1     136.894 138.803 141.185  1.00  0.00     0.000 C 
BRANCH   4   5
ATOM      5  C   UNL     1     135.687 138.968 142.125  1.00  0.00     0.000 C 
BRANCH   5   6
ATOM      6  C   UNL     1     134.403 138.321 141.579  1.00  0.00     0.000 C 
BRANCH   6   7
ATOM      7  C   UNL     1     133.198 139.285 141.586  1.00  0.00     0.000 C 
BRANCH   7   8
ATOM      8  C   UNL     1     133.306 140.436 140.564  1.00  0.00     0.000 C 
BRANCH   8   9
ATOM      9  C   UNL     1     132.101 141.394 140.542  1.00  0.00     0.000 C 
BRANCH   9  10
ATOM     10  C   UNL     1     130.864 140.841 141.290  1.00  0.00     0.000 C 
BRANCH  10  11
ATOM     11  C   UNL     1     129.762 140.375 140.324  1.00  0.00     0.000 C 
BRANCH  11  12
ATOM     12  C   UNL     1     129.143 141.541 139.534  1.00  0.00     0.006 C 
BRANCH  12  13
ATOM     13  C   UNL     1     128.265 142.441 140.415  1.00  0.00     0.053 C 
BRANCH  13  14
ATOM     14  C   UNL     1     127.308 143.224 139.572  1.00  0.00     0.041 C 
ATOM     15  O   UNL     1     127.076 142.871 138.384  1.00  0.00    -0.550 OA
ATOM     16  O   UNL     1     126.636 144.315 140.110  1.00  0.00    -0.550 OA
ENDBRANCH  13  14
ENDBRANCH  12  13
ENDBRANCH  11  12
ENDBRANCH  10  11
ENDBRANCH   9  10
ENDBRANCH   8   9
ENDBRANCH   7   8
ENDBRANCH   6   7
ENDBRANCH   5   6
ENDBRANCH   4   5
ENDBRANCH   3   4
ENDBRANCH   2   3
ENDBRANCH   1   2
BRANCH   1  17
ATOM     17  C   UNL     1     140.004 136.315 139.417  1.00  0.00     0.000 C 
BRANCH  17  18
ATOM     18  C   UNL     1     139.450 135.322 138.373  1.00  0.00     0.000 C 
BRANCH  18  19
ATOM     19  C   UNL     1     139.897 133.869 138.610  1.00  0.00     0.000 C 
BRANCH  19  20
ATOM     20  C   UNL     1     139.444 133.320 139.974  1.00  0.00     0.000 C 
BRANCH  20  21
ATOM     21  C   UNL     1     137.919 133.366 140.155  1.00  0.00     0.000 C 
BRANCH  21  22
ATOM     22  C   UNL     1     137.499 133.953 141.515  1.00  0.00    -0.000 C 
BRANCH  22  23
ATOM     23  C   UNL     1     136.091 134.584 141.481  1.00  0.00    -0.000 C 
BRANCH  23  24
ATOM     24  C   UNL     1     135.509 134.757 140.064  1.00  0.00    -0.000 C 
BRANCH  24  25
ATOM     25  C   UNL     1     134.022 135.153 139.988  1.00  0.00    -0.000 C 
BRANCH  25  26
ATOM     26  C   UNL     1     133.119 134.219 139.151  1.00  0.00    -0.000 C 
BRANCH  26  27
ATOM     27  C   UNL     1     132.138 134.951 138.216  1.00  0.00    -0.000 C 
BRANCH  27  28
ATOM     28  C   UNL     1     131.094 135.817 138.958  1.00  0.00    -0.000 C 
BRANCH  28  29
ATOM     29  C   UNL     1     131.496 137.299 138.984  1.00  0.00    -0.003 C 
ATOM     30  C   UNL     1     132.108 137.727 137.655  1.00  0.00     0.004 C 
ENDBRANCH  28  29
ENDBRANCH  27  28
ENDBRANCH  26  27
ENDBRANCH  25  26
ENDBRANCH  24  25
ENDBRANCH  23  24
ENDBRANCH  22  23
ENDBRANCH  21  22
ENDBRANCH  20  21
ENDBRANCH  19  20
ENDBRANCH  18  19
ENDBRANCH  17  18
ENDBRANCH   1  17
TORSDOF 26
ENDMDL
