MODEL 1
REMARK VINA RESULT:    -4.834      0.000      0.000
REMARK INTER + INTRA:          -8.122
REMARK INTER:                  -7.659
REMARK INTRA:                  -0.462
REMARK UNBOUND:                -0.462
REMARK SMILES CCCCCCCCCCCC(=O)[O-]
REMARK SMILES IDX 7 1 8 2 9 3 10 4 11 5 12 6 13 7 14 8 6 9 5 10 4 11 3 12 2 13
REMARK SMILES IDX 1 14
REMARK H PARENT
REMARK Flexibility Score: inf
ROOT
ATOM      1  C   UNL     1      29.859  -9.571  15.926  1.00  0.00     0.000 C 
ENDROOT
BRANCH   1   2
ATOM      2  C   UNL     1      28.398  -9.343  15.498  1.00  0.00     0.000 C 
BRANCH   2   3
ATOM      3  C   UNL     1      27.552 -10.624  15.358  1.00  0.00     0.000 C 
BRANCH   3   4
ATOM      4  C   UNL     1      28.237 -11.916  15.837  1.00  0.00     0.006 C 
BRANCH   4   5
ATOM      5  C   UNL     1      27.322 -13.144  15.747  1.00  0.00     0.053 C 
BRANCH   5   6
ATOM      6  C   UNL     1      27.969 -14.217  14.930  1.00  0.00     0.041 C 
ATOM      7  O   UNL     1      28.791 -15.009  15.461  1.00  0.00    -0.550 OA
ATOM      8  O   UNL     1      27.701 -14.313  13.569  1.00  0.00    -0.550 OA
ENDBRANCH   5   6
ENDBRANCH   4   5
ENDBRANCH   3   4
ENDBRANCH   2   3
ENDBRANCH   1   2
BRANCH   1   9
ATOM      9  C   UNL     1      30.870  -9.033  14.898  1.00  0.00     0.000 C 
BRANCH   9  10
ATOM     10  C   UNL     1      30.189  -8.453  13.649  1.00  0.00    -0.000 C 
BRANCH  10  11
ATOM     11  C   UNL     1      31.200  -7.987  12.589  1.00  0.00    -0.000 C 
BRANCH  11  12
ATOM     12  C   UNL     1      30.706  -6.717  11.881  1.00  0.00    -0.000 C 
BRANCH  12  13
ATOM     13  C   UNL     1      31.713  -6.188  10.847  1.00  0.00    -0.003 C 
ATOM     14  C   UNL     1      32.754  -5.252  11.460  1.00  0.00     0.004 C 
ENDBRANCH  12  13
ENDBRANCH  11  12
ENDBRANCH  10  11
ENDBRANCH   9  10
ENDBRANCH   1   9
TORSDOF 10
ENDMDL
MODEL 2
REMARK VINA RESULT:    -4.829      4.238      7.822
REMARK INTER + INTRA:          -8.114
REMARK INTER:                  -7.707
REMARK INTRA:                  -0.407
REMARK UNBOUND:                -0.462
REMARK SMILES CCCCCCCCCCCC(=O)[O-]
REMARK SMILES IDX 7 1 8 2 9 3 10 4 11 5 12 6 13 7 14 8 6 9 5 10 4 11 3 12 2 13
REMARK SMILES IDX 1 14
REMARK H PARENT
REMARK Flexibility Score: inf
ROOT
ATOM      1  C   UNL     1      29.260  -9.778  14.137  1.00  0.00     0.000 C 
ENDROOT
BRANCH   1   2
ATOM      2  C   UNL     1      30.176  -8.540  14.162  1.00  0.00     0.000 C 
BRANCH   2   3
ATOM      3  C   UNL     1      30.939  -8.268  12.850  1.00  0.00     0.000 C 
BRANCH   3   4
ATOM      4  C   UNL     1      30.619  -6.922  12.175  1.00  0.00     0.006 C 
BRANCH   4   5
ATOM      5  C   UNL     1      31.069  -6.870  10.709  1.00  0.00     0.053 C 
BRANCH   5   6
ATOM      6  C   UNL     1      32.169  -5.871  10.537  1.00  0.00     0.041 C 
ATOM      7  O   UNL     1      32.805  -5.810   9.452  1.00  0.00    -0.550 OA
ATOM      8  O   UNL     1      32.527  -5.042  11.593  1.00  0.00    -0.550 OA
ENDBRANCH   5   6
ENDBRANCH   4   5
ENDBRANCH   3   4
ENDBRANCH   2   3
ENDBRANCH   1   2
BRANCH   1   9
ATOM      9  C   UNL     1      28.126  -9.697  15.174  1.00  0.00     0.000 C 
BRANCH   9  10
ATOM     10  C   UNL     1      27.634 -11.084  15.620  1.00  0.00    -0.000 C 
BRANCH  10  11
ATOM     11  C   UNL     1      28.548 -12.218  15.130  1.00  0.00    -0.000 C 
BRANCH  11  12
ATOM     12  C   UNL     1      28.228 -13.533  15.858  1.00  0.00    -0.000 C 
BRANCH  12  13
ATOM     13  C   UNL     1      28.037 -14.712  14.891  1.00  0.00    -0.003 C 
ATOM     14  C   UNL     1      27.280 -14.320  13.623  1.00  0.00     0.004 C 
ENDBRANCH  12  13
ENDBRANCH  11  12
ENDBRANCH  10  11
ENDBRANCH   9  10
ENDBRANCH   1   9
TORSDOF 10
ENDMDL
MODEL 3
REMARK VINA RESULT:    -4.728      4.464      7.337
REMARK INTER + INTRA:          -7.954
REMARK INTER:                  -7.156
REMARK INTRA:                  -0.798
REMARK UNBOUND:                -0.462
REMARK SMILES CCCCCCCCCCCC(=O)[O-]
REMARK SMILES IDX 7 1 8 2 9 3 10 4 11 5 12 6 13 7 14 8 6 9 5 10 4 11 3 12 2 13
REMARK SMILES IDX 1 14
REMARK H PARENT
REMARK Flexibility Score: inf
ROOT
ATOM      1  C   UNL     1      30.957  -9.693  13.565  1.00  0.00     0.000 C 
ENDROOT
BRANCH   1   2
ATOM      2  C   UNL     1      30.643  -8.236  13.178  1.00  0.00     0.000 C 
BRANCH   2   3
ATOM      3  C   UNL     1      31.271  -7.763  11.852  1.00  0.00     0.000 C 
BRANCH   3   4
ATOM      4  C   UNL     1      30.895  -6.333  11.424  1.00  0.00     0.006 C 
BRANCH   4   5
ATOM      5  C   UNL     1      32.102  -5.387  11.385  1.00  0.00     0.053 C 
BRANCH   5   6
ATOM      6  C   UNL     1      33.082  -5.834  10.348  1.00  0.00     0.041 C 
ATOM      7  O   UNL     1      34.277  -6.073  10.667  1.00  0.00    -0.550 OA
ATOM      8  O   UNL     1      32.690  -5.938   9.019  1.00  0.00    -0.550 OA
ENDBRANCH   5   6
ENDBRANCH   4   5
ENDBRANCH   3   4
ENDBRANCH   2   3
ENDBRANCH   1   2
BRANCH   1   9
ATOM      9  C   UNL     1      29.867 -10.677  13.106  1.00  0.00     0.000 C 
BRANCH   9  10
ATOM     10  C   UNL     1      29.056 -11.249  14.280  1.00  0.00    -0.000 C 
BRANCH  10  11
ATOM     11  C   UNL     1      27.696 -10.555  14.450  1.00  0.00    -0.000 C 
BRANCH  11  12
ATOM     12  C   UNL     1      27.701  -9.632  15.678  1.00  0.00    -0.000 C 
BRANCH  12  13
ATOM     13  C   UNL     1      28.978  -9.778  16.520  1.00  0.00    -0.003 C 
ATOM     14  C   UNL     1      29.506  -8.440  17.034  1.00  0.00     0.004 C 
ENDBRANCH  12  13
ENDBRANCH  11  12
ENDBRANCH  10  11
ENDBRANCH   9  10
ENDBRANCH   1   9
TORSDOF 10
ENDMDL
MODEL 4
REMARK VINA RESULT:    -4.718      4.094      7.626
REMARK INTER + INTRA:          -7.939
REMARK INTER:                  -7.257
REMARK INTRA:                  -0.682
REMARK UNBOUND:                -0.462
REMARK SMILES CCCCCCCCCCCC(=O)[O-]
REMARK SMILES IDX 7 1 8 2 9 3 10 4 11 5 12 6 13 7 14 8 6 9 5 10 4 11 3 12 2 13
REMARK SMILES IDX 1 14
REMARK H PARENT
REMARK Flexibility Score: inf
ROOT
ATOM      1  C   UNL     1      31.283  -8.248  12.762  1.00  0.00     0.000 C 
ENDROOT
BRANCH   1   2
ATOM      2  C   UNL     1      30.606  -7.001  12.164  1.00  0.00     0.000 C 
BRANCH   2   3
ATOM      3  C   UNL     1      31.391  -6.313  11.029  1.00  0.00     0.000 C 
BRANCH   3   4
ATOM      4  C   UNL     1      32.372  -5.218  11.483  1.00  0.00     0.006 C 
BRANCH   4   5
ATOM      5  C   UNL     1      33.695  -5.246  10.708  1.00  0.00     0.053 C 
BRANCH   5   6
ATOM      6  C   UNL     1      34.375  -6.567  10.884  1.00  0.00     0.041 C 
ATOM      7  O   UNL     1      34.655  -7.273   9.880  1.00  0.00    -0.550 OA
ATOM      8  O   UNL     1      34.654  -7.041  12.160  1.00  0.00    -0.550 OA
ENDBRANCH   5   6
ENDBRANCH   4   5
ENDBRANCH   3   4
ENDBRANCH   2   3
ENDBRANCH   1   2
BRANCH   1   9
ATOM      9  C   UNL     1      30.331  -9.076  13.641  1.00  0.00     0.000 C 
BRANCH   9  10
ATOM     10  C   UNL     1      30.721  -9.044  15.128  1.00  0.00    -0.000 C 
BRANCH  10  11
ATOM     11  C   UNL     1      29.501  -8.932  16.055  1.00  0.00    -0.000 C 
BRANCH  11  12
ATOM     12  C   UNL     1      28.193  -9.030  15.255  1.00  0.00    -0.000 C 
BRANCH  12  13
ATOM     13  C   UNL     1      27.467 -10.367  15.472  1.00  0.00    -0.003 C 
ATOM     14  C   UNL     1      27.176 -11.102  14.165  1.00  0.00     0.004 C 
ENDBRANCH  12  13
ENDBRANCH  11  12
ENDBRANCH  10  11
ENDBRANCH   9  10
ENDBRANCH   1   9
TORSDOF 10
ENDMDL
MODEL 5
REMARK VINA RESULT:    -4.704      1.405      2.682
REMARK INTER + INTRA:          -7.916
REMARK INTER:                  -7.164
REMARK INTRA:                  -0.753
REMARK UNBOUND:                -0.462
REMARK SMILES CCCCCCCCCCCC(=O)[O-]
REMARK SMILES IDX 7 1 8 2 9 3 10 4 11 5 12 6 13 7 14 8 6 9 5 10 4 11 3 12 2 13
REMARK SMILES IDX 1 14
REMARK H PARENT
REMARK Flexibility Score: inf
ROOT
ATOM      1  C   UNL     1      30.547  -9.438  13.281  1.00  0.00     0.000 C 
ENDROOT
BRANCH   1   2
ATOM      2  C   UNL     1      30.960  -9.166  14.739  1.00  0.00     0.000 C 
BRANCH   2   3
ATOM      3  C   UNL     1      29.793  -9.093  15.744  1.00  0.00     0.000 C 
BRANCH   3   4
ATOM      4  C   UNL     1      28.388  -9.125  15.118  1.00  0.00     0.006 C 
BRANCH   4   5
ATOM      5  C   UNL     1      27.512 -10.253  15.678  1.00  0.00     0.053 C 
BRANCH   5   6
ATOM      6  C   UNL     1      28.121 -11.585  15.375  1.00  0.00     0.041 C 
ATOM      7  O   UNL     1      28.176 -12.000  14.187  1.00  0.00    -0.550 OA
ATOM      8  O   UNL     1      28.584 -12.390  16.408  1.00  0.00    -0.550 OA
ENDBRANCH   5   6
ENDBRANCH   4   5
ENDBRANCH   3   4
ENDBRANCH   2   3
ENDBRANCH   1   2
BRANCH   1   9
ATOM      9  C   UNL     1      31.325  -8.575  12.273  1.00  0.00     0.000 C 
BRANCH   9  10
ATOM     10  C   UNL     1      30.775  -7.143  12.173  1.00  0.00    -0.000 C 
BRANCH  10  11
ATOM     11  C   UNL     1      31.383  -6.359  11.000  1.00  0.00    -0.000 C 
BRANCH  11  12
ATOM     12  C   UNL     1      32.222  -5.176  11.508  1.00  0.00    -0.000 C 
BRANCH  12  13
ATOM     13  C   UNL     1      33.655  -5.188  10.953  1.00  0.00    -0.003 C 
ATOM     14  C   UNL     1      33.892  -6.316   9.951  1.00  0.00     0.004 C 
ENDBRANCH  12  13
ENDBRANCH  11  12
ENDBRANCH  10  11
ENDBRANCH   9  10
ENDBRANCH   1   9
TORSDOF 10
ENDMDL
MODEL 6
REMARK VINA RESULT:    -4.614      3.877      5.242
REMARK INTER + INTRA:          -7.774
REMARK INTER:                  -6.264
REMARK INTRA:                  -1.510
REMARK UNBOUND:                -0.462
REMARK SMILES CCCCCCCCCCCC(=O)[O-]
REMARK SMILES IDX 7 1 8 2 9 3 10 4 11 5 12 6 13 7 14 8 6 9 5 10 4 11 3 12 2 13
REMARK SMILES IDX 1 14
REMARK H PARENT
REMARK Flexibility Score: inf
ROOT
ATOM      1  C   UNL     1      26.875 -13.397  15.524  1.00  0.00     0.000 C 
ENDROOT
BRANCH   1   2
ATOM      2  C   UNL     1      27.949 -13.134  16.595  1.00  0.00     0.000 C 
BRANCH   2   3
ATOM      3  C   UNL     1      29.382 -13.540  16.196  1.00  0.00     0.000 C 
BRANCH   3   4
ATOM      4  C   UNL     1      30.504 -12.745  16.886  1.00  0.00     0.006 C 
BRANCH   4   5
ATOM      5  C   UNL     1      31.373 -11.960  15.895  1.00  0.00     0.053 C 
BRANCH   5   6
ATOM      6  C   UNL     1      32.315 -11.058  16.629  1.00  0.00     0.041 C 
ATOM      7  O   UNL     1      32.941 -11.481  17.636  1.00  0.00    -0.550 OA
ATOM      8  O   UNL     1      32.464  -9.735  16.230  1.00  0.00    -0.550 OA
ENDBRANCH   5   6
ENDBRANCH   4   5
ENDBRANCH   3   4
ENDBRANCH   2   3
ENDBRANCH   1   2
BRANCH   1   9
ATOM      9  C   UNL     1      27.321 -12.961  14.117  1.00  0.00     0.000 C 
BRANCH   9  10
ATOM     10  C   UNL     1      27.266 -11.437  13.926  1.00  0.00    -0.000 C 
BRANCH  10  11
ATOM     11  C   UNL     1      28.664 -10.802  13.850  1.00  0.00    -0.000 C 
BRANCH  11  12
ATOM     12  C   UNL     1      28.675  -9.421  14.524  1.00  0.00    -0.000 C 
BRANCH  12  13
ATOM     13  C   UNL     1      28.030  -9.441  15.919  1.00  0.00    -0.003 C 
ATOM     14  C   UNL     1      29.042  -9.224  17.042  1.00  0.00     0.004 C 
ENDBRANCH  12  13
ENDBRANCH  11  12
ENDBRANCH  10  11
ENDBRANCH   9  10
ENDBRANCH   1   9
TORSDOF 10
ENDMDL
MODEL 7
REMARK VINA RESULT:    -4.609      2.166      3.710
REMARK INTER + INTRA:          -7.766
REMARK INTER:                  -7.004
REMARK INTRA:                  -0.762
REMARK UNBOUND:                -0.462
REMARK SMILES CCCCCCCCCCCC(=O)[O-]
REMARK SMILES IDX 7 1 8 2 9 3 10 4 11 5 12 6 13 7 14 8 6 9 5 10 4 11 3 12 2 13
REMARK SMILES IDX 1 14
REMARK H PARENT
REMARK Flexibility Score: inf
ROOT
ATOM      1  C   UNL     1      30.618  -7.523  12.660  1.00  0.00     0.000 C 
ENDROOT
BRANCH   1   2
ATOM      2  C   UNL     1      31.368  -8.819  12.303  1.00  0.00     0.000 C 
BRANCH   2   3
ATOM      3  C   UNL     1      30.764 -10.108  12.897  1.00  0.00     0.000 C 
BRANCH   3   4
ATOM      4  C   UNL     1      29.721  -9.889  14.007  1.00  0.00     0.006 C 
BRANCH   4   5
ATOM      5  C   UNL     1      28.666 -11.001  14.059  1.00  0.00     0.053 C 
BRANCH   5   6
ATOM      6  C   UNL     1      27.888 -10.922  15.334  1.00  0.00     0.041 C 
ATOM      7  O   UNL     1      27.440 -11.971  15.869  1.00  0.00    -0.550 OA
ATOM      8  O   UNL     1      27.614  -9.686  15.907  1.00  0.00    -0.550 OA
ENDBRANCH   5   6
ENDBRANCH   4   5
ENDBRANCH   3   4
ENDBRANCH   2   3
ENDBRANCH   1   2
BRANCH   1   9
ATOM      9  C   UNL     1      30.728  -6.452  11.561  1.00  0.00     0.000 C 
BRANCH   9  10
ATOM     10  C   UNL     1      31.398  -6.984  10.284  1.00  0.00    -0.000 C 
BRANCH  10  11
ATOM     11  C   UNL     1      32.459  -6.019   9.730  1.00  0.00    -0.000 C 
BRANCH  11  12
ATOM     12  C   UNL     1      33.228  -5.337  10.871  1.00  0.00    -0.000 C 
BRANCH  12  13
ATOM     13  C   UNL     1      34.421  -6.174  11.361  1.00  0.00    -0.003 C 
ATOM     14  C   UNL     1      35.235  -6.771  10.214  1.00  0.00     0.004 C 
ENDBRANCH  12  13
ENDBRANCH  11  12
ENDBRANCH  10  11
ENDBRANCH   9  10
ENDBRANCH   1   9
TORSDOF 10
ENDMDL
