MODEL 1
REMARK VINA RESULT:    -5.561      0.000      0.000
REMARK INTER + INTRA:         -16.639
REMARK INTER:                 -14.664
REMARK INTRA:                  -1.975
REMARK UNBOUND:                -1.975
REMARK SMILES CCCCCCCCCCCCCCCCCCCCCCCCCCCCCC(=O)[O-]
REMARK SMILES IDX 16 1 17 2 18 3 19 4 20 5 21 6 22 7 23 8 24 9 25 10 26 11
REMARK SMILES IDX 27 12 28 13 29 14 30 15 31 16 32 17 15 18 14 19 13 20 12 21
REMARK SMILES IDX 11 22 10 23 9 24 8 25 7 26 6 27 5 28 4 29 3 30 2 31 1 32
REMARK H PARENT
REMARK Flexibility Score: inf
ROOT
ATOM      1  C   UNL     1       9.086  54.573  24.878  1.00  0.00     0.000 C 
ENDROOT
BRANCH   1   2
ATOM      2  C   UNL     1       9.981  55.149  23.770  1.00  0.00     0.000 C 
BRANCH   2   3
ATOM      3  C   UNL     1      11.053  54.133  23.357  1.00  0.00     0.000 C 
BRANCH   3   4
ATOM      4  C   UNL     1      10.957  53.799  21.860  1.00  0.00     0.000 C 
BRANCH   4   5
ATOM      5  C   UNL     1      10.407  52.381  21.619  1.00  0.00     0.000 C 
BRANCH   5   6
ATOM      6  C   UNL     1      10.550  51.460  22.846  1.00  0.00     0.000 C 
BRANCH   6   7
ATOM      7  C   UNL     1      10.688  49.978  22.444  1.00  0.00     0.000 C 
BRANCH   7   8
ATOM      8  C   UNL     1      11.098  49.070  23.623  1.00  0.00     0.000 C 
BRANCH   8   9
ATOM      9  C   UNL     1      11.571  47.665  23.208  1.00  0.00     0.000 C 
BRANCH   9  10
ATOM     10  C   UNL     1      10.633  46.545  23.687  1.00  0.00     0.000 C 
BRANCH  10  11
ATOM     11  C   UNL     1      11.224  45.803  24.895  1.00  0.00     0.000 C 
BRANCH  11  12
ATOM     12  C   UNL     1      12.655  46.261  25.232  1.00  0.00     0.000 C 
BRANCH  12  13
ATOM     13  C   UNL     1      12.837  46.833  26.653  1.00  0.00     0.006 C 
BRANCH  13  14
ATOM     14  C   UNL     1      12.782  48.368  26.728  1.00  0.00     0.053 C 
BRANCH  14  15
ATOM     15  C   UNL     1      13.683  48.909  27.797  1.00  0.00     0.041 C 
ATOM     16  O   UNL     1      13.241  49.110  28.959  1.00  0.00    -0.550 OA
ATOM     17  O   UNL     1      15.023  49.149  27.522  1.00  0.00    -0.550 OA
ENDBRANCH  14  15
ENDBRANCH  13  14
ENDBRANCH  12  13
ENDBRANCH  11  12
ENDBRANCH  10  11
ENDBRANCH   9  10
ENDBRANCH   8   9
ENDBRANCH   7   8
ENDBRANCH   6   7
ENDBRANCH   5   6
ENDBRANCH   4   5
ENDBRANCH   3   4
ENDBRANCH   2   3
ENDBRANCH   1   2
BRANCH   1  18
ATOM     18  C   UNL     1       7.775  53.983  24.334  1.00  0.00     0.000 C 
BRANCH  18  19
ATOM     19  C   UNL     1       7.717  54.000  22.797  1.00  0.00     0.000 C 
BRANCH  19  20
ATOM     20  C   UNL     1       6.647  54.961  22.249  1.00  0.00     0.000 C 
BRANCH  20  21
ATOM     21  C   UNL     1       6.954  55.489  20.831  1.00  0.00     0.000 C 
BRANCH  21  22
ATOM     22  C   UNL     1       6.436  56.923  20.619  1.00  0.00     0.000 C 
BRANCH  22  23
ATOM     23  C   UNL     1       5.213  57.244  21.493  1.00  0.00     0.000 C 
BRANCH  23  24
ATOM     24  C   UNL     1       4.217  58.186  20.792  1.00  0.00    -0.000 C 
BRANCH  24  25
ATOM     25  C   UNL     1       3.665  59.262  21.740  1.00  0.00    -0.000 C 
BRANCH  25  26
ATOM     26  C   UNL     1       2.946  60.397  20.989  1.00  0.00    -0.000 C 
BRANCH  26  27
ATOM     27  C   UNL     1       1.608  59.947  20.376  1.00  0.00    -0.000 C 
BRANCH  27  28
ATOM     28  C   UNL     1       0.403  60.845  20.723  1.00  0.00    -0.000 C 
BRANCH  28  29
ATOM     29  C   UNL     1      -0.557  60.224  21.760  1.00  0.00    -0.000 C 
BRANCH  29  30
ATOM     30  C   UNL     1      -0.159  60.576  23.207  1.00  0.00    -0.000 C 
BRANCH  30  31
ATOM     31  C   UNL     1       0.462  59.384  23.950  1.00  0.00    -0.003 C 
ATOM     32  C   UNL     1      -0.156  59.168  25.332  1.00  0.00     0.004 C 
ENDBRANCH  30  31
ENDBRANCH  29  30
ENDBRANCH  28  29
ENDBRANCH  27  28
ENDBRANCH  26  27
ENDBRANCH  25  26
ENDBRANCH  24  25
ENDBRANCH  23  24
ENDBRANCH  22  23
ENDBRANCH  21  22
ENDBRANCH  20  21
ENDBRANCH  19  20
ENDBRANCH  18  19
ENDBRANCH   1  18
TORSDOF 28
ENDMDL
MODEL 2
REMARK VINA RESULT:    -5.556      5.332     10.450
REMARK INTER + INTRA:         -16.624
REMARK INTER:                 -14.036
REMARK INTRA:                  -2.588
REMARK UNBOUND:                -1.975
REMARK SMILES CCCCCCCCCCCCCCCCCCCCCCCCCCCCCC(=O)[O-]
REMARK SMILES IDX 16 1 17 2 18 3 19 4 20 5 21 6 22 7 23 8 24 9 25 10 26 11
REMARK SMILES IDX 27 12 28 13 29 14 30 15 31 16 32 17 15 18 14 19 13 20 12 21
REMARK SMILES IDX 11 22 10 23 9 24 8 25 7 26 6 27 5 28 4 29 3 30 2 31 1 32
REMARK H PARENT
REMARK Flexibility Score: inf
ROOT
ATOM      1  C   UNL     1      10.425  50.078  22.756  1.00  0.00     0.000 C 
ENDROOT
BRANCH   1   2
ATOM      2  C   UNL     1      10.637  51.585  22.974  1.00  0.00     0.000 C 
BRANCH   2   3
ATOM      3  C   UNL     1      10.622  52.333  21.636  1.00  0.00     0.000 C 
BRANCH   3   4
ATOM      4  C   UNL     1      10.739  53.852  21.845  1.00  0.00     0.000 C 
BRANCH   4   5
ATOM      5  C   UNL     1      10.913  54.218  23.331  1.00  0.00     0.000 C 
BRANCH   5   6
ATOM      6  C   UNL     1       9.808  55.155  23.856  1.00  0.00     0.000 C 
BRANCH   6   7
ATOM      7  C   UNL     1       8.768  54.403  24.709  1.00  0.00     0.000 C 
BRANCH   7   8
ATOM      8  C   UNL     1       7.683  53.707  23.860  1.00  0.00     0.000 C 
BRANCH   8   9
ATOM      9  C   UNL     1       7.513  54.290  22.446  1.00  0.00     0.000 C 
BRANCH   9  10
ATOM     10  C   UNL     1       6.219  55.103  22.278  1.00  0.00     0.000 C 
BRANCH  10  11
ATOM     11  C   UNL     1       6.477  56.407  21.509  1.00  0.00     0.000 C 
BRANCH  11  12
ATOM     12  C   UNL     1       7.967  56.619  21.181  1.00  0.00     0.000 C 
BRANCH  12  13
ATOM     13  C   UNL     1       8.351  56.363  19.709  1.00  0.00     0.006 C 
BRANCH  13  14
ATOM     14  C   UNL     1       7.151  56.153  18.771  1.00  0.00     0.053 C 
BRANCH  14  15
ATOM     15  C   UNL     1       7.409  55.072  17.764  1.00  0.00     0.041 C 
ATOM     16  O   UNL     1       8.009  54.018  18.105  1.00  0.00    -0.550 OA
ATOM     17  O   UNL     1       6.947  55.209  16.463  1.00  0.00    -0.550 OA
ENDBRANCH  14  15
ENDBRANCH  13  14
ENDBRANCH  12  13
ENDBRANCH  11  12
ENDBRANCH  10  11
ENDBRANCH   9  10
ENDBRANCH   8   9
ENDBRANCH   7   8
ENDBRANCH   6   7
ENDBRANCH   5   6
ENDBRANCH   4   5
ENDBRANCH   3   4
ENDBRANCH   2   3
ENDBRANCH   1   2
BRANCH   1  18
ATOM     18  C   UNL     1      11.654  49.244  23.149  1.00  0.00     0.000 C 
BRANCH  18  19
ATOM     19  C   UNL     1      11.302  48.096  24.111  1.00  0.00     0.000 C 
BRANCH  19  20
ATOM     20  C   UNL     1      10.257  47.128  23.530  1.00  0.00     0.000 C 
BRANCH  20  21
ATOM     21  C   UNL     1       9.118  46.780  24.512  1.00  0.00     0.000 C 
BRANCH  21  22
ATOM     22  C   UNL     1       8.277  45.585  24.030  1.00  0.00     0.000 C 
BRANCH  22  23
ATOM     23  C   UNL     1       7.320  45.061  25.112  1.00  0.00     0.000 C 
BRANCH  23  24
ATOM     24  C   UNL     1       6.630  46.195  25.890  1.00  0.00    -0.000 C 
BRANCH  24  25
ATOM     25  C   UNL     1       5.098  46.115  25.804  1.00  0.00    -0.000 C 
BRANCH  25  26
ATOM     26  C   UNL     1       4.478  47.361  25.147  1.00  0.00    -0.000 C 
BRANCH  26  27
ATOM     27  C   UNL     1       3.410  48.028  26.031  1.00  0.00    -0.000 C 
BRANCH  27  28
ATOM     28  C   UNL     1       2.570  49.112  25.326  1.00  0.00    -0.000 C 
BRANCH  28  29
ATOM     29  C   UNL     1       2.804  49.187  23.802  1.00  0.00    -0.000 C 
BRANCH  29  30
ATOM     30  C   UNL     1       1.485  49.297  23.014  1.00  0.00    -0.000 C 
BRANCH  30  31
ATOM     31  C   UNL     1       0.891  47.923  22.671  1.00  0.00    -0.003 C 
ATOM     32  C   UNL     1       1.956  46.915  22.238  1.00  0.00     0.004 C 
ENDBRANCH  30  31
ENDBRANCH  29  30
ENDBRANCH  28  29
ENDBRANCH  27  28
ENDBRANCH  26  27
ENDBRANCH  25  26
ENDBRANCH  24  25
ENDBRANCH  23  24
ENDBRANCH  22  23
ENDBRANCH  21  22
ENDBRANCH  20  21
ENDBRANCH  19  20
ENDBRANCH  18  19
ENDBRANCH   1  18
TORSDOF 28
ENDMDL
MODEL 3
REMARK VINA RESULT:    -5.496      1.338      3.635
REMARK INTER + INTRA:         -16.467
REMARK INTER:                 -14.548
REMARK INTRA:                  -1.918
REMARK UNBOUND:                -1.975
REMARK SMILES CCCCCCCCCCCCCCCCCCCCCCCCCCCCCC(=O)[O-]
REMARK SMILES IDX 16 1 17 2 18 3 19 4 20 5 21 6 22 7 23 8 24 9 25 10 26 11
REMARK SMILES IDX 27 12 28 13 29 14 30 15 31 16 32 17 15 18 14 19 13 20 12 21
REMARK SMILES IDX 11 22 10 23 9 24 8 25 7 26 6 27 5 28 4 29 3 30 2 31 1 32
REMARK H PARENT
REMARK Flexibility Score: inf
ROOT
ATOM      1  C   UNL     1      10.218  51.534  22.104  1.00  0.00     0.000 C 
ENDROOT
BRANCH   1   2
ATOM      2  C   UNL     1      11.005  50.685  23.116  1.00  0.00     0.000 C 
BRANCH   2   3
ATOM      3  C   UNL     1      10.908  49.196  22.764  1.00  0.00     0.000 C 
BRANCH   3   4
ATOM      4  C   UNL     1      12.081  48.405  23.367  1.00  0.00     0.000 C 
BRANCH   4   5
ATOM      5  C   UNL     1      11.597  47.243  24.256  1.00  0.00     0.000 C 
BRANCH   5   6
ATOM      6  C   UNL     1      10.754  46.206  23.489  1.00  0.00     0.000 C 
BRANCH   6   7
ATOM      7  C   UNL     1       9.353  46.029  24.106  1.00  0.00     0.000 C 
BRANCH   7   8
ATOM      8  C   UNL     1       9.192  44.693  24.862  1.00  0.00     0.000 C 
BRANCH   8   9
ATOM      9  C   UNL     1       9.583  44.754  26.350  1.00  0.00     0.000 C 
BRANCH   9  10
ATOM     10  C   UNL     1      10.859  43.961  26.673  1.00  0.00     0.000 C 
BRANCH  10  11
ATOM     11  C   UNL     1      11.537  44.492  27.945  1.00  0.00     0.000 C 
BRANCH  11  12
ATOM     12  C   UNL     1      12.469  45.686  27.667  1.00  0.00     0.000 C 
BRANCH  12  13
ATOM     13  C   UNL     1      12.797  46.554  28.899  1.00  0.00     0.006 C 
BRANCH  13  14
ATOM     14  C   UNL     1      12.722  48.069  28.643  1.00  0.00     0.053 C 
BRANCH  14  15
ATOM     15  C   UNL     1      14.003  48.606  28.079  1.00  0.00     0.041 C 
ATOM     16  O   UNL     1      14.196  49.849  28.015  1.00  0.00    -0.550 OA
ATOM     17  O   UNL     1      15.002  47.734  27.668  1.00  0.00    -0.550 OA
ENDBRANCH  14  15
ENDBRANCH  13  14
ENDBRANCH  12  13
ENDBRANCH  11  12
ENDBRANCH  10  11
ENDBRANCH   9  10
ENDBRANCH   8   9
ENDBRANCH   7   8
ENDBRANCH   6   7
ENDBRANCH   5   6
ENDBRANCH   4   5
ENDBRANCH   3   4
ENDBRANCH   2   3
ENDBRANCH   1   2
BRANCH   1  18
ATOM     18  C   UNL     1      10.761  52.966  21.985  1.00  0.00     0.000 C 
BRANCH  18  19
ATOM     19  C   UNL     1      10.751  53.713  23.330  1.00  0.00     0.000 C 
BRANCH  19  20
ATOM     20  C   UNL     1       9.615  54.746  23.433  1.00  0.00     0.000 C 
BRANCH  20  21
ATOM     21  C   UNL     1       8.266  54.143  23.879  1.00  0.00     0.000 C 
BRANCH  21  22
ATOM     22  C   UNL     1       7.163  54.339  22.823  1.00  0.00     0.000 C 
BRANCH  22  23
ATOM     23  C   UNL     1       7.714  54.851  21.483  1.00  0.00     0.000 C 
BRANCH  23  24
ATOM     24  C   UNL     1       6.616  55.439  20.579  1.00  0.00    -0.000 C 
BRANCH  24  25
ATOM     25  C   UNL     1       6.390  56.938  20.835  1.00  0.00    -0.000 C 
BRANCH  25  26
ATOM     26  C   UNL     1       4.980  57.238  21.374  1.00  0.00    -0.000 C 
BRANCH  26  27
ATOM     27  C   UNL     1       4.279  58.370  20.603  1.00  0.00    -0.000 C 
BRANCH  27  28
ATOM     28  C   UNL     1       2.854  58.702  21.093  1.00  0.00    -0.000 C 
BRANCH  28  29
ATOM     29  C   UNL     1       2.818  59.691  22.276  1.00  0.00    -0.000 C 
BRANCH  29  30
ATOM     30  C   UNL     1       1.379  60.013  22.724  1.00  0.00    -0.000 C 
BRANCH  30  31
ATOM     31  C   UNL     1       0.795  58.931  23.642  1.00  0.00    -0.003 C 
ATOM     32  C   UNL     1      -0.065  59.514  24.764  1.00  0.00     0.004 C 
ENDBRANCH  30  31
ENDBRANCH  29  30
ENDBRANCH  28  29
ENDBRANCH  27  28
ENDBRANCH  26  27
ENDBRANCH  25  26
ENDBRANCH  24  25
ENDBRANCH  23  24
ENDBRANCH  22  23
ENDBRANCH  21  22
ENDBRANCH  20  21
ENDBRANCH  19  20
ENDBRANCH  18  19
ENDBRANCH   1  18
TORSDOF 28
ENDMDL
MODEL 4
REMARK VINA RESULT:    -5.395      5.296     10.389
REMARK INTER + INTRA:         -16.200
REMARK INTER:                 -13.208
REMARK INTRA:                  -2.992
REMARK UNBOUND:                -1.975
REMARK SMILES CCCCCCCCCCCCCCCCCCCCCCCCCCCCCC(=O)[O-]
REMARK SMILES IDX 16 1 17 2 18 3 19 4 20 5 21 6 22 7 23 8 24 9 25 10 26 11
REMARK SMILES IDX 27 12 28 13 29 14 30 15 31 16 32 17 15 18 14 19 13 20 12 21
REMARK SMILES IDX 11 22 10 23 9 24 8 25 7 26 6 27 5 28 4 29 3 30 2 31 1 32
REMARK H PARENT
REMARK Flexibility Score: inf
ROOT
ATOM      1  C   UNL     1      -0.846  56.104  24.699  1.00  0.00     0.000 C 
ENDROOT
BRANCH   1   2
ATOM      2  C   UNL     1      -0.265  57.226  23.824  1.00  0.00     0.000 C 
BRANCH   2   3
ATOM      3  C   UNL     1       0.274  58.367  24.694  1.00  0.00     0.000 C 
BRANCH   3   4
ATOM      4  C   UNL     1       0.474  59.649  23.870  1.00  0.00     0.000 C 
BRANCH   4   5
ATOM      5  C   UNL     1       0.892  59.344  22.419  1.00  0.00     0.000 C 
BRANCH   5   6
ATOM      6  C   UNL     1       2.404  59.514  22.176  1.00  0.00     0.000 C 
BRANCH   6   7
ATOM      7  C   UNL     1       2.939  58.512  21.134  1.00  0.00     0.000 C 
BRANCH   7   8
ATOM      8  C   UNL     1       4.477  58.384  21.155  1.00  0.00     0.000 C 
BRANCH   8   9
ATOM      9  C   UNL     1       4.993  56.937  21.258  1.00  0.00     0.000 C 
BRANCH   9  10
ATOM     10  C   UNL     1       6.526  56.843  21.300  1.00  0.00     0.000 C 
BRANCH  10  11
ATOM     11  C   UNL     1       7.087  56.288  19.983  1.00  0.00     0.000 C 
BRANCH  11  12
ATOM     12  C   UNL     1       8.506  55.709  20.139  1.00  0.00     0.000 C 
BRANCH  12  13
ATOM     13  C   UNL     1       8.611  54.494  21.084  1.00  0.00     0.006 C 
BRANCH  13  14
ATOM     14  C   UNL     1      10.042  53.966  21.277  1.00  0.00     0.053 C 
BRANCH  14  15
ATOM     15  C   UNL     1      10.237  53.360  22.635  1.00  0.00     0.041 C 
ATOM     16  O   UNL     1      10.348  52.112  22.762  1.00  0.00    -0.550 OA
ATOM     17  O   UNL     1      10.343  54.176  23.753  1.00  0.00    -0.550 OA
ENDBRANCH  14  15
ENDBRANCH  13  14
ENDBRANCH  12  13
ENDBRANCH  11  12
ENDBRANCH  10  11
ENDBRANCH   9  10
ENDBRANCH   8   9
ENDBRANCH   7   8
ENDBRANCH   6   7
ENDBRANCH   5   6
ENDBRANCH   4   5
ENDBRANCH   3   4
ENDBRANCH   2   3
ENDBRANCH   1   2
BRANCH   1  18
ATOM     18  C   UNL     1      -1.030  56.531  26.164  1.00  0.00     0.000 C 
BRANCH  18  19
ATOM     19  C   UNL     1      -0.893  55.351  27.142  1.00  0.00     0.000 C 
BRANCH  19  20
ATOM     20  C   UNL     1       0.553  55.136  27.621  1.00  0.00     0.000 C 
BRANCH  20  21
ATOM     21  C   UNL     1       0.656  54.549  29.045  1.00  0.00     0.000 C 
BRANCH  21  22
ATOM     22  C   UNL     1      -0.008  53.164  29.153  1.00  0.00     0.000 C 
BRANCH  22  23
ATOM     23  C   UNL     1       0.994  52.013  28.966  1.00  0.00     0.000 C 
BRANCH  23  24
ATOM     24  C   UNL     1       0.904  51.373  27.569  1.00  0.00    -0.000 C 
BRANCH  24  25
ATOM     25  C   UNL     1      -0.547  51.218  27.090  1.00  0.00    -0.000 C 
BRANCH  25  26
ATOM     26  C   UNL     1      -0.792  51.883  25.724  1.00  0.00    -0.000 C 
BRANCH  26  27
ATOM     27  C   UNL     1       0.468  52.566  25.163  1.00  0.00    -0.000 C 
BRANCH  27  28
ATOM     28  C   UNL     1       0.935  52.036  23.792  1.00  0.00    -0.000 C 
BRANCH  28  29
ATOM     29  C   UNL     1       1.739  50.722  23.874  1.00  0.00    -0.000 C 
BRANCH  29  30
ATOM     30  C   UNL     1       1.271  49.686  22.834  1.00  0.00    -0.000 C 
BRANCH  30  31
ATOM     31  C   UNL     1      -0.089  49.069  23.192  1.00  0.00    -0.003 C 
ATOM     32  C   UNL     1      -0.078  48.379  24.557  1.00  0.00     0.004 C 
ENDBRANCH  30  31
ENDBRANCH  29  30
ENDBRANCH  28  29
ENDBRANCH  27  28
ENDBRANCH  26  27
ENDBRANCH  25  26
ENDBRANCH  24  25
ENDBRANCH  23  24
ENDBRANCH  22  23
ENDBRANCH  21  22
ENDBRANCH  20  21
ENDBRANCH  19  20
ENDBRANCH  18  19
ENDBRANCH   1  18
TORSDOF 28
ENDMDL
MODEL 5
REMARK VINA RESULT:    -5.378      4.809      9.891
REMARK INTER + INTRA:         -16.155
REMARK INTER:                 -13.665
REMARK INTRA:                  -2.490
REMARK UNBOUND:                -1.975
REMARK SMILES CCCCCCCCCCCCCCCCCCCCCCCCCCCCCC(=O)[O-]
REMARK SMILES IDX 16 1 17 2 18 3 19 4 20 5 21 6 22 7 23 8 24 9 25 10 26 11
REMARK SMILES IDX 27 12 28 13 29 14 30 15 31 16 32 17 15 18 14 19 13 20 12 21
REMARK SMILES IDX 11 22 10 23 9 24 8 25 7 26 6 27 5 28 4 29 3 30 2 31 1 32
REMARK H PARENT
REMARK Flexibility Score: inf
ROOT
ATOM      1  C   UNL     1      -0.256  58.099  23.011  1.00  0.00     0.000 C 
ENDROOT
BRANCH   1   2
ATOM      2  C   UNL     1      -0.543  59.306  22.103  1.00  0.00     0.000 C 
BRANCH   2   3
ATOM      3  C   UNL     1       0.734  59.763  21.390  1.00  0.00     0.000 C 
BRANCH   3   4
ATOM      4  C   UNL     1       1.797  60.231  22.398  1.00  0.00     0.000 C 
BRANCH   4   5
ATOM      5  C   UNL     1       3.186  59.643  22.087  1.00  0.00     0.000 C 
BRANCH   5   6
ATOM      6  C   UNL     1       3.147  58.526  21.026  1.00  0.00     0.000 C 
BRANCH   6   7
ATOM      7  C   UNL     1       4.559  58.031  20.655  1.00  0.00     0.000 C 
BRANCH   7   8
ATOM      8  C   UNL     1       5.142  57.045  21.690  1.00  0.00     0.000 C 
BRANCH   8   9
ATOM      9  C   UNL     1       6.094  55.991  21.097  1.00  0.00     0.000 C 
BRANCH   9  10
ATOM     10  C   UNL     1       7.419  56.586  20.595  1.00  0.00     0.000 C 
BRANCH  10  11
ATOM     11  C   UNL     1       8.358  55.491  20.070  1.00  0.00     0.000 C 
BRANCH  11  12
ATOM     12  C   UNL     1       8.572  54.354  21.087  1.00  0.00     0.000 C 
BRANCH  12  13
ATOM     13  C   UNL     1      10.046  54.065  21.437  1.00  0.00     0.006 C 
BRANCH  13  14
ATOM     14  C   UNL     1      10.249  53.358  22.787  1.00  0.00     0.053 C 
BRANCH  14  15
ATOM     15  C   UNL     1       9.990  54.276  23.944  1.00  0.00     0.041 C 
ATOM     16  O   UNL     1      10.876  55.088  24.321  1.00  0.00    -0.550 OA
ATOM     17  O   UNL     1       8.754  54.267  24.577  1.00  0.00    -0.550 OA
ENDBRANCH  14  15
ENDBRANCH  13  14
ENDBRANCH  12  13
ENDBRANCH  11  12
ENDBRANCH  10  11
ENDBRANCH   9  10
ENDBRANCH   8   9
ENDBRANCH   7   8
ENDBRANCH   6   7
ENDBRANCH   5   6
ENDBRANCH   4   5
ENDBRANCH   3   4
ENDBRANCH   2   3
ENDBRANCH   1   2
BRANCH   1  18
ATOM     18  C   UNL     1      -0.763  58.305  24.447  1.00  0.00     0.000 C 
BRANCH  18  19
ATOM     19  C   UNL     1      -0.157  57.294  25.436  1.00  0.00     0.000 C 
BRANCH  19  20
ATOM     20  C   UNL     1      -1.164  56.225  25.891  1.00  0.00     0.000 C 
BRANCH  20  21
ATOM     21  C   UNL     1      -0.511  55.014  26.592  1.00  0.00     0.000 C 
BRANCH  21  22
ATOM     22  C   UNL     1      -0.581  55.122  28.126  1.00  0.00     0.000 C 
BRANCH  22  23
ATOM     23  C   UNL     1       0.674  54.561  28.815  1.00  0.00     0.000 C 
BRANCH  23  24
ATOM     24  C   UNL     1       1.310  53.401  28.029  1.00  0.00    -0.000 C 
BRANCH  24  25
ATOM     25  C   UNL     1       1.031  52.035  28.675  1.00  0.00    -0.000 C 
BRANCH  25  26
ATOM     26  C   UNL     1       0.525  50.995  27.660  1.00  0.00    -0.000 C 
BRANCH  26  27
ATOM     27  C   UNL     1      -0.716  51.474  26.888  1.00  0.00    -0.000 C 
BRANCH  27  28
ATOM     28  C   UNL     1      -0.787  51.007  25.420  1.00  0.00    -0.000 C 
BRANCH  28  29
ATOM     29  C   UNL     1      -0.259  52.048  24.410  1.00  0.00    -0.000 C 
BRANCH  29  30
ATOM     30  C   UNL     1       1.203  51.780  24.007  1.00  0.00    -0.000 C 
BRANCH  30  31
ATOM     31  C   UNL     1       1.500  50.283  23.838  1.00  0.00    -0.003 C 
ATOM     32  C   UNL     1       2.739  49.838  24.616  1.00  0.00     0.004 C 
ENDBRANCH  30  31
ENDBRANCH  29  30
ENDBRANCH  28  29
ENDBRANCH  27  28
ENDBRANCH  26  27
ENDBRANCH  25  26
ENDBRANCH  24  25
ENDBRANCH  23  24
ENDBRANCH  22  23
ENDBRANCH  21  22
ENDBRANCH  20  21
ENDBRANCH  19  20
ENDBRANCH  18  19
ENDBRANCH   1  18
TORSDOF 28
ENDMDL
MODEL 6
REMARK VINA RESULT:    -5.354      5.369     12.469
REMARK INTER + INTRA:         -16.092
REMARK INTER:                 -13.244
REMARK INTRA:                  -2.848
REMARK UNBOUND:                -1.975
REMARK SMILES CCCCCCCCCCCCCCCCCCCCCCCCCCCCCC(=O)[O-]
REMARK SMILES IDX 16 1 17 2 18 3 19 4 20 5 21 6 22 7 23 8 24 9 25 10 26 11
REMARK SMILES IDX 27 12 28 13 29 14 30 15 31 16 32 17 15 18 14 19 13 20 12 21
REMARK SMILES IDX 11 22 10 23 9 24 8 25 7 26 6 27 5 28 4 29 3 30 2 31 1 32
REMARK H PARENT
REMARK Flexibility Score: inf
ROOT
ATOM      1  C   UNL     1      11.824  48.440  25.358  1.00  0.00     0.000 C 
ENDROOT
BRANCH   1   2
ATOM      2  C   UNL     1      12.764  47.934  24.252  1.00  0.00     0.000 C 
BRANCH   2   3
ATOM      3  C   UNL     1      12.050  47.927  22.895  1.00  0.00     0.000 C 
BRANCH   3   4
ATOM      4  C   UNL     1      10.853  48.891  22.891  1.00  0.00     0.000 C 
BRANCH   4   5
ATOM      5  C   UNL     1      11.294  50.359  22.736  1.00  0.00     0.000 C 
BRANCH   5   6
ATOM      6  C   UNL     1      10.127  51.310  22.406  1.00  0.00     0.000 C 
BRANCH   6   7
ATOM      7  C   UNL     1      10.616  52.736  22.085  1.00  0.00     0.000 C 
BRANCH   7   8
ATOM      8  C   UNL     1      10.704  53.638  23.334  1.00  0.00     0.000 C 
BRANCH   8   9
ATOM      9  C   UNL     1       9.613  54.721  23.413  1.00  0.00     0.000 C 
BRANCH   9  10
ATOM     10  C   UNL     1       8.189  54.144  23.444  1.00  0.00     0.000 C 
BRANCH  10  11
ATOM     11  C   UNL     1       7.309  54.773  22.354  1.00  0.00     0.000 C 
BRANCH  11  12
ATOM     12  C   UNL     1       7.793  54.434  20.932  1.00  0.00     0.000 C 
BRANCH  12  13
ATOM     13  C   UNL     1       8.332  55.635  20.126  1.00  0.00     0.006 C 
BRANCH  13  14
ATOM     14  C   UNL     1       7.427  56.073  18.963  1.00  0.00     0.053 C 
BRANCH  14  15
ATOM     15  C   UNL     1       7.509  55.127  17.803  1.00  0.00     0.041 C 
ATOM     16  O   UNL     1       6.880  55.372  16.739  1.00  0.00    -0.550 OA
ATOM     17  O   UNL     1       8.316  54.000  17.879  1.00  0.00    -0.550 OA
ENDBRANCH  14  15
ENDBRANCH  13  14
ENDBRANCH  12  13
ENDBRANCH  11  12
ENDBRANCH  10  11
ENDBRANCH   9  10
ENDBRANCH   8   9
ENDBRANCH   7   8
ENDBRANCH   6   7
ENDBRANCH   5   6
ENDBRANCH   4   5
ENDBRANCH   3   4
ENDBRANCH   2   3
ENDBRANCH   1   2
BRANCH   1  18
ATOM     18  C   UNL     1      12.200  47.902  26.747  1.00  0.00     0.000 C 
BRANCH  18  19
ATOM     19  C   UNL     1      13.464  48.571  27.314  1.00  0.00     0.000 C 
BRANCH  19  20
ATOM     20  C   UNL     1      14.195  47.694  28.345  1.00  0.00     0.000 C 
BRANCH  20  21
ATOM     21  C   UNL     1      14.224  46.195  27.976  1.00  0.00     0.000 C 
BRANCH  21  22
ATOM     22  C   UNL     1      13.772  45.299  29.143  1.00  0.00     0.000 C 
BRANCH  22  23
ATOM     23  C   UNL     1      12.641  44.337  28.744  1.00  0.00     0.000 C 
BRANCH  23  24
ATOM     24  C   UNL     1      12.447  44.252  27.220  1.00  0.00    -0.000 C 
BRANCH  24  25
ATOM     25  C   UNL     1      10.998  44.539  26.798  1.00  0.00    -0.000 C 
BRANCH  25  26
ATOM     26  C   UNL     1      10.631  43.876  25.459  1.00  0.00    -0.000 C 
BRANCH  26  27
ATOM     27  C   UNL     1      10.750  44.841  24.266  1.00  0.00    -0.000 C 
BRANCH  27  28
ATOM     28  C   UNL     1       9.405  45.321  23.684  1.00  0.00    -0.000 C 
BRANCH  28  29
ATOM     29  C   UNL     1       8.704  46.395  24.542  1.00  0.00    -0.000 C 
BRANCH  29  30
ATOM     30  C   UNL     1       7.480  45.835  25.291  1.00  0.00    -0.000 C 
BRANCH  30  31
ATOM     31  C   UNL     1       6.188  46.591  24.950  1.00  0.00    -0.003 C 
ATOM     32  C   UNL     1       5.018  46.190  25.850  1.00  0.00     0.004 C 
ENDBRANCH  30  31
ENDBRANCH  29  30
ENDBRANCH  28  29
ENDBRANCH  27  28
ENDBRANCH  26  27
ENDBRANCH  25  26
ENDBRANCH  24  25
ENDBRANCH  23  24
ENDBRANCH  22  23
ENDBRANCH  21  22
ENDBRANCH  20  21
ENDBRANCH  19  20
ENDBRANCH  18  19
ENDBRANCH   1  18
TORSDOF 28
ENDMDL
MODEL 7
REMARK VINA RESULT:    -5.323      5.402     10.661
REMARK INTER + INTRA:         -16.011
REMARK INTER:                 -13.770
REMARK INTRA:                  -2.241
REMARK UNBOUND:                -1.975
REMARK SMILES CCCCCCCCCCCCCCCCCCCCCCCCCCCCCC(=O)[O-]
REMARK SMILES IDX 16 1 17 2 18 3 19 4 20 5 21 6 22 7 23 8 24 9 25 10 26 11
REMARK SMILES IDX 27 12 28 13 29 14 30 15 31 16 32 17 15 18 14 19 13 20 12 21
REMARK SMILES IDX 11 22 10 23 9 24 8 25 7 26 6 27 5 28 4 29 3 30 2 31 1 32
REMARK H PARENT
REMARK Flexibility Score: inf
ROOT
ATOM      1  C   UNL     1      -0.604  56.864  24.592  1.00  0.00     0.000 C 
ENDROOT
BRANCH   1   2
ATOM      2  C   UNL     1       0.097  58.038  25.294  1.00  0.00     0.000 C 
BRANCH   2   3
ATOM      3  C   UNL     1       0.088  59.285  24.402  1.00  0.00     0.000 C 
BRANCH   3   4
ATOM      4  C   UNL     1       0.933  59.070  23.136  1.00  0.00     0.000 C 
BRANCH   4   5
ATOM      5  C   UNL     1       1.594  60.375  22.654  1.00  0.00     0.000 C 
BRANCH   5   6
ATOM      6  C   UNL     1       2.842  60.136  21.782  1.00  0.00     0.000 C 
BRANCH   6   7
ATOM      7  C   UNL     1       2.910  58.690  21.254  1.00  0.00     0.000 C 
BRANCH   7   8
ATOM      8  C   UNL     1       4.309  58.307  20.724  1.00  0.00     0.000 C 
BRANCH   8   9
ATOM      9  C   UNL     1       4.962  57.121  21.454  1.00  0.00     0.000 C 
BRANCH   9  10
ATOM     10  C   UNL     1       6.452  56.949  21.117  1.00  0.00     0.000 C 
BRANCH  10  11
ATOM     11  C   UNL     1       6.834  55.464  21.022  1.00  0.00     0.000 C 
BRANCH  11  12
ATOM     12  C   UNL     1       8.152  55.238  20.258  1.00  0.00     0.000 C 
BRANCH  12  13
ATOM     13  C   UNL     1       9.334  54.764  21.130  1.00  0.00     0.006 C 
BRANCH  13  14
ATOM     14  C   UNL     1       9.035  53.515  21.974  1.00  0.00     0.053 C 
BRANCH  14  15
ATOM     15  C   UNL     1      10.243  53.045  22.727  1.00  0.00     0.041 C 
ATOM     16  O   UNL     1      10.619  51.845  22.639  1.00  0.00    -0.550 OA
ATOM     17  O   UNL     1      10.981  53.941  23.488  1.00  0.00    -0.550 OA
ENDBRANCH  14  15
ENDBRANCH  13  14
ENDBRANCH  12  13
ENDBRANCH  11  12
ENDBRANCH  10  11
ENDBRANCH   9  10
ENDBRANCH   8   9
ENDBRANCH   7   8
ENDBRANCH   6   7
ENDBRANCH   5   6
ENDBRANCH   4   5
ENDBRANCH   3   4
ENDBRANCH   2   3
ENDBRANCH   1   2
BRANCH   1  18
ATOM     18  C   UNL     1      -0.981  55.734  25.563  1.00  0.00     0.000 C 
BRANCH  18  19
ATOM     19  C   UNL     1      -0.015  55.638  26.757  1.00  0.00     0.000 C 
BRANCH  19  20
ATOM     20  C   UNL     1      -0.692  55.108  28.033  1.00  0.00     0.000 C 
BRANCH  20  21
ATOM     21  C   UNL     1       0.303  54.617  29.107  1.00  0.00     0.000 C 
BRANCH  21  22
ATOM     22  C   UNL     1      -0.337  54.545  30.504  1.00  0.00     0.000 C 
BRANCH  22  23
ATOM     23  C   UNL     1      -0.898  53.150  30.825  1.00  0.00     0.000 C 
BRANCH  23  24
ATOM     24  C   UNL     1       0.201  52.076  30.910  1.00  0.00    -0.000 C 
BRANCH  24  25
ATOM     25  C   UNL     1      -0.276  50.710  30.394  1.00  0.00    -0.000 C 
BRANCH  25  26
ATOM     26  C   UNL     1       0.695  50.094  29.371  1.00  0.00    -0.000 C 
BRANCH  26  27
ATOM     27  C   UNL     1       1.202  51.120  28.342  1.00  0.00    -0.000 C 
BRANCH  27  28
ATOM     28  C   UNL     1       0.884  50.775  26.873  1.00  0.00    -0.000 C 
BRANCH  28  29
ATOM     29  C   UNL     1      -0.037  51.800  26.179  1.00  0.00    -0.000 C 
BRANCH  29  30
ATOM     30  C   UNL     1       0.590  52.371  24.892  1.00  0.00    -0.000 C 
BRANCH  30  31
ATOM     31  C   UNL     1       1.508  51.360  24.189  1.00  0.00    -0.003 C 
ATOM     32  C   UNL     1       0.757  50.485  23.184  1.00  0.00     0.004 C 
ENDBRANCH  30  31
ENDBRANCH  29  30
ENDBRANCH  28  29
ENDBRANCH  27  28
ENDBRANCH  26  27
ENDBRANCH  25  26
ENDBRANCH  24  25
ENDBRANCH  23  24
ENDBRANCH  22  23
ENDBRANCH  21  22
ENDBRANCH  20  21
ENDBRANCH  19  20
ENDBRANCH  18  19
ENDBRANCH   1  18
TORSDOF 28
ENDMDL
MODEL 8
REMARK VINA RESULT:    -5.229      7.688     13.599
REMARK INTER + INTRA:         -15.762
REMARK INTER:                 -11.437
REMARK INTRA:                  -4.325
REMARK UNBOUND:                -1.975
REMARK SMILES CCCCCCCCCCCCCCCCCCCCCCCCCCCCCC(=O)[O-]
REMARK SMILES IDX 16 1 17 2 18 3 19 4 20 5 21 6 22 7 23 8 24 9 25 10 26 11
REMARK SMILES IDX 27 12 28 13 29 14 30 15 31 16 32 17 15 18 14 19 13 20 12 21
REMARK SMILES IDX 11 22 10 23 9 24 8 25 7 26 6 27 5 28 4 29 3 30 2 31 1 32
REMARK H PARENT
REMARK Flexibility Score: inf
ROOT
ATOM      1  C   UNL     1       6.761  46.575  24.581  1.00  0.00     0.000 C 
ENDROOT
BRANCH   1   2
ATOM      2  C   UNL     1       6.811  46.101  26.042  1.00  0.00     0.000 C 
BRANCH   2   3
ATOM      3  C   UNL     1       5.514  46.464  26.773  1.00  0.00     0.000 C 
BRANCH   3   4
ATOM      4  C   UNL     1       4.333  46.572  25.794  1.00  0.00     0.000 C 
BRANCH   4   5
ATOM      5  C   UNL     1       3.569  47.899  25.955  1.00  0.00     0.000 C 
BRANCH   5   6
ATOM      6  C   UNL     1       3.414  48.673  24.631  1.00  0.00     0.000 C 
BRANCH   6   7
ATOM      7  C   UNL     1       3.476  47.740  23.406  1.00  0.00     0.000 C 
BRANCH   7   8
ATOM      8  C   UNL     1       2.393  48.057  22.352  1.00  0.00     0.000 C 
BRANCH   8   9
ATOM      9  C   UNL     1       1.621  46.825  21.846  1.00  0.00     0.000 C 
BRANCH   9  10
ATOM     10  C   UNL     1       1.272  45.828  22.963  1.00  0.00     0.000 C 
BRANCH  10  11
ATOM     11  C   UNL     1      -0.065  46.186  23.629  1.00  0.00     0.000 C 
BRANCH  11  12
ATOM     12  C   UNL     1       0.116  46.808  25.027  1.00  0.00     0.000 C 
BRANCH  12  13
ATOM     13  C   UNL     1      -0.215  48.312  25.115  1.00  0.00     0.006 C 
BRANCH  13  14
ATOM     14  C   UNL     1      -0.843  48.897  23.839  1.00  0.00     0.053 C 
BRANCH  14  15
ATOM     15  C   UNL     1      -0.561  50.362  23.696  1.00  0.00     0.041 C 
ATOM     16  O   UNL     1       0.575  50.821  23.986  1.00  0.00    -0.550 OA
ATOM     17  O   UNL     1      -1.539  51.214  23.199  1.00  0.00    -0.550 OA
ENDBRANCH  14  15
ENDBRANCH  13  14
ENDBRANCH  12  13
ENDBRANCH  11  12
ENDBRANCH  10  11
ENDBRANCH   9  10
ENDBRANCH   8   9
ENDBRANCH   7   8
ENDBRANCH   6   7
ENDBRANCH   5   6
ENDBRANCH   4   5
ENDBRANCH   3   4
ENDBRANCH   2   3
ENDBRANCH   1   2
BRANCH   1  18
ATOM     18  C   UNL     1       8.102  46.389  23.852  1.00  0.00     0.000 C 
BRANCH  18  19
ATOM     19  C   UNL     1       8.554  44.919  23.819  1.00  0.00     0.000 C 
BRANCH  19  20
ATOM     20  C   UNL     1      10.083  44.762  23.905  1.00  0.00     0.000 C 
BRANCH  20  21
ATOM     21  C   UNL     1      10.619  44.680  25.350  1.00  0.00     0.000 C 
BRANCH  21  22
ATOM     22  C   UNL     1      12.125  44.366  25.396  1.00  0.00     0.000 C 
BRANCH  22  23
ATOM     23  C   UNL     1      12.665  44.273  26.832  1.00  0.00     0.000 C 
BRANCH  23  24
ATOM     24  C   UNL     1      11.719  44.914  27.862  1.00  0.00    -0.000 C 
BRANCH  24  25
ATOM     25  C   UNL     1      12.474  45.740  28.915  1.00  0.00    -0.000 C 
BRANCH  25  26
ATOM     26  C   UNL     1      13.715  46.442  28.334  1.00  0.00    -0.000 C 
BRANCH  26  27
ATOM     27  C   UNL     1      13.663  47.971  28.500  1.00  0.00    -0.000 C 
BRANCH  27  28
ATOM     28  C   UNL     1      13.254  48.746  27.230  1.00  0.00    -0.000 C 
BRANCH  28  29
ATOM     29  C   UNL     1      13.107  47.856  25.978  1.00  0.00    -0.000 C 
BRANCH  29  30
ATOM     30  C   UNL     1      11.831  48.181  25.178  1.00  0.00    -0.000 C 
BRANCH  30  31
ATOM     31  C   UNL     1      12.090  48.256  23.667  1.00  0.00    -0.003 C 
ATOM     32  C   UNL     1      10.822  48.561  22.868  1.00  0.00     0.004 C 
ENDBRANCH  30  31
ENDBRANCH  29  30
ENDBRANCH  28  29
ENDBRANCH  27  28
ENDBRANCH  26  27
ENDBRANCH  25  26
ENDBRANCH  24  25
ENDBRANCH  23  24
ENDBRANCH  22  23
ENDBRANCH  21  22
ENDBRANCH  20  21
ENDBRANCH  19  20
ENDBRANCH  18  19
ENDBRANCH   1  18
TORSDOF 28
ENDMDL
MODEL 9
REMARK VINA RESULT:    -5.183      8.200      9.973
REMARK INTER + INTRA:         -15.642
REMARK INTER:                 -10.210
REMARK INTRA:                  -5.432
REMARK UNBOUND:                -1.975
REMARK SMILES CCCCCCCCCCCCCCCCCCCCCCCCCCCCCC(=O)[O-]
REMARK SMILES IDX 16 1 17 2 18 3 19 4 20 5 21 6 22 7 23 8 24 9 25 10 26 11
REMARK SMILES IDX 27 12 28 13 29 14 30 15 31 16 32 17 15 18 14 19 13 20 12 21
REMARK SMILES IDX 11 22 10 23 9 24 8 25 7 26 6 27 5 28 4 29 3 30 2 31 1 32
REMARK H PARENT
REMARK Flexibility Score: inf
ROOT
ATOM      1  C   UNL     1       3.004  48.252  26.256  1.00  0.00     0.000 C 
ENDROOT
BRANCH   1   2
ATOM      2  C   UNL     1       1.516  47.954  26.503  1.00  0.00     0.000 C 
BRANCH   2   3
ATOM      3  C   UNL     1       0.736  49.252  26.739  1.00  0.00     0.000 C 
BRANCH   3   4
ATOM      4  C   UNL     1       1.686  50.438  26.974  1.00  0.00     0.000 C 
BRANCH   4   5
ATOM      5  C   UNL     1       1.298  51.249  28.225  1.00  0.00     0.000 C 
BRANCH   5   6
ATOM      6  C   UNL     1       0.012  50.739  28.902  1.00  0.00     0.000 C 
BRANCH   6   7
ATOM      7  C   UNL     1       0.048  50.933  30.431  1.00  0.00     0.000 C 
BRANCH   7   8
ATOM      8  C   UNL     1       1.254  50.237  31.098  1.00  0.00     0.000 C 
BRANCH   8   9
ATOM      9  C   UNL     1       1.391  48.742  30.760  1.00  0.00     0.000 C 
BRANCH   9  10
ATOM     10  C   UNL     1       2.593  48.074  31.448  1.00  0.00     0.000 C 
BRANCH  10  11
ATOM     11  C   UNL     1       3.296  47.087  30.504  1.00  0.00     0.000 C 
BRANCH  11  12
ATOM     12  C   UNL     1       2.310  46.330  29.595  1.00  0.00     0.000 C 
BRANCH  12  13
ATOM     13  C   UNL     1       2.951  45.250  28.699  1.00  0.00     0.006 C 
BRANCH  13  14
ATOM     14  C   UNL     1       4.484  45.174  28.799  1.00  0.00     0.053 C 
BRANCH  14  15
ATOM     15  C   UNL     1       5.152  45.664  27.550  1.00  0.00     0.041 C 
ATOM     16  O   UNL     1       4.965  45.070  26.456  1.00  0.00    -0.550 OA
ATOM     17  O   UNL     1       5.945  46.803  27.586  1.00  0.00    -0.550 OA
ENDBRANCH  14  15
ENDBRANCH  13  14
ENDBRANCH  12  13
ENDBRANCH  11  12
ENDBRANCH  10  11
ENDBRANCH   9  10
ENDBRANCH   8   9
ENDBRANCH   7   8
ENDBRANCH   6   7
ENDBRANCH   5   6
ENDBRANCH   4   5
ENDBRANCH   3   4
ENDBRANCH   2   3
ENDBRANCH   1   2
BRANCH   1  18
ATOM     18  C   UNL     1       3.474  47.805  24.863  1.00  0.00     0.000 C 
BRANCH  18  19
ATOM     19  C   UNL     1       2.434  46.927  24.145  1.00  0.00     0.000 C 
BRANCH  19  20
ATOM     20  C   UNL     1       1.744  47.652  22.977  1.00  0.00     0.000 C 
BRANCH  20  21
ATOM     21  C   UNL     1       2.276  49.080  22.730  1.00  0.00     0.000 C 
BRANCH  21  22
ATOM     22  C   UNL     1       1.240  50.158  23.095  1.00  0.00     0.000 C 
BRANCH  22  23
ATOM     23  C   UNL     1      -0.194  49.607  23.140  1.00  0.00     0.000 C 
BRANCH  23  24
ATOM     24  C   UNL     1      -1.170  50.556  23.859  1.00  0.00    -0.000 C 
BRANCH  24  25
ATOM     25  C   UNL     1      -0.550  51.937  24.126  1.00  0.00    -0.000 C 
BRANCH  25  26
ATOM     26  C   UNL     1      -1.057  52.567  25.436  1.00  0.00    -0.000 C 
BRANCH  26  27
ATOM     27  C   UNL     1      -0.238  53.800  25.857  1.00  0.00    -0.000 C 
BRANCH  27  28
ATOM     28  C   UNL     1      -0.525  54.312  27.283  1.00  0.00    -0.000 C 
BRANCH  28  29
ATOM     29  C   UNL     1       0.726  54.835  28.020  1.00  0.00    -0.000 C 
BRANCH  29  30
ATOM     30  C   UNL     1       0.663  54.569  29.536  1.00  0.00    -0.000 C 
BRANCH  30  31
ATOM     31  C   UNL     1      -0.772  54.619  30.081  1.00  0.00    -0.003 C 
ATOM     32  C   UNL     1      -0.883  55.444  31.364  1.00  0.00     0.004 C 
ENDBRANCH  30  31
ENDBRANCH  29  30
ENDBRANCH  28  29
ENDBRANCH  27  28
ENDBRANCH  26  27
ENDBRANCH  25  26
ENDBRANCH  24  25
ENDBRANCH  23  24
ENDBRANCH  22  23
ENDBRANCH  21  22
ENDBRANCH  20  21
ENDBRANCH  19  20
ENDBRANCH  18  19
ENDBRANCH   1  18
TORSDOF 28
ENDMDL
