MODEL 1
REMARK VINA RESULT:    -0.922      0.000      0.000
REMARK INTER + INTRA:          -1.950
REMARK INTER:                  -1.568
REMARK INTRA:                  -0.382
REMARK UNBOUND:                -0.382
REMARK SMILES CCCCCCCCCCCCCC(=O)[O-]
REMARK SMILES IDX 8 1 9 2 10 3 11 4 12 5 13 6 14 7 15 8 16 9 7 10 6 11 5 12
REMARK SMILES IDX 4 13 3 14 2 15 1 16
REMARK H PARENT
REMARK Flexibility Score: inf
ROOT
ATOM      1  C   UNL     1      32.538  24.373  34.375  1.00  0.00     0.000 C 
ENDROOT
BRANCH   1   2
ATOM      2  C   UNL     1      33.176  25.125  33.196  1.00  0.00     0.000 C 
BRANCH   2   3
ATOM      3  C   UNL     1      34.310  24.324  32.531  1.00  0.00     0.000 C 
BRANCH   3   4
ATOM      4  C   UNL     1      34.981  25.090  31.381  1.00  0.00     0.000 C 
BRANCH   4   5
ATOM      5  C   UNL     1      34.299  24.835  30.026  1.00  0.00     0.006 C 
BRANCH   5   6
ATOM      6  C   UNL     1      34.932  23.657  29.272  1.00  0.00     0.053 C 
BRANCH   6   7
ATOM      7  C   UNL     1      36.428  23.729  29.285  1.00  0.00     0.041 C 
ATOM      8  O   UNL     1      37.098  22.881  29.932  1.00  0.00    -0.550 OA
ATOM      9  O   UNL     1      37.081  24.749  28.606  1.00  0.00    -0.550 OA
ENDBRANCH   6   7
ENDBRANCH   5   6
ENDBRANCH   4   5
ENDBRANCH   3   4
ENDBRANCH   2   3
ENDBRANCH   1   2
BRANCH   1  10
ATOM     10  C   UNL     1      31.203  24.999  34.813  1.00  0.00     0.000 C 
BRANCH  10  11
ATOM     11  C   UNL     1      30.118  24.907  33.726  1.00  0.00    -0.000 C 
BRANCH  11  12
ATOM     12  C   UNL     1      30.484  24.012  32.525  1.00  0.00    -0.000 C 
BRANCH  12  13
ATOM     13  C   UNL     1      30.604  24.783  31.192  1.00  0.00    -0.000 C 
BRANCH  13  14
ATOM     14  C   UNL     1      30.804  23.839  29.994  1.00  0.00    -0.000 C 
BRANCH  14  15
ATOM     15  C   UNL     1      29.781  24.084  28.874  1.00  0.00    -0.003 C 
ATOM     16  C   UNL     1      29.718  22.928  27.875  1.00  0.00     0.004 C 
ENDBRANCH  14  15
ENDBRANCH  13  14
ENDBRANCH  12  13
ENDBRANCH  11  12
ENDBRANCH  10  11
ENDBRANCH   1  10
TORSDOF 12
ENDMDL
MODEL 2
REMARK VINA RESULT:    -0.875      2.394      4.904
REMARK INTER + INTRA:          -1.871
REMARK INTER:                  -1.729
REMARK INTRA:                  -0.141
REMARK UNBOUND:                -0.382
REMARK SMILES CCCCCCCCCCCCCC(=O)[O-]
REMARK SMILES IDX 8 1 9 2 10 3 11 4 12 5 13 6 14 7 15 8 16 9 7 10 6 11 5 12
REMARK SMILES IDX 4 13 3 14 2 15 1 16
REMARK H PARENT
REMARK Flexibility Score: inf
ROOT
ATOM      1  C   UNL     1      31.987  24.167  32.894  1.00  0.00     0.000 C 
ENDROOT
BRANCH   1   2
ATOM      2  C   UNL     1      30.489  23.831  32.951  1.00  0.00     0.000 C 
BRANCH   2   3
ATOM      3  C   UNL     1      29.610  24.957  32.377  1.00  0.00     0.000 C 
BRANCH   3   4
ATOM      4  C   UNL     1      29.776  25.122  30.859  1.00  0.00     0.000 C 
BRANCH   4   5
ATOM      5  C   UNL     1      30.778  24.118  30.263  1.00  0.00     0.006 C 
BRANCH   5   6
ATOM      6  C   UNL     1      30.624  23.979  28.742  1.00  0.00     0.053 C 
BRANCH   6   7
ATOM      7  C   UNL     1      31.292  22.742  28.226  1.00  0.00     0.041 C 
ATOM      8  O   UNL     1      30.616  21.706  27.994  1.00  0.00    -0.550 OA
ATOM      9  O   UNL     1      32.667  22.725  28.029  1.00  0.00    -0.550 OA
ENDBRANCH   6   7
ENDBRANCH   5   6
ENDBRANCH   4   5
ENDBRANCH   3   4
ENDBRANCH   2   3
ENDBRANCH   1   2
BRANCH   1  10
ATOM     10  C   UNL     1      32.677  23.996  34.259  1.00  0.00     0.000 C 
BRANCH  10  11
ATOM     11  C   UNL     1      33.984  24.800  34.369  1.00  0.00    -0.000 C 
BRANCH  11  12
ATOM     12  C   UNL     1      34.657  25.124  33.020  1.00  0.00    -0.000 C 
BRANCH  12  13
ATOM     13  C   UNL     1      36.190  24.942  33.033  1.00  0.00    -0.000 C 
BRANCH  13  14
ATOM     14  C   UNL     1      36.751  24.661  31.628  1.00  0.00    -0.000 C 
BRANCH  14  15
ATOM     15  C   UNL     1      35.720  24.923  30.519  1.00  0.00    -0.003 C 
ATOM     16  C   UNL     1      35.964  24.062  29.279  1.00  0.00     0.004 C 
ENDBRANCH  14  15
ENDBRANCH  13  14
ENDBRANCH  12  13
ENDBRANCH  11  12
ENDBRANCH  10  11
ENDBRANCH   1  10
TORSDOF 12
ENDMDL
MODEL 3
REMARK VINA RESULT:     0.184     16.620     19.973
REMARK INTER + INTRA:          -0.068
REMARK INTER:                   0.357
REMARK INTRA:                  -0.425
REMARK UNBOUND:                -0.382
REMARK SMILES CCCCCCCCCCCCCC(=O)[O-]
REMARK SMILES IDX 8 1 9 2 10 3 11 4 12 5 13 6 14 7 15 8 16 9 7 10 6 11 5 12
REMARK SMILES IDX 4 13 3 14 2 15 1 16
REMARK H PARENT
REMARK Flexibility Score: inf
ROOT
ATOM      1  C   UNL     1      21.000  22.145  47.377  1.00  0.00     0.000 C 
ENDROOT
BRANCH   1   2
ATOM      2  C   UNL     1      19.517  22.543  47.312  1.00  0.00     0.000 C 
BRANCH   2   3
ATOM      3  C   UNL     1      19.281  24.009  47.718  1.00  0.00     0.000 C 
BRANCH   3   4
ATOM      4  C   UNL     1      17.795  24.332  47.932  1.00  0.00     0.000 C 
BRANCH   4   5
ATOM      5  C   UNL     1      17.189  25.125  46.761  1.00  0.00     0.006 C 
BRANCH   5   6
ATOM      6  C   UNL     1      17.062  24.273  45.490  1.00  0.00     0.053 C 
BRANCH   6   7
ATOM      7  C   UNL     1      17.947  24.780  44.392  1.00  0.00     0.041 C 
ATOM      8  O   UNL     1      19.145  25.081  44.631  1.00  0.00    -0.550 OA
ATOM      9  O   UNL     1      17.438  24.945  43.110  1.00  0.00    -0.550 OA
ENDBRANCH   6   7
ENDBRANCH   5   6
ENDBRANCH   4   5
ENDBRANCH   3   4
ENDBRANCH   2   3
ENDBRANCH   1   2
BRANCH   1  10
ATOM     10  C   UNL     1      21.774  22.566  46.116  1.00  0.00     0.000 C 
BRANCH  10  11
ATOM     11  C   UNL     1      23.246  22.121  46.147  1.00  0.00    -0.000 C 
BRANCH  11  12
ATOM     12  C   UNL     1      24.238  23.130  45.537  1.00  0.00    -0.000 C 
BRANCH  12  13
ATOM     13  C   UNL     1      25.422  23.475  46.466  1.00  0.00    -0.000 C 
BRANCH  13  14
ATOM     14  C   UNL     1      26.742  22.855  45.976  1.00  0.00    -0.000 C 
BRANCH  14  15
ATOM     15  C   UNL     1      27.956  23.754  46.259  1.00  0.00    -0.003 C 
ATOM     16  C   UNL     1      28.062  24.919  45.274  1.00  0.00     0.004 C 
ENDBRANCH  14  15
ENDBRANCH  13  14
ENDBRANCH  12  13
ENDBRANCH  11  12
ENDBRANCH  10  11
ENDBRANCH   1  10
TORSDOF 12
ENDMDL
MODEL 4
REMARK VINA RESULT:     1.975      2.284      4.957
REMARK INTER + INTRA:           2.978
REMARK INTER:                   3.508
REMARK INTRA:                  -0.530
REMARK UNBOUND:                -0.382
REMARK SMILES CCCCCCCCCCCCCC(=O)[O-]
REMARK SMILES IDX 8 1 9 2 10 3 11 4 12 5 13 6 14 7 15 8 16 9 7 10 6 11 5 12
REMARK SMILES IDX 4 13 3 14 2 15 1 16
REMARK H PARENT
REMARK Flexibility Score: inf
ROOT
ATOM      1  C   UNL     1      30.141  24.117  34.167  1.00  0.00     0.000 C 
ENDROOT
BRANCH   1   2
ATOM      2  C   UNL     1      28.698  24.476  33.780  1.00  0.00     0.000 C 
BRANCH   2   3
ATOM      3  C   UNL     1      28.602  25.103  32.378  1.00  0.00     0.000 C 
BRANCH   3   4
ATOM      4  C   UNL     1      29.952  25.125  31.646  1.00  0.00     0.000 C 
BRANCH   4   5
ATOM      5  C   UNL     1      29.835  24.668  30.181  1.00  0.00     0.006 C 
BRANCH   5   6
ATOM      6  C   UNL     1      31.051  25.091  29.345  1.00  0.00     0.053 C 
BRANCH   6   7
ATOM      7  C   UNL     1      31.768  23.907  28.770  1.00  0.00     0.041 C 
ATOM      8  O   UNL     1      31.137  22.851  28.503  1.00  0.00    -0.550 OA
ATOM      9  O   UNL     1      33.139  23.962  28.554  1.00  0.00    -0.550 OA
ENDBRANCH   6   7
ENDBRANCH   5   6
ENDBRANCH   4   5
ENDBRANCH   3   4
ENDBRANCH   2   3
ENDBRANCH   1   2
BRANCH   1  10
ATOM     10  C   UNL     1      30.663  24.970  35.336  1.00  0.00     0.000 C 
BRANCH  10  11
ATOM     11  C   UNL     1      32.076  24.561  35.785  1.00  0.00    -0.000 C 
BRANCH  11  12
ATOM     12  C   UNL     1      33.217  25.111  34.907  1.00  0.00    -0.000 C 
BRANCH  12  13
ATOM     13  C   UNL     1      33.513  24.247  33.663  1.00  0.00    -0.000 C 
BRANCH  13  14
ATOM     14  C   UNL     1      34.262  25.037  32.574  1.00  0.00    -0.000 C 
BRANCH  14  15
ATOM     15  C   UNL     1      35.781  24.818  32.628  1.00  0.00    -0.003 C 
ATOM     16  C   UNL     1      36.358  25.056  34.024  1.00  0.00     0.004 C 
ENDBRANCH  14  15
ENDBRANCH  13  14
ENDBRANCH  12  13
ENDBRANCH  11  12
ENDBRANCH  10  11
ENDBRANCH   1  10
TORSDOF 12
ENDMDL
