MODEL 1
REMARK VINA RESULT:    -5.910      0.000      0.000
REMARK INTER + INTRA:          -7.357
REMARK INTER:                  -7.119
REMARK INTRA:                  -0.238
REMARK UNBOUND:                -0.238
REMARK SMILES O=c1c(O)c(-c2ccc(O)c(O)c2)oc2cc(O)cc(O)c12
REMARK SMILES IDX 5 1 3 2 2 3 1 4 22 5 20 6 19 7 17 8 16 9 15 10 14 11 6 12
REMARK SMILES IDX 7 13 8 14 9 15 13 16 11 17 10 18 12 20 4 22 21 24 18 26
REMARK H PARENT 10 19 12 21 4 23 21 25 18 27
REMARK Flexibility Score: inf
ROOT
ATOM      1  C   UNL     1      17.065   9.837  28.240  1.00  0.00     0.180 A 
ATOM      2  C   UNL     1      16.170   9.184  29.109  1.00  0.00     0.208 A 
ATOM      3  C   UNL     1      14.825   9.058  28.729  1.00  0.00     0.238 A 
ATOM      4  O   UNL     1      14.012   8.486  29.504  1.00  0.00    -0.285 OA
ATOM      5  C   UNL     1      14.402   9.566  27.483  1.00  0.00     0.111 A 
ATOM      6  C   UNL     1      13.066   9.477  27.024  1.00  0.00     0.134 A 
ATOM      7  C   UNL     1      12.727   9.998  25.766  1.00  0.00     0.093 A 
ATOM      8  C   UNL     1      13.697  10.606  24.961  1.00  0.00     0.123 A 
ATOM      9  C   UNL     1      15.015  10.697  25.410  1.00  0.00     0.094 A 
ATOM     10  C   UNL     1      15.373  10.184  26.661  1.00  0.00     0.146 A 
ATOM     11  O   UNL     1      16.634  10.290  27.066  1.00  0.00    -0.452 OA
ENDROOT
BRANCH   1  12
ATOM     12  C   UNL     1      18.494  10.026  28.579  1.00  0.00     0.025 A 
ATOM     13  C   UNL     1      18.851  10.944  29.578  1.00  0.00     0.016 A 
ATOM     14  C   UNL     1      20.191  11.125  29.927  1.00  0.00     0.051 A 
ATOM     15  C   UNL     1      21.192  10.380  29.298  1.00  0.00     0.157 A 
ATOM     16  C   UNL     1      19.501   9.263  27.960  1.00  0.00     0.062 A 
ATOM     17  C   UNL     1      20.847   9.441  28.311  1.00  0.00     0.158 A 
BRANCH  15  18
ATOM     18  O   UNL     1      22.522  10.583  29.666  1.00  0.00    -0.504 OA
ATOM     19  H   UNL     1      23.104  11.281  29.219  1.00  0.00     0.293 HD
ENDBRANCH  15  18
BRANCH  17  20
ATOM     20  O   UNL     1      21.839   8.685  27.689  1.00  0.00    -0.504 OA
ATOM     21  H   UNL     1      22.232   8.957  26.795  1.00  0.00     0.293 HD
ENDBRANCH  17  20
ENDBRANCH   1  12
BRANCH   2  22
ATOM     22  O   UNL     1      16.624   8.646  30.316  1.00  0.00    -0.502 OA
ATOM     23  H   UNL     1      17.581   8.339  30.447  1.00  0.00     0.293 HD
ENDBRANCH   2  22
BRANCH   6  24
ATOM     24  O   UNL     1      12.078   8.875  27.803  1.00  0.00    -0.507 OA
ATOM     25  H   UNL     1      11.869   9.196  28.742  1.00  0.00     0.293 HD
ENDBRANCH   6  24
BRANCH   8  26
ATOM     26  O   UNL     1      13.361  11.124  23.712  1.00  0.00    -0.508 OA
ATOM     27  H   UNL     1      13.956  10.984  22.903  1.00  0.00     0.293 HD
ENDBRANCH   8  26
TORSDOF 6
ENDMDL
MODEL 2
REMARK VINA RESULT:    -5.752      1.681      3.293
REMARK INTER + INTRA:          -7.167
REMARK INTER:                  -7.379
REMARK INTRA:                   0.213
REMARK UNBOUND:                -0.238
REMARK SMILES O=c1c(O)c(-c2ccc(O)c(O)c2)oc2cc(O)cc(O)c12
REMARK SMILES IDX 5 1 3 2 2 3 1 4 22 5 20 6 19 7 17 8 16 9 15 10 14 11 6 12
REMARK SMILES IDX 7 13 8 14 9 15 13 16 11 17 10 18 12 20 4 22 21 24 18 26
REMARK H PARENT 10 19 12 21 4 23 21 25 18 27
REMARK Flexibility Score: inf
ROOT
ATOM      1  C   UNL     1      15.442  10.034  27.268  1.00  0.00     0.180 A 
ATOM      2  C   UNL     1      15.234   9.907  25.882  1.00  0.00     0.208 A 
ATOM      3  C   UNL     1      13.929   9.708  25.406  1.00  0.00     0.238 A 
ATOM      4  O   UNL     1      13.732   9.582  24.167  1.00  0.00    -0.285 OA
ATOM      5  C   UNL     1      12.855   9.658  26.319  1.00  0.00     0.111 A 
ATOM      6  C   UNL     1      11.510   9.464  25.922  1.00  0.00     0.134 A 
ATOM      7  C   UNL     1      10.496   9.436  26.891  1.00  0.00     0.093 A 
ATOM      8  C   UNL     1      10.802   9.598  28.247  1.00  0.00     0.123 A 
ATOM      9  C   UNL     1      12.126   9.789  28.643  1.00  0.00     0.094 A 
ATOM     10  C   UNL     1      13.151   9.819  27.693  1.00  0.00     0.146 A 
ATOM     11  O   UNL     1      14.404   9.996  28.098  1.00  0.00    -0.452 OA
ENDROOT
BRANCH   1  12
ATOM     12  C   UNL     1      16.792  10.227  27.847  1.00  0.00     0.025 A 
ATOM     13  C   UNL     1      16.932  10.947  29.044  1.00  0.00     0.016 A 
ATOM     14  C   UNL     1      18.193  11.125  29.619  1.00  0.00     0.051 A 
ATOM     15  C   UNL     1      19.328  10.574  29.018  1.00  0.00     0.157 A 
ATOM     16  C   UNL     1      17.932   9.656  27.255  1.00  0.00     0.062 A 
ATOM     17  C   UNL     1      19.198   9.831  27.832  1.00  0.00     0.158 A 
BRANCH  15  18
ATOM     18  O   UNL     1      20.574  10.769  29.614  1.00  0.00    -0.504 OA
ATOM     19  H   UNL     1      20.668  11.080  30.574  1.00  0.00     0.293 HD
ENDBRANCH  15  18
BRANCH  17  20
ATOM     20  O   UNL     1      20.324   9.267  27.235  1.00  0.00    -0.504 OA
ATOM     21  H   UNL     1      20.527   9.399  26.251  1.00  0.00     0.293 HD
ENDBRANCH  17  20
ENDBRANCH   1  12
BRANCH   2  22
ATOM     22  O   UNL     1      16.309  10.010  24.995  1.00  0.00    -0.502 OA
ATOM     23  H   UNL     1      16.309  10.655  24.213  1.00  0.00     0.293 HD
ENDBRANCH   2  22
BRANCH   6  24
ATOM     24  O   UNL     1      11.175   9.301  24.578  1.00  0.00    -0.507 OA
ATOM     25  H   UNL     1      10.592   9.971  24.088  1.00  0.00     0.293 HD
ENDBRANCH   6  24
BRANCH   8  26
ATOM     26  O   UNL     1       9.795   9.571  29.210  1.00  0.00    -0.508 OA
ATOM     27  H   UNL     1       9.424  10.424  29.613  1.00  0.00     0.293 HD
ENDBRANCH   8  26
TORSDOF 6
ENDMDL
MODEL 3
REMARK VINA RESULT:    -5.649      1.554      3.110
REMARK INTER + INTRA:          -7.043
REMARK INTER:                  -6.814
REMARK INTRA:                  -0.228
REMARK UNBOUND:                -0.238
REMARK SMILES O=c1c(O)c(-c2ccc(O)c(O)c2)oc2cc(O)cc(O)c12
REMARK SMILES IDX 5 1 3 2 2 3 1 4 22 5 20 6 19 7 17 8 16 9 15 10 14 11 6 12
REMARK SMILES IDX 7 13 8 14 9 15 13 16 11 17 10 18 12 20 4 22 21 24 18 26
REMARK H PARENT 10 19 12 21 4 23 21 25 18 27
REMARK Flexibility Score: inf
ROOT
ATOM      1  C   UNL     1      17.809   9.699  28.564  1.00  0.00     0.180 A 
ATOM      2  C   UNL     1      17.351   9.907  27.249  1.00  0.00     0.208 A 
ATOM      3  C   UNL     1      15.984   9.748  26.974  1.00  0.00     0.238 A 
ATOM      4  O   UNL     1      15.563   9.920  25.798  1.00  0.00    -0.285 OA
ATOM      5  C   UNL     1      15.098   9.406  28.016  1.00  0.00     0.111 A 
ATOM      6  C   UNL     1      13.707   9.231  27.823  1.00  0.00     0.134 A 
ATOM      7  C   UNL     1      12.889   8.900  28.915  1.00  0.00     0.093 A 
ATOM      8  C   UNL     1      13.437   8.741  30.193  1.00  0.00     0.123 A 
ATOM      9  C   UNL     1      14.808   8.913  30.387  1.00  0.00     0.094 A 
ATOM     10  C   UNL     1      15.640   9.241  29.312  1.00  0.00     0.146 A 
ATOM     11  O   UNL     1      16.942   9.392  29.525  1.00  0.00    -0.452 OA
ENDROOT
BRANCH   1  12
ATOM     12  C   UNL     1      19.238   9.829  28.930  1.00  0.00     0.025 A 
ATOM     13  C   UNL     1      19.637  10.852  29.804  1.00  0.00     0.016 A 
ATOM     14  C   UNL     1      20.977  10.981  30.178  1.00  0.00     0.051 A 
ATOM     15  C   UNL     1      21.934  10.082  29.699  1.00  0.00     0.157 A 
ATOM     16  C   UNL     1      20.199   8.914  28.464  1.00  0.00     0.062 A 
ATOM     17  C   UNL     1      21.544   9.040  28.841  1.00  0.00     0.158 A 
BRANCH  15  18
ATOM     18  O   UNL     1      23.265  10.237  30.088  1.00  0.00    -0.504 OA
ATOM     19  H   UNL     1      24.025  10.233  29.419  1.00  0.00     0.293 HD
ENDBRANCH  15  18
BRANCH  17  20
ATOM     20  O   UNL     1      22.491   8.132  28.370  1.00  0.00    -0.504 OA
ATOM     21  H   UNL     1      22.248   7.170  28.161  1.00  0.00     0.293 HD
ENDBRANCH  17  20
ENDBRANCH   1  12
BRANCH   2  22
ATOM     22  O   UNL     1      18.242  10.293  26.245  1.00  0.00    -0.502 OA
ATOM     23  H   UNL     1      17.929  10.631  25.342  1.00  0.00     0.293 HD
ENDBRANCH   2  22
BRANCH   6  24
ATOM     24  O   UNL     1      13.132   9.384  26.561  1.00  0.00    -0.507 OA
ATOM     25  H   UNL     1      13.628   9.834  25.800  1.00  0.00     0.293 HD
ENDBRANCH   6  24
BRANCH   8  26
ATOM     26  O   UNL     1      12.626   8.413  31.277  1.00  0.00    -0.508 OA
ATOM     27  H   UNL     1      13.019   8.181  32.182  1.00  0.00     0.293 HD
ENDBRANCH   8  26
TORSDOF 6
ENDMDL
MODEL 4
REMARK VINA RESULT:    -5.575      3.400      6.779
REMARK INTER + INTRA:          -6.954
REMARK INTER:                  -6.834
REMARK INTRA:                  -0.120
REMARK UNBOUND:                -0.238
REMARK SMILES O=c1c(O)c(-c2ccc(O)c(O)c2)oc2cc(O)cc(O)c12
REMARK SMILES IDX 5 1 3 2 2 3 1 4 22 5 20 6 19 7 17 8 16 9 15 10 14 11 6 12
REMARK SMILES IDX 7 13 8 14 9 15 13 16 11 17 10 18 12 20 4 22 21 24 18 26
REMARK H PARENT 10 19 12 21 4 23 21 25 18 27
REMARK Flexibility Score: inf
ROOT
ATOM      1  C   UNL     1      14.100   8.897  29.267  1.00  0.00     0.180 A 
ATOM      2  C   UNL     1      12.952   9.005  30.074  1.00  0.00     0.208 A 
ATOM      3  C   UNL     1      13.088   8.894  31.466  1.00  0.00     0.238 A 
ATOM      4  O   UNL     1      12.065   8.978  32.199  1.00  0.00    -0.285 OA
ATOM      5  C   UNL     1      14.366   8.697  32.028  1.00  0.00     0.111 A 
ATOM      6  C   UNL     1      14.590   8.578  33.421  1.00  0.00     0.134 A 
ATOM      7  C   UNL     1      15.895   8.394  33.902  1.00  0.00     0.093 A 
ATOM      8  C   UNL     1      16.978   8.326  33.019  1.00  0.00     0.123 A 
ATOM      9  C   UNL     1      16.762   8.442  31.645  1.00  0.00     0.094 A 
ATOM     10  C   UNL     1      15.469   8.625  31.145  1.00  0.00     0.146 A 
ATOM     11  O   UNL     1      15.291   8.727  29.832  1.00  0.00    -0.452 OA
ENDROOT
BRANCH   1  12
ATOM     12  C   UNL     1      14.035   8.985  27.790  1.00  0.00     0.025 A 
ATOM     13  C   UNL     1      13.270   8.050  27.076  1.00  0.00     0.016 A 
ATOM     14  C   UNL     1      13.178   8.125  25.684  1.00  0.00     0.051 A 
ATOM     15  C   UNL     1      13.834   9.143  24.987  1.00  0.00     0.157 A 
ATOM     16  C   UNL     1      14.678  10.020  27.088  1.00  0.00     0.062 A 
ATOM     17  C   UNL     1      14.586  10.099  25.691  1.00  0.00     0.158 A 
BRANCH  15  18
ATOM     18  O   UNL     1      13.726   9.191  23.596  1.00  0.00    -0.504 OA
ATOM     19  H   UNL     1      14.440   9.615  23.016  1.00  0.00     0.293 HD
ENDBRANCH  15  18
BRANCH  17  20
ATOM     20  O   UNL     1      15.231  11.125  25.003  1.00  0.00    -0.504 OA
ATOM     21  H   UNL     1      15.177  12.089  25.312  1.00  0.00     0.293 HD
ENDBRANCH  17  20
ENDBRANCH   1  12
BRANCH   2  22
ATOM     22  O   UNL     1      11.703   9.250  29.496  1.00  0.00    -0.502 OA
ATOM     23  H   UNL     1      11.566   9.949  28.775  1.00  0.00     0.293 HD
ENDBRANCH   2  22
BRANCH   6  24
ATOM     24  O   UNL     1      13.531   8.644  34.326  1.00  0.00    -0.507 OA
ATOM     25  H   UNL     1      13.570   8.180  35.227  1.00  0.00     0.293 HD
ENDBRANCH   6  24
BRANCH   8  26
ATOM     26  O   UNL     1      18.274   8.143  33.496  1.00  0.00    -0.508 OA
ATOM     27  H   UNL     1      18.485   7.450  34.205  1.00  0.00     0.293 HD
ENDBRANCH   8  26
TORSDOF 6
ENDMDL
MODEL 5
REMARK VINA RESULT:    -5.566      2.056      7.046
REMARK INTER + INTRA:          -6.943
REMARK INTER:                  -7.141
REMARK INTRA:                   0.199
REMARK UNBOUND:                -0.238
REMARK SMILES O=c1c(O)c(-c2ccc(O)c(O)c2)oc2cc(O)cc(O)c12
REMARK SMILES IDX 5 1 3 2 2 3 1 4 22 5 20 6 19 7 17 8 16 9 15 10 14 11 6 12
REMARK SMILES IDX 7 13 8 14 9 15 13 16 11 17 10 18 12 20 4 22 21 24 18 26
REMARK H PARENT 10 19 12 21 4 23 21 25 18 27
REMARK Flexibility Score: inf
ROOT
ATOM      1  C   UNL     1      15.561   9.269  27.977  1.00  0.00     0.180 A 
ATOM      2  C   UNL     1      16.897   9.631  27.724  1.00  0.00     0.208 A 
ATOM      3  C   UNL     1      17.814   9.629  28.786  1.00  0.00     0.238 A 
ATOM      4  O   UNL     1      19.011   9.963  28.574  1.00  0.00    -0.285 OA
ATOM      5  C   UNL     1      17.387   9.247  30.075  1.00  0.00     0.111 A 
ATOM      6  C   UNL     1      18.248   9.215  31.198  1.00  0.00     0.134 A 
ATOM      7  C   UNL     1      17.748   8.813  32.446  1.00  0.00     0.093 A 
ATOM      8  C   UNL     1      16.406   8.445  32.591  1.00  0.00     0.123 A 
ATOM      9  C   UNL     1      15.554   8.476  31.487  1.00  0.00     0.094 A 
ATOM     10  C   UNL     1      16.032   8.874  30.235  1.00  0.00     0.146 A 
ATOM     11  O   UNL     1      15.197   8.900  29.202  1.00  0.00    -0.452 OA
ENDROOT
BRANCH   1  12
ATOM     12  C   UNL     1      14.531   9.265  26.913  1.00  0.00     0.025 A 
ATOM     13  C   UNL     1      13.473   8.345  26.979  1.00  0.00     0.016 A 
ATOM     14  C   UNL     1      12.480   8.336  25.997  1.00  0.00     0.051 A 
ATOM     15  C   UNL     1      12.518   9.255  24.945  1.00  0.00     0.157 A 
ATOM     16  C   UNL     1      14.557  10.202  25.865  1.00  0.00     0.062 A 
ATOM     17  C   UNL     1      13.560  10.197  24.879  1.00  0.00     0.158 A 
BRANCH  15  18
ATOM     18  O   UNL     1      11.513   9.222  23.978  1.00  0.00    -0.504 OA
ATOM     19  H   UNL     1      10.642   9.726  24.090  1.00  0.00     0.293 HD
ENDBRANCH  15  18
BRANCH  17  20
ATOM     20  O   UNL     1      13.596  11.125  23.840  1.00  0.00    -0.504 OA
ATOM     21  H   UNL     1      14.402  11.209  23.230  1.00  0.00     0.293 HD
ENDBRANCH  17  20
ENDBRANCH   1  12
BRANCH   2  22
ATOM     22  O   UNL     1      17.306   9.958  26.428  1.00  0.00    -0.502 OA
ATOM     23  H   UNL     1      16.811   9.636  25.605  1.00  0.00     0.293 HD
ENDBRANCH   2  22
BRANCH   6  24
ATOM     24  O   UNL     1      19.591   9.576  31.084  1.00  0.00    -0.507 OA
ATOM     25  H   UNL     1      20.093  10.013  31.849  1.00  0.00     0.293 HD
ENDBRANCH   6  24
BRANCH   8  26
ATOM     26  O   UNL     1      15.909   8.045  33.830  1.00  0.00    -0.508 OA
ATOM     27  H   UNL     1      14.967   7.685  33.932  1.00  0.00     0.293 HD
ENDBRANCH   8  26
TORSDOF 6
ENDMDL
MODEL 6
REMARK VINA RESULT:    -5.500      3.210      6.732
REMARK INTER + INTRA:          -6.863
REMARK INTER:                  -6.811
REMARK INTRA:                  -0.053
REMARK UNBOUND:                -0.238
REMARK SMILES O=c1c(O)c(-c2ccc(O)c(O)c2)oc2cc(O)cc(O)c12
REMARK SMILES IDX 5 1 3 2 2 3 1 4 22 5 20 6 19 7 17 8 16 9 15 10 14 11 6 12
REMARK SMILES IDX 7 13 8 14 9 15 13 16 11 17 10 18 12 20 4 22 21 24 18 26
REMARK H PARENT 10 19 12 21 4 23 21 25 18 27
REMARK Flexibility Score: inf
ROOT
ATOM      1  C   UNL     1      14.447   8.824  29.314  1.00  0.00     0.180 A 
ATOM      2  C   UNL     1      15.724   8.829  29.907  1.00  0.00     0.208 A 
ATOM      3  C   UNL     1      15.824   8.737  31.303  1.00  0.00     0.238 A 
ATOM      4  O   UNL     1      16.962   8.751  31.847  1.00  0.00    -0.285 OA
ATOM      5  C   UNL     1      14.653   8.620  32.080  1.00  0.00     0.111 A 
ATOM      6  C   UNL     1      14.667   8.519  33.491  1.00  0.00     0.134 A 
ATOM      7  C   UNL     1      13.457   8.396  34.192  1.00  0.00     0.093 A 
ATOM      8  C   UNL     1      12.236   8.374  33.508  1.00  0.00     0.123 A 
ATOM      9  C   UNL     1      12.218   8.474  32.116  1.00  0.00     0.094 A 
ATOM     10  C   UNL     1      13.412   8.599  31.400  1.00  0.00     0.146 A 
ATOM     11  O   UNL     1      13.365   8.699  30.076  1.00  0.00    -0.452 OA
ENDROOT
BRANCH   1  12
ATOM     12  C   UNL     1      14.259   8.938  27.849  1.00  0.00     0.025 A 
ATOM     13  C   UNL     1      13.432   8.019  27.186  1.00  0.00     0.016 A 
ATOM     14  C   UNL     1      13.224   8.118  25.808  1.00  0.00     0.051 A 
ATOM     15  C   UNL     1      13.825   9.146  25.076  1.00  0.00     0.157 A 
ATOM     16  C   UNL     1      14.847   9.983  27.114  1.00  0.00     0.062 A 
ATOM     17  C   UNL     1      14.638  10.087  25.731  1.00  0.00     0.158 A 
BRANCH  15  18
ATOM     18  O   UNL     1      13.601   9.219  23.701  1.00  0.00    -0.504 OA
ATOM     19  H   UNL     1      12.863   8.693  23.247  1.00  0.00     0.293 HD
ENDBRANCH  15  18
BRANCH  17  20
ATOM     20  O   UNL     1      15.228  11.122  25.008  1.00  0.00    -0.504 OA
ATOM     21  H   UNL     1      15.323  11.080  24.000  1.00  0.00     0.293 HD
ENDBRANCH  17  20
ENDBRANCH   1  12
BRANCH   2  22
ATOM     22  O   UNL     1      16.871   8.896  29.111  1.00  0.00    -0.502 OA
ATOM     23  H   UNL     1      17.381   8.068  28.824  1.00  0.00     0.293 HD
ENDBRANCH   2  22
BRANCH   6  24
ATOM     24  O   UNL     1      15.868   8.536  34.201  1.00  0.00    -0.507 OA
ATOM     25  H   UNL     1      16.765   8.482  33.732  1.00  0.00     0.293 HD
ENDBRANCH   6  24
BRANCH   8  26
ATOM     26  O   UNL     1      11.035   8.252  34.203  1.00  0.00    -0.508 OA
ATOM     27  H   UNL     1      10.677   7.347  34.486  1.00  0.00     0.293 HD
ENDBRANCH   8  26
TORSDOF 6
ENDMDL
MODEL 7
REMARK VINA RESULT:    -5.379      1.544      6.668
REMARK INTER + INTRA:          -6.717
REMARK INTER:                  -7.020
REMARK INTRA:                   0.303
REMARK UNBOUND:                -0.238
REMARK SMILES O=c1c(O)c(-c2ccc(O)c(O)c2)oc2cc(O)cc(O)c12
REMARK SMILES IDX 5 1 3 2 2 3 1 4 22 5 20 6 19 7 17 8 16 9 15 10 14 11 6 12
REMARK SMILES IDX 7 13 8 14 9 15 13 16 11 17 10 18 12 20 4 22 21 24 18 26
REMARK H PARENT 10 19 12 21 4 23 21 25 18 27
REMARK Flexibility Score: inf
ROOT
ATOM      1  C   UNL     1      14.668   9.282  27.466  1.00  0.00     0.180 A 
ATOM      2  C   UNL     1      14.209   8.886  28.737  1.00  0.00     0.208 A 
ATOM      3  C   UNL     1      15.108   8.887  29.814  1.00  0.00     0.238 A 
ATOM      4  O   UNL     1      14.711   8.524  30.954  1.00  0.00    -0.285 OA
ATOM      5  C   UNL     1      16.441   9.302  29.609  1.00  0.00     0.111 A 
ATOM      6  C   UNL     1      17.408   9.336  30.642  1.00  0.00     0.134 A 
ATOM      7  C   UNL     1      18.712   9.771  30.360  1.00  0.00     0.093 A 
ATOM      8  C   UNL     1      19.065  10.171  29.066  1.00  0.00     0.123 A 
ATOM      9  C   UNL     1      18.115  10.139  28.045  1.00  0.00     0.094 A 
ATOM     10  C   UNL     1      16.811   9.707  28.306  1.00  0.00     0.146 A 
ATOM     11  O   UNL     1      15.928   9.681  27.314  1.00  0.00    -0.452 OA
ENDROOT
BRANCH   1  12
ATOM     12  C   UNL     1      13.786   9.289  26.277  1.00  0.00     0.025 A 
ATOM     13  C   UNL     1      12.419   9.566  26.433  1.00  0.00     0.016 A 
ATOM     14  C   UNL     1      11.571   9.597  25.323  1.00  0.00     0.051 A 
ATOM     15  C   UNL     1      12.077   9.369  24.041  1.00  0.00     0.157 A 
ATOM     16  C   UNL     1      14.297   9.079  24.984  1.00  0.00     0.062 A 
ATOM     17  C   UNL     1      13.448   9.113  23.868  1.00  0.00     0.158 A 
BRANCH  15  18
ATOM     18  O   UNL     1      11.207   9.405  22.952  1.00  0.00    -0.504 OA
ATOM     19  H   UNL     1      10.406   8.789  22.883  1.00  0.00     0.293 HD
ENDBRANCH  15  18
BRANCH  17  20
ATOM     20  O   UNL     1      13.962   8.898  22.590  1.00  0.00    -0.504 OA
ATOM     21  H   UNL     1      13.367   8.619  21.818  1.00  0.00     0.293 HD
ENDBRANCH  17  20
ENDBRANCH   1  12
BRANCH   2  22
ATOM     22  O   UNL     1      12.872   8.527  28.923  1.00  0.00    -0.502 OA
ATOM     23  H   UNL     1      12.207   8.494  28.159  1.00  0.00     0.293 HD
ENDBRANCH   2  22
BRANCH   6  24
ATOM     24  O   UNL     1      17.085   8.944  31.942  1.00  0.00    -0.507 OA
ATOM     25  H   UNL     1      17.109   9.598  32.717  1.00  0.00     0.293 HD
ENDBRANCH   6  24
BRANCH   8  26
ATOM     26  O   UNL     1      20.360  10.604  28.786  1.00  0.00    -0.508 OA
ATOM     27  H   UNL     1      21.160  10.246  29.295  1.00  0.00     0.293 HD
ENDBRANCH   8  26
TORSDOF 6
ENDMDL
MODEL 8
REMARK VINA RESULT:    -5.287      1.454      6.756
REMARK INTER + INTRA:          -6.606
REMARK INTER:                  -6.432
REMARK INTRA:                  -0.174
REMARK UNBOUND:                -0.238
REMARK SMILES O=c1c(O)c(-c2ccc(O)c(O)c2)oc2cc(O)cc(O)c12
REMARK SMILES IDX 5 1 3 2 2 3 1 4 22 5 20 6 19 7 17 8 16 9 15 10 14 11 6 12
REMARK SMILES IDX 7 13 8 14 9 15 13 16 11 17 10 18 12 20 4 22 21 24 18 26
REMARK H PARENT 10 19 12 21 4 23 21 25 18 27
REMARK Flexibility Score: inf
ROOT
ATOM      1  C   UNL     1      15.935   9.850  27.886  1.00  0.00     0.180 A 
ATOM      2  C   UNL     1      15.772  10.342  29.195  1.00  0.00     0.208 A 
ATOM      3  C   UNL     1      16.899  10.452  30.024  1.00  0.00     0.238 A 
ATOM      4  O   UNL     1      16.764  10.881  31.201  1.00  0.00    -0.285 OA
ATOM      5  C   UNL     1      18.167  10.087  29.527  1.00  0.00     0.111 A 
ATOM      6  C   UNL     1      19.353  10.171  30.296  1.00  0.00     0.134 A 
ATOM      7  C   UNL     1      20.579   9.798  29.726  1.00  0.00     0.093 A 
ATOM      8  C   UNL     1      20.642   9.344  28.403  1.00  0.00     0.123 A 
ATOM      9  C   UNL     1      19.476   9.261  27.642  1.00  0.00     0.094 A 
ATOM     10  C   UNL     1      18.243   9.626  28.192  1.00  0.00     0.146 A 
ATOM     11  O   UNL     1      17.148   9.530  27.447  1.00  0.00    -0.452 OA
ENDROOT
BRANCH   1  12
ATOM     12  C   UNL     1      14.791   9.688  26.958  1.00  0.00     0.025 A 
ATOM     13  C   UNL     1      13.785   8.758  27.259  1.00  0.00     0.016 A 
ATOM     14  C   UNL     1      12.688   8.602  26.409  1.00  0.00     0.051 A 
ATOM     15  C   UNL     1      12.571   9.382  25.256  1.00  0.00     0.157 A 
ATOM     16  C   UNL     1      14.663  10.486  25.808  1.00  0.00     0.062 A 
ATOM     17  C   UNL     1      13.561  10.333  24.954  1.00  0.00     0.158 A 
BRANCH  15  18
ATOM     18  O   UNL     1      11.465   9.203  24.424  1.00  0.00    -0.504 OA
ATOM     19  H   UNL     1      11.561   9.046  23.428  1.00  0.00     0.293 HD
ENDBRANCH  15  18
BRANCH  17  20
ATOM     20  O   UNL     1      13.443  11.125  23.813  1.00  0.00    -0.504 OA
ATOM     21  H   UNL     1      14.251  11.371  23.251  1.00  0.00     0.293 HD
ENDBRANCH  17  20
ENDBRANCH   1  12
BRANCH   2  22
ATOM     22  O   UNL     1      14.511  10.743  29.646  1.00  0.00    -0.502 OA
ATOM     23  H   UNL     1      13.707  10.796  29.033  1.00  0.00     0.293 HD
ENDBRANCH   2  22
BRANCH   6  24
ATOM     24  O   UNL     1      19.322  10.620  31.617  1.00  0.00    -0.507 OA
ATOM     25  H   UNL     1      18.517  10.467  32.214  1.00  0.00     0.293 HD
ENDBRANCH   6  24
BRANCH   8  26
ATOM     26  O   UNL     1      21.860   8.975  27.836  1.00  0.00    -0.508 OA
ATOM     27  H   UNL     1      22.742   9.190  28.288  1.00  0.00     0.293 HD
ENDBRANCH   8  26
TORSDOF 6
ENDMDL
MODEL 9
REMARK VINA RESULT:    -5.231      2.048      7.162
REMARK INTER + INTRA:          -6.539
REMARK INTER:                  -6.264
REMARK INTRA:                  -0.275
REMARK UNBOUND:                -0.238
REMARK SMILES O=c1c(O)c(-c2ccc(O)c(O)c2)oc2cc(O)cc(O)c12
REMARK SMILES IDX 5 1 3 2 2 3 1 4 22 5 20 6 19 7 17 8 16 9 15 10 14 11 6 12
REMARK SMILES IDX 7 13 8 14 9 15 13 16 11 17 10 18 12 20 4 22 21 24 18 26
REMARK H PARENT 10 19 12 21 4 23 21 25 18 27
REMARK Flexibility Score: inf
ROOT
ATOM      1  C   UNL     1      16.892   9.568  28.374  1.00  0.00     0.180 A 
ATOM      2  C   UNL     1      18.152   9.649  27.751  1.00  0.00     0.208 A 
ATOM      3  C   UNL     1      19.308   9.530  28.539  1.00  0.00     0.238 A 
ATOM      4  O   UNL     1      20.442   9.612  27.994  1.00  0.00    -0.285 OA
ATOM      5  C   UNL     1      19.186   9.311  29.926  1.00  0.00     0.111 A 
ATOM      6  C   UNL     1      20.300   9.177  30.789  1.00  0.00     0.134 A 
ATOM      7  C   UNL     1      20.095   8.951  32.159  1.00  0.00     0.093 A 
ATOM      8  C   UNL     1      18.799   8.859  32.681  1.00  0.00     0.123 A 
ATOM      9  C   UNL     1      17.698   8.992  31.833  1.00  0.00     0.094 A 
ATOM     10  C   UNL     1      17.881   9.218  30.466  1.00  0.00     0.146 A 
ATOM     11  O   UNL     1      16.816   9.347  29.683  1.00  0.00    -0.452 OA
ENDROOT
BRANCH   1  12
ATOM     12  C   UNL     1      15.628   9.704  27.614  1.00  0.00     0.025 A 
ATOM     13  C   UNL     1      15.209  10.975  27.193  1.00  0.00     0.016 A 
ATOM     14  C   UNL     1      14.030  11.125  26.459  1.00  0.00     0.051 A 
ATOM     15  C   UNL     1      13.263  10.008  26.119  1.00  0.00     0.157 A 
ATOM     16  C   UNL     1      14.865   8.579  27.255  1.00  0.00     0.062 A 
ATOM     17  C   UNL     1      13.683   8.726  26.515  1.00  0.00     0.158 A 
BRANCH  15  18
ATOM     18  O   UNL     1      12.089  10.188  25.386  1.00  0.00    -0.504 OA
ATOM     19  H   UNL     1      11.814   9.553  24.647  1.00  0.00     0.293 HD
ENDBRANCH  15  18
BRANCH  17  20
ATOM     20  O   UNL     1      12.929   7.607  26.167  1.00  0.00    -0.504 OA
ATOM     21  H   UNL     1      11.950   7.682  25.917  1.00  0.00     0.293 HD
ENDBRANCH  17  20
ENDBRANCH   1  12
BRANCH   2  22
ATOM     22  O   UNL     1      18.245   9.816  26.367  1.00  0.00    -0.502 OA
ATOM     23  H   UNL     1      19.001   9.418  25.821  1.00  0.00     0.293 HD
ENDBRANCH   2  22
BRANCH   6  24
ATOM     24  O   UNL     1      21.603   9.262  30.299  1.00  0.00    -0.507 OA
ATOM     25  H   UNL     1      22.152   8.434  30.096  1.00  0.00     0.293 HD
ENDBRANCH   6  24
BRANCH   8  26
ATOM     26  O   UNL     1      18.595   8.634  34.040  1.00  0.00    -0.508 OA
ATOM     27  H   UNL     1      18.935   9.283  34.741  1.00  0.00     0.293 HD
ENDBRANCH   8  26
TORSDOF 6
ENDMDL
