MODEL 1
REMARK VINA RESULT:    -5.244      0.000      0.000
REMARK INTER + INTRA:          -6.122
REMARK INTER:                  -6.011
REMARK INTRA:                  -0.112
REMARK UNBOUND:                -0.112
REMARK SMILES O=C([O-])C=Cc1ccc(O)cc1
REMARK SMILES IDX 6 1 7 2 12 3 8 4 11 5 9 6 5 7 4 8 2 9 1 10 3 11 10 12
REMARK H PARENT 10 13
REMARK Flexibility Score: inf
ROOT
ATOM      1  C   UNL     1      -7.023   3.526  -4.859  1.00  0.00    -0.025 A 
ATOM      2  C   UNL     1      -6.022   4.307  -5.456  1.00  0.00     0.012 A 
ATOM      3  C   UNL     1      -6.807   2.149  -4.683  1.00  0.00     0.012 A 
ATOM      4  C   UNL     1      -4.845   3.713  -5.918  1.00  0.00     0.047 A 
ATOM      5  C   UNL     1      -5.627   1.555  -5.145  1.00  0.00     0.047 A 
ATOM      6  C   UNL     1      -4.644   2.336  -5.768  1.00  0.00     0.115 A 
ENDROOT
BRANCH   1   7
ATOM      7  C   UNL     1      -8.236   4.184  -4.331  1.00  0.00     0.010 C 
ATOM      8  C   UNL     1      -8.274   5.010  -3.275  1.00  0.00     0.025 C 
BRANCH   8   9
ATOM      9  C   UNL     1      -7.158   5.257  -2.341  1.00  0.00     0.064 C 
ATOM     10  O   UNL     1      -6.681   4.296  -1.685  1.00  0.00    -0.545 OA
ATOM     11  O   UNL     1      -6.576   6.513  -2.222  1.00  0.00    -0.545 OA
ENDBRANCH   8   9
ENDBRANCH   1   7
BRANCH   6  12
ATOM     12  O   UNL     1      -3.466   1.757  -6.235  1.00  0.00    -0.508 OA
ATOM     13  H   UNL     1      -3.035   2.058  -7.100  1.00  0.00     0.293 HD
ENDBRANCH   6  12
TORSDOF 3
ENDMDL
MODEL 2
REMARK VINA RESULT:    -5.122     17.544     18.454
REMARK INTER + INTRA:          -5.982
REMARK INTER:                  -5.819
REMARK INTRA:                  -0.163
REMARK UNBOUND:                -0.112
REMARK SMILES O=C([O-])C=Cc1ccc(O)cc1
REMARK SMILES IDX 6 1 7 2 12 3 8 4 11 5 9 6 5 7 4 8 2 9 1 10 3 11 10 12
REMARK H PARENT 10 13
REMARK Flexibility Score: inf
ROOT
ATOM      1  C   UNL     1       7.809   2.818   8.135  1.00  0.00    -0.025 A 
ATOM      2  C   UNL     1       6.985   3.596   8.962  1.00  0.00     0.012 A 
ATOM      3  C   UNL     1       7.287   1.657   7.541  1.00  0.00     0.012 A 
ATOM      4  C   UNL     1       5.675   3.192   9.235  1.00  0.00     0.047 A 
ATOM      5  C   UNL     1       5.975   1.253   7.815  1.00  0.00     0.047 A 
ATOM      6  C   UNL     1       5.167   2.019   8.666  1.00  0.00     0.115 A 
ENDROOT
BRANCH   1   7
ATOM      7  C   UNL     1       9.172   3.294   7.819  1.00  0.00     0.010 C 
ATOM      8  C   UNL     1       9.477   4.218   6.895  1.00  0.00     0.025 C 
BRANCH   8   9
ATOM      9  C   UNL     1       8.539   4.781   5.905  1.00  0.00     0.064 C 
ATOM     10  O   UNL     1       8.431   6.029   5.800  1.00  0.00    -0.545 OA
ATOM     11  O   UNL     1       7.826   3.964   5.036  1.00  0.00    -0.545 OA
ENDBRANCH   8   9
ENDBRANCH   1   7
BRANCH   6  12
ATOM     12  O   UNL     1       3.860   1.626   8.948  1.00  0.00    -0.508 OA
ATOM     13  H   UNL     1       3.495   0.737   8.630  1.00  0.00     0.293 HD
ENDBRANCH   6  12
TORSDOF 3
ENDMDL
MODEL 3
REMARK VINA RESULT:    -5.097     11.591     13.006
REMARK INTER + INTRA:          -5.954
REMARK INTER:                  -5.702
REMARK INTRA:                  -0.252
REMARK UNBOUND:                -0.112
REMARK SMILES O=C([O-])C=Cc1ccc(O)cc1
REMARK SMILES IDX 6 1 7 2 12 3 8 4 11 5 9 6 5 7 4 8 2 9 1 10 3 11 10 12
REMARK H PARENT 10 13
REMARK Flexibility Score: inf
ROOT
ATOM      1  C   UNL     1       6.833   3.572  -5.835  1.00  0.00    -0.025 A 
ATOM      2  C   UNL     1       7.969   3.737  -5.028  1.00  0.00     0.012 A 
ATOM      3  C   UNL     1       5.954   2.507  -5.577  1.00  0.00     0.012 A 
ATOM      4  C   UNL     1       8.251   2.821  -4.011  1.00  0.00     0.047 A 
ATOM      5  C   UNL     1       6.237   1.590  -4.558  1.00  0.00     0.047 A 
ATOM      6  C   UNL     1       7.390   1.744  -3.775  1.00  0.00     0.115 A 
ENDROOT
BRANCH   1   7
ATOM      7  C   UNL     1       6.528   4.583  -6.869  1.00  0.00     0.010 C 
ATOM      8  C   UNL     1       5.803   5.695  -6.678  1.00  0.00     0.025 C 
BRANCH   8   9
ATOM      9  C   UNL     1       5.025   6.012  -5.464  1.00  0.00     0.064 C 
ATOM     10  O   UNL     1       3.774   5.885  -5.484  1.00  0.00    -0.545 OA
ATOM     11  O   UNL     1       5.650   6.379  -4.278  1.00  0.00    -0.545 OA
ENDBRANCH   8   9
ENDBRANCH   1   7
BRANCH   6  12
ATOM     12  O   UNL     1       7.684   0.837  -2.759  1.00  0.00    -0.508 OA
ATOM     13  H   UNL     1       7.023   0.642  -2.016  1.00  0.00     0.293 HD
ENDBRANCH   6  12
TORSDOF 3
ENDMDL
MODEL 4
REMARK VINA RESULT:    -5.075     17.711     18.483
REMARK INTER + INTRA:          -5.928
REMARK INTER:                  -5.660
REMARK INTRA:                  -0.268
REMARK UNBOUND:                -0.112
REMARK SMILES O=C([O-])C=Cc1ccc(O)cc1
REMARK SMILES IDX 6 1 7 2 12 3 8 4 11 5 9 6 5 7 4 8 2 9 1 10 3 11 10 12
REMARK H PARENT 10 13
REMARK Flexibility Score: inf
ROOT
ATOM      1  C   UNL     1       6.334   1.070   9.474  1.00  0.00    -0.025 A 
ATOM      2  C   UNL     1       6.169   2.357  10.007  1.00  0.00     0.012 A 
ATOM      3  C   UNL     1       6.720   0.927   8.130  1.00  0.00     0.012 A 
ATOM      4  C   UNL     1       6.333   3.484   9.197  1.00  0.00     0.047 A 
ATOM      5  C   UNL     1       6.884   2.056   7.320  1.00  0.00     0.047 A 
ATOM      6  C   UNL     1       6.687   3.338   7.851  1.00  0.00     0.115 A 
ENDROOT
BRANCH   1   7
ATOM      7  C   UNL     1       6.207  -0.103  10.364  1.00  0.00     0.010 C 
ATOM      8  C   UNL     1       5.066  -0.757  10.628  1.00  0.00     0.025 C 
BRANCH   8   9
ATOM      9  C   UNL     1       3.714  -0.312  10.237  1.00  0.00     0.064 C 
ATOM     10  O   UNL     1       3.151  -0.851   9.250  1.00  0.00    -0.545 OA
ATOM     11  O   UNL     1       3.021   0.638  10.977  1.00  0.00    -0.545 OA
ENDBRANCH   8   9
ENDBRANCH   1   7
BRANCH   6  12
ATOM     12  O   UNL     1       6.847   4.469   7.054  1.00  0.00    -0.508 OA
ATOM     13  H   UNL     1       6.182   5.233   7.081  1.00  0.00     0.293 HD
ENDBRANCH   6  12
TORSDOF 3
ENDMDL
MODEL 5
REMARK VINA RESULT:    -4.963      1.363      4.409
REMARK INTER + INTRA:          -5.800
REMARK INTER:                  -5.568
REMARK INTRA:                  -0.232
REMARK UNBOUND:                -0.112
REMARK SMILES O=C([O-])C=Cc1ccc(O)cc1
REMARK SMILES IDX 6 1 7 2 12 3 8 4 11 5 9 6 5 7 4 8 2 9 1 10 3 11 10 12
REMARK H PARENT 10 13
REMARK Flexibility Score: inf
ROOT
ATOM      1  C   UNL     1      -7.199   4.066  -4.299  1.00  0.00    -0.025 A 
ATOM      2  C   UNL     1      -6.480   5.230  -4.610  1.00  0.00     0.012 A 
ATOM      3  C   UNL     1      -7.694   3.892  -2.996  1.00  0.00     0.012 A 
ATOM      4  C   UNL     1      -6.213   6.181  -3.621  1.00  0.00     0.047 A 
ATOM      5  C   UNL     1      -7.427   4.844  -2.006  1.00  0.00     0.047 A 
ATOM      6  C   UNL     1      -6.682   5.990  -2.316  1.00  0.00     0.115 A 
ENDROOT
BRANCH   1   7
ATOM      7  C   UNL     1      -7.513   3.101  -5.373  1.00  0.00     0.010 C 
ATOM      8  C   UNL     1      -6.743   2.065  -5.737  1.00  0.00     0.025 C 
BRANCH   8   9
ATOM      9  C   UNL     1      -5.366   1.816  -5.266  1.00  0.00     0.064 C 
ATOM     10  O   UNL     1      -5.122   0.776  -4.602  1.00  0.00    -0.545 OA
ATOM     11  O   UNL     1      -4.320   2.666  -5.601  1.00  0.00    -0.545 OA
ENDBRANCH   8   9
ENDBRANCH   1   7
BRANCH   6  12
ATOM     12  O   UNL     1      -6.408   6.945  -1.340  1.00  0.00    -0.508 OA
ATOM     13  H   UNL     1      -5.595   6.871  -0.740  1.00  0.00     0.293 HD
ENDBRANCH   6  12
TORSDOF 3
ENDMDL
MODEL 6
REMARK VINA RESULT:    -4.924     15.706     17.466
REMARK INTER + INTRA:          -5.756
REMARK INTER:                  -5.558
REMARK INTRA:                  -0.197
REMARK UNBOUND:                -0.112
REMARK SMILES O=C([O-])C=Cc1ccc(O)cc1
REMARK SMILES IDX 6 1 7 2 12 3 8 4 11 5 9 6 5 7 4 8 2 9 1 10 3 11 10 12
REMARK H PARENT 10 13
REMARK Flexibility Score: inf
ROOT
ATOM      1  C   UNL     1       9.583  -3.505  -0.765  1.00  0.00    -0.025 A 
ATOM      2  C   UNL     1       9.000  -3.322  -2.028  1.00  0.00     0.012 A 
ATOM      3  C   UNL     1       9.551  -2.453   0.166  1.00  0.00     0.012 A 
ATOM      4  C   UNL     1       8.440  -2.089  -2.375  1.00  0.00     0.047 A 
ATOM      5  C   UNL     1       8.990  -1.219  -0.182  1.00  0.00     0.047 A 
ATOM      6  C   UNL     1       8.436  -1.034  -1.456  1.00  0.00     0.115 A 
ENDROOT
BRANCH   1   7
ATOM      7  C   UNL     1      10.122  -4.832  -0.403  1.00  0.00     0.010 C 
ATOM      8  C   UNL     1       9.394  -5.877   0.019  1.00  0.00     0.025 C 
BRANCH   8   9
ATOM      9  C   UNL     1       7.963  -5.834   0.378  1.00  0.00     0.064 C 
ATOM     10  O   UNL     1       7.161  -6.616  -0.195  1.00  0.00    -0.545 OA
ATOM     11  O   UNL     1       7.493  -5.000   1.385  1.00  0.00    -0.545 OA
ENDBRANCH   8   9
ENDBRANCH   1   7
BRANCH   6  12
ATOM     12  O   UNL     1       7.875   0.190  -1.816  1.00  0.00    -0.508 OA
ATOM     13  H   UNL     1       6.895   0.272  -2.058  1.00  0.00     0.293 HD
ENDBRANCH   6  12
TORSDOF 3
ENDMDL
MODEL 7
REMARK VINA RESULT:    -4.855     17.924     18.831
REMARK INTER + INTRA:          -5.676
REMARK INTER:                  -5.413
REMARK INTRA:                  -0.263
REMARK UNBOUND:                -0.112
REMARK SMILES O=C([O-])C=Cc1ccc(O)cc1
REMARK SMILES IDX 6 1 7 2 12 3 8 4 11 5 9 6 5 7 4 8 2 9 1 10 3 11 10 12
REMARK H PARENT 10 13
REMARK Flexibility Score: inf
ROOT
ATOM      1  C   UNL     1       5.320   1.375  10.128  1.00  0.00    -0.025 A 
ATOM      2  C   UNL     1       6.233   0.473  10.696  1.00  0.00     0.012 A 
ATOM      3  C   UNL     1       4.087   0.898   9.653  1.00  0.00     0.012 A 
ATOM      4  C   UNL     1       5.941  -0.893  10.740  1.00  0.00     0.047 A 
ATOM      5  C   UNL     1       3.795  -0.470   9.698  1.00  0.00     0.047 A 
ATOM      6  C   UNL     1       4.724  -1.370  10.239  1.00  0.00     0.115 A 
ENDROOT
BRANCH   1   7
ATOM      7  C   UNL     1       5.629   2.820  10.140  1.00  0.00     0.010 C 
ATOM      8  C   UNL     1       6.295   3.480   9.181  1.00  0.00     0.025 C 
BRANCH   8   9
ATOM      9  C   UNL     1       7.000   2.856   8.044  1.00  0.00     0.064 C 
ATOM     10  O   UNL     1       6.362   2.594   6.993  1.00  0.00    -0.545 OA
ATOM     11  O   UNL     1       8.369   2.617   8.083  1.00  0.00    -0.545 OA
ENDBRANCH   8   9
ENDBRANCH   1   7
BRANCH   6  12
ATOM     12  O   UNL     1       4.446  -2.734  10.289  1.00  0.00    -0.508 OA
ATOM     13  H   UNL     1       4.558  -3.266  11.143  1.00  0.00     0.293 HD
ENDBRANCH   6  12
TORSDOF 3
ENDMDL
MODEL 8
REMARK VINA RESULT:    -4.855      2.214      2.917
REMARK INTER + INTRA:          -5.676
REMARK INTER:                  -5.421
REMARK INTRA:                  -0.255
REMARK UNBOUND:                -0.112
REMARK SMILES O=C([O-])C=Cc1ccc(O)cc1
REMARK SMILES IDX 6 1 7 2 12 3 8 4 11 5 9 6 5 7 4 8 2 9 1 10 3 11 10 12
REMARK H PARENT 10 13
REMARK Flexibility Score: inf
ROOT
ATOM      1  C   UNL     1      -6.978   3.497  -3.929  1.00  0.00    -0.025 A 
ATOM      2  C   UNL     1      -6.811   2.164  -4.335  1.00  0.00     0.012 A 
ATOM      3  C   UNL     1      -6.214   4.503  -4.544  1.00  0.00     0.012 A 
ATOM      4  C   UNL     1      -5.858   1.835  -5.302  1.00  0.00     0.047 A 
ATOM      5  C   UNL     1      -5.260   4.173  -5.513  1.00  0.00     0.047 A 
ATOM      6  C   UNL     1      -5.078   2.835  -5.892  1.00  0.00     0.115 A 
ENDROOT
BRANCH   1   7
ATOM      7  C   UNL     1      -8.028   3.827  -2.943  1.00  0.00     0.010 C 
ATOM      8  C   UNL     1      -9.313   4.079  -3.232  1.00  0.00     0.025 C 
BRANCH   8   9
ATOM      9  C   UNL     1      -9.865   4.261  -4.589  1.00  0.00     0.064 C 
ATOM     10  O   UNL     1     -10.125   5.422  -4.997  1.00  0.00    -0.545 OA
ATOM     11  O   UNL     1     -10.038   3.186  -5.452  1.00  0.00    -0.545 OA
ENDBRANCH   8   9
ENDBRANCH   1   7
BRANCH   6  12
ATOM     12  O   UNL     1      -4.130   2.493  -6.855  1.00  0.00    -0.508 OA
ATOM     13  H   UNL     1      -4.380   1.953  -7.674  1.00  0.00     0.293 HD
ENDBRANCH   6  12
TORSDOF 3
ENDMDL
MODEL 9
REMARK VINA RESULT:    -4.811      2.137      2.988
REMARK INTER + INTRA:          -5.626
REMARK INTER:                  -5.327
REMARK INTRA:                  -0.299
REMARK UNBOUND:                -0.112
REMARK SMILES O=C([O-])C=Cc1ccc(O)cc1
REMARK SMILES IDX 6 1 7 2 12 3 8 4 11 5 9 6 5 7 4 8 2 9 1 10 3 11 10 12
REMARK H PARENT 10 13
REMARK Flexibility Score: inf
ROOT
ATOM      1  C   UNL     1      -6.546   5.850  -3.980  1.00  0.00    -0.025 A 
ATOM      2  C   UNL     1      -7.086   4.792  -3.232  1.00  0.00     0.012 A 
ATOM      3  C   UNL     1      -5.621   5.569  -4.999  1.00  0.00     0.012 A 
ATOM      4  C   UNL     1      -6.667   3.479  -3.462  1.00  0.00     0.047 A 
ATOM      5  C   UNL     1      -5.203   4.254  -5.230  1.00  0.00     0.047 A 
ATOM      6  C   UNL     1      -5.723   3.205  -4.458  1.00  0.00     0.115 A 
ENDROOT
BRANCH   1   7
ATOM      7  C   UNL     1      -7.044   7.223  -3.754  1.00  0.00     0.010 C 
ATOM      8  C   UNL     1      -6.466   8.137  -2.960  1.00  0.00     0.025 C 
BRANCH   8   9
ATOM      9  C   UNL     1      -5.351   7.879  -2.028  1.00  0.00     0.064 C 
ATOM     10  O   UNL     1      -5.597   7.407  -0.889  1.00  0.00    -0.545 OA
ATOM     11  O   UNL     1      -4.029   8.079  -2.407  1.00  0.00    -0.545 OA
ENDBRANCH   8   9
ENDBRANCH   1   7
BRANCH   6  12
ATOM     12  O   UNL     1      -5.313   1.892  -4.677  1.00  0.00    -0.508 OA
ATOM     13  H   UNL     1      -5.966   1.176  -4.975  1.00  0.00     0.293 HD
ENDBRANCH   6  12
TORSDOF 3
ENDMDL
