MODEL 1
REMARK VINA RESULT:    -4.560      0.000      0.000
REMARK INTER + INTRA:         -10.353
REMARK INTER:                  -8.825
REMARK INTRA:                  -1.528
REMARK UNBOUND:                -1.528
REMARK SMILES CCCCCCCCCCCCCCCCCC(=O)[O-]
REMARK SMILES IDX 10 1 11 2 12 3 13 4 14 5 15 6 16 7 17 8 18 9 19 10 20 11
REMARK SMILES IDX 9 12 8 13 7 14 6 15 5 16 4 17 3 18 2 19 1 20
REMARK H PARENT
REMARK Flexibility Score: inf
ROOT
ATOM      1  C   UNL     1       0.076  61.490  24.374  1.00  0.00     0.000 C 
ENDROOT
BRANCH   1   2
ATOM      2  C   UNL     1      -0.948  61.627  23.235  1.00  0.00     0.000 C 
BRANCH   2   3
ATOM      3  C   UNL     1      -1.472  63.064  23.075  1.00  0.00     0.000 C 
BRANCH   3   4
ATOM      4  C   UNL     1      -0.474  64.115  23.587  1.00  0.00     0.000 C 
BRANCH   4   5
ATOM      5  C   UNL     1      -1.016  65.551  23.470  1.00  0.00     0.000 C 
BRANCH   5   6
ATOM      6  C   UNL     1      -1.227  65.987  22.012  1.00  0.00     0.000 C 
BRANCH   6   7
ATOM      7  C   UNL     1      -2.612  66.609  21.775  1.00  0.00     0.006 C 
BRANCH   7   8
ATOM      8  C   UNL     1      -3.592  66.202  22.881  1.00  0.00     0.053 C 
BRANCH   8   9
ATOM      9  C   UNL     1      -4.742  65.436  22.307  1.00  0.00     0.041 C 
ATOM     10  O   UNL     1      -4.776  64.180  22.397  1.00  0.00    -0.550 OA
ATOM     11  O   UNL     1      -5.802  66.114  21.717  1.00  0.00    -0.550 OA
ENDBRANCH   8   9
ENDBRANCH   7   8
ENDBRANCH   6   7
ENDBRANCH   5   6
ENDBRANCH   4   5
ENDBRANCH   3   4
ENDBRANCH   2   3
ENDBRANCH   1   2
BRANCH   1  12
ATOM     12  C   UNL     1       0.789  60.126  24.368  1.00  0.00     0.000 C 
BRANCH  12  13
ATOM     13  C   UNL     1       0.047  59.056  25.190  1.00  0.00    -0.000 C 
BRANCH  13  14
ATOM     14  C   UNL     1       0.406  57.598  24.853  1.00  0.00    -0.000 C 
BRANCH  14  15
ATOM     15  C   UNL     1       0.357  57.302  23.344  1.00  0.00    -0.000 C 
BRANCH  15  16
ATOM     16  C   UNL     1       1.626  56.600  22.837  1.00  0.00    -0.000 C 
BRANCH  16  17
ATOM     17  C   UNL     1       2.792  56.670  23.840  1.00  0.00    -0.000 C 
BRANCH  17  18
ATOM     18  C   UNL     1       3.661  57.928  23.633  1.00  0.00    -0.000 C 
BRANCH  18  19
ATOM     19  C   UNL     1       3.807  58.337  22.158  1.00  0.00    -0.003 C 
ATOM     20  C   UNL     1       3.226  59.719  21.860  1.00  0.00     0.004 C 
ENDBRANCH  18  19
ENDBRANCH  17  18
ENDBRANCH  16  17
ENDBRANCH  15  16
ENDBRANCH  14  15
ENDBRANCH  13  14
ENDBRANCH  12  13
ENDBRANCH   1  12
TORSDOF 16
ENDMDL
MODEL 2
REMARK VINA RESULT:    -4.525      0.950      1.930
REMARK INTER + INTRA:         -10.286
REMARK INTER:                  -8.868
REMARK INTRA:                  -1.418
REMARK UNBOUND:                -1.528
REMARK SMILES CCCCCCCCCCCCCCCCCC(=O)[O-]
REMARK SMILES IDX 10 1 11 2 12 3 13 4 14 5 15 6 16 7 17 8 18 9 19 10 20 11
REMARK SMILES IDX 9 12 8 13 7 14 6 15 5 16 4 17 3 18 2 19 1 20
REMARK H PARENT
REMARK Flexibility Score: inf
ROOT
ATOM      1  C   UNL     1       0.017  61.142  23.740  1.00  0.00     0.000 C 
ENDROOT
BRANCH   1   2
ATOM      2  C   UNL     1      -1.303  61.373  22.987  1.00  0.00     0.000 C 
BRANCH   2   3
ATOM      3  C   UNL     1      -1.667  62.863  22.866  1.00  0.00     0.000 C 
BRANCH   3   4
ATOM      4  C   UNL     1      -0.625  63.779  23.525  1.00  0.00     0.000 C 
BRANCH   4   5
ATOM      5  C   UNL     1      -1.095  65.242  23.611  1.00  0.00     0.000 C 
BRANCH   5   6
ATOM      6  C   UNL     1      -1.019  65.969  22.259  1.00  0.00     0.000 C 
BRANCH   6   7
ATOM      7  C   UNL     1      -2.396  66.424  21.753  1.00  0.00     0.006 C 
BRANCH   7   8
ATOM      8  C   UNL     1      -3.463  66.253  22.840  1.00  0.00     0.053 C 
BRANCH   8   9
ATOM      9  C   UNL     1      -4.650  65.520  22.299  1.00  0.00     0.041 C 
ATOM     10  O   UNL     1      -5.555  66.144  21.684  1.00  0.00    -0.550 OA
ATOM     11  O   UNL     1      -4.732  64.139  22.430  1.00  0.00    -0.550 OA
ENDBRANCH   8   9
ENDBRANCH   7   8
ENDBRANCH   6   7
ENDBRANCH   5   6
ENDBRANCH   4   5
ENDBRANCH   3   4
ENDBRANCH   2   3
ENDBRANCH   1   2
BRANCH   1  12
ATOM     12  C   UNL     1      -0.177  60.359  25.050  1.00  0.00     0.000 C 
BRANCH  12  13
ATOM     13  C   UNL     1       0.544  58.998  25.049  1.00  0.00    -0.000 C 
BRANCH  13  14
ATOM     14  C   UNL     1       0.133  58.034  23.921  1.00  0.00    -0.000 C 
BRANCH  14  15
ATOM     15  C   UNL     1       1.267  57.770  22.915  1.00  0.00    -0.000 C 
BRANCH  15  16
ATOM     16  C   UNL     1       2.617  58.337  23.382  1.00  0.00    -0.000 C 
BRANCH  16  17
ATOM     17  C   UNL     1       3.628  57.241  23.764  1.00  0.00    -0.000 C 
BRANCH  17  18
ATOM     18  C   UNL     1       3.088  56.314  24.873  1.00  0.00    -0.000 C 
BRANCH  18  19
ATOM     19  C   UNL     1       3.254  54.818  24.557  1.00  0.00    -0.003 C 
ATOM     20  C   UNL     1       2.640  54.419  23.217  1.00  0.00     0.004 C 
ENDBRANCH  18  19
ENDBRANCH  17  18
ENDBRANCH  16  17
ENDBRANCH  15  16
ENDBRANCH  14  15
ENDBRANCH  13  14
ENDBRANCH  12  13
ENDBRANCH   1  12
TORSDOF 16
ENDMDL
MODEL 3
REMARK VINA RESULT:    -4.389      4.237      9.467
REMARK INTER + INTRA:         -10.022
REMARK INTER:                  -8.873
REMARK INTRA:                  -1.150
REMARK UNBOUND:                -1.528
REMARK SMILES CCCCCCCCCCCCCCCCCC(=O)[O-]
REMARK SMILES IDX 10 1 11 2 12 3 13 4 14 5 15 6 16 7 17 8 18 9 19 10 20 11
REMARK SMILES IDX 9 12 8 13 7 14 6 15 5 16 4 17 3 18 2 19 1 20
REMARK H PARENT
REMARK Flexibility Score: inf
ROOT
ATOM      1  C   UNL     1       0.177  60.188  23.519  1.00  0.00     0.000 C 
ENDROOT
BRANCH   1   2
ATOM      2  C   UNL     1       1.486  60.868  23.953  1.00  0.00     0.000 C 
BRANCH   2   3
ATOM      3  C   UNL     1       2.703  60.387  23.145  1.00  0.00     0.000 C 
BRANCH   3   4
ATOM      4  C   UNL     1       3.081  58.931  23.459  1.00  0.00     0.000 C 
BRANCH   4   5
ATOM      5  C   UNL     1       3.168  58.058  22.195  1.00  0.00     0.000 C 
BRANCH   5   6
ATOM      6  C   UNL     1       1.859  57.306  21.903  1.00  0.00     0.000 C 
BRANCH   6   7
ATOM      7  C   UNL     1       1.473  56.333  23.027  1.00  0.00     0.006 C 
BRANCH   7   8
ATOM      8  C   UNL     1       2.382  55.100  23.022  1.00  0.00     0.053 C 
BRANCH   8   9
ATOM      9  C   UNL     1       3.161  55.017  24.297  1.00  0.00     0.041 C 
ATOM     10  O   UNL     1       4.061  54.147  24.435  1.00  0.00    -0.550 OA
ATOM     11  O   UNL     1       2.927  55.935  25.314  1.00  0.00    -0.550 OA
ENDBRANCH   8   9
ENDBRANCH   7   8
ENDBRANCH   6   7
ENDBRANCH   5   6
ENDBRANCH   4   5
ENDBRANCH   3   4
ENDBRANCH   2   3
ENDBRANCH   1   2
BRANCH   1  12
ATOM     12  C   UNL     1      -0.960  61.195  23.274  1.00  0.00     0.000 C 
BRANCH  12  13
ATOM     13  C   UNL     1      -0.624  62.614  23.767  1.00  0.00    -0.000 C 
BRANCH  13  14
ATOM     14  C   UNL     1      -1.309  63.760  23.000  1.00  0.00    -0.000 C 
BRANCH  14  15
ATOM     15  C   UNL     1      -0.882  65.152  23.495  1.00  0.00    -0.000 C 
BRANCH  15  16
ATOM     16  C   UNL     1      -1.843  66.262  23.043  1.00  0.00    -0.000 C 
BRANCH  16  17
ATOM     17  C   UNL     1      -2.708  66.811  24.192  1.00  0.00    -0.000 C 
BRANCH  17  18
ATOM     18  C   UNL     1      -4.188  66.393  24.057  1.00  0.00    -0.000 C 
BRANCH  18  19
ATOM     19  C   UNL     1      -4.425  65.316  22.986  1.00  0.00    -0.003 C 
ATOM     20  C   UNL     1      -5.176  65.843  21.764  1.00  0.00     0.004 C 
ENDBRANCH  18  19
ENDBRANCH  17  18
ENDBRANCH  16  17
ENDBRANCH  15  16
ENDBRANCH  14  15
ENDBRANCH  13  14
ENDBRANCH  12  13
ENDBRANCH   1  12
TORSDOF 16
ENDMDL
MODEL 4
REMARK VINA RESULT:    -4.380      3.690      8.978
REMARK INTER + INTRA:         -10.004
REMARK INTER:                  -8.721
REMARK INTRA:                  -1.283
REMARK UNBOUND:                -1.528
REMARK SMILES CCCCCCCCCCCCCCCCCC(=O)[O-]
REMARK SMILES IDX 10 1 11 2 12 3 13 4 14 5 15 6 16 7 17 8 18 9 19 10 20 11
REMARK SMILES IDX 9 12 8 13 7 14 6 15 5 16 4 17 3 18 2 19 1 20
REMARK H PARENT
REMARK Flexibility Score: inf
ROOT
ATOM      1  C   UNL     1      -1.346  61.444  23.114  1.00  0.00     0.000 C 
ENDROOT
BRANCH   1   2
ATOM      2  C   UNL     1      -0.003  61.137  23.796  1.00  0.00     0.000 C 
BRANCH   2   3
ATOM      3  C   UNL     1      -0.166  60.709  25.266  1.00  0.00     0.000 C 
BRANCH   3   4
ATOM      4  C   UNL     1      -0.093  59.185  25.446  1.00  0.00     0.000 C 
BRANCH   4   5
ATOM      5  C   UNL     1       0.889  58.520  24.464  1.00  0.00     0.000 C 
BRANCH   5   6
ATOM      6  C   UNL     1       1.897  57.597  25.168  1.00  0.00     0.000 C 
BRANCH   6   7
ATOM      7  C   UNL     1       2.734  56.773  24.179  1.00  0.00     0.006 C 
BRANCH   7   8
ATOM      8  C   UNL     1       1.869  56.255  23.026  1.00  0.00     0.053 C 
BRANCH   8   9
ATOM      9  C   UNL     1       2.314  56.850  21.727  1.00  0.00     0.041 C 
ATOM     10  O   UNL     1       3.010  57.899  21.715  1.00  0.00    -0.550 OA
ATOM     11  O   UNL     1       2.001  56.216  20.530  1.00  0.00    -0.550 OA
ENDBRANCH   8   9
ENDBRANCH   7   8
ENDBRANCH   6   7
ENDBRANCH   5   6
ENDBRANCH   4   5
ENDBRANCH   3   4
ENDBRANCH   2   3
ENDBRANCH   1   2
BRANCH   1  12
ATOM     12  C   UNL     1      -1.580  62.952  22.919  1.00  0.00     0.000 C 
BRANCH  12  13
ATOM     13  C   UNL     1      -0.537  63.821  23.646  1.00  0.00    -0.000 C 
BRANCH  13  14
ATOM     14  C   UNL     1      -0.866  65.324  23.720  1.00  0.00    -0.000 C 
BRANCH  14  15
ATOM     15  C   UNL     1      -0.105  66.156  22.674  1.00  0.00    -0.000 C 
BRANCH  15  16
ATOM     16  C   UNL     1      -1.035  66.769  21.615  1.00  0.00    -0.000 C 
BRANCH  16  17
ATOM     17  C   UNL     1      -2.468  66.992  22.133  1.00  0.00    -0.000 C 
BRANCH  17  18
ATOM     18  C   UNL     1      -3.492  66.085  21.417  1.00  0.00    -0.000 C 
BRANCH  18  19
ATOM     19  C   UNL     1      -4.607  65.570  22.343  1.00  0.00    -0.003 C 
ATOM     20  C   UNL     1      -4.394  65.954  23.806  1.00  0.00     0.004 C 
ENDBRANCH  18  19
ENDBRANCH  17  18
ENDBRANCH  16  17
ENDBRANCH  15  16
ENDBRANCH  14  15
ENDBRANCH  13  14
ENDBRANCH  12  13
ENDBRANCH   1  12
TORSDOF 16
ENDMDL
MODEL 5
REMARK VINA RESULT:    -4.367      1.320      2.764
REMARK INTER + INTRA:          -9.979
REMARK INTER:                  -8.598
REMARK INTRA:                  -1.381
REMARK UNBOUND:                -1.528
REMARK SMILES CCCCCCCCCCCCCCCCCC(=O)[O-]
REMARK SMILES IDX 10 1 11 2 12 3 13 4 14 5 15 6 16 7 17 8 18 9 19 10 20 11
REMARK SMILES IDX 9 12 8 13 7 14 6 15 5 16 4 17 3 18 2 19 1 20
REMARK H PARENT
REMARK Flexibility Score: inf
ROOT
ATOM      1  C   UNL     1       0.116  59.135  24.230  1.00  0.00     0.000 C 
ENDROOT
BRANCH   1   2
ATOM      2  C   UNL     1      -0.122  60.357  25.132  1.00  0.00     0.000 C 
BRANCH   2   3
ATOM      3  C   UNL     1      -0.098  61.685  24.355  1.00  0.00     0.000 C 
BRANCH   3   4
ATOM      4  C   UNL     1      -0.941  61.631  23.072  1.00  0.00     0.000 C 
BRANCH   4   5
ATOM      5  C   UNL     1      -1.817  62.883  22.888  1.00  0.00     0.000 C 
BRANCH   5   6
ATOM      6  C   UNL     1      -1.101  64.175  23.314  1.00  0.00     0.000 C 
BRANCH   6   7
ATOM      7  C   UNL     1      -1.536  65.393  22.485  1.00  0.00     0.006 C 
BRANCH   7   8
ATOM      8  C   UNL     1      -2.715  66.113  23.146  1.00  0.00     0.053 C 
BRANCH   8   9
ATOM      9  C   UNL     1      -4.014  65.605  22.603  1.00  0.00     0.041 C 
ATOM     10  O   UNL     1      -4.736  64.841  23.295  1.00  0.00    -0.550 OA
ATOM     11  O   UNL     1      -4.450  66.018  21.349  1.00  0.00    -0.550 OA
ENDBRANCH   8   9
ENDBRANCH   7   8
ENDBRANCH   6   7
ENDBRANCH   5   6
ENDBRANCH   4   5
ENDBRANCH   3   4
ENDBRANCH   2   3
ENDBRANCH   1   2
BRANCH   1  12
ATOM     12  C   UNL     1       0.932  58.033  24.927  1.00  0.00     0.000 C 
BRANCH  12  13
ATOM     13  C   UNL     1       2.423  58.056  24.545  1.00  0.00    -0.000 C 
BRANCH  13  14
ATOM     14  C   UNL     1       2.774  58.896  23.303  1.00  0.00    -0.000 C 
BRANCH  14  15
ATOM     15  C   UNL     1       3.052  58.037  22.058  1.00  0.00    -0.000 C 
BRANCH  15  16
ATOM     16  C   UNL     1       1.892  57.085  21.724  1.00  0.00    -0.000 C 
BRANCH  16  17
ATOM     17  C   UNL     1       2.348  55.626  21.540  1.00  0.00    -0.000 C 
BRANCH  17  18
ATOM     18  C   UNL     1       1.859  54.716  22.686  1.00  0.00    -0.000 C 
BRANCH  18  19
ATOM     19  C   UNL     1       2.995  53.972  23.407  1.00  0.00    -0.003 C 
ATOM     20  C   UNL     1       3.452  54.674  24.685  1.00  0.00     0.004 C 
ENDBRANCH  18  19
ENDBRANCH  17  18
ENDBRANCH  16  17
ENDBRANCH  15  16
ENDBRANCH  14  15
ENDBRANCH  13  14
ENDBRANCH  12  13
ENDBRANCH   1  12
TORSDOF 16
ENDMDL
MODEL 6
REMARK VINA RESULT:    -4.276      4.506      9.480
REMARK INTER + INTRA:          -9.803
REMARK INTER:                  -8.495
REMARK INTRA:                  -1.309
REMARK UNBOUND:                -1.528
REMARK SMILES CCCCCCCCCCCCCCCCCC(=O)[O-]
REMARK SMILES IDX 10 1 11 2 12 3 13 4 14 5 15 6 16 7 17 8 18 9 19 10 20 11
REMARK SMILES IDX 9 12 8 13 7 14 6 15 5 16 4 17 3 18 2 19 1 20
REMARK H PARENT
REMARK Flexibility Score: inf
ROOT
ATOM      1  C   UNL     1      -0.322  61.200  24.769  1.00  0.00     0.000 C 
ENDROOT
BRANCH   1   2
ATOM      2  C   UNL     1       0.291  59.800  24.933  1.00  0.00     0.000 C 
BRANCH   2   3
ATOM      3  C   UNL     1       0.796  59.211  23.604  1.00  0.00     0.000 C 
BRANCH   3   4
ATOM      4  C   UNL     1       2.247  59.612  23.295  1.00  0.00     0.000 C 
BRANCH   4   5
ATOM      5  C   UNL     1       3.110  58.416  22.858  1.00  0.00     0.000 C 
BRANCH   5   6
ATOM      6  C   UNL     1       3.870  57.774  24.030  1.00  0.00     0.000 C 
BRANCH   6   7
ATOM      7  C   UNL     1       3.098  56.607  24.666  1.00  0.00     0.006 C 
BRANCH   7   8
ATOM      8  C   UNL     1       2.336  55.809  23.604  1.00  0.00     0.053 C 
BRANCH   8   9
ATOM      9  C   UNL     1       2.915  54.437  23.462  1.00  0.00     0.041 C 
ATOM     10  O   UNL     1       2.519  53.673  22.542  1.00  0.00    -0.550 OA
ATOM     11  O   UNL     1       3.930  54.020  24.315  1.00  0.00    -0.550 OA
ENDBRANCH   8   9
ENDBRANCH   7   8
ENDBRANCH   6   7
ENDBRANCH   5   6
ENDBRANCH   4   5
ENDBRANCH   3   4
ENDBRANCH   2   3
ENDBRANCH   1   2
BRANCH   1  12
ATOM     12  C   UNL     1      -0.727  61.502  23.316  1.00  0.00     0.000 C 
BRANCH  12  13
ATOM     13  C   UNL     1      -1.343  62.903  23.142  1.00  0.00    -0.000 C 
BRANCH  13  14
ATOM     14  C   UNL     1      -0.496  64.069  23.685  1.00  0.00    -0.000 C 
BRANCH  14  15
ATOM     15  C   UNL     1      -1.174  65.438  23.504  1.00  0.00    -0.000 C 
BRANCH  15  16
ATOM     16  C   UNL     1      -0.927  66.041  22.113  1.00  0.00    -0.000 C 
BRANCH  16  17
ATOM     17  C   UNL     1      -2.228  66.444  21.394  1.00  0.00    -0.000 C 
BRANCH  17  18
ATOM     18  C   UNL     1      -3.417  66.570  22.371  1.00  0.00    -0.000 C 
BRANCH  18  19
ATOM     19  C   UNL     1      -4.659  65.779  21.929  1.00  0.00    -0.003 C 
ATOM     20  C   UNL     1      -4.635  64.322  22.387  1.00  0.00     0.004 C 
ENDBRANCH  18  19
ENDBRANCH  17  18
ENDBRANCH  16  17
ENDBRANCH  15  16
ENDBRANCH  14  15
ENDBRANCH  13  14
ENDBRANCH  12  13
ENDBRANCH   1  12
TORSDOF 16
ENDMDL
MODEL 7
REMARK VINA RESULT:    -4.187      6.893     10.469
REMARK INTER + INTRA:          -9.632
REMARK INTER:                  -8.276
REMARK INTRA:                  -1.356
REMARK UNBOUND:                -1.528
REMARK SMILES CCCCCCCCCCCCCCCCCC(=O)[O-]
REMARK SMILES IDX 10 1 11 2 12 3 13 4 14 5 15 6 16 7 17 8 18 9 19 10 20 11
REMARK SMILES IDX 9 12 8 13 7 14 6 15 5 16 4 17 3 18 2 19 1 20
REMARK H PARENT
REMARK Flexibility Score: inf
ROOT
ATOM      1  C   UNL     1       2.507  50.892  22.877  1.00  0.00     0.000 C 
ENDROOT
BRANCH   1   2
ATOM      2  C   UNL     1       1.490  51.974  22.479  1.00  0.00     0.000 C 
BRANCH   2   3
ATOM      3  C   UNL     1       2.034  53.401  22.664  1.00  0.00     0.000 C 
BRANCH   3   4
ATOM      4  C   UNL     1       2.496  54.031  21.341  1.00  0.00     0.000 C 
BRANCH   4   5
ATOM      5  C   UNL     1       2.314  55.559  21.318  1.00  0.00     0.000 C 
BRANCH   5   6
ATOM      6  C   UNL     1       1.819  56.116  22.662  1.00  0.00     0.000 C 
BRANCH   6   7
ATOM      7  C   UNL     1       2.904  56.904  23.412  1.00  0.00     0.006 C 
BRANCH   7   8
ATOM      8  C   UNL     1       2.385  57.398  24.767  1.00  0.00     0.053 C 
BRANCH   8   9
ATOM      9  C   UNL     1       1.121  58.179  24.592  1.00  0.00     0.041 C 
ATOM     10  O   UNL     1       0.047  57.771  25.107  1.00  0.00    -0.550 OA
ATOM     11  O   UNL     1       1.140  59.386  23.902  1.00  0.00    -0.550 OA
ENDBRANCH   8   9
ENDBRANCH   7   8
ENDBRANCH   6   7
ENDBRANCH   5   6
ENDBRANCH   4   5
ENDBRANCH   3   4
ENDBRANCH   2   3
ENDBRANCH   1   2
BRANCH   1  12
ATOM     12  C   UNL     1       1.895  49.482  22.897  1.00  0.00     0.000 C 
BRANCH  12  13
ATOM     13  C   UNL     1       2.921  48.376  22.584  1.00  0.00    -0.000 C 
BRANCH  13  14
ATOM     14  C   UNL     1       2.802  47.103  23.441  1.00  0.00    -0.000 C 
BRANCH  14  15
ATOM     15  C   UNL     1       2.164  47.363  24.816  1.00  0.00    -0.000 C 
BRANCH  15  16
ATOM     16  C   UNL     1       3.207  47.659  25.906  1.00  0.00    -0.000 C 
BRANCH  16  17
ATOM     17  C   UNL     1       4.576  47.017  25.616  1.00  0.00    -0.000 C 
BRANCH  17  18
ATOM     18  C   UNL     1       5.745  47.974  25.930  1.00  0.00    -0.000 C 
BRANCH  18  19
ATOM     19  C   UNL     1       6.174  48.832  24.728  1.00  0.00    -0.003 C 
ATOM     20  C   UNL     1       6.520  48.001  23.493  1.00  0.00     0.004 C 
ENDBRANCH  18  19
ENDBRANCH  17  18
ENDBRANCH  16  17
ENDBRANCH  15  16
ENDBRANCH  14  15
ENDBRANCH  13  14
ENDBRANCH  12  13
ENDBRANCH   1  12
TORSDOF 16
ENDMDL
MODEL 8
REMARK VINA RESULT:    -4.150      8.624     13.862
REMARK INTER + INTRA:          -9.560
REMARK INTER:                  -8.522
REMARK INTRA:                  -1.039
REMARK UNBOUND:                -1.528
REMARK SMILES CCCCCCCCCCCCCCCCCC(=O)[O-]
REMARK SMILES IDX 10 1 11 2 12 3 13 4 14 5 15 6 16 7 17 8 18 9 19 10 20 11
REMARK SMILES IDX 9 12 8 13 7 14 6 15 5 16 4 17 3 18 2 19 1 20
REMARK H PARENT
REMARK Flexibility Score: inf
ROOT
ATOM      1  C   UNL     1       2.502  51.083  22.686  1.00  0.00     0.000 C 
ENDROOT
BRANCH   1   2
ATOM      2  C   UNL     1       1.684  49.796  22.877  1.00  0.00     0.000 C 
BRANCH   2   3
ATOM      3  C   UNL     1       2.561  48.532  22.908  1.00  0.00     0.000 C 
BRANCH   3   4
ATOM      4  C   UNL     1       2.260  47.636  24.120  1.00  0.00     0.000 C 
BRANCH   4   5
ATOM      5  C   UNL     1       3.111  48.001  25.349  1.00  0.00     0.000 C 
BRANCH   5   6
ATOM      6  C   UNL     1       4.161  46.929  25.682  1.00  0.00     0.000 C 
BRANCH   6   7
ATOM      7  C   UNL     1       5.552  47.524  25.944  1.00  0.00     0.006 C 
BRANCH   7   8
ATOM      8  C   UNL     1       5.761  48.808  25.134  1.00  0.00     0.053 C 
BRANCH   8   9
ATOM      9  C   UNL     1       6.994  48.703  24.292  1.00  0.00     0.041 C 
ATOM     10  O   UNL     1       8.109  49.064  24.753  1.00  0.00    -0.550 OA
ATOM     11  O   UNL     1       6.918  48.159  23.016  1.00  0.00    -0.550 OA
ENDBRANCH   8   9
ENDBRANCH   7   8
ENDBRANCH   6   7
ENDBRANCH   5   6
ENDBRANCH   4   5
ENDBRANCH   3   4
ENDBRANCH   2   3
ENDBRANCH   1   2
BRANCH   1  12
ATOM     12  C   UNL     1       1.616  52.325  22.492  1.00  0.00     0.000 C 
BRANCH  12  13
ATOM     13  C   UNL     1       2.399  53.550  21.984  1.00  0.00    -0.000 C 
BRANCH  13  14
ATOM     14  C   UNL     1       2.197  54.845  22.791  1.00  0.00    -0.000 C 
BRANCH  14  15
ATOM     15  C   UNL     1       3.060  54.899  24.064  1.00  0.00    -0.000 C 
BRANCH  15  16
ATOM     16  C   UNL     1       2.881  56.209  24.845  1.00  0.00    -0.000 C 
BRANCH  16  17
ATOM     17  C   UNL     1       3.253  57.455  24.020  1.00  0.00    -0.000 C 
BRANCH  17  18
ATOM     18  C   UNL     1       2.030  58.354  23.742  1.00  0.00    -0.000 C 
BRANCH  18  19
ATOM     19  C   UNL     1       0.726  57.828  24.366  1.00  0.00    -0.003 C 
ATOM     20  C   UNL     1       0.140  58.773  25.413  1.00  0.00     0.004 C 
ENDBRANCH  18  19
ENDBRANCH  17  18
ENDBRANCH  16  17
ENDBRANCH  15  16
ENDBRANCH  14  15
ENDBRANCH  13  14
ENDBRANCH  12  13
ENDBRANCH   1  12
TORSDOF 16
ENDMDL
MODEL 9
REMARK VINA RESULT:    -4.103      6.746     10.156
REMARK INTER + INTRA:          -9.469
REMARK INTER:                  -8.132
REMARK INTRA:                  -1.336
REMARK UNBOUND:                -1.528
REMARK SMILES CCCCCCCCCCCCCCCCCC(=O)[O-]
REMARK SMILES IDX 10 1 11 2 12 3 13 4 14 5 15 6 16 7 17 8 18 9 19 10 20 11
REMARK SMILES IDX 9 12 8 13 7 14 6 15 5 16 4 17 3 18 2 19 1 20
REMARK H PARENT
REMARK Flexibility Score: inf
ROOT
ATOM      1  C   UNL     1       2.438  51.129  22.666  1.00  0.00     0.000 C 
ENDROOT
BRANCH   1   2
ATOM      2  C   UNL     1       1.557  52.378  22.496  1.00  0.00     0.000 C 
BRANCH   2   3
ATOM      3  C   UNL     1       2.379  53.664  22.297  1.00  0.00     0.000 C 
BRANCH   3   4
ATOM      4  C   UNL     1       2.757  54.332  23.628  1.00  0.00     0.000 C 
BRANCH   4   5
ATOM      5  C   UNL     1       2.706  55.868  23.553  1.00  0.00     0.000 C 
BRANCH   5   6
ATOM      6  C   UNL     1       1.663  56.378  22.547  1.00  0.00     0.000 C 
BRANCH   6   7
ATOM      7  C   UNL     1       0.514  57.143  23.222  1.00  0.00     0.006 C 
BRANCH   7   8
ATOM      8  C   UNL     1       1.046  58.086  24.306  1.00  0.00     0.053 C 
BRANCH   8   9
ATOM      9  C   UNL     1       1.289  59.451  23.743  1.00  0.00     0.041 C 
ATOM     10  O   UNL     1       0.352  60.290  23.685  1.00  0.00    -0.550 OA
ATOM     11  O   UNL     1       2.565  59.813  23.329  1.00  0.00    -0.550 OA
ENDBRANCH   8   9
ENDBRANCH   7   8
ENDBRANCH   6   7
ENDBRANCH   5   6
ENDBRANCH   4   5
ENDBRANCH   3   4
ENDBRANCH   2   3
ENDBRANCH   1   2
BRANCH   1  12
ATOM     12  C   UNL     1       1.613  49.839  22.815  1.00  0.00     0.000 C 
BRANCH  12  13
ATOM     13  C   UNL     1       2.448  48.647  23.317  1.00  0.00    -0.000 C 
BRANCH  13  14
ATOM     14  C   UNL     1       2.308  47.351  22.497  1.00  0.00    -0.000 C 
BRANCH  14  15
ATOM     15  C   UNL     1       3.389  47.208  21.412  1.00  0.00    -0.000 C 
BRANCH  15  16
ATOM     16  C   UNL     1       4.663  48.003  21.737  1.00  0.00    -0.000 C 
BRANCH  16  17
ATOM     17  C   UNL     1       5.677  47.198  22.570  1.00  0.00    -0.000 C 
BRANCH  17  18
ATOM     18  C   UNL     1       6.549  48.106  23.462  1.00  0.00    -0.000 C 
BRANCH  18  19
ATOM     19  C   UNL     1       5.811  48.637  24.703  1.00  0.00    -0.003 C 
ATOM     20  C   UNL     1       5.247  47.524  25.585  1.00  0.00     0.004 C 
ENDBRANCH  18  19
ENDBRANCH  17  18
ENDBRANCH  16  17
ENDBRANCH  15  16
ENDBRANCH  14  15
ENDBRANCH  13  14
ENDBRANCH  12  13
ENDBRANCH   1  12
TORSDOF 16
ENDMDL
