MODEL 1
REMARK VINA RESULT:    -3.226      0.000      0.000
REMARK INTER + INTRA:         -14.907
REMARK INTER:                  -8.506
REMARK INTRA:                  -6.400
REMARK UNBOUND:                -6.400
REMARK SMILES CCCCCCCCCCCCCCCCCCCCCCCCCCCCCC(=O)[O-]
REMARK SMILES IDX 16 1 17 2 18 3 19 4 20 5 21 6 22 7 23 8 24 9 25 10 26 11
REMARK SMILES IDX 27 12 28 13 29 14 30 15 31 16 32 17 15 18 14 19 13 20 12 21
REMARK SMILES IDX 11 22 10 23 9 24 8 25 7 26 6 27 5 28 4 29 3 30 2 31 1 32
REMARK H PARENT
REMARK Flexibility Score: inf
ROOT
ATOM      1  C   UNL     1      -5.764  -2.379  36.727  1.00  0.00     0.000 C 
ENDROOT
BRANCH   1   2
ATOM      2  C   UNL     1      -5.351  -3.318  35.580  1.00  0.00     0.000 C 
BRANCH   2   3
ATOM      3  C   UNL     1      -4.958  -2.563  34.301  1.00  0.00     0.000 C 
BRANCH   3   4
ATOM      4  C   UNL     1      -3.507  -2.840  33.872  1.00  0.00     0.000 C 
BRANCH   4   5
ATOM      5  C   UNL     1      -2.478  -2.033  34.687  1.00  0.00     0.000 C 
BRANCH   5   6
ATOM      6  C   UNL     1      -1.758  -2.821  35.802  1.00  0.00     0.000 C 
BRANCH   6   7
ATOM      7  C   UNL     1      -0.923  -1.964  36.776  1.00  0.00     0.000 C 
BRANCH   7   8
ATOM      8  C   UNL     1      -1.609  -0.670  37.245  1.00  0.00     0.000 C 
BRANCH   8   9
ATOM      9  C   UNL     1      -0.726   0.572  37.035  1.00  0.00     0.000 C 
BRANCH   9  10
ATOM     10  C   UNL     1      -0.673   1.013  35.565  1.00  0.00     0.000 C 
BRANCH  10  11
ATOM     11  C   UNL     1       0.737   0.889  34.962  1.00  0.00     0.000 C 
BRANCH  11  12
ATOM     12  C   UNL     1       0.865  -0.351  34.053  1.00  0.00     0.000 C 
BRANCH  12  13
ATOM     13  C   UNL     1       1.897  -1.382  34.547  1.00  0.00     0.006 C 
BRANCH  13  14
ATOM     14  C   UNL     1       2.532  -1.037  35.907  1.00  0.00     0.053 C 
BRANCH  14  15
ATOM     15  C   UNL     1       4.005  -1.319  35.944  1.00  0.00     0.041 C 
ATOM     16  O   UNL     1       4.729  -0.791  36.828  1.00  0.00    -0.550 OA
ATOM     17  O   UNL     1       4.589  -2.114  34.965  1.00  0.00    -0.550 OA
ENDBRANCH  14  15
ENDBRANCH  13  14
ENDBRANCH  12  13
ENDBRANCH  11  12
ENDBRANCH  10  11
ENDBRANCH   9  10
ENDBRANCH   8   9
ENDBRANCH   7   8
ENDBRANCH   6   7
ENDBRANCH   5   6
ENDBRANCH   4   5
ENDBRANCH   3   4
ENDBRANCH   2   3
ENDBRANCH   1   2
BRANCH   1  18
ATOM     18  C   UNL     1      -4.808  -2.470  37.928  1.00  0.00     0.000 C 
BRANCH  18  19
ATOM     19  C   UNL     1      -4.905  -1.250  38.855  1.00  0.00     0.000 C 
BRANCH  19  20
ATOM     20  C   UNL     1      -5.571  -0.070  38.135  1.00  0.00     0.000 C 
BRANCH  20  21
ATOM     21  C   UNL     1      -4.664   1.169  38.059  1.00  0.00     0.000 C 
BRANCH  21  22
ATOM     22  C   UNL     1      -4.684   1.864  36.681  1.00  0.00     0.000 C 
BRANCH  22  23
ATOM     23  C   UNL     1      -4.748   0.857  35.519  1.00  0.00     0.000 C 
BRANCH  23  24
ATOM     24  C   UNL     1      -4.019   1.372  34.259  1.00  0.00    -0.000 C 
BRANCH  24  25
ATOM     25  C   UNL     1      -4.823   1.194  32.958  1.00  0.00    -0.000 C 
BRANCH  25  26
ATOM     26  C   UNL     1      -6.232   0.629  33.193  1.00  0.00    -0.000 C 
BRANCH  26  27
ATOM     27  C   UNL     1      -7.310   1.613  32.713  1.00  0.00    -0.000 C 
BRANCH  27  28
ATOM     28  C   UNL     1      -8.446   1.790  33.743  1.00  0.00    -0.000 C 
BRANCH  28  29
ATOM     29  C   UNL     1      -8.062   2.667  34.948  1.00  0.00    -0.000 C 
BRANCH  29  30
ATOM     30  C   UNL     1      -8.302   1.972  36.299  1.00  0.00    -0.000 C 
BRANCH  30  31
ATOM     31  C   UNL     1      -8.481   0.451  36.157  1.00  0.00    -0.003 C 
ATOM     32  C   UNL     1      -9.178  -0.178  37.363  1.00  0.00     0.004 C 
ENDBRANCH  30  31
ENDBRANCH  29  30
ENDBRANCH  28  29
ENDBRANCH  27  28
ENDBRANCH  26  27
ENDBRANCH  25  26
ENDBRANCH  24  25
ENDBRANCH  23  24
ENDBRANCH  22  23
ENDBRANCH  21  22
ENDBRANCH  20  21
ENDBRANCH  19  20
ENDBRANCH  18  19
ENDBRANCH   1  18
TORSDOF 28
ENDMDL
MODEL 2
REMARK VINA RESULT:    -3.069      3.880      7.344
REMARK INTER + INTRA:         -14.494
REMARK INTER:                  -8.349
REMARK INTRA:                  -6.145
REMARK UNBOUND:                -6.400
REMARK SMILES CCCCCCCCCCCCCCCCCCCCCCCCCCCCCC(=O)[O-]
REMARK SMILES IDX 16 1 17 2 18 3 19 4 20 5 21 6 22 7 23 8 24 9 25 10 26 11
REMARK SMILES IDX 27 12 28 13 29 14 30 15 31 16 32 17 15 18 14 19 13 20 12 21
REMARK SMILES IDX 11 22 10 23 9 24 8 25 7 26 6 27 5 28 4 29 3 30 2 31 1 32
REMARK H PARENT
REMARK Flexibility Score: inf
ROOT
ATOM      1  C   UNL     1      -2.393  -2.416  34.688  1.00  0.00     0.000 C 
ENDROOT
BRANCH   1   2
ATOM      2  C   UNL     1      -3.822  -2.896  34.379  1.00  0.00     0.000 C 
BRANCH   2   3
ATOM      3  C   UNL     1      -4.820  -1.740  34.225  1.00  0.00     0.000 C 
BRANCH   3   4
ATOM      4  C   UNL     1      -5.757  -1.599  35.438  1.00  0.00     0.000 C 
BRANCH   4   5
ATOM      5  C   UNL     1      -5.581  -2.736  36.463  1.00  0.00     0.000 C 
BRANCH   5   6
ATOM      6  C   UNL     1      -5.068  -2.297  37.850  1.00  0.00     0.000 C 
BRANCH   6   7
ATOM      7  C   UNL     1      -4.951  -0.772  38.056  1.00  0.00     0.000 C 
BRANCH   7   8
ATOM      8  C   UNL     1      -3.517  -0.260  38.276  1.00  0.00     0.000 C 
BRANCH   8   9
ATOM      9  C   UNL     1      -2.951   0.455  37.038  1.00  0.00     0.000 C 
BRANCH   9  10
ATOM     10  C   UNL     1      -3.941   1.464  36.438  1.00  0.00     0.000 C 
BRANCH  10  11
ATOM     11  C   UNL     1      -3.790   1.605  34.913  1.00  0.00     0.000 C 
BRANCH  11  12
ATOM     12  C   UNL     1      -4.523   2.852  34.377  1.00  0.00     0.000 C 
BRANCH  12  13
ATOM     13  C   UNL     1      -4.687   2.868  32.846  1.00  0.00     0.006 C 
BRANCH  13  14
ATOM     14  C   UNL     1      -5.131   1.522  32.245  1.00  0.00     0.053 C 
BRANCH  14  15
ATOM     15  C   UNL     1      -6.623   1.358  32.235  1.00  0.00     0.041 C 
ATOM     16  O   UNL     1      -7.193   0.691  33.137  1.00  0.00    -0.550 OA
ATOM     17  O   UNL     1      -7.377   1.890  31.196  1.00  0.00    -0.550 OA
ENDBRANCH  14  15
ENDBRANCH  13  14
ENDBRANCH  12  13
ENDBRANCH  11  12
ENDBRANCH  10  11
ENDBRANCH   9  10
ENDBRANCH   8   9
ENDBRANCH   7   8
ENDBRANCH   6   7
ENDBRANCH   5   6
ENDBRANCH   4   5
ENDBRANCH   3   4
ENDBRANCH   2   3
ENDBRANCH   1   2
BRANCH   1  18
ATOM     18  C   UNL     1      -1.869  -2.969  36.025  1.00  0.00     0.000 C 
BRANCH  18  19
ATOM     19  C   UNL     1      -0.625  -2.223  36.526  1.00  0.00     0.000 C 
BRANCH  19  20
ATOM     20  C   UNL     1       0.568  -2.463  35.592  1.00  0.00     0.000 C 
BRANCH  20  21
ATOM     21  C   UNL     1       1.151  -1.159  35.024  1.00  0.00     0.000 C 
BRANCH  21  22
ATOM     22  C   UNL     1       0.575   0.113  35.683  1.00  0.00     0.000 C 
BRANCH  22  23
ATOM     23  C   UNL     1      -0.181   1.000  34.679  1.00  0.00     0.000 C 
BRANCH  23  24
ATOM     24  C   UNL     1      -0.017   0.506  33.225  1.00  0.00    -0.000 C 
BRANCH  24  25
ATOM     25  C   UNL     1      -1.350   0.181  32.525  1.00  0.00    -0.000 C 
BRANCH  25  26
ATOM     26  C   UNL     1      -1.587   1.021  31.261  1.00  0.00    -0.000 C 
BRANCH  26  27
ATOM     27  C   UNL     1      -0.671   2.253  31.234  1.00  0.00    -0.000 C 
BRANCH  27  28
ATOM     28  C   UNL     1       0.292   2.245  30.028  1.00  0.00    -0.000 C 
BRANCH  28  29
ATOM     29  C   UNL     1       0.494   0.854  29.402  1.00  0.00    -0.000 C 
BRANCH  29  30
ATOM     30  C   UNL     1       1.889   0.266  29.675  1.00  0.00    -0.000 C 
BRANCH  30  31
ATOM     31  C   UNL     1       1.826  -1.121  30.335  1.00  0.00    -0.003 C 
ATOM     32  C   UNL     1       2.707  -1.224  31.580  1.00  0.00     0.004 C 
ENDBRANCH  30  31
ENDBRANCH  29  30
ENDBRANCH  28  29
ENDBRANCH  27  28
ENDBRANCH  26  27
ENDBRANCH  25  26
ENDBRANCH  24  25
ENDBRANCH  23  24
ENDBRANCH  22  23
ENDBRANCH  21  22
ENDBRANCH  20  21
ENDBRANCH  19  20
ENDBRANCH  18  19
ENDBRANCH   1  18
TORSDOF 28
ENDMDL
MODEL 3
REMARK VINA RESULT:    -3.010      2.517      4.271
REMARK INTER + INTRA:         -14.336
REMARK INTER:                  -8.062
REMARK INTRA:                  -6.274
REMARK UNBOUND:                -6.400
REMARK SMILES CCCCCCCCCCCCCCCCCCCCCCCCCCCCCC(=O)[O-]
REMARK SMILES IDX 16 1 17 2 18 3 19 4 20 5 21 6 22 7 23 8 24 9 25 10 26 11
REMARK SMILES IDX 27 12 28 13 29 14 30 15 31 16 32 17 15 18 14 19 13 20 12 21
REMARK SMILES IDX 11 22 10 23 9 24 8 25 7 26 6 27 5 28 4 29 3 30 2 31 1 32
REMARK H PARENT
REMARK Flexibility Score: inf
ROOT
ATOM      1  C   UNL     1      -5.338  -3.242  35.380  1.00  0.00     0.000 C 
ENDROOT
BRANCH   1   2
ATOM      2  C   UNL     1      -3.921  -3.497  34.837  1.00  0.00     0.000 C 
BRANCH   2   3
ATOM      3  C   UNL     1      -3.275  -2.239  34.238  1.00  0.00     0.000 C 
BRANCH   3   4
ATOM      4  C   UNL     1      -1.969  -1.845  34.951  1.00  0.00     0.000 C 
BRANCH   4   5
ATOM      5  C   UNL     1      -1.606  -2.802  36.102  1.00  0.00     0.000 C 
BRANCH   5   6
ATOM      6  C   UNL     1      -0.109  -2.843  36.475  1.00  0.00     0.000 C 
BRANCH   6   7
ATOM      7  C   UNL     1       0.780  -1.816  35.743  1.00  0.00     0.000 C 
BRANCH   7   8
ATOM      8  C   UNL     1       2.103  -2.382  35.200  1.00  0.00     0.000 C 
BRANCH   8   9
ATOM      9  C   UNL     1       3.068  -1.277  34.737  1.00  0.00     0.000 C 
BRANCH   9  10
ATOM     10  C   UNL     1       2.538   0.131  35.040  1.00  0.00     0.000 C 
BRANCH  10  11
ATOM     11  C   UNL     1       2.327   0.970  33.767  1.00  0.00     0.000 C 
BRANCH  11  12
ATOM     12  C   UNL     1       0.853   0.964  33.315  1.00  0.00     0.000 C 
BRANCH  12  13
ATOM     13  C   UNL     1       0.496  -0.196  32.367  1.00  0.00     0.006 C 
BRANCH  13  14
ATOM     14  C   UNL     1      -0.455   0.196  31.221  1.00  0.00     0.053 C 
BRANCH  14  15
ATOM     15  C   UNL     1       0.279   0.624  29.984  1.00  0.00     0.041 C 
ATOM     16  O   UNL     1      -0.160   1.574  29.285  1.00  0.00    -0.550 OA
ATOM     17  O   UNL     1       1.412  -0.065  29.570  1.00  0.00    -0.550 OA
ENDBRANCH  14  15
ENDBRANCH  13  14
ENDBRANCH  12  13
ENDBRANCH  11  12
ENDBRANCH  10  11
ENDBRANCH   9  10
ENDBRANCH   8   9
ENDBRANCH   7   8
ENDBRANCH   6   7
ENDBRANCH   5   6
ENDBRANCH   4   5
ENDBRANCH   3   4
ENDBRANCH   2   3
ENDBRANCH   1   2
BRANCH   1  18
ATOM     18  C   UNL     1      -5.328  -2.830  36.862  1.00  0.00     0.000 C 
BRANCH  18  19
ATOM     19  C   UNL     1      -6.341  -1.719  37.174  1.00  0.00     0.000 C 
BRANCH  19  20
ATOM     20  C   UNL     1      -5.667  -0.563  37.924  1.00  0.00     0.000 C 
BRANCH  20  21
ATOM     21  C   UNL     1      -4.267  -0.234  37.379  1.00  0.00     0.000 C 
BRANCH  21  22
ATOM     22  C   UNL     1      -3.163  -0.264  38.457  1.00  0.00     0.000 C 
BRANCH  22  23
ATOM     23  C   UNL     1      -2.292   1.004  38.435  1.00  0.00     0.000 C 
BRANCH  23  24
ATOM     24  C   UNL     1      -0.908   0.750  37.799  1.00  0.00    -0.000 C 
BRANCH  24  25
ATOM     25  C   UNL     1      -0.682   1.508  36.478  1.00  0.00    -0.000 C 
BRANCH  25  26
ATOM     26  C   UNL     1      -1.516   2.794  36.370  1.00  0.00    -0.000 C 
BRANCH  26  27
ATOM     27  C   UNL     1      -2.160   2.922  34.981  1.00  0.00    -0.000 C 
BRANCH  27  28
ATOM     28  C   UNL     1      -2.778   1.594  34.494  1.00  0.00    -0.000 C 
BRANCH  28  29
ATOM     29  C   UNL     1      -3.256   1.629  33.031  1.00  0.00    -0.000 C 
BRANCH  29  30
ATOM     30  C   UNL     1      -4.781   1.485  32.892  1.00  0.00    -0.000 C 
BRANCH  30  31
ATOM     31  C   UNL     1      -5.426   0.831  34.124  1.00  0.00    -0.003 C 
ATOM     32  C   UNL     1      -6.497  -0.197  33.755  1.00  0.00     0.004 C 
ENDBRANCH  30  31
ENDBRANCH  29  30
ENDBRANCH  28  29
ENDBRANCH  27  28
ENDBRANCH  26  27
ENDBRANCH  25  26
ENDBRANCH  24  25
ENDBRANCH  23  24
ENDBRANCH  22  23
ENDBRANCH  21  22
ENDBRANCH  20  21
ENDBRANCH  19  20
ENDBRANCH  18  19
ENDBRANCH   1  18
TORSDOF 28
ENDMDL
MODEL 4
REMARK VINA RESULT:    -2.952      4.172      7.645
REMARK INTER + INTRA:         -14.184
REMARK INTER:                  -8.032
REMARK INTRA:                  -6.152
REMARK UNBOUND:                -6.400
REMARK SMILES CCCCCCCCCCCCCCCCCCCCCCCCCCCCCC(=O)[O-]
REMARK SMILES IDX 16 1 17 2 18 3 19 4 20 5 21 6 22 7 23 8 24 9 25 10 26 11
REMARK SMILES IDX 27 12 28 13 29 14 30 15 31 16 32 17 15 18 14 19 13 20 12 21
REMARK SMILES IDX 11 22 10 23 9 24 8 25 7 26 6 27 5 28 4 29 3 30 2 31 1 32
REMARK H PARENT
REMARK Flexibility Score: inf
ROOT
ATOM      1  C   UNL     1      -1.442  -0.283  37.185  1.00  0.00     0.000 C 
ENDROOT
BRANCH   1   2
ATOM      2  C   UNL     1      -0.952  -1.705  36.858  1.00  0.00     0.000 C 
BRANCH   2   3
ATOM      3  C   UNL     1      -1.255  -2.124  35.412  1.00  0.00     0.000 C 
BRANCH   3   4
ATOM      4  C   UNL     1      -2.626  -2.809  35.268  1.00  0.00     0.000 C 
BRANCH   4   5
ATOM      5  C   UNL     1      -3.610  -1.998  34.403  1.00  0.00     0.000 C 
BRANCH   5   6
ATOM      6  C   UNL     1      -5.104  -2.269  34.678  1.00  0.00     0.000 C 
BRANCH   6   7
ATOM      7  C   UNL     1      -5.406  -3.013  35.996  1.00  0.00     0.000 C 
BRANCH   7   8
ATOM      8  C   UNL     1      -5.794  -2.104  37.174  1.00  0.00     0.000 C 
BRANCH   8   9
ATOM      9  C   UNL     1      -6.728  -0.958  36.750  1.00  0.00     0.000 C 
BRANCH   9  10
ATOM     10  C   UNL     1      -7.287  -0.180  37.950  1.00  0.00     0.000 C 
BRANCH  10  11
ATOM     11  C   UNL     1      -8.425   0.778  37.555  1.00  0.00     0.000 C 
BRANCH  11  12
ATOM     12  C   UNL     1      -9.342   0.165  36.476  1.00  0.00     0.000 C 
BRANCH  12  13
ATOM     13  C   UNL     1      -9.754   1.155  35.372  1.00  0.00     0.006 C 
BRANCH  13  14
ATOM     14  C   UNL     1      -9.758   0.554  33.955  1.00  0.00     0.053 C 
BRANCH  14  15
ATOM     15  C   UNL     1      -9.941   1.593  32.888  1.00  0.00     0.041 C 
ATOM     16  O   UNL     1      -9.059   1.758  32.006  1.00  0.00    -0.550 OA
ATOM     17  O   UNL     1     -11.057   2.422  32.904  1.00  0.00    -0.550 OA
ENDBRANCH  14  15
ENDBRANCH  13  14
ENDBRANCH  12  13
ENDBRANCH  11  12
ENDBRANCH  10  11
ENDBRANCH   9  10
ENDBRANCH   8   9
ENDBRANCH   7   8
ENDBRANCH   6   7
ENDBRANCH   5   6
ENDBRANCH   4   5
ENDBRANCH   3   4
ENDBRANCH   2   3
ENDBRANCH   1   2
BRANCH   1  18
ATOM     18  C   UNL     1      -2.712  -0.290  38.052  1.00  0.00     0.000 C 
BRANCH  18  19
ATOM     19  C   UNL     1      -3.626   0.912  37.771  1.00  0.00     0.000 C 
BRANCH  19  20
ATOM     20  C   UNL     1      -3.758   1.154  36.262  1.00  0.00     0.000 C 
BRANCH  20  21
ATOM     21  C   UNL     1      -4.314   2.548  35.930  1.00  0.00     0.000 C 
BRANCH  21  22
ATOM     22  C   UNL     1      -5.856   2.605  35.893  1.00  0.00     0.000 C 
BRANCH  22  23
ATOM     23  C   UNL     1      -6.409   2.538  34.459  1.00  0.00     0.000 C 
BRANCH  23  24
ATOM     24  C   UNL     1      -6.127   1.177  33.787  1.00  0.00    -0.000 C 
BRANCH  24  25
ATOM     25  C   UNL     1      -5.542   1.293  32.367  1.00  0.00    -0.000 C 
BRANCH  25  26
ATOM     26  C   UNL     1      -4.919   2.667  32.082  1.00  0.00    -0.000 C 
BRANCH  26  27
ATOM     27  C   UNL     1      -3.404   2.654  32.338  1.00  0.00    -0.000 C 
BRANCH  27  28
ATOM     28  C   UNL     1      -2.867   1.233  32.614  1.00  0.00    -0.000 C 
BRANCH  28  29
ATOM     29  C   UNL     1      -1.515   1.211  33.351  1.00  0.00    -0.000 C 
BRANCH  29  30
ATOM     30  C   UNL     1      -0.532   0.179  32.773  1.00  0.00    -0.000 C 
BRANCH  30  31
ATOM     31  C   UNL     1      -0.565   0.128  31.237  1.00  0.00    -0.003 C 
ATOM     32  C   UNL     1       0.783  -0.261  30.629  1.00  0.00     0.004 C 
ENDBRANCH  30  31
ENDBRANCH  29  30
ENDBRANCH  28  29
ENDBRANCH  27  28
ENDBRANCH  26  27
ENDBRANCH  25  26
ENDBRANCH  24  25
ENDBRANCH  23  24
ENDBRANCH  22  23
ENDBRANCH  21  22
ENDBRANCH  20  21
ENDBRANCH  19  20
ENDBRANCH  18  19
ENDBRANCH   1  18
TORSDOF 28
ENDMDL
MODEL 5
REMARK VINA RESULT:    -2.946      2.403      5.559
REMARK INTER + INTRA:         -14.168
REMARK INTER:                  -8.494
REMARK INTRA:                  -5.674
REMARK UNBOUND:                -6.400
REMARK SMILES CCCCCCCCCCCCCCCCCCCCCCCCCCCCCC(=O)[O-]
REMARK SMILES IDX 16 1 17 2 18 3 19 4 20 5 21 6 22 7 23 8 24 9 25 10 26 11
REMARK SMILES IDX 27 12 28 13 29 14 30 15 31 16 32 17 15 18 14 19 13 20 12 21
REMARK SMILES IDX 11 22 10 23 9 24 8 25 7 26 6 27 5 28 4 29 3 30 2 31 1 32
REMARK H PARENT
REMARK Flexibility Score: inf
ROOT
ATOM      1  C   UNL     1      -1.189   1.037  31.319  1.00  0.00     0.000 C 
ENDROOT
BRANCH   1   2
ATOM      2  C   UNL     1      -0.202  -0.082  30.946  1.00  0.00     0.000 C 
BRANCH   2   3
ATOM      3  C   UNL     1       0.956   0.411  30.066  1.00  0.00     0.000 C 
BRANCH   3   4
ATOM      4  C   UNL     1       2.309   0.389  30.801  1.00  0.00     0.000 C 
BRANCH   4   5
ATOM      5  C   UNL     1       3.279  -0.664  30.233  1.00  0.00     0.000 C 
BRANCH   5   6
ATOM      6  C   UNL     1       2.764  -2.118  30.264  1.00  0.00     0.000 C 
BRANCH   6   7
ATOM      7  C   UNL     1       3.436  -3.031  31.311  1.00  0.00     0.000 C 
BRANCH   7   8
ATOM      8  C   UNL     1       4.526  -2.349  32.155  1.00  0.00     0.000 C 
BRANCH   8   9
ATOM      9  C   UNL     1       4.113  -2.185  33.627  1.00  0.00     0.000 C 
BRANCH   9  10
ATOM     10  C   UNL     1       2.844  -2.976  33.973  1.00  0.00     0.000 C 
BRANCH  10  11
ATOM     11  C   UNL     1       1.875  -2.179  34.865  1.00  0.00     0.000 C 
BRANCH  11  12
ATOM     12  C   UNL     1       1.382  -0.894  34.169  1.00  0.00     0.000 C 
BRANCH  12  13
ATOM     13  C   UNL     1       1.753   0.400  34.915  1.00  0.00     0.006 C 
BRANCH  13  14
ATOM     14  C   UNL     1       2.017   0.208  36.420  1.00  0.00     0.053 C 
BRANCH  14  15
ATOM     15  C   UNL     1       3.448   0.464  36.792  1.00  0.00     0.041 C 
ATOM     16  O   UNL     1       3.780   0.563  38.002  1.00  0.00    -0.550 OA
ATOM     17  O   UNL     1       4.405   0.655  35.802  1.00  0.00    -0.550 OA
ENDBRANCH  14  15
ENDBRANCH  13  14
ENDBRANCH  12  13
ENDBRANCH  11  12
ENDBRANCH  10  11
ENDBRANCH   9  10
ENDBRANCH   8   9
ENDBRANCH   7   8
ENDBRANCH   6   7
ENDBRANCH   5   6
ENDBRANCH   4   5
ENDBRANCH   3   4
ENDBRANCH   2   3
ENDBRANCH   1   2
BRANCH   1  18
ATOM     18  C   UNL     1      -0.652   1.934  32.447  1.00  0.00     0.000 C 
BRANCH  18  19
ATOM     19  C   UNL     1      -1.509   1.861  33.720  1.00  0.00     0.000 C 
BRANCH  19  20
ATOM     20  C   UNL     1      -2.585   0.775  33.589  1.00  0.00     0.000 C 
BRANCH  20  21
ATOM     21  C   UNL     1      -2.254  -0.491  34.396  1.00  0.00     0.000 C 
BRANCH  21  22
ATOM     22  C   UNL     1      -1.961  -0.213  35.886  1.00  0.00     0.000 C 
BRANCH  22  23
ATOM     23  C   UNL     1      -1.614  -1.496  36.662  1.00  0.00     0.000 C 
BRANCH  23  24
ATOM     24  C   UNL     1      -1.686  -2.755  35.770  1.00  0.00    -0.000 C 
BRANCH  24  25
ATOM     25  C   UNL     1      -2.883  -3.671  36.083  1.00  0.00    -0.000 C 
BRANCH  25  26
ATOM     26  C   UNL     1      -3.943  -3.679  34.971  1.00  0.00    -0.000 C 
BRANCH  26  27
ATOM     27  C   UNL     1      -5.315  -3.249  35.510  1.00  0.00    -0.000 C 
BRANCH  27  28
ATOM     28  C   UNL     1      -5.230  -2.659  36.934  1.00  0.00    -0.000 C 
BRANCH  28  29
ATOM     29  C   UNL     1      -6.044  -1.366  37.122  1.00  0.00    -0.000 C 
BRANCH  29  30
ATOM     30  C   UNL     1      -5.561  -0.214  36.224  1.00  0.00    -0.000 C 
BRANCH  30  31
ATOM     31  C   UNL     1      -6.626   0.229  35.208  1.00  0.00    -0.003 C 
ATOM     32  C   UNL     1      -6.250  -0.116  33.767  1.00  0.00     0.004 C 
ENDBRANCH  30  31
ENDBRANCH  29  30
ENDBRANCH  28  29
ENDBRANCH  27  28
ENDBRANCH  26  27
ENDBRANCH  25  26
ENDBRANCH  24  25
ENDBRANCH  23  24
ENDBRANCH  22  23
ENDBRANCH  21  22
ENDBRANCH  20  21
ENDBRANCH  19  20
ENDBRANCH  18  19
ENDBRANCH   1  18
TORSDOF 28
ENDMDL
MODEL 6
REMARK VINA RESULT:    -2.937      3.906      7.835
REMARK INTER + INTRA:         -14.146
REMARK INTER:                  -8.423
REMARK INTRA:                  -5.723
REMARK UNBOUND:                -6.400
REMARK SMILES CCCCCCCCCCCCCCCCCCCCCCCCCCCCCC(=O)[O-]
REMARK SMILES IDX 16 1 17 2 18 3 19 4 20 5 21 6 22 7 23 8 24 9 25 10 26 11
REMARK SMILES IDX 27 12 28 13 29 14 30 15 31 16 32 17 15 18 14 19 13 20 12 21
REMARK SMILES IDX 11 22 10 23 9 24 8 25 7 26 6 27 5 28 4 29 3 30 2 31 1 32
REMARK H PARENT
REMARK Flexibility Score: inf
ROOT
ATOM      1  C   UNL     1      -5.219  -2.485  37.146  1.00  0.00     0.000 C 
ENDROOT
BRANCH   1   2
ATOM      2  C   UNL     1      -5.338  -3.039  35.715  1.00  0.00     0.000 C 
BRANCH   2   3
ATOM      3  C   UNL     1      -4.016  -3.613  35.184  1.00  0.00     0.000 C 
BRANCH   3   4
ATOM      4  C   UNL     1      -3.470  -2.826  33.980  1.00  0.00     0.000 C 
BRANCH   4   5
ATOM      5  C   UNL     1      -3.432  -1.306  34.227  1.00  0.00     0.000 C 
BRANCH   5   6
ATOM      6  C   UNL     1      -2.259  -0.559  33.558  1.00  0.00     0.000 C 
BRANCH   6   7
ATOM      7  C   UNL     1      -2.416   0.973  33.477  1.00  0.00     0.000 C 
BRANCH   7   8
ATOM      8  C   UNL     1      -3.075   1.619  34.708  1.00  0.00     0.000 C 
BRANCH   8   9
ATOM      9  C   UNL     1      -4.022   2.771  34.331  1.00  0.00     0.000 C 
BRANCH   9  10
ATOM     10  C   UNL     1      -4.405   2.754  32.845  1.00  0.00     0.000 C 
BRANCH  10  11
ATOM     11  C   UNL     1      -5.887   2.403  32.621  1.00  0.00     0.000 C 
BRANCH  11  12
ATOM     12  C   UNL     1      -6.088   0.893  32.379  1.00  0.00     0.000 C 
BRANCH  12  13
ATOM     13  C   UNL     1      -6.612   0.129  33.609  1.00  0.00     0.006 C 
BRANCH  13  14
ATOM     14  C   UNL     1      -7.365   1.009  34.624  1.00  0.00     0.053 C 
BRANCH  14  15
ATOM     15  C   UNL     1      -8.855   0.856  34.526  1.00  0.00     0.041 C 
ATOM     16  O   UNL     1      -9.445   1.087  33.440  1.00  0.00    -0.550 OA
ATOM     17  O   UNL     1      -9.598   0.519  35.652  1.00  0.00    -0.550 OA
ENDBRANCH  14  15
ENDBRANCH  13  14
ENDBRANCH  12  13
ENDBRANCH  11  12
ENDBRANCH  10  11
ENDBRANCH   9  10
ENDBRANCH   8   9
ENDBRANCH   7   8
ENDBRANCH   6   7
ENDBRANCH   5   6
ENDBRANCH   4   5
ENDBRANCH   3   4
ENDBRANCH   2   3
ENDBRANCH   1   2
BRANCH   1  18
ATOM     18  C   UNL     1      -5.670  -1.018  37.241  1.00  0.00     0.000 C 
BRANCH  18  19
ATOM     19  C   UNL     1      -4.546  -0.082  37.711  1.00  0.00     0.000 C 
BRANCH  19  20
ATOM     20  C   UNL     1      -3.218  -0.842  37.826  1.00  0.00     0.000 C 
BRANCH  20  21
ATOM     21  C   UNL     1      -1.994   0.069  37.645  1.00  0.00     0.000 C 
BRANCH  21  22
ATOM     22  C   UNL     1      -0.808  -0.625  36.940  1.00  0.00     0.000 C 
BRANCH  22  23
ATOM     23  C   UNL     1      -1.052  -2.130  36.732  1.00  0.00     0.000 C 
BRANCH  23  24
ATOM     24  C   UNL     1       0.199  -2.854  36.191  1.00  0.00    -0.000 C 
BRANCH  24  25
ATOM     25  C   UNL     1       1.368  -1.910  35.853  1.00  0.00    -0.000 C 
BRANCH  25  26
ATOM     26  C   UNL     1       2.282  -2.455  34.745  1.00  0.00    -0.000 C 
BRANCH  26  27
ATOM     27  C   UNL     1       3.438  -1.485  34.455  1.00  0.00    -0.000 C 
BRANCH  27  28
ATOM     28  C   UNL     1       3.036  -0.010  34.665  1.00  0.00    -0.000 C 
BRANCH  28  29
ATOM     29  C   UNL     1       2.777   0.757  33.356  1.00  0.00    -0.000 C 
BRANCH  29  30
ATOM     30  C   UNL     1       1.331   0.618  32.852  1.00  0.00    -0.000 C 
BRANCH  30  31
ATOM     31  C   UNL     1       1.234  -0.200  31.554  1.00  0.00    -0.003 C 
ATOM     32  C   UNL     1       0.015   0.172  30.709  1.00  0.00     0.004 C 
ENDBRANCH  30  31
ENDBRANCH  29  30
ENDBRANCH  28  29
ENDBRANCH  27  28
ENDBRANCH  26  27
ENDBRANCH  25  26
ENDBRANCH  24  25
ENDBRANCH  23  24
ENDBRANCH  22  23
ENDBRANCH  21  22
ENDBRANCH  20  21
ENDBRANCH  19  20
ENDBRANCH  18  19
ENDBRANCH   1  18
TORSDOF 28
ENDMDL
MODEL 7
REMARK VINA RESULT:    -2.926      1.544      3.085
REMARK INTER + INTRA:         -14.116
REMARK INTER:                  -7.580
REMARK INTRA:                  -6.536
REMARK UNBOUND:                -6.400
REMARK SMILES CCCCCCCCCCCCCCCCCCCCCCCCCCCCCC(=O)[O-]
REMARK SMILES IDX 16 1 17 2 18 3 19 4 20 5 21 6 22 7 23 8 24 9 25 10 26 11
REMARK SMILES IDX 27 12 28 13 29 14 30 15 31 16 32 17 15 18 14 19 13 20 12 21
REMARK SMILES IDX 11 22 10 23 9 24 8 25 7 26 6 27 5 28 4 29 3 30 2 31 1 32
REMARK H PARENT
REMARK Flexibility Score: inf
ROOT
ATOM      1  C   UNL     1      -2.582  -2.092  34.599  1.00  0.00     0.000 C 
ENDROOT
BRANCH   1   2
ATOM      2  C   UNL     1      -1.590  -2.738  35.582  1.00  0.00     0.000 C 
BRANCH   2   3
ATOM      3  C   UNL     1      -1.437  -1.941  36.887  1.00  0.00     0.000 C 
BRANCH   3   4
ATOM      4  C   UNL     1      -2.442  -0.780  36.994  1.00  0.00     0.000 C 
BRANCH   4   5
ATOM      5  C   UNL     1      -2.361  -0.044  38.344  1.00  0.00     0.000 C 
BRANCH   5   6
ATOM      6  C   UNL     1      -2.200   1.488  38.250  1.00  0.00     0.000 C 
BRANCH   6   7
ATOM      7  C   UNL     1      -0.767   2.013  38.476  1.00  0.00     0.000 C 
BRANCH   7   8
ATOM      8  C   UNL     1      -0.111   2.646  37.236  1.00  0.00     0.000 C 
BRANCH   8   9
ATOM      9  C   UNL     1      -1.064   2.702  36.031  1.00  0.00     0.000 C 
BRANCH   9  10
ATOM     10  C   UNL     1      -0.378   2.296  34.719  1.00  0.00     0.000 C 
BRANCH  10  11
ATOM     11  C   UNL     1      -0.472   0.784  34.446  1.00  0.00     0.000 C 
BRANCH  11  12
ATOM     12  C   UNL     1       0.819   0.235  33.807  1.00  0.00     0.000 C 
BRANCH  12  13
ATOM     13  C   UNL     1       1.523  -0.843  34.651  1.00  0.00     0.006 C 
BRANCH  13  14
ATOM     14  C   UNL     1       1.726  -0.455  36.127  1.00  0.00     0.053 C 
BRANCH  14  15
ATOM     15  C   UNL     1       3.060   0.184  36.377  1.00  0.00     0.041 C 
ATOM     16  O   UNL     1       3.677  -0.038  37.451  1.00  0.00    -0.550 OA
ATOM     17  O   UNL     1       3.593   1.075  35.452  1.00  0.00    -0.550 OA
ENDBRANCH  14  15
ENDBRANCH  13  14
ENDBRANCH  12  13
ENDBRANCH  11  12
ENDBRANCH  10  11
ENDBRANCH   9  10
ENDBRANCH   8   9
ENDBRANCH   7   8
ENDBRANCH   6   7
ENDBRANCH   5   6
ENDBRANCH   4   5
ENDBRANCH   3   4
ENDBRANCH   2   3
ENDBRANCH   1   2
BRANCH   1  18
ATOM     18  C   UNL     1      -3.582  -3.111  34.028  1.00  0.00     0.000 C 
BRANCH  18  19
ATOM     19  C   UNL     1      -5.038  -2.771  34.377  1.00  0.00     0.000 C 
BRANCH  19  20
ATOM     20  C   UNL     1      -5.300  -2.970  35.875  1.00  0.00     0.000 C 
BRANCH  20  21
ATOM     21  C   UNL     1      -5.912  -1.728  36.543  1.00  0.00     0.000 C 
BRANCH  21  22
ATOM     22  C   UNL     1      -6.086  -0.534  35.580  1.00  0.00     0.000 C 
BRANCH  22  23
ATOM     23  C   UNL     1      -5.737   0.809  36.247  1.00  0.00     0.000 C 
BRANCH  23  24
ATOM     24  C   UNL     1      -4.676   1.598  35.449  1.00  0.00    -0.000 C 
BRANCH  24  25
ATOM     25  C   UNL     1      -4.250   0.916  34.136  1.00  0.00    -0.000 C 
BRANCH  25  26
ATOM     26  C   UNL     1      -3.775   1.910  33.066  1.00  0.00    -0.000 C 
BRANCH  26  27
ATOM     27  C   UNL     1      -4.878   2.182  32.033  1.00  0.00    -0.000 C 
BRANCH  27  28
ATOM     28  C   UNL     1      -6.043   1.174  32.136  1.00  0.00    -0.000 C 
BRANCH  28  29
ATOM     29  C   UNL     1      -7.431   1.833  32.226  1.00  0.00    -0.000 C 
BRANCH  29  30
ATOM     30  C   UNL     1      -7.626   2.650  33.515  1.00  0.00    -0.000 C 
BRANCH  30  31
ATOM     31  C   UNL     1      -8.747   2.090  34.404  1.00  0.00    -0.003 C 
ATOM     32  C   UNL     1      -9.230   0.712  33.951  1.00  0.00     0.004 C 
ENDBRANCH  30  31
ENDBRANCH  29  30
ENDBRANCH  28  29
ENDBRANCH  27  28
ENDBRANCH  26  27
ENDBRANCH  25  26
ENDBRANCH  24  25
ENDBRANCH  23  24
ENDBRANCH  22  23
ENDBRANCH  21  22
ENDBRANCH  20  21
ENDBRANCH  19  20
ENDBRANCH  18  19
ENDBRANCH   1  18
TORSDOF 28
ENDMDL
MODEL 8
REMARK VINA RESULT:    -2.920      3.861      7.433
REMARK INTER + INTRA:         -14.099
REMARK INTER:                  -8.018
REMARK INTRA:                  -6.081
REMARK UNBOUND:                -6.400
REMARK SMILES CCCCCCCCCCCCCCCCCCCCCCCCCCCCCC(=O)[O-]
REMARK SMILES IDX 16 1 17 2 18 3 19 4 20 5 21 6 22 7 23 8 24 9 25 10 26 11
REMARK SMILES IDX 27 12 28 13 29 14 30 15 31 16 32 17 15 18 14 19 13 20 12 21
REMARK SMILES IDX 11 22 10 23 9 24 8 25 7 26 6 27 5 28 4 29 3 30 2 31 1 32
REMARK H PARENT
REMARK Flexibility Score: inf
ROOT
ATOM      1  C   UNL     1      -3.555  -2.909  34.240  1.00  0.00     0.000 C 
ENDROOT
BRANCH   1   2
ATOM      2  C   UNL     1      -5.005  -2.687  34.705  1.00  0.00     0.000 C 
BRANCH   2   3
ATOM      3  C   UNL     1      -5.170  -2.811  36.228  1.00  0.00     0.000 C 
BRANCH   3   4
ATOM      4  C   UNL     1      -6.208  -1.825  36.794  1.00  0.00     0.000 C 
BRANCH   4   5
ATOM      5  C   UNL     1      -5.706  -1.085  38.048  1.00  0.00     0.000 C 
BRANCH   5   6
ATOM      6  C   UNL     1      -4.271  -1.440  38.491  1.00  0.00     0.000 C 
BRANCH   6   7
ATOM      7  C   UNL     1      -3.220  -0.335  38.258  1.00  0.00     0.000 C 
BRANCH   7   8
ATOM      8  C   UNL     1      -3.771   0.957  37.630  1.00  0.00     0.000 C 
BRANCH   8   9
ATOM      9  C   UNL     1      -3.467   1.056  36.126  1.00  0.00     0.000 C 
BRANCH   9  10
ATOM     10  C   UNL     1      -3.843   2.425  35.540  1.00  0.00     0.000 C 
BRANCH  10  11
ATOM     11  C   UNL     1      -4.538   2.309  34.171  1.00  0.00     0.000 C 
BRANCH  11  12
ATOM     12  C   UNL     1      -4.643   0.844  33.703  1.00  0.00     0.000 C 
BRANCH  12  13
ATOM     13  C   UNL     1      -5.959   0.515  32.975  1.00  0.00     0.006 C 
BRANCH  13  14
ATOM     14  C   UNL     1      -7.156   0.277  33.913  1.00  0.00     0.053 C 
BRANCH  14  15
ATOM     15  C   UNL     1      -8.279   1.243  33.672  1.00  0.00     0.041 C 
ATOM     16  O   UNL     1      -8.039   2.396  33.229  1.00  0.00    -0.550 OA
ATOM     17  O   UNL     1      -9.585   0.891  33.995  1.00  0.00    -0.550 OA
ENDBRANCH  14  15
ENDBRANCH  13  14
ENDBRANCH  12  13
ENDBRANCH  11  12
ENDBRANCH  10  11
ENDBRANCH   9  10
ENDBRANCH   8   9
ENDBRANCH   7   8
ENDBRANCH   6   7
ENDBRANCH   5   6
ENDBRANCH   4   5
ENDBRANCH   3   4
ENDBRANCH   2   3
ENDBRANCH   1   2
BRANCH   1  18
ATOM     18  C   UNL     1      -2.536  -2.220  35.164  1.00  0.00     0.000 C 
BRANCH  18  19
ATOM     19  C   UNL     1      -1.871  -3.198  36.143  1.00  0.00     0.000 C 
BRANCH  19  20
ATOM     20  C   UNL     1      -0.419  -2.785  36.423  1.00  0.00     0.000 C 
BRANCH  20  21
ATOM     21  C   UNL     1      -0.204  -1.266  36.328  1.00  0.00     0.000 C 
BRANCH  21  22
ATOM     22  C   UNL     1       1.277  -0.862  36.170  1.00  0.00     0.000 C 
BRANCH  22  23
ATOM     23  C   UNL     1       1.439   0.598  35.712  1.00  0.00     0.000 C 
BRANCH  23  24
ATOM     24  C   UNL     1       0.082   1.323  35.583  1.00  0.00    -0.000 C 
BRANCH  24  25
ATOM     25  C   UNL     1       0.052   2.395  34.478  1.00  0.00    -0.000 C 
BRANCH  25  26
ATOM     26  C   UNL     1      -0.822   2.001  33.278  1.00  0.00    -0.000 C 
BRANCH  26  27
ATOM     27  C   UNL     1      -1.038   0.481  33.225  1.00  0.00    -0.000 C 
BRANCH  27  28
ATOM     28  C   UNL     1      -1.129  -0.050  31.779  1.00  0.00    -0.000 C 
BRANCH  28  29
ATOM     29  C   UNL     1      -0.064   0.532  30.833  1.00  0.00    -0.000 C 
BRANCH  29  30
ATOM     30  C   UNL     1       1.135  -0.409  30.622  1.00  0.00    -0.000 C 
BRANCH  30  31
ATOM     31  C   UNL     1       1.978  -0.584  31.896  1.00  0.00    -0.003 C 
ATOM     32  C   UNL     1       2.739   0.686  32.280  1.00  0.00     0.004 C 
ENDBRANCH  30  31
ENDBRANCH  29  30
ENDBRANCH  28  29
ENDBRANCH  27  28
ENDBRANCH  26  27
ENDBRANCH  25  26
ENDBRANCH  24  25
ENDBRANCH  23  24
ENDBRANCH  22  23
ENDBRANCH  21  22
ENDBRANCH  20  21
ENDBRANCH  19  20
ENDBRANCH  18  19
ENDBRANCH   1  18
TORSDOF 28
ENDMDL
MODEL 9
REMARK VINA RESULT:    -2.907      3.763      8.392
REMARK INTER + INTRA:         -14.067
REMARK INTER:                  -8.045
REMARK INTRA:                  -6.022
REMARK UNBOUND:                -6.400
REMARK SMILES CCCCCCCCCCCCCCCCCCCCCCCCCCCCCC(=O)[O-]
REMARK SMILES IDX 16 1 17 2 18 3 19 4 20 5 21 6 22 7 23 8 24 9 25 10 26 11
REMARK SMILES IDX 27 12 28 13 29 14 30 15 31 16 32 17 15 18 14 19 13 20 12 21
REMARK SMILES IDX 11 22 10 23 9 24 8 25 7 26 6 27 5 28 4 29 3 30 2 31 1 32
REMARK H PARENT
REMARK Flexibility Score: inf
ROOT
ATOM      1  C   UNL     1      -0.340   0.544  33.051  1.00  0.00     0.000 C 
ENDROOT
BRANCH   1   2
ATOM      2  C   UNL     1      -0.048   1.767  33.938  1.00  0.00     0.000 C 
BRANCH   2   3
ATOM      3  C   UNL     1       0.172   1.398  35.412  1.00  0.00     0.000 C 
BRANCH   3   4
ATOM      4  C   UNL     1      -0.874   2.035  36.345  1.00  0.00     0.000 C 
BRANCH   4   5
ATOM      5  C   UNL     1      -2.017   1.069  36.709  1.00  0.00     0.000 C 
BRANCH   5   6
ATOM      6  C   UNL     1      -2.016   0.568  38.168  1.00  0.00     0.000 C 
BRANCH   6   7
ATOM      7  C   UNL     1      -3.034  -0.549  38.480  1.00  0.00     0.000 C 
BRANCH   7   8
ATOM      8  C   UNL     1      -4.398  -0.390  37.787  1.00  0.00     0.000 C 
BRANCH   8   9
ATOM      9  C   UNL     1      -5.268  -1.652  37.904  1.00  0.00     0.000 C 
BRANCH   9  10
ATOM     10  C   UNL     1      -6.682  -1.445  37.344  1.00  0.00     0.000 C 
BRANCH  10  11
ATOM     11  C   UNL     1      -7.221  -0.028  37.610  1.00  0.00     0.000 C 
BRANCH  11  12
ATOM     12  C   UNL     1      -8.024   0.514  36.410  1.00  0.00     0.000 C 
BRANCH  12  13
ATOM     13  C   UNL     1      -7.320   1.655  35.653  1.00  0.00     0.006 C 
BRANCH  13  14
ATOM     14  C   UNL     1      -8.272   2.559  34.848  1.00  0.00     0.053 C 
BRANCH  14  15
ATOM     15  C   UNL     1      -8.593   1.999  33.494  1.00  0.00     0.041 C 
ATOM     16  O   UNL     1      -7.708   1.399  32.831  1.00  0.00    -0.550 OA
ATOM     17  O   UNL     1      -9.851   2.196  32.937  1.00  0.00    -0.550 OA
ENDBRANCH  14  15
ENDBRANCH  13  14
ENDBRANCH  12  13
ENDBRANCH  11  12
ENDBRANCH  10  11
ENDBRANCH   9  10
ENDBRANCH   8   9
ENDBRANCH   7   8
ENDBRANCH   6   7
ENDBRANCH   5   6
ENDBRANCH   4   5
ENDBRANCH   3   4
ENDBRANCH   2   3
ENDBRANCH   1   2
BRANCH   1  18
ATOM     18  C   UNL     1      -1.839   0.201  33.008  1.00  0.00     0.000 C 
BRANCH  18  19
ATOM     19  C   UNL     1      -2.721   1.435  32.769  1.00  0.00     0.000 C 
BRANCH  19  20
ATOM     20  C   UNL     1      -4.139   1.202  33.306  1.00  0.00     0.000 C 
BRANCH  20  21
ATOM     21  C   UNL     1      -4.231  -0.017  34.237  1.00  0.00     0.000 C 
BRANCH  21  22
ATOM     22  C   UNL     1      -5.433  -0.936  33.934  1.00  0.00     0.000 C 
BRANCH  22  23
ATOM     23  C   UNL     1      -5.145  -2.408  34.279  1.00  0.00     0.000 C 
BRANCH  23  24
ATOM     24  C   UNL     1      -3.635  -2.683  34.447  1.00  0.00    -0.000 C 
BRANCH  24  25
ATOM     25  C   UNL     1      -3.310  -3.733  35.526  1.00  0.00    -0.000 C 
BRANCH  25  26
ATOM     26  C   UNL     1      -2.067  -3.380  36.356  1.00  0.00    -0.000 C 
BRANCH  26  27
ATOM     27  C   UNL     1      -1.206  -2.325  35.643  1.00  0.00    -0.000 C 
BRANCH  27  28
ATOM     28  C   UNL     1       0.175  -2.144  36.309  1.00  0.00    -0.000 C 
BRANCH  28  29
ATOM     29  C   UNL     1       1.331  -2.796  35.530  1.00  0.00    -0.000 C 
BRANCH  29  30
ATOM     30  C   UNL     1       2.287  -1.769  34.900  1.00  0.00    -0.000 C 
BRANCH  30  31
ATOM     31  C   UNL     1       3.003  -0.906  35.951  1.00  0.00    -0.003 C 
ATOM     32  C   UNL     1       4.449  -1.344  36.190  1.00  0.00     0.004 C 
ENDBRANCH  30  31
ENDBRANCH  29  30
ENDBRANCH  28  29
ENDBRANCH  27  28
ENDBRANCH  26  27
ENDBRANCH  25  26
ENDBRANCH  24  25
ENDBRANCH  23  24
ENDBRANCH  22  23
ENDBRANCH  21  22
ENDBRANCH  20  21
ENDBRANCH  19  20
ENDBRANCH  18  19
ENDBRANCH   1  18
TORSDOF 28
ENDMDL
