MODEL 1
REMARK VINA RESULT:    -6.747      0.000      0.000
REMARK INTER + INTRA:          -8.215
REMARK INTER:                  -7.930
REMARK INTRA:                  -0.285
REMARK UNBOUND:                -0.285
REMARK SMILES O=c1cc(-c2ccc(O)c(O)c2)oc2cc(O)cc(O)c12
REMARK SMILES IDX 4 1 3 2 2 3 1 4 21 5 19 6 18 7 16 8 15 9 14 10 13 11 5 12
REMARK SMILES IDX 6 13 7 14 8 15 12 16 10 17 9 18 11 20 20 22 17 24
REMARK H PARENT 9 19 11 21 20 23 17 25
REMARK Flexibility Score: inf
ROOT
ATOM      1  C   UNL     1       3.720   5.962  -0.391  1.00  0.00     0.138 A 
ATOM      2  C   UNL     1       3.577   4.634  -0.823  1.00  0.00     0.100 A 
ATOM      3  C   UNL     1       4.507   4.097  -1.715  1.00  0.00     0.197 A 
ATOM      4  O   UNL     1       4.371   2.904  -2.096  1.00  0.00    -0.289 OA
ATOM      5  C   UNL     1       5.579   4.893  -2.164  1.00  0.00     0.107 A 
ATOM      6  C   UNL     1       6.564   4.428  -3.066  1.00  0.00     0.134 A 
ATOM      7  C   UNL     1       7.604   5.283  -3.462  1.00  0.00     0.093 A 
ATOM      8  C   UNL     1       7.677   6.590  -2.973  1.00  0.00     0.123 A 
ATOM      9  C   UNL     1       6.705   7.056  -2.080  1.00  0.00     0.094 A 
ATOM     10  C   UNL     1       5.661   6.220  -1.675  1.00  0.00     0.146 A 
ATOM     11  O   UNL     1       4.749   6.686  -0.827  1.00  0.00    -0.456 OA
ENDROOT
BRANCH   1  12
ATOM     12  C   UNL     1       2.761   6.585   0.556  1.00  0.00     0.021 A 
ATOM     13  C   UNL     1       2.453   7.951   0.429  1.00  0.00     0.016 A 
ATOM     14  C   UNL     1       1.548   8.560   1.303  1.00  0.00     0.051 A 
ATOM     15  C   UNL     1       0.930   7.812   2.312  1.00  0.00     0.157 A 
ATOM     16  C   UNL     1       2.124   5.837   1.565  1.00  0.00     0.062 A 
ATOM     17  C   UNL     1       1.215   6.448   2.442  1.00  0.00     0.158 A 
BRANCH  15  18
ATOM     18  O   UNL     1       0.028   8.417   3.187  1.00  0.00    -0.504 OA
ATOM     19  H   UNL     1       0.110   9.393   3.441  1.00  0.00     0.293 HD
ENDBRANCH  15  18
BRANCH  17  20
ATOM     20  O   UNL     1       0.588   5.704   3.439  1.00  0.00    -0.504 OA
ATOM     21  H   UNL     1      -0.018   6.140   4.124  1.00  0.00     0.293 HD
ENDBRANCH  17  20
ENDBRANCH   1  12
BRANCH   6  22
ATOM     22  O   UNL     1       6.518   3.128  -3.571  1.00  0.00    -0.507 OA
ATOM     23  H   UNL     1       6.656   2.320  -2.976  1.00  0.00     0.293 HD
ENDBRANCH   6  22
BRANCH   8  24
ATOM     24  O   UNL     1       8.720   7.419  -3.382  1.00  0.00    -0.508 OA
ATOM     25  H   UNL     1       9.055   7.418  -4.338  1.00  0.00     0.293 HD
ENDBRANCH   8  24
TORSDOF 5
ENDMDL
MODEL 2
REMARK VINA RESULT:    -6.366      1.396      2.948
REMARK INTER + INTRA:          -7.767
REMARK INTER:                  -7.495
REMARK INTRA:                  -0.273
REMARK UNBOUND:                -0.285
REMARK SMILES O=c1cc(-c2ccc(O)c(O)c2)oc2cc(O)cc(O)c12
REMARK SMILES IDX 4 1 3 2 2 3 1 4 21 5 19 6 18 7 16 8 15 9 14 10 13 11 5 12
REMARK SMILES IDX 6 13 7 14 8 15 12 16 10 17 9 18 11 20 20 22 17 24
REMARK H PARENT 9 19 11 21 20 23 17 25
REMARK Flexibility Score: inf
ROOT
ATOM      1  C   UNL     1       3.756   5.941  -0.685  1.00  0.00     0.138 A 
ATOM      2  C   UNL     1       4.314   7.226  -0.764  1.00  0.00     0.100 A 
ATOM      3  C   UNL     1       5.504   7.416  -1.468  1.00  0.00     0.197 A 
ATOM      4  O   UNL     1       5.997   8.574  -1.535  1.00  0.00    -0.289 OA
ATOM      5  C   UNL     1       6.124   6.317  -2.095  1.00  0.00     0.107 A 
ATOM      6  C   UNL     1       7.330   6.422  -2.828  1.00  0.00     0.134 A 
ATOM      7  C   UNL     1       7.882   5.280  -3.426  1.00  0.00     0.093 A 
ATOM      8  C   UNL     1       7.251   4.038  -3.307  1.00  0.00     0.123 A 
ATOM      9  C   UNL     1       6.059   3.928  -2.584  1.00  0.00     0.094 A 
ATOM     10  C   UNL     1       5.494   5.054  -1.979  1.00  0.00     0.146 A 
ATOM     11  O   UNL     1       4.361   4.924  -1.296  1.00  0.00    -0.456 OA
ENDROOT
BRANCH   1  12
ATOM     12  C   UNL     1       2.492   5.679   0.050  1.00  0.00     0.021 A 
ATOM     13  C   UNL     1       1.441   5.009  -0.599  1.00  0.00     0.016 A 
ATOM     14  C   UNL     1       0.244   4.743   0.073  1.00  0.00     0.051 A 
ATOM     15  C   UNL     1       0.082   5.135   1.406  1.00  0.00     0.157 A 
ATOM     16  C   UNL     1       2.326   6.058   1.397  1.00  0.00     0.062 A 
ATOM     17  C   UNL     1       1.126   5.791   2.071  1.00  0.00     0.158 A 
BRANCH  15  18
ATOM     18  O   UNL     1      -1.111   4.874   2.079  1.00  0.00    -0.504 OA
ATOM     19  H   UNL     1      -1.992   5.262   1.765  1.00  0.00     0.293 HD
ENDBRANCH  15  18
BRANCH  17  20
ATOM     20  O   UNL     1       0.965   6.169   3.402  1.00  0.00    -0.504 OA
ATOM     21  H   UNL     1       0.274   6.857   3.679  1.00  0.00     0.293 HD
ENDBRANCH  17  20
ENDBRANCH   1  12
BRANCH   6  22
ATOM     22  O   UNL     1       7.982   7.648  -2.964  1.00  0.00    -0.507 OA
ATOM     23  H   UNL     1       8.426   7.921  -3.833  1.00  0.00     0.293 HD
ENDBRANCH   6  22
BRANCH   8  24
ATOM     24  O   UNL     1       7.820   2.918  -3.911  1.00  0.00    -0.508 OA
ATOM     25  H   UNL     1       8.782   2.652  -3.736  1.00  0.00     0.293 HD
ENDBRANCH   8  24
TORSDOF 5
ENDMDL
MODEL 3
REMARK VINA RESULT:    -5.847      1.683      7.372
REMARK INTER + INTRA:          -7.157
REMARK INTER:                  -6.862
REMARK INTRA:                  -0.295
REMARK UNBOUND:                -0.285
REMARK SMILES O=c1cc(-c2ccc(O)c(O)c2)oc2cc(O)cc(O)c12
REMARK SMILES IDX 4 1 3 2 2 3 1 4 21 5 19 6 18 7 16 8 15 9 14 10 13 11 5 12
REMARK SMILES IDX 6 13 7 14 8 15 12 16 10 17 9 18 11 20 20 22 17 24
REMARK H PARENT 9 19 11 21 20 23 17 25
REMARK Flexibility Score: inf
ROOT
ATOM      1  C   UNL     1       5.251   5.968  -0.929  1.00  0.00     0.138 A 
ATOM      2  C   UNL     1       4.944   7.277  -1.331  1.00  0.00     0.100 A 
ATOM      3  C   UNL     1       3.839   7.926  -0.777  1.00  0.00     0.197 A 
ATOM      4  O   UNL     1       3.573   9.102  -1.143  1.00  0.00    -0.289 OA
ATOM      5  C   UNL     1       3.051   7.259   0.182  1.00  0.00     0.107 A 
ATOM      6  C   UNL     1       1.917   7.843   0.793  1.00  0.00     0.134 A 
ATOM      7  C   UNL     1       1.186   7.114   1.744  1.00  0.00     0.093 A 
ATOM      8  C   UNL     1       1.570   5.817   2.095  1.00  0.00     0.123 A 
ATOM      9  C   UNL     1       2.691   5.235   1.495  1.00  0.00     0.094 A 
ATOM     10  C   UNL     1       3.431   5.944   0.545  1.00  0.00     0.146 A 
ATOM     11  O   UNL     1       4.492   5.368  -0.013  1.00  0.00    -0.456 OA
ENDROOT
BRANCH   1  12
ATOM     12  C   UNL     1       6.413   5.229  -1.484  1.00  0.00     0.021 A 
ATOM     13  C   UNL     1       6.525   3.846  -1.260  1.00  0.00     0.016 A 
ATOM     14  C   UNL     1       7.605   3.127  -1.778  1.00  0.00     0.051 A 
ATOM     15  C   UNL     1       8.586   3.776  -2.537  1.00  0.00     0.157 A 
ATOM     16  C   UNL     1       7.398   5.873  -2.260  1.00  0.00     0.062 A 
ATOM     17  C   UNL     1       8.481   5.150  -2.781  1.00  0.00     0.158 A 
BRANCH  15  18
ATOM     18  O   UNL     1       9.666   3.061  -3.054  1.00  0.00    -0.504 OA
ATOM     19  H   UNL     1      10.618   3.267  -2.778  1.00  0.00     0.293 HD
ENDBRANCH  15  18
BRANCH  17  20
ATOM     20  O   UNL     1       9.453   5.790  -3.547  1.00  0.00    -0.504 OA
ATOM     21  H   UNL     1       9.619   6.787  -3.469  1.00  0.00     0.293 HD
ENDBRANCH  17  20
ENDBRANCH   1  12
BRANCH   6  22
ATOM     22  O   UNL     1       1.509   9.137   0.464  1.00  0.00    -0.507 OA
ATOM     23  H   UNL     1       1.006   9.721   1.121  1.00  0.00     0.293 HD
ENDBRANCH   6  22
BRANCH   8  24
ATOM     24  O   UNL     1       0.828   5.114   3.043  1.00  0.00    -0.508 OA
ATOM     25  H   UNL     1      -0.151   5.318   3.207  1.00  0.00     0.293 HD
ENDBRANCH   8  24
TORSDOF 5
ENDMDL
MODEL 4
REMARK VINA RESULT:    -5.843      1.656      6.956
REMARK INTER + INTRA:          -7.153
REMARK INTER:                  -6.847
REMARK INTRA:                  -0.306
REMARK UNBOUND:                -0.285
REMARK SMILES O=c1cc(-c2ccc(O)c(O)c2)oc2cc(O)cc(O)c12
REMARK SMILES IDX 4 1 3 2 2 3 1 4 21 5 19 6 18 7 16 8 15 9 14 10 13 11 5 12
REMARK SMILES IDX 6 13 7 14 8 15 12 16 10 17 9 18 11 20 20 22 17 24
REMARK H PARENT 9 19 11 21 20 23 17 25
REMARK Flexibility Score: inf
ROOT
ATOM      1  C   UNL     1       3.747   5.490  -0.804  1.00  0.00     0.138 A 
ATOM      2  C   UNL     1       2.599   4.734  -1.089  1.00  0.00     0.100 A 
ATOM      3  C   UNL     1       1.402   5.028  -0.432  1.00  0.00     0.197 A 
ATOM      4  O   UNL     1       0.376   4.345  -0.696  1.00  0.00    -0.289 OA
ATOM      5  C   UNL     1       1.363   6.080   0.503  1.00  0.00     0.107 A 
ATOM      6  C   UNL     1       0.194   6.443   1.213  1.00  0.00     0.134 A 
ATOM      7  C   UNL     1       0.236   7.507   2.125  1.00  0.00     0.093 A 
ATOM      8  C   UNL     1       1.422   8.214   2.340  1.00  0.00     0.123 A 
ATOM      9  C   UNL     1       2.581   7.861   1.642  1.00  0.00     0.094 A 
ATOM     10  C   UNL     1       2.560   6.802   0.729  1.00  0.00     0.146 A 
ATOM     11  O   UNL     1       3.675   6.484   0.079  1.00  0.00    -0.456 OA
ENDROOT
BRANCH   1  12
ATOM     12  C   UNL     1       5.046   5.223  -1.472  1.00  0.00     0.021 A 
ATOM     13  C   UNL     1       5.351   3.917  -1.895  1.00  0.00     0.016 A 
ATOM     14  C   UNL     1       6.563   3.641  -2.533  1.00  0.00     0.051 A 
ATOM     15  C   UNL     1       7.486   4.667  -2.769  1.00  0.00     0.157 A 
ATOM     16  C   UNL     1       5.974   6.252  -1.725  1.00  0.00     0.062 A 
ATOM     17  C   UNL     1       7.190   5.976  -2.367  1.00  0.00     0.158 A 
BRANCH  15  18
ATOM     18  O   UNL     1       8.697   4.395  -3.404  1.00  0.00    -0.504 OA
ATOM     19  H   UNL     1       8.817   3.575  -3.986  1.00  0.00     0.293 HD
ENDBRANCH  15  18
BRANCH  17  20
ATOM     20  O   UNL     1       8.106   6.996  -2.614  1.00  0.00    -0.504 OA
ATOM     21  H   UNL     1       7.917   7.727  -3.289  1.00  0.00     0.293 HD
ENDBRANCH  17  20
ENDBRANCH   1  12
BRANCH   6  22
ATOM     22  O   UNL     1      -1.005   5.756   1.019  1.00  0.00    -0.507 OA
ATOM     23  H   UNL     1      -1.042   4.881   0.508  1.00  0.00     0.293 HD
ENDBRANCH   6  22
BRANCH   8  24
ATOM     24  O   UNL     1       1.438   9.268   3.252  1.00  0.00    -0.508 OA
ATOM     25  H   UNL     1       2.180   9.368   3.934  1.00  0.00     0.293 HD
ENDBRANCH   8  24
TORSDOF 5
ENDMDL
MODEL 5
REMARK VINA RESULT:    -5.552      2.196      3.396
REMARK INTER + INTRA:          -6.811
REMARK INTER:                  -6.535
REMARK INTRA:                  -0.276
REMARK UNBOUND:                -0.285
REMARK SMILES O=c1cc(-c2ccc(O)c(O)c2)oc2cc(O)cc(O)c12
REMARK SMILES IDX 4 1 3 2 2 3 1 4 21 5 19 6 18 7 16 8 15 9 14 10 13 11 5 12
REMARK SMILES IDX 6 13 7 14 8 15 12 16 10 17 9 18 11 20 20 22 17 24
REMARK H PARENT 9 19 11 21 20 23 17 25
REMARK Flexibility Score: inf
ROOT
ATOM      1  C   UNL     1       6.503   5.666  -2.224  1.00  0.00     0.138 A 
ATOM      2  C   UNL     1       6.276   4.491  -2.958  1.00  0.00     0.100 A 
ATOM      3  C   UNL     1       7.310   3.948  -3.721  1.00  0.00     0.197 A 
ATOM      4  O   UNL     1       7.098   2.892  -4.376  1.00  0.00    -0.289 OA
ATOM      5  C   UNL     1       8.568   4.582  -3.740  1.00  0.00     0.107 A 
ATOM      6  C   UNL     1       9.669   4.099  -4.485  1.00  0.00     0.134 A 
ATOM      7  C   UNL     1      10.891   4.787  -4.448  1.00  0.00     0.093 A 
ATOM      8  C   UNL     1      11.032   5.945  -3.679  1.00  0.00     0.123 A 
ATOM      9  C   UNL     1       9.948   6.428  -2.939  1.00  0.00     0.094 A 
ATOM     10  C   UNL     1       8.722   5.757  -2.965  1.00  0.00     0.146 A 
ATOM     11  O   UNL     1       7.705   6.237  -2.255  1.00  0.00    -0.456 OA
ENDROOT
BRANCH   1  12
ATOM     12  C   UNL     1       5.440   6.289  -1.394  1.00  0.00     0.021 A 
ATOM     13  C   UNL     1       5.197   7.669  -1.505  1.00  0.00     0.016 A 
ATOM     14  C   UNL     1       4.197   8.278  -0.741  1.00  0.00     0.051 A 
ATOM     15  C   UNL     1       3.418   7.516   0.137  1.00  0.00     0.157 A 
ATOM     16  C   UNL     1       4.642   5.527  -0.518  1.00  0.00     0.062 A 
ATOM     17  C   UNL     1       3.638   6.138   0.247  1.00  0.00     0.158 A 
BRANCH  15  18
ATOM     18  O   UNL     1       2.420   8.121   0.902  1.00  0.00    -0.504 OA
ATOM     19  H   UNL     1       2.633   8.862   1.559  1.00  0.00     0.293 HD
ENDBRANCH  15  18
BRANCH  17  20
ATOM     20  O   UNL     1       2.852   5.382   1.114  1.00  0.00    -0.504 OA
ATOM     21  H   UNL     1       2.401   4.526   0.812  1.00  0.00     0.293 HD
ENDBRANCH  17  20
ENDBRANCH   1  12
BRANCH   6  22
ATOM     22  O   UNL     1       9.558   2.944  -5.262  1.00  0.00    -0.507 OA
ATOM     23  H   UNL     1      10.047   2.847  -6.144  1.00  0.00     0.293 HD
ENDBRANCH   6  22
BRANCH   8  24
ATOM     24  O   UNL     1      12.257   6.610  -3.658  1.00  0.00    -0.508 OA
ATOM     25  H   UNL     1      12.325   7.603  -3.850  1.00  0.00     0.293 HD
ENDBRANCH   8  24
TORSDOF 5
ENDMDL
MODEL 6
REMARK VINA RESULT:    -5.527      2.870      5.219
REMARK INTER + INTRA:          -6.781
REMARK INTER:                  -6.510
REMARK INTRA:                  -0.271
REMARK UNBOUND:                -0.285
REMARK SMILES O=c1cc(-c2ccc(O)c(O)c2)oc2cc(O)cc(O)c12
REMARK SMILES IDX 4 1 3 2 2 3 1 4 21 5 19 6 18 7 16 8 15 9 14 10 13 11 5 12
REMARK SMILES IDX 6 13 7 14 8 15 12 16 10 17 9 18 11 20 20 22 17 24
REMARK H PARENT 9 19 11 21 20 23 17 25
REMARK Flexibility Score: inf
ROOT
ATOM      1  C   UNL     1       7.628   5.645  -2.403  1.00  0.00     0.138 A 
ATOM      2  C   UNL     1       7.939   5.800  -3.763  1.00  0.00     0.100 A 
ATOM      3  C   UNL     1       9.266   5.998  -4.146  1.00  0.00     0.197 A 
ATOM      4  O   UNL     1       9.536   6.135  -5.370  1.00  0.00    -0.289 OA
ATOM      5  C   UNL     1      10.275   6.034  -3.164  1.00  0.00     0.107 A 
ATOM      6  C   UNL     1      11.644   6.230  -3.465  1.00  0.00     0.134 A 
ATOM      7  C   UNL     1      12.589   6.248  -2.429  1.00  0.00     0.093 A 
ATOM      8  C   UNL     1      12.192   6.074  -1.100  1.00  0.00     0.123 A 
ATOM      9  C   UNL     1      10.841   5.880  -0.796  1.00  0.00     0.094 A 
ATOM     10  C   UNL     1       9.884   5.859  -1.814  1.00  0.00     0.146 A 
ATOM     11  O   UNL     1       8.605   5.675  -1.499  1.00  0.00    -0.456 OA
ENDROOT
BRANCH   1  12
ATOM     12  C   UNL     1       6.234   5.431  -1.937  1.00  0.00     0.021 A 
ATOM     13  C   UNL     1       5.576   4.230  -2.256  1.00  0.00     0.016 A 
ATOM     14  C   UNL     1       4.266   4.001  -1.823  1.00  0.00     0.051 A 
ATOM     15  C   UNL     1       3.598   4.963  -1.058  1.00  0.00     0.157 A 
ATOM     16  C   UNL     1       5.559   6.389  -1.155  1.00  0.00     0.062 A 
ATOM     17  C   UNL     1       4.246   6.158  -0.720  1.00  0.00     0.158 A 
BRANCH  15  18
ATOM     18  O   UNL     1       2.291   4.739  -0.626  1.00  0.00    -0.504 OA
ATOM     19  H   UNL     1       1.494   5.083  -1.147  1.00  0.00     0.293 HD
ENDBRANCH  15  18
BRANCH  17  20
ATOM     20  O   UNL     1       3.581   7.108   0.052  1.00  0.00    -0.504 OA
ATOM     21  H   UNL     1       4.086   7.786   0.611  1.00  0.00     0.293 HD
ENDBRANCH  17  20
ENDBRANCH   1  12
BRANCH   6  22
ATOM     22  O   UNL     1      12.070   6.406  -4.783  1.00  0.00    -0.507 OA
ATOM     23  H   UNL     1      12.209   5.621  -5.407  1.00  0.00     0.293 HD
ENDBRANCH   6  22
BRANCH   8  24
ATOM     24  O   UNL     1      13.151   6.096  -0.089  1.00  0.00    -0.508 OA
ATOM     25  H   UNL     1      13.123   6.786   0.653  1.00  0.00     0.293 HD
ENDBRANCH   8  24
TORSDOF 5
ENDMDL
MODEL 7
REMARK VINA RESULT:    -5.526      1.803      2.205
REMARK INTER + INTRA:          -6.781
REMARK INTER:                  -6.519
REMARK INTRA:                  -0.262
REMARK UNBOUND:                -0.285
REMARK SMILES O=c1cc(-c2ccc(O)c(O)c2)oc2cc(O)cc(O)c12
REMARK SMILES IDX 4 1 3 2 2 3 1 4 21 5 19 6 18 7 16 8 15 9 14 10 13 11 5 12
REMARK SMILES IDX 6 13 7 14 8 15 12 16 10 17 9 18 11 20 20 22 17 24
REMARK H PARENT 9 19 11 21 20 23 17 25
REMARK Flexibility Score: inf
ROOT
ATOM      1  C   UNL     1       4.407   4.986  -0.387  1.00  0.00     0.138 A 
ATOM      2  C   UNL     1       5.219   3.929   0.055  1.00  0.00     0.100 A 
ATOM      3  C   UNL     1       6.529   3.826  -0.416  1.00  0.00     0.197 A 
ATOM      4  O   UNL     1       7.251   2.875  -0.012  1.00  0.00    -0.289 OA
ATOM      5  C   UNL     1       7.019   4.786  -1.323  1.00  0.00     0.107 A 
ATOM      6  C   UNL     1       8.332   4.756  -1.848  1.00  0.00     0.134 A 
ATOM      7  C   UNL     1       8.746   5.753  -2.744  1.00  0.00     0.093 A 
ATOM      8  C   UNL     1       7.874   6.777  -3.122  1.00  0.00     0.123 A 
ATOM      9  C   UNL     1       6.575   6.813  -2.606  1.00  0.00     0.094 A 
ATOM     10  C   UNL     1       6.143   5.828  -1.713  1.00  0.00     0.146 A 
ATOM     11  O   UNL     1       4.903   5.882  -1.237  1.00  0.00    -0.456 OA
ENDROOT
BRANCH   1  12
ATOM     12  C   UNL     1       3.006   5.146   0.081  1.00  0.00     0.021 A 
ATOM     13  C   UNL     1       1.949   4.740  -0.752  1.00  0.00     0.016 A 
ATOM     14  C   UNL     1       0.622   4.872  -0.333  1.00  0.00     0.051 A 
ATOM     15  C   UNL     1       0.331   5.403   0.929  1.00  0.00     0.157 A 
ATOM     16  C   UNL     1       2.705   5.666   1.355  1.00  0.00     0.062 A 
ATOM     17  C   UNL     1       1.374   5.798   1.776  1.00  0.00     0.158 A 
BRANCH  15  18
ATOM     18  O   UNL     1      -0.991   5.538   1.350  1.00  0.00    -0.504 OA
ATOM     19  H   UNL     1      -1.716   5.864   0.722  1.00  0.00     0.293 HD
ENDBRANCH  15  18
BRANCH  17  20
ATOM     20  O   UNL     1       1.080   6.315   3.036  1.00  0.00    -0.504 OA
ATOM     21  H   UNL     1       1.795   6.420   3.746  1.00  0.00     0.293 HD
ENDBRANCH  17  20
ENDBRANCH   1  12
BRANCH   6  22
ATOM     22  O   UNL     1       9.226   3.746  -1.489  1.00  0.00    -0.507 OA
ATOM     23  H   UNL     1       9.559   3.065  -2.162  1.00  0.00     0.293 HD
ENDBRANCH   6  22
BRANCH   8  24
ATOM     24  O   UNL     1       8.310   7.756  -4.014  1.00  0.00    -0.508 OA
ATOM     25  H   UNL     1       9.167   8.274  -3.855  1.00  0.00     0.293 HD
ENDBRANCH   8  24
TORSDOF 5
ENDMDL
MODEL 8
REMARK VINA RESULT:    -5.223      1.754      7.091
REMARK INTER + INTRA:          -6.424
REMARK INTER:                  -6.144
REMARK INTRA:                  -0.279
REMARK UNBOUND:                -0.285
REMARK SMILES O=c1cc(-c2ccc(O)c(O)c2)oc2cc(O)cc(O)c12
REMARK SMILES IDX 4 1 3 2 2 3 1 4 21 5 19 6 18 7 16 8 15 9 14 10 13 11 5 12
REMARK SMILES IDX 6 13 7 14 8 15 12 16 10 17 9 18 11 20 20 22 17 24
REMARK H PARENT 9 19 11 21 20 23 17 25
REMARK Flexibility Score: inf
ROOT
ATOM      1  C   UNL     1       5.946   5.702  -1.676  1.00  0.00     0.138 A 
ATOM      2  C   UNL     1       5.818   4.597  -0.821  1.00  0.00     0.100 A 
ATOM      3  C   UNL     1       4.860   4.621   0.195  1.00  0.00     0.197 A 
ATOM      4  O   UNL     1       4.751   3.623   0.957  1.00  0.00    -0.289 OA
ATOM      5  C   UNL     1       4.033   5.752   0.343  1.00  0.00     0.107 A 
ATOM      6  C   UNL     1       3.039   5.858   1.344  1.00  0.00     0.134 A 
ATOM      7  C   UNL     1       2.252   7.017   1.423  1.00  0.00     0.093 A 
ATOM      8  C   UNL     1       2.440   8.068   0.521  1.00  0.00     0.123 A 
ATOM      9  C   UNL     1       3.421   7.968  -0.471  1.00  0.00     0.094 A 
ATOM     10  C   UNL     1       4.215   6.822  -0.565  1.00  0.00     0.146 A 
ATOM     11  O   UNL     1       5.143   6.752  -1.516  1.00  0.00    -0.456 OA
ENDROOT
BRANCH   1  12
ATOM     12  C   UNL     1       6.946   5.732  -2.773  1.00  0.00     0.021 A 
ATOM     13  C   UNL     1       7.696   6.900  -2.993  1.00  0.00     0.016 A 
ATOM     14  C   UNL     1       8.650   6.951  -4.014  1.00  0.00     0.051 A 
ATOM     15  C   UNL     1       8.875   5.833  -4.825  1.00  0.00     0.157 A 
ATOM     16  C   UNL     1       7.189   4.607  -3.585  1.00  0.00     0.062 A 
ATOM     17  C   UNL     1       8.146   4.657  -4.609  1.00  0.00     0.158 A 
BRANCH  15  18
ATOM     18  O   UNL     1       9.824   5.881  -5.846  1.00  0.00    -0.504 OA
ATOM     19  H   UNL     1      10.659   6.448  -5.766  1.00  0.00     0.293 HD
ENDBRANCH  15  18
BRANCH  17  20
ATOM     20  O   UNL     1       8.382   3.543  -5.411  1.00  0.00    -0.504 OA
ATOM     21  H   UNL     1       9.322   3.260  -5.663  1.00  0.00     0.293 HD
ENDBRANCH  17  20
ENDBRANCH   1  12
BRANCH   6  22
ATOM     22  O   UNL     1       2.828   4.825   2.259  1.00  0.00    -0.507 OA
ATOM     23  H   UNL     1       2.007   4.232   2.213  1.00  0.00     0.293 HD
ENDBRANCH   6  22
BRANCH   8  24
ATOM     24  O   UNL     1       1.645   9.208   0.620  1.00  0.00    -0.508 OA
ATOM     25  H   UNL     1       1.999  10.068   1.023  1.00  0.00     0.293 HD
ENDBRANCH   8  24
TORSDOF 5
ENDMDL
MODEL 9
REMARK VINA RESULT:    -5.104      2.377      7.738
REMARK INTER + INTRA:          -6.284
REMARK INTER:                  -6.018
REMARK INTRA:                  -0.266
REMARK UNBOUND:                -0.285
REMARK SMILES O=c1cc(-c2ccc(O)c(O)c2)oc2cc(O)cc(O)c12
REMARK SMILES IDX 4 1 3 2 2 3 1 4 21 5 19 6 18 7 16 8 15 9 14 10 13 11 5 12
REMARK SMILES IDX 6 13 7 14 8 15 12 16 10 17 9 18 11 20 20 22 17 24
REMARK H PARENT 9 19 11 21 20 23 17 25
REMARK Flexibility Score: inf
ROOT
ATOM      1  C   UNL     1       7.661   5.584  -3.181  1.00  0.00     0.138 A 
ATOM      2  C   UNL     1       7.097   4.300  -3.250  1.00  0.00     0.100 A 
ATOM      3  C   UNL     1       5.903   4.037  -2.577  1.00  0.00     0.197 A 
ATOM      4  O   UNL     1       5.404   2.882  -2.646  1.00  0.00    -0.289 OA
ATOM      5  C   UNL     1       5.277   5.064  -1.844  1.00  0.00     0.107 A 
ATOM      6  C   UNL     1       4.067   4.884  -1.135  1.00  0.00     0.134 A 
ATOM      7  C   UNL     1       3.505   5.959  -0.432  1.00  0.00     0.093 A 
ATOM      8  C   UNL     1       4.129   7.210  -0.426  1.00  0.00     0.123 A 
ATOM      9  C   UNL     1       5.325   7.395  -1.126  1.00  0.00     0.094 A 
ATOM     10  C   UNL     1       5.901   6.335  -1.832  1.00  0.00     0.146 A 
ATOM     11  O   UNL     1       7.041   6.536  -2.488  1.00  0.00    -0.456 OA
ENDROOT
BRANCH   1  12
ATOM     12  C   UNL     1       8.929   5.920  -3.877  1.00  0.00     0.021 A 
ATOM     13  C   UNL     1       8.897   6.287  -5.234  1.00  0.00     0.016 A 
ATOM     14  C   UNL     1      10.075   6.617  -5.909  1.00  0.00     0.051 A 
ATOM     15  C   UNL     1      11.303   6.594  -5.238  1.00  0.00     0.157 A 
ATOM     16  C   UNL     1      10.167   5.914  -3.205  1.00  0.00     0.062 A 
ATOM     17  C   UNL     1      11.350   6.245  -3.883  1.00  0.00     0.158 A 
BRANCH  15  18
ATOM     18  O   UNL     1      12.481   6.921  -5.909  1.00  0.00    -0.504 OA
ATOM     19  H   UNL     1      13.080   7.674  -5.593  1.00  0.00     0.293 HD
ENDBRANCH  15  18
BRANCH  17  20
ATOM     20  O   UNL     1      12.572   6.235  -3.215  1.00  0.00    -0.504 OA
ATOM     21  H   UNL     1      12.665   5.848  -2.283  1.00  0.00     0.293 HD
ENDBRANCH  17  20
ENDBRANCH   1  12
BRANCH   6  22
ATOM     22  O   UNL     1       3.420   3.646  -1.122  1.00  0.00    -0.507 OA
ATOM     23  H   UNL     1       3.087   3.228  -0.261  1.00  0.00     0.293 HD
ENDBRANCH   6  22
BRANCH   8  24
ATOM     24  O   UNL     1       3.550   8.263   0.280  1.00  0.00    -0.508 OA
ATOM     25  H   UNL     1       2.968   8.954  -0.181  1.00  0.00     0.293 HD
ENDBRANCH   8  24
TORSDOF 5
ENDMDL
