MODEL 1
REMARK VINA RESULT:    -4.160      0.000      0.000
REMARK INTER + INTRA:          -9.305
REMARK INTER:                  -7.565
REMARK INTRA:                  -1.739
REMARK UNBOUND:                -1.739
REMARK SMILES CCCCCCCCCCCCCCCC(=O)[O-]
REMARK SMILES IDX 9 1 10 2 11 3 12 4 13 5 14 6 15 7 16 8 17 9 18 10 8 11 7 12
REMARK SMILES IDX 6 13 5 14 4 15 3 16 2 17 1 18
REMARK H PARENT
REMARK Flexibility Score: inf
ROOT
ATOM      1  C   UNL     1      11.319 -17.220 -25.481  1.00  0.00     0.000 C 
ENDROOT
BRANCH   1   2
ATOM      2  C   UNL     1      11.059 -15.995 -24.590  1.00  0.00     0.000 C 
BRANCH   2   3
ATOM      3  C   UNL     1       9.771 -15.247 -24.974  1.00  0.00     0.000 C 
BRANCH   3   4
ATOM      4  C   UNL     1       9.637 -13.893 -24.260  1.00  0.00     0.000 C 
BRANCH   4   5
ATOM      5  C   UNL     1      10.687 -13.705 -23.150  1.00  0.00     0.000 C 
BRANCH   5   6
ATOM      6  C   UNL     1      10.054 -13.576 -21.755  1.00  0.00     0.006 C 
BRANCH   6   7
ATOM      7  C   UNL     1      10.212 -14.848 -20.912  1.00  0.00     0.053 C 
BRANCH   7   8
ATOM      8  C   UNL     1      10.721 -14.509 -19.547  1.00  0.00     0.041 C 
ATOM      9  O   UNL     1      10.748 -13.310 -19.162  1.00  0.00    -0.550 OA
ATOM     10  O   UNL     1      11.214 -15.508 -18.720  1.00  0.00    -0.550 OA
ENDBRANCH   7   8
ENDBRANCH   6   7
ENDBRANCH   5   6
ENDBRANCH   4   5
ENDBRANCH   3   4
ENDBRANCH   2   3
ENDBRANCH   1   2
BRANCH   1  11
ATOM     11  C   UNL     1      10.143 -17.526 -26.419  1.00  0.00     0.000 C 
BRANCH  11  12
ATOM     12  C   UNL     1       9.492 -18.869 -26.064  1.00  0.00    -0.000 C 
BRANCH  12  13
ATOM     13  C   UNL     1      10.528 -20.004 -26.079  1.00  0.00    -0.000 C 
BRANCH  13  14
ATOM     14  C   UNL     1      10.288 -21.053 -24.978  1.00  0.00    -0.000 C 
BRANCH  14  15
ATOM     15  C   UNL     1      10.469 -20.540 -23.537  1.00  0.00    -0.000 C 
BRANCH  15  16
ATOM     16  C   UNL     1       9.154 -20.516 -22.740  1.00  0.00    -0.000 C 
BRANCH  16  17
ATOM     17  C   UNL     1       9.014 -19.255 -21.873  1.00  0.00    -0.003 C 
ATOM     18  C   UNL     1       8.662 -18.012 -22.690  1.00  0.00     0.004 C 
ENDBRANCH  16  17
ENDBRANCH  15  16
ENDBRANCH  14  15
ENDBRANCH  13  14
ENDBRANCH  12  13
ENDBRANCH  11  12
ENDBRANCH   1  11
TORSDOF 14
ENDMDL
MODEL 2
REMARK VINA RESULT:    -4.128      1.207      2.016
REMARK INTER + INTRA:          -9.246
REMARK INTER:                  -7.628
REMARK INTRA:                  -1.618
REMARK UNBOUND:                -1.739
REMARK SMILES CCCCCCCCCCCCCCCC(=O)[O-]
REMARK SMILES IDX 9 1 10 2 11 3 12 4 13 5 14 6 15 7 16 8 17 9 18 10 8 11 7 12
REMARK SMILES IDX 6 13 5 14 4 15 3 16 2 17 1 18
REMARK H PARENT
REMARK Flexibility Score: inf
ROOT
ATOM      1  C   UNL     1       9.202 -16.195 -25.208  1.00  0.00     0.000 C 
ENDROOT
BRANCH   1   2
ATOM      2  C   UNL     1       8.459 -14.880 -25.488  1.00  0.00     0.000 C 
BRANCH   2   3
ATOM      3  C   UNL     1       8.489 -13.917 -24.289  1.00  0.00     0.000 C 
BRANCH   3   4
ATOM      4  C   UNL     1       9.842 -13.203 -24.138  1.00  0.00     0.000 C 
BRANCH   4   5
ATOM      5  C   UNL     1      10.270 -13.055 -22.667  1.00  0.00     0.000 C 
BRANCH   5   6
ATOM      6  C   UNL     1      10.636 -14.401 -22.021  1.00  0.00     0.006 C 
BRANCH   6   7
ATOM      7  C   UNL     1       9.820 -14.690 -20.754  1.00  0.00     0.053 C 
BRANCH   7   8
ATOM      8  C   UNL     1      10.648 -14.440 -19.533  1.00  0.00     0.041 C 
ATOM      9  O   UNL     1      11.093 -15.408 -18.861  1.00  0.00    -0.550 OA
ATOM     10  O   UNL     1      10.886 -13.140 -19.107  1.00  0.00    -0.550 OA
ENDBRANCH   7   8
ENDBRANCH   6   7
ENDBRANCH   5   6
ENDBRANCH   4   5
ENDBRANCH   3   4
ENDBRANCH   2   3
ENDBRANCH   1   2
BRANCH   1  11
ATOM     11  C   UNL     1      10.479 -16.342 -26.049  1.00  0.00     0.000 C 
BRANCH  11  12
ATOM     12  C   UNL     1      11.432 -17.370 -25.426  1.00  0.00    -0.000 C 
BRANCH  12  13
ATOM     13  C   UNL     1      11.437 -17.258 -23.894  1.00  0.00    -0.000 C 
BRANCH  13  14
ATOM     14  C   UNL     1      11.556 -18.623 -23.191  1.00  0.00    -0.000 C 
BRANCH  14  15
ATOM     15  C   UNL     1      10.830 -19.785 -23.894  1.00  0.00    -0.000 C 
BRANCH  15  16
ATOM     16  C   UNL     1       9.299 -19.660 -23.832  1.00  0.00    -0.000 C 
BRANCH  16  17
ATOM     17  C   UNL     1       8.800 -19.217 -22.448  1.00  0.00    -0.003 C 
ATOM     18  C   UNL     1       7.988 -20.301 -21.737  1.00  0.00     0.004 C 
ENDBRANCH  16  17
ENDBRANCH  15  16
ENDBRANCH  14  15
ENDBRANCH  13  14
ENDBRANCH  12  13
ENDBRANCH  11  12
ENDBRANCH   1  11
TORSDOF 14
ENDMDL
MODEL 3
REMARK VINA RESULT:    -4.090      1.361      2.251
REMARK INTER + INTRA:          -9.177
REMARK INTER:                  -7.233
REMARK INTRA:                  -1.944
REMARK UNBOUND:                -1.739
REMARK SMILES CCCCCCCCCCCCCCCC(=O)[O-]
REMARK SMILES IDX 9 1 10 2 11 3 12 4 13 5 14 6 15 7 16 8 17 9 18 10 8 11 7 12
REMARK SMILES IDX 6 13 5 14 4 15 3 16 2 17 1 18
REMARK H PARENT
REMARK Flexibility Score: inf
ROOT
ATOM      1  C   UNL     1      11.175 -16.004 -24.034  1.00  0.00     0.000 C 
ENDROOT
BRANCH   1   2
ATOM      2  C   UNL     1      10.076 -15.370 -24.901  1.00  0.00     0.000 C 
BRANCH   2   3
ATOM      3  C   UNL     1       8.803 -15.049 -24.099  1.00  0.00     0.000 C 
BRANCH   3   4
ATOM      4  C   UNL     1       8.705 -13.563 -23.715  1.00  0.00     0.000 C 
BRANCH   4   5
ATOM      5  C   UNL     1      10.036 -13.002 -23.183  1.00  0.00     0.000 C 
BRANCH   5   6
ATOM      6  C   UNL     1      10.075 -12.931 -21.648  1.00  0.00     0.006 C 
BRANCH   6   7
ATOM      7  C   UNL     1      10.220 -14.313 -20.995  1.00  0.00     0.053 C 
BRANCH   7   8
ATOM      8  C   UNL     1      10.690 -14.173 -19.582  1.00  0.00     0.041 C 
ATOM      9  O   UNL     1      10.852 -13.030 -19.078  1.00  0.00    -0.550 OA
ATOM     10  O   UNL     1      11.001 -15.303 -18.838  1.00  0.00    -0.550 OA
ENDBRANCH   7   8
ENDBRANCH   6   7
ENDBRANCH   5   6
ENDBRANCH   4   5
ENDBRANCH   3   4
ENDBRANCH   2   3
ENDBRANCH   1   2
BRANCH   1  11
ATOM     11  C   UNL     1      11.529 -17.430 -24.480  1.00  0.00     0.000 C 
BRANCH  11  12
ATOM     12  C   UNL     1      11.454 -18.409 -23.302  1.00  0.00    -0.000 C 
BRANCH  12  13
ATOM     13  C   UNL     1      10.721 -17.778 -22.108  1.00  0.00    -0.000 C 
BRANCH  13  14
ATOM     14  C   UNL     1       9.298 -18.332 -21.914  1.00  0.00    -0.000 C 
BRANCH  14  15
ATOM     15  C   UNL     1       9.053 -19.729 -22.511  1.00  0.00    -0.000 C 
BRANCH  15  16
ATOM     16  C   UNL     1       7.918 -19.748 -23.549  1.00  0.00    -0.000 C 
BRANCH  16  17
ATOM     17  C   UNL     1       7.876 -18.468 -24.398  1.00  0.00    -0.003 C 
ATOM     18  C   UNL     1       8.323 -18.701 -25.842  1.00  0.00     0.004 C 
ENDBRANCH  16  17
ENDBRANCH  15  16
ENDBRANCH  14  15
ENDBRANCH  13  14
ENDBRANCH  12  13
ENDBRANCH  11  12
ENDBRANCH   1  11
TORSDOF 14
ENDMDL
MODEL 4
REMARK VINA RESULT:    -4.046      1.196      2.641
REMARK INTER + INTRA:          -9.097
REMARK INTER:                  -6.940
REMARK INTRA:                  -2.157
REMARK UNBOUND:                -1.739
REMARK SMILES CCCCCCCCCCCCCCCC(=O)[O-]
REMARK SMILES IDX 9 1 10 2 11 3 12 4 13 5 14 6 15 7 16 8 17 9 18 10 8 11 7 12
REMARK SMILES IDX 6 13 5 14 4 15 3 16 2 17 1 18
REMARK H PARENT
REMARK Flexibility Score: inf
ROOT
ATOM      1  C   UNL     1      11.659 -16.884 -23.390  1.00  0.00     0.000 C 
ENDROOT
BRANCH   1   2
ATOM      2  C   UNL     1      11.182 -17.018 -24.846  1.00  0.00     0.000 C 
BRANCH   2   3
ATOM      3  C   UNL     1      10.078 -16.008 -25.201  1.00  0.00     0.000 C 
BRANCH   3   4
ATOM      4  C   UNL     1      10.197 -14.697 -24.407  1.00  0.00     0.000 C 
BRANCH   4   5
ATOM      5  C   UNL     1       8.968 -14.431 -23.519  1.00  0.00     0.000 C 
BRANCH   5   6
ATOM      6  C   UNL     1       9.294 -13.536 -22.313  1.00  0.00     0.006 C 
BRANCH   6   7
ATOM      7  C   UNL     1      10.521 -14.022 -21.530  1.00  0.00     0.053 C 
BRANCH   7   8
ATOM      8  C   UNL     1      10.153 -14.302 -20.107  1.00  0.00     0.041 C 
ATOM      9  O   UNL     1       9.219 -15.104 -19.840  1.00  0.00    -0.550 OA
ATOM     10  O   UNL     1      10.804 -13.637 -19.077  1.00  0.00    -0.550 OA
ENDBRANCH   7   8
ENDBRANCH   6   7
ENDBRANCH   5   6
ENDBRANCH   4   5
ENDBRANCH   3   4
ENDBRANCH   2   3
ENDBRANCH   1   2
BRANCH   1  11
ATOM     11  C   UNL     1      11.195 -18.053 -22.509  1.00  0.00     0.000 C 
BRANCH  11  12
ATOM     12  C   UNL     1       9.805 -17.780 -21.921  1.00  0.00    -0.000 C 
BRANCH  12  13
ATOM     13  C   UNL     1       8.728 -18.595 -22.654  1.00  0.00    -0.000 C 
BRANCH  13  14
ATOM     14  C   UNL     1       8.746 -20.089 -22.281  1.00  0.00    -0.000 C 
BRANCH  14  15
ATOM     15  C   UNL     1       8.920 -21.056 -23.467  1.00  0.00    -0.000 C 
BRANCH  15  16
ATOM     16  C   UNL     1      10.335 -21.017 -24.070  1.00  0.00    -0.000 C 
BRANCH  16  17
ATOM     17  C   UNL     1      10.319 -20.815 -25.593  1.00  0.00    -0.003 C 
ATOM     18  C   UNL     1       9.178 -19.909 -26.058  1.00  0.00     0.004 C 
ENDBRANCH  16  17
ENDBRANCH  15  16
ENDBRANCH  14  15
ENDBRANCH  13  14
ENDBRANCH  12  13
ENDBRANCH  11  12
ENDBRANCH   1  11
TORSDOF 14
ENDMDL
MODEL 5
REMARK VINA RESULT:    -4.028      1.260      3.007
REMARK INTER + INTRA:          -9.064
REMARK INTER:                  -7.332
REMARK INTRA:                  -1.732
REMARK UNBOUND:                -1.739
REMARK SMILES CCCCCCCCCCCCCCCC(=O)[O-]
REMARK SMILES IDX 9 1 10 2 11 3 12 4 13 5 14 6 15 7 16 8 17 9 18 10 8 11 7 12
REMARK SMILES IDX 6 13 5 14 4 15 3 16 2 17 1 18
REMARK H PARENT
REMARK Flexibility Score: inf
ROOT
ATOM      1  C   UNL     1      11.751 -18.185 -23.400  1.00  0.00     0.000 C 
ENDROOT
BRANCH   1   2
ATOM      2  C   UNL     1      11.545 -16.669 -23.553  1.00  0.00     0.000 C 
BRANCH   2   3
ATOM      3  C   UNL     1      10.276 -16.323 -24.351  1.00  0.00     0.000 C 
BRANCH   3   4
ATOM      4  C   UNL     1       9.601 -15.033 -23.857  1.00  0.00     0.000 C 
BRANCH   4   5
ATOM      5  C   UNL     1      10.593 -14.068 -23.185  1.00  0.00     0.000 C 
BRANCH   5   6
ATOM      6  C   UNL     1      10.100 -13.575 -21.814  1.00  0.00     0.006 C 
BRANCH   6   7
ATOM      7  C   UNL     1       9.936 -14.714 -20.800  1.00  0.00     0.053 C 
BRANCH   7   8
ATOM      8  C   UNL     1      10.650 -14.385 -19.527  1.00  0.00     0.041 C 
ATOM      9  O   UNL     1      10.802 -13.183 -19.179  1.00  0.00    -0.550 OA
ATOM     10  O   UNL     1      11.195 -15.400 -18.753  1.00  0.00    -0.550 OA
ENDBRANCH   7   8
ENDBRANCH   6   7
ENDBRANCH   5   6
ENDBRANCH   4   5
ENDBRANCH   3   4
ENDBRANCH   2   3
ENDBRANCH   1   2
BRANCH   1  11
ATOM     11  C   UNL     1      10.428 -18.945 -23.227  1.00  0.00     0.000 C 
BRANCH  11  12
ATOM     12  C   UNL     1      10.579 -20.414 -23.643  1.00  0.00    -0.000 C 
BRANCH  12  13
ATOM     13  C   UNL     1       9.565 -20.783 -24.737  1.00  0.00    -0.000 C 
BRANCH  13  14
ATOM     14  C   UNL     1       9.173 -19.585 -25.623  1.00  0.00    -0.000 C 
BRANCH  14  15
ATOM     15  C   UNL     1       9.850 -19.546 -27.005  1.00  0.00    -0.000 C 
BRANCH  15  16
ATOM     16  C   UNL     1      11.307 -19.057 -26.946  1.00  0.00    -0.000 C 
BRANCH  16  17
ATOM     17  C   UNL     1      11.464 -17.613 -27.447  1.00  0.00    -0.003 C 
ATOM     18  C   UNL     1      12.892 -17.294 -27.892  1.00  0.00     0.004 C 
ENDBRANCH  16  17
ENDBRANCH  15  16
ENDBRANCH  14  15
ENDBRANCH  13  14
ENDBRANCH  12  13
ENDBRANCH  11  12
ENDBRANCH   1  11
TORSDOF 14
ENDMDL
MODEL 6
REMARK VINA RESULT:    -4.002      5.715      9.487
REMARK INTER + INTRA:          -9.017
REMARK INTER:                  -8.536
REMARK INTRA:                  -0.480
REMARK UNBOUND:                -1.739
REMARK SMILES CCCCCCCCCCCCCCCC(=O)[O-]
REMARK SMILES IDX 9 1 10 2 11 3 12 4 13 5 14 6 15 7 16 8 17 9 18 10 8 11 7 12
REMARK SMILES IDX 6 13 5 14 4 15 3 16 2 17 1 18
REMARK H PARENT
REMARK Flexibility Score: inf
ROOT
ATOM      1  C   UNL     1       9.686 -10.112 -25.120  1.00  0.00     0.000 C 
ENDROOT
BRANCH   1   2
ATOM      2  C   UNL     1       8.756 -11.297 -25.424  1.00  0.00     0.000 C 
BRANCH   2   3
ATOM      3  C   UNL     1       8.725 -12.332 -24.286  1.00  0.00     0.000 C 
BRANCH   3   4
ATOM      4  C   UNL     1      10.126 -12.648 -23.736  1.00  0.00     0.000 C 
BRANCH   4   5
ATOM      5  C   UNL     1      10.139 -12.792 -22.204  1.00  0.00     0.000 C 
BRANCH   5   6
ATOM      6  C   UNL     1       9.720 -14.196 -21.740  1.00  0.00     0.006 C 
BRANCH   6   7
ATOM      7  C   UNL     1      10.859 -14.954 -21.045  1.00  0.00     0.053 C 
BRANCH   7   8
ATOM      8  C   UNL     1      10.900 -14.611 -19.589  1.00  0.00     0.041 C 
ATOM      9  O   UNL     1      11.066 -15.517 -18.730  1.00  0.00    -0.550 OA
ATOM     10  O   UNL     1      10.702 -13.301 -19.177  1.00  0.00    -0.550 OA
ENDBRANCH   7   8
ENDBRANCH   6   7
ENDBRANCH   5   6
ENDBRANCH   4   5
ENDBRANCH   3   4
ENDBRANCH   2   3
ENDBRANCH   1   2
BRANCH   1  11
ATOM     11  C   UNL     1       8.914  -8.838 -24.747  1.00  0.00     0.000 C 
BRANCH  11  12
ATOM     12  C   UNL     1       8.060  -8.349 -25.923  1.00  0.00    -0.000 C 
BRANCH  12  13
ATOM     13  C   UNL     1       8.916  -7.583 -26.944  1.00  0.00    -0.000 C 
BRANCH  13  14
ATOM     14  C   UNL     1       8.263  -6.270 -27.413  1.00  0.00    -0.000 C 
BRANCH  14  15
ATOM     15  C   UNL     1       8.215  -6.073 -28.939  1.00  0.00    -0.000 C 
BRANCH  15  16
ATOM     16  C   UNL     1       8.877  -7.225 -29.714  1.00  0.00    -0.000 C 
BRANCH  16  17
ATOM     17  C   UNL     1       8.556  -7.184 -31.216  1.00  0.00    -0.003 C 
ATOM     18  C   UNL     1       8.958  -5.862 -31.871  1.00  0.00     0.004 C 
ENDBRANCH  16  17
ENDBRANCH  15  16
ENDBRANCH  14  15
ENDBRANCH  13  14
ENDBRANCH  12  13
ENDBRANCH  11  12
ENDBRANCH   1  11
TORSDOF 14
ENDMDL
MODEL 7
REMARK VINA RESULT:    -3.938      3.253      4.627
REMARK INTER + INTRA:          -8.900
REMARK INTER:                  -6.873
REMARK INTRA:                  -2.028
REMARK UNBOUND:                -1.739
REMARK SMILES CCCCCCCCCCCCCCCC(=O)[O-]
REMARK SMILES IDX 9 1 10 2 11 3 12 4 13 5 14 6 15 7 16 8 17 9 18 10 8 11 7 12
REMARK SMILES IDX 6 13 5 14 4 15 3 16 2 17 1 18
REMARK H PARENT
REMARK Flexibility Score: inf
ROOT
ATOM      1  C   UNL     1       9.676 -16.575 -26.532  1.00  0.00     0.000 C 
ENDROOT
BRANCH   1   2
ATOM      2  C   UNL     1       8.357 -16.035 -25.956  1.00  0.00     0.000 C 
BRANCH   2   3
ATOM      3  C   UNL     1       8.332 -14.499 -25.877  1.00  0.00     0.000 C 
BRANCH   3   4
ATOM      4  C   UNL     1       8.566 -13.976 -24.450  1.00  0.00     0.000 C 
BRANCH   4   5
ATOM      5  C   UNL     1      10.036 -13.601 -24.193  1.00  0.00     0.000 C 
BRANCH   5   6
ATOM      6  C   UNL     1      10.206 -12.131 -23.774  1.00  0.00     0.006 C 
BRANCH   6   7
ATOM      7  C   UNL     1       8.980 -11.273 -24.114  1.00  0.00     0.053 C 
BRANCH   7   8
ATOM      8  C   UNL     1       9.406  -9.975 -24.723  1.00  0.00     0.041 C 
ATOM      9  O   UNL     1       9.948  -9.956 -25.860  1.00  0.00    -0.550 OA
ATOM     10  O   UNL     1       9.254  -8.791 -24.014  1.00  0.00    -0.550 OA
ENDBRANCH   7   8
ENDBRANCH   6   7
ENDBRANCH   5   6
ENDBRANCH   4   5
ENDBRANCH   3   4
ENDBRANCH   2   3
ENDBRANCH   1   2
BRANCH   1  11
ATOM     11  C   UNL     1      10.379 -17.551 -25.578  1.00  0.00     0.000 C 
BRANCH  11  12
ATOM     12  C   UNL     1      11.545 -16.866 -24.852  1.00  0.00    -0.000 C 
BRANCH  12  13
ATOM     13  C   UNL     1      11.425 -17.045 -23.330  1.00  0.00    -0.000 C 
BRANCH  13  14
ATOM     14  C   UNL     1       9.966 -17.070 -22.840  1.00  0.00    -0.000 C 
BRANCH  14  15
ATOM     15  C   UNL     1       9.668 -16.170 -21.627  1.00  0.00    -0.000 C 
BRANCH  15  16
ATOM     16  C   UNL     1      10.863 -16.042 -20.667  1.00  0.00    -0.000 C 
BRANCH  16  17
ATOM     17  C   UNL     1      10.751 -14.816 -19.748  1.00  0.00    -0.003 C 
ATOM     18  C   UNL     1      10.042 -13.638 -20.418  1.00  0.00     0.004 C 
ENDBRANCH  16  17
ENDBRANCH  15  16
ENDBRANCH  14  15
ENDBRANCH  13  14
ENDBRANCH  12  13
ENDBRANCH  11  12
ENDBRANCH   1  11
TORSDOF 14
ENDMDL
MODEL 8
REMARK VINA RESULT:    -3.929      1.294      2.592
REMARK INTER + INTRA:          -8.885
REMARK INTER:                  -6.957
REMARK INTRA:                  -1.928
REMARK UNBOUND:                -1.739
REMARK SMILES CCCCCCCCCCCCCCCC(=O)[O-]
REMARK SMILES IDX 9 1 10 2 11 3 12 4 13 5 14 6 15 7 16 8 17 9 18 10 8 11 7 12
REMARK SMILES IDX 6 13 5 14 4 15 3 16 2 17 1 18
REMARK H PARENT
REMARK Flexibility Score: inf
ROOT
ATOM      1  C   UNL     1       8.748 -16.608 -24.542  1.00  0.00     0.000 C 
ENDROOT
BRANCH   1   2
ATOM      2  C   UNL     1       8.144 -15.236 -24.883  1.00  0.00     0.000 C 
BRANCH   2   3
ATOM      3  C   UNL     1       9.086 -14.072 -24.533  1.00  0.00     0.000 C 
BRANCH   3   4
ATOM      4  C   UNL     1      10.503 -14.546 -24.172  1.00  0.00     0.000 C 
BRANCH   4   5
ATOM      5  C   UNL     1      10.973 -14.013 -22.807  1.00  0.00     0.000 C 
BRANCH   5   6
ATOM      6  C   UNL     1       9.835 -13.366 -22.002  1.00  0.00     0.006 C 
BRANCH   6   7
ATOM      7  C   UNL     1      10.156 -13.257 -20.505  1.00  0.00     0.053 C 
BRANCH   7   8
ATOM      8  C   UNL     1      10.253 -14.619 -19.893  1.00  0.00     0.041 C 
ATOM      9  O   UNL     1      11.186 -14.886 -19.089  1.00  0.00    -0.550 OA
ATOM     10  O   UNL     1       9.347 -15.607 -20.249  1.00  0.00    -0.550 OA
ENDBRANCH   7   8
ENDBRANCH   6   7
ENDBRANCH   5   6
ENDBRANCH   4   5
ENDBRANCH   3   4
ENDBRANCH   2   3
ENDBRANCH   1   2
BRANCH   1  11
ATOM     11  C   UNL     1       8.240 -17.160 -23.203  1.00  0.00     0.000 C 
BRANCH  11  12
ATOM     12  C   UNL     1       9.223 -18.185 -22.622  1.00  0.00    -0.000 C 
BRANCH  12  13
ATOM     13  C   UNL     1      10.661 -17.881 -23.069  1.00  0.00    -0.000 C 
BRANCH  13  14
ATOM     14  C   UNL     1      11.387 -19.114 -23.639  1.00  0.00    -0.000 C 
BRANCH  14  15
ATOM     15  C   UNL     1      10.592 -20.430 -23.571  1.00  0.00    -0.000 C 
BRANCH  15  16
ATOM     16  C   UNL     1      10.463 -21.125 -24.937  1.00  0.00    -0.000 C 
BRANCH  16  17
ATOM     17  C   UNL     1       9.851 -20.208 -26.008  1.00  0.00    -0.003 C 
ATOM     18  C   UNL     1       8.323 -20.250 -26.019  1.00  0.00     0.004 C 
ENDBRANCH  16  17
ENDBRANCH  15  16
ENDBRANCH  14  15
ENDBRANCH  13  14
ENDBRANCH  12  13
ENDBRANCH  11  12
ENDBRANCH   1  11
TORSDOF 14
ENDMDL
