MODEL 1
REMARK VINA RESULT:    -5.538      0.000      0.000
REMARK INTER + INTRA:          -6.930
REMARK INTER:                  -6.672
REMARK INTRA:                  -0.258
REMARK UNBOUND:                -0.258
REMARK SMILES O=c1c(O)c(-c2ccc(O)c(O)c2)oc2cc(O)cc(O)c12
REMARK SMILES IDX 5 1 3 2 2 3 1 4 22 5 20 6 19 7 17 8 16 9 15 10 14 11 6 12
REMARK SMILES IDX 7 13 8 14 9 15 13 16 11 17 10 18 12 20 4 22 21 24 18 26
REMARK H PARENT 10 19 12 21 4 23 21 25 18 27
REMARK Flexibility Score: inf
ROOT
ATOM      1  C   UNL     1       5.079  -3.297  26.670  1.00  0.00     0.180 A 
ATOM      2  C   UNL     1       5.207  -3.417  25.276  1.00  0.00     0.208 A 
ATOM      3  C   UNL     1       6.239  -4.214  24.753  1.00  0.00     0.238 A 
ATOM      4  O   UNL     1       6.394  -4.257  23.504  1.00  0.00    -0.285 OA
ATOM      5  C   UNL     1       7.093  -4.926  25.629  1.00  0.00     0.111 A 
ATOM      6  C   UNL     1       8.143  -5.797  25.209  1.00  0.00     0.134 A 
ATOM      7  C   UNL     1       8.994  -6.366  26.166  1.00  0.00     0.093 A 
ATOM      8  C   UNL     1       8.792  -6.145  27.531  1.00  0.00     0.123 A 
ATOM      9  C   UNL     1       7.737  -5.340  27.953  1.00  0.00     0.094 A 
ATOM     10  C   UNL     1       6.896  -4.728  27.021  1.00  0.00     0.146 A 
ATOM     11  O   UNL     1       5.916  -3.951  27.467  1.00  0.00    -0.452 OA
ENDROOT
BRANCH   1  12
ATOM     12  C   UNL     1       4.026  -2.465  27.297  1.00  0.00     0.025 A 
ATOM     13  C   UNL     1       2.706  -2.939  27.337  1.00  0.00     0.016 A 
ATOM     14  C   UNL     1       1.700  -2.181  27.942  1.00  0.00     0.051 A 
ATOM     15  C   UNL     1       2.000  -0.948  28.529  1.00  0.00     0.157 A 
ATOM     16  C   UNL     1       4.331  -1.235  27.906  1.00  0.00     0.062 A 
ATOM     17  C   UNL     1       3.323  -0.473  28.516  1.00  0.00     0.158 A 
BRANCH  15  18
ATOM     18  O   UNL     1       0.976  -0.212  29.123  1.00  0.00    -0.504 OA
ATOM     19  H   UNL     1       0.005  -0.330  28.859  1.00  0.00     0.293 HD
ENDBRANCH  15  18
BRANCH  17  20
ATOM     20  O   UNL     1       3.632   0.749  29.112  1.00  0.00    -0.504 OA
ATOM     21  H   UNL     1       4.232   1.425  28.655  1.00  0.00     0.293 HD
ENDBRANCH  17  20
ENDBRANCH   1  12
BRANCH   2  22
ATOM     22  O   UNL     1       4.305  -2.768  24.428  1.00  0.00    -0.502 OA
ATOM     23  H   UNL     1       3.509  -2.247  24.778  1.00  0.00     0.293 HD
ENDBRANCH   2  22
BRANCH   6  24
ATOM     24  O   UNL     1       8.378  -6.157  23.879  1.00  0.00    -0.507 OA
ATOM     25  H   UNL     1       7.729  -6.661  23.293  1.00  0.00     0.293 HD
ENDBRANCH   6  24
BRANCH   8  26
ATOM     26  O   UNL     1       9.632  -6.728  28.476  1.00  0.00    -0.508 OA
ATOM     27  H   UNL     1      10.154  -6.167  29.140  1.00  0.00     0.293 HD
ENDBRANCH   8  26
TORSDOF 6
ENDMDL
MODEL 2
REMARK VINA RESULT:    -5.341      1.610      6.869
REMARK INTER + INTRA:          -6.692
REMARK INTER:                  -6.504
REMARK INTRA:                  -0.188
REMARK UNBOUND:                -0.258
REMARK SMILES O=c1c(O)c(-c2ccc(O)c(O)c2)oc2cc(O)cc(O)c12
REMARK SMILES IDX 5 1 3 2 2 3 1 4 22 5 20 6 19 7 17 8 16 9 15 10 14 11 6 12
REMARK SMILES IDX 7 13 8 14 9 15 13 16 11 17 10 18 12 20 4 22 21 24 18 26
REMARK H PARENT 10 19 12 21 4 23 21 25 18 27
REMARK Flexibility Score: inf
ROOT
ATOM      1  C   UNL     1       5.119  -4.252  26.228  1.00  0.00     0.180 A 
ATOM      2  C   UNL     1       3.876  -4.889  26.066  1.00  0.00     0.208 A 
ATOM      3  C   UNL     1       2.719  -4.260  26.553  1.00  0.00     0.238 A 
ATOM      4  O   UNL     1       1.621  -4.869  26.470  1.00  0.00    -0.285 OA
ATOM      5  C   UNL     1       2.810  -2.976  27.144  1.00  0.00     0.111 A 
ATOM      6  C   UNL     1       1.698  -2.226  27.632  1.00  0.00     0.134 A 
ATOM      7  C   UNL     1       1.920  -1.012  28.295  1.00  0.00     0.093 A 
ATOM      8  C   UNL     1       3.210  -0.492  28.431  1.00  0.00     0.123 A 
ATOM      9  C   UNL     1       4.296  -1.190  27.911  1.00  0.00     0.094 A 
ATOM     10  C   UNL     1       4.110  -2.421  27.279  1.00  0.00     0.146 A 
ATOM     11  O   UNL     1       5.177  -3.064  26.817  1.00  0.00    -0.452 OA
ENDROOT
BRANCH   1  12
ATOM     12  C   UNL     1       6.384  -4.859  25.754  1.00  0.00     0.025 A 
ATOM     13  C   UNL     1       6.618  -4.978  24.376  1.00  0.00     0.016 A 
ATOM     14  C   UNL     1       7.814  -5.526  23.906  1.00  0.00     0.051 A 
ATOM     15  C   UNL     1       8.798  -5.950  24.804  1.00  0.00     0.157 A 
ATOM     16  C   UNL     1       7.384  -5.265  26.656  1.00  0.00     0.062 A 
ATOM     17  C   UNL     1       8.586  -5.814  26.186  1.00  0.00     0.158 A 
BRANCH  15  18
ATOM     18  O   UNL     1       9.980  -6.497  24.306  1.00  0.00    -0.504 OA
ATOM     19  H   UNL     1      10.256  -6.391  23.337  1.00  0.00     0.293 HD
ENDBRANCH  15  18
BRANCH  17  20
ATOM     20  O   UNL     1       9.570  -6.221  27.087  1.00  0.00    -0.504 OA
ATOM     21  H   UNL     1       9.610  -7.171  27.435  1.00  0.00     0.293 HD
ENDBRANCH  17  20
ENDBRANCH   1  12
BRANCH   2  22
ATOM     22  O   UNL     1       3.798  -6.121  25.410  1.00  0.00    -0.502 OA
ATOM     23  H   UNL     1       4.484  -6.416  24.725  1.00  0.00     0.293 HD
ENDBRANCH   2  22
BRANCH   6  24
ATOM     24  O   UNL     1       0.363  -2.609  27.470  1.00  0.00    -0.507 OA
ATOM     25  H   UNL     1      -0.244  -2.919  28.214  1.00  0.00     0.293 HD
ENDBRANCH   6  24
BRANCH   8  26
ATOM     26  O   UNL     1       3.420   0.724  29.077  1.00  0.00    -0.508 OA
ATOM     27  H   UNL     1       2.667   1.212  29.549  1.00  0.00     0.293 HD
ENDBRANCH   8  26
TORSDOF 6
ENDMDL
MODEL 3
REMARK VINA RESULT:    -5.228      2.375      7.046
REMARK INTER + INTRA:          -6.556
REMARK INTER:                  -6.402
REMARK INTRA:                  -0.153
REMARK UNBOUND:                -0.258
REMARK SMILES O=c1c(O)c(-c2ccc(O)c(O)c2)oc2cc(O)cc(O)c12
REMARK SMILES IDX 5 1 3 2 2 3 1 4 22 5 20 6 19 7 17 8 16 9 15 10 14 11 6 12
REMARK SMILES IDX 7 13 8 14 9 15 13 16 11 17 10 18 12 20 4 22 21 24 18 26
REMARK H PARENT 10 19 12 21 4 23 21 25 18 27
REMARK Flexibility Score: inf
ROOT
ATOM      1  C   UNL     1       5.731  -4.839  25.861  1.00  0.00     0.180 A 
ATOM      2  C   UNL     1       5.502  -3.588  26.459  1.00  0.00     0.208 A 
ATOM      3  C   UNL     1       4.205  -3.050  26.438  1.00  0.00     0.238 A 
ATOM      4  O   UNL     1       4.022  -1.897  26.909  1.00  0.00    -0.285 OA
ATOM      5  C   UNL     1       3.142  -3.795  25.871  1.00  0.00     0.111 A 
ATOM      6  C   UNL     1       1.780  -3.368  25.834  1.00  0.00     0.134 A 
ATOM      7  C   UNL     1       0.832  -4.140  25.151  1.00  0.00     0.093 A 
ATOM      8  C   UNL     1       1.184  -5.355  24.559  1.00  0.00     0.123 A 
ATOM      9  C   UNL     1       2.499  -5.807  24.636  1.00  0.00     0.094 A 
ATOM     10  C   UNL     1       3.475  -5.040  25.277  1.00  0.00     0.146 A 
ATOM     11  O   UNL     1       4.721  -5.499  25.308  1.00  0.00    -0.452 OA
ENDROOT
BRANCH   1  12
ATOM     12  C   UNL     1       7.073  -5.464  25.831  1.00  0.00     0.025 A 
ATOM     13  C   UNL     1       7.727  -5.636  24.601  1.00  0.00     0.016 A 
ATOM     14  C   UNL     1       9.003  -6.204  24.551  1.00  0.00     0.051 A 
ATOM     15  C   UNL     1       9.650  -6.594  25.727  1.00  0.00     0.157 A 
ATOM     16  C   UNL     1       7.734  -5.836  27.015  1.00  0.00     0.062 A 
ATOM     17  C   UNL     1       9.016  -6.405  26.967  1.00  0.00     0.158 A 
BRANCH  15  18
ATOM     18  O   UNL     1      10.921  -7.160  25.646  1.00  0.00    -0.504 OA
ATOM     19  H   UNL     1      11.107  -8.111  25.942  1.00  0.00     0.293 HD
ENDBRANCH  15  18
BRANCH  17  20
ATOM     20  O   UNL     1       9.662  -6.778  28.145  1.00  0.00    -0.504 OA
ATOM     21  H   UNL     1       9.367  -7.587  28.679  1.00  0.00     0.293 HD
ENDBRANCH  17  20
ENDBRANCH   1  12
BRANCH   2  22
ATOM     22  O   UNL     1       6.549  -2.904  27.082  1.00  0.00    -0.502 OA
ATOM     23  H   UNL     1       6.540  -2.678  28.070  1.00  0.00     0.293 HD
ENDBRANCH   2  22
BRANCH   6  24
ATOM     24  O   UNL     1       1.303  -2.217  26.468  1.00  0.00    -0.507 OA
ATOM     25  H   UNL     1       1.681  -1.825  27.317  1.00  0.00     0.293 HD
ENDBRANCH   6  24
BRANCH   8  26
ATOM     26  O   UNL     1       0.231  -6.126  23.897  1.00  0.00    -0.508 OA
ATOM     27  H   UNL     1      -0.617  -5.715  23.524  1.00  0.00     0.293 HD
ENDBRANCH   8  26
TORSDOF 6
ENDMDL
MODEL 4
REMARK VINA RESULT:    -5.126      2.980      8.623
REMARK INTER + INTRA:          -6.433
REMARK INTER:                  -6.264
REMARK INTRA:                  -0.169
REMARK UNBOUND:                -0.258
REMARK SMILES O=c1c(O)c(-c2ccc(O)c(O)c2)oc2cc(O)cc(O)c12
REMARK SMILES IDX 5 1 3 2 2 3 1 4 22 5 20 6 19 7 17 8 16 9 15 10 14 11 6 12
REMARK SMILES IDX 7 13 8 14 9 15 13 16 11 17 10 18 12 20 4 22 21 24 18 26
REMARK H PARENT 10 19 12 21 4 23 21 25 18 27
REMARK Flexibility Score: inf
ROOT
ATOM      1  C   UNL     1       9.036  -6.959  24.837  1.00  0.00     0.180 A 
ATOM      2  C   UNL     1       9.259  -7.024  26.223  1.00  0.00     0.208 A 
ATOM      3  C   UNL     1       8.503  -6.201  27.074  1.00  0.00     0.238 A 
ATOM      4  O   UNL     1       8.760  -6.210  28.306  1.00  0.00    -0.285 OA
ATOM      5  C   UNL     1       7.495  -5.366  26.534  1.00  0.00     0.111 A 
ATOM      6  C   UNL     1       6.638  -4.524  27.306  1.00  0.00     0.134 A 
ATOM      7  C   UNL     1       5.748  -3.661  26.655  1.00  0.00     0.093 A 
ATOM      8  C   UNL     1       5.638  -3.656  25.263  1.00  0.00     0.123 A 
ATOM      9  C   UNL     1       6.431  -4.512  24.503  1.00  0.00     0.094 A 
ATOM     10  C   UNL     1       7.355  -5.357  25.122  1.00  0.00     0.146 A 
ATOM     11  O   UNL     1       8.106  -6.142  24.358  1.00  0.00    -0.452 OA
ENDROOT
BRANCH   1  12
ATOM     12  C   UNL     1       9.803  -7.784  23.876  1.00  0.00     0.025 A 
ATOM     13  C   UNL     1       9.122  -8.691  23.050  1.00  0.00     0.016 A 
ATOM     14  C   UNL     1       9.823  -9.464  22.120  1.00  0.00     0.051 A 
ATOM     15  C   UNL     1      11.208  -9.333  21.991  1.00  0.00     0.157 A 
ATOM     16  C   UNL     1      11.194  -7.636  23.730  1.00  0.00     0.062 A 
ATOM     17  C   UNL     1      11.899  -8.410  22.796  1.00  0.00     0.158 A 
BRANCH  15  18
ATOM     18  O   UNL     1      11.881 -10.119  21.057  1.00  0.00    -0.504 OA
ATOM     19  H   UNL     1      11.429 -10.888  20.576  1.00  0.00     0.293 HD
ENDBRANCH  15  18
BRANCH  17  20
ATOM     20  O   UNL     1      13.278  -8.263  22.662  1.00  0.00    -0.504 OA
ATOM     21  H   UNL     1      13.697  -7.368  22.439  1.00  0.00     0.293 HD
ENDBRANCH  17  20
ENDBRANCH   1  12
BRANCH   2  22
ATOM     22  O   UNL     1      10.206  -7.911  26.742  1.00  0.00    -0.502 OA
ATOM     23  H   UNL     1      10.723  -7.718  27.593  1.00  0.00     0.293 HD
ENDBRANCH   2  22
BRANCH   6  24
ATOM     24  O   UNL     1       6.601  -4.514  28.704  1.00  0.00    -0.507 OA
ATOM     25  H   UNL     1       5.890  -4.066  29.261  1.00  0.00     0.293 HD
ENDBRANCH   6  24
BRANCH   8  26
ATOM     26  O   UNL     1       4.738  -2.807  24.624  1.00  0.00    -0.508 OA
ATOM     27  H   UNL     1       4.640  -2.798  23.615  1.00  0.00     0.293 HD
ENDBRANCH   8  26
TORSDOF 6
ENDMDL
MODEL 5
REMARK VINA RESULT:    -5.107      3.068      8.518
REMARK INTER + INTRA:          -6.410
REMARK INTER:                  -6.077
REMARK INTRA:                  -0.333
REMARK UNBOUND:                -0.258
REMARK SMILES O=c1c(O)c(-c2ccc(O)c(O)c2)oc2cc(O)cc(O)c12
REMARK SMILES IDX 5 1 3 2 2 3 1 4 22 5 20 6 19 7 17 8 16 9 15 10 14 11 6 12
REMARK SMILES IDX 7 13 8 14 9 15 13 16 11 17 10 18 12 20 4 22 21 24 18 26
REMARK H PARENT 10 19 12 21 4 23 21 25 18 27
REMARK Flexibility Score: inf
ROOT
ATOM      1  C   UNL     1       8.434  -7.264  24.763  1.00  0.00     0.180 A 
ATOM      2  C   UNL     1       8.063  -7.780  26.017  1.00  0.00     0.208 A 
ATOM      3  C   UNL     1       7.072  -7.118  26.760  1.00  0.00     0.238 A 
ATOM      4  O   UNL     1       6.798  -7.542  27.913  1.00  0.00    -0.285 OA
ATOM      5  C   UNL     1       6.421  -5.985  26.214  1.00  0.00     0.111 A 
ATOM      6  C   UNL     1       5.371  -5.263  26.858  1.00  0.00     0.134 A 
ATOM      7  C   UNL     1       4.875  -4.092  26.270  1.00  0.00     0.093 A 
ATOM      8  C   UNL     1       5.347  -3.653  25.031  1.00  0.00     0.123 A 
ATOM      9  C   UNL     1       6.334  -4.380  24.370  1.00  0.00     0.094 A 
ATOM     10  C   UNL     1       6.875  -5.530  24.948  1.00  0.00     0.146 A 
ATOM     11  O   UNL     1       7.829  -6.181  24.293  1.00  0.00    -0.452 OA
ENDROOT
BRANCH   1  12
ATOM     12  C   UNL     1       9.480  -7.897  23.929  1.00  0.00     0.025 A 
ATOM     13  C   UNL     1       9.109  -8.813  22.933  1.00  0.00     0.016 A 
ATOM     14  C   UNL     1      10.078  -9.406  22.119  1.00  0.00     0.051 A 
ATOM     15  C   UNL     1      11.429  -9.082  22.277  1.00  0.00     0.157 A 
ATOM     16  C   UNL     1      10.837  -7.556  24.072  1.00  0.00     0.062 A 
ATOM     17  C   UNL     1      11.812  -8.148  23.255  1.00  0.00     0.158 A 
BRANCH  15  18
ATOM     18  O   UNL     1      12.373  -9.691  21.453  1.00  0.00    -0.504 OA
ATOM     19  H   UNL     1      12.160 -10.520  20.911  1.00  0.00     0.293 HD
ENDBRANCH  15  18
BRANCH  17  20
ATOM     20  O   UNL     1      13.155  -7.809  23.409  1.00  0.00    -0.504 OA
ATOM     21  H   UNL     1      13.438  -6.966  23.893  1.00  0.00     0.293 HD
ENDBRANCH  17  20
ENDBRANCH   1  12
BRANCH   2  22
ATOM     22  O   UNL     1       8.663  -8.944  26.504  1.00  0.00    -0.502 OA
ATOM     23  H   UNL     1       9.535  -8.932  27.021  1.00  0.00     0.293 HD
ENDBRANCH   2  22
BRANCH   6  24
ATOM     24  O   UNL     1       4.764  -5.662  28.053  1.00  0.00    -0.507 OA
ATOM     25  H   UNL     1       3.813  -5.452  28.317  1.00  0.00     0.293 HD
ENDBRANCH   6  24
BRANCH   8  26
ATOM     26  O   UNL     1       4.837  -2.498  24.445  1.00  0.00    -0.508 OA
ATOM     27  H   UNL     1       5.376  -1.958  23.777  1.00  0.00     0.293 HD
ENDBRANCH   8  26
TORSDOF 6
ENDMDL
MODEL 6
REMARK VINA RESULT:    -5.033      2.059      7.160
REMARK INTER + INTRA:          -6.322
REMARK INTER:                  -6.020
REMARK INTRA:                  -0.301
REMARK UNBOUND:                -0.258
REMARK SMILES O=c1c(O)c(-c2ccc(O)c(O)c2)oc2cc(O)cc(O)c12
REMARK SMILES IDX 5 1 3 2 2 3 1 4 22 5 20 6 19 7 17 8 16 9 15 10 14 11 6 12
REMARK SMILES IDX 7 13 8 14 9 15 13 16 11 17 10 18 12 20 4 22 21 24 18 26
REMARK H PARENT 10 19 12 21 4 23 21 25 18 27
REMARK Flexibility Score: inf
ROOT
ATOM      1  C   UNL     1       6.617  -5.745  25.641  1.00  0.00     0.180 A 
ATOM      2  C   UNL     1       5.502  -6.304  24.993  1.00  0.00     0.208 A 
ATOM      3  C   UNL     1       4.285  -5.602  25.004  1.00  0.00     0.238 A 
ATOM      4  O   UNL     1       3.273  -6.142  24.487  1.00  0.00    -0.285 OA
ATOM      5  C   UNL     1       4.213  -4.325  25.611  1.00  0.00     0.111 A 
ATOM      6  C   UNL     1       3.045  -3.505  25.642  1.00  0.00     0.134 A 
ATOM      7  C   UNL     1       3.062  -2.305  26.365  1.00  0.00     0.093 A 
ATOM      8  C   UNL     1       4.223  -1.866  27.005  1.00  0.00     0.123 A 
ATOM      9  C   UNL     1       5.383  -2.633  26.935  1.00  0.00     0.094 A 
ATOM     10  C   UNL     1       5.387  -3.852  26.254  1.00  0.00     0.146 A 
ATOM     11  O   UNL     1       6.510  -4.561  26.231  1.00  0.00    -0.452 OA
ENDROOT
BRANCH   1  12
ATOM     12  C   UNL     1       7.928  -6.431  25.685  1.00  0.00     0.025 A 
ATOM     13  C   UNL     1       8.271  -7.193  26.813  1.00  0.00     0.016 A 
ATOM     14  C   UNL     1       9.494  -7.866  26.867  1.00  0.00     0.051 A 
ATOM     15  C   UNL     1      10.385  -7.802  25.792  1.00  0.00     0.157 A 
ATOM     16  C   UNL     1       8.816  -6.385  24.596  1.00  0.00     0.062 A 
ATOM     17  C   UNL     1      10.044  -7.061  24.647  1.00  0.00     0.158 A 
BRANCH  15  18
ATOM     18  O   UNL     1      11.600  -8.481  25.875  1.00  0.00    -0.504 OA
ATOM     19  H   UNL     1      12.455  -8.022  26.163  1.00  0.00     0.293 HD
ENDBRANCH  15  18
BRANCH  17  20
ATOM     20  O   UNL     1      10.921  -7.005  23.565  1.00  0.00    -0.504 OA
ATOM     21  H   UNL     1      11.925  -6.976  23.697  1.00  0.00     0.293 HD
ENDBRANCH  17  20
ENDBRANCH   1  12
BRANCH   2  22
ATOM     22  O   UNL     1       5.614  -7.531  24.333  1.00  0.00    -0.502 OA
ATOM     23  H   UNL     1       4.808  -8.106  24.114  1.00  0.00     0.293 HD
ENDBRANCH   2  22
BRANCH   6  24
ATOM     24  O   UNL     1       1.859  -3.805  24.965  1.00  0.00    -0.507 OA
ATOM     25  H   UNL     1       0.931  -3.642  25.324  1.00  0.00     0.293 HD
ENDBRANCH   6  24
BRANCH   8  26
ATOM     26  O   UNL     1       4.236  -0.663  27.707  1.00  0.00    -0.508 OA
ATOM     27  H   UNL     1       3.483   0.010  27.620  1.00  0.00     0.293 HD
ENDBRANCH   8  26
TORSDOF 6
ENDMDL
MODEL 7
REMARK VINA RESULT:    -4.915      2.683      4.721
REMARK INTER + INTRA:          -6.179
REMARK INTER:                  -5.959
REMARK INTRA:                  -0.220
REMARK UNBOUND:                -0.258
REMARK SMILES O=c1c(O)c(-c2ccc(O)c(O)c2)oc2cc(O)cc(O)c12
REMARK SMILES IDX 5 1 3 2 2 3 1 4 22 5 20 6 19 7 17 8 16 9 15 10 14 11 6 12
REMARK SMILES IDX 7 13 8 14 9 15 13 16 11 17 10 18 12 20 4 22 21 24 18 26
REMARK H PARENT 10 19 12 21 4 23 21 25 18 27
REMARK Flexibility Score: inf
ROOT
ATOM      1  C   UNL     1       6.846  -5.776  25.086  1.00  0.00     0.180 A 
ATOM      2  C   UNL     1       7.950  -5.556  25.928  1.00  0.00     0.208 A 
ATOM      3  C   UNL     1       9.119  -6.308  25.730  1.00  0.00     0.238 A 
ATOM      4  O   UNL     1      10.076  -6.159  26.534  1.00  0.00    -0.285 OA
ATOM      5  C   UNL     1       9.191  -7.229  24.657  1.00  0.00     0.111 A 
ATOM      6  C   UNL     1      10.340  -8.013  24.334  1.00  0.00     0.134 A 
ATOM      7  C   UNL     1      10.261  -8.970  23.315  1.00  0.00     0.093 A 
ATOM      8  C   UNL     1       9.093  -9.127  22.565  1.00  0.00     0.123 A 
ATOM      9  C   UNL     1       7.984  -8.330  22.836  1.00  0.00     0.094 A 
ATOM     10  C   UNL     1       8.020  -7.394  23.871  1.00  0.00     0.146 A 
ATOM     11  O   UNL     1       6.933  -6.670  24.109  1.00  0.00    -0.452 OA
ENDROOT
BRANCH   1  12
ATOM     12  C   UNL     1       5.575  -5.032  25.241  1.00  0.00     0.025 A 
ATOM     13  C   UNL     1       5.519  -3.678  24.879  1.00  0.00     0.016 A 
ATOM     14  C   UNL     1       4.325  -2.963  24.996  1.00  0.00     0.051 A 
ATOM     15  C   UNL     1       3.166  -3.591  25.462  1.00  0.00     0.157 A 
ATOM     16  C   UNL     1       4.404  -5.670  25.689  1.00  0.00     0.062 A 
ATOM     17  C   UNL     1       3.203  -4.954  25.806  1.00  0.00     0.158 A 
BRANCH  15  18
ATOM     18  O   UNL     1       1.990  -2.852  25.572  1.00  0.00    -0.504 OA
ATOM     19  H   UNL     1       1.185  -3.031  24.984  1.00  0.00     0.293 HD
ENDBRANCH  15  18
BRANCH  17  20
ATOM     20  O   UNL     1       2.049  -5.591  26.258  1.00  0.00    -0.504 OA
ATOM     21  H   UNL     1       2.092  -6.403  26.862  1.00  0.00     0.293 HD
ENDBRANCH  17  20
ENDBRANCH   1  12
BRANCH   2  22
ATOM     22  O   UNL     1       7.885  -4.586  26.933  1.00  0.00    -0.502 OA
ATOM     23  H   UNL     1       7.492  -3.666  26.776  1.00  0.00     0.293 HD
ENDBRANCH   2  22
BRANCH   6  24
ATOM     24  O   UNL     1      11.583  -7.874  24.960  1.00  0.00    -0.507 OA
ATOM     25  H   UNL     1      11.759  -8.042  25.939  1.00  0.00     0.293 HD
ENDBRANCH   6  24
BRANCH   8  26
ATOM     26  O   UNL     1       9.028 -10.069  21.541  1.00  0.00    -0.508 OA
ATOM     27  H   UNL     1       9.170 -11.057  21.719  1.00  0.00     0.293 HD
ENDBRANCH   8  26
TORSDOF 6
ENDMDL
MODEL 8
REMARK VINA RESULT:    -4.900      1.795      3.598
REMARK INTER + INTRA:          -6.161
REMARK INTER:                  -5.966
REMARK INTRA:                  -0.195
REMARK UNBOUND:                -0.258
REMARK SMILES O=c1c(O)c(-c2ccc(O)c(O)c2)oc2cc(O)cc(O)c12
REMARK SMILES IDX 5 1 3 2 2 3 1 4 22 5 20 6 19 7 17 8 16 9 15 10 14 11 6 12
REMARK SMILES IDX 7 13 8 14 9 15 13 16 11 17 10 18 12 20 4 22 21 24 18 26
REMARK H PARENT 10 19 12 21 4 23 21 25 18 27
REMARK Flexibility Score: inf
ROOT
ATOM      1  C   UNL     1       6.437  -5.181  26.512  1.00  0.00     0.180 A 
ATOM      2  C   UNL     1       7.385  -5.398  27.527  1.00  0.00     0.208 A 
ATOM      3  C   UNL     1       8.473  -6.248  27.272  1.00  0.00     0.238 A 
ATOM      4  O   UNL     1       9.277  -6.497  28.208  1.00  0.00    -0.285 OA
ATOM      5  C   UNL     1       8.633  -6.823  25.987  1.00  0.00     0.111 A 
ATOM      6  C   UNL     1       9.721  -7.664  25.603  1.00  0.00     0.134 A 
ATOM      7  C   UNL     1       9.718  -8.263  24.337  1.00  0.00     0.093 A 
ATOM      8  C   UNL     1       8.698  -8.001  23.419  1.00  0.00     0.123 A 
ATOM      9  C   UNL     1       7.660  -7.141  23.765  1.00  0.00     0.094 A 
ATOM     10  C   UNL     1       7.616  -6.558  25.034  1.00  0.00     0.146 A 
ATOM     11  O   UNL     1       6.596  -5.760  25.329  1.00  0.00    -0.452 OA
ENDROOT
BRANCH   1  12
ATOM     12  C   UNL     1       5.256  -4.310  26.710  1.00  0.00     0.025 A 
ATOM     13  C   UNL     1       3.979  -4.886  26.786  1.00  0.00     0.016 A 
ATOM     14  C   UNL     1       2.853  -4.086  26.995  1.00  0.00     0.051 A 
ATOM     15  C   UNL     1       2.985  -2.703  27.145  1.00  0.00     0.157 A 
ATOM     16  C   UNL     1       5.391  -2.921  26.884  1.00  0.00     0.062 A 
ATOM     17  C   UNL     1       4.262  -2.116  27.095  1.00  0.00     0.158 A 
BRANCH  15  18
ATOM     18  O   UNL     1       1.844  -1.930  27.349  1.00  0.00    -0.504 OA
ATOM     19  H   UNL     1       1.034  -1.995  26.744  1.00  0.00     0.293 HD
ENDBRANCH  15  18
BRANCH  17  20
ATOM     20  O   UNL     1       4.403  -0.739  27.259  1.00  0.00    -0.504 OA
ATOM     21  H   UNL     1       3.896  -0.235  27.976  1.00  0.00     0.293 HD
ENDBRANCH  17  20
ENDBRANCH   1  12
BRANCH   2  22
ATOM     22  O   UNL     1       7.251  -4.759  28.763  1.00  0.00    -0.502 OA
ATOM     23  H   UNL     1       6.822  -5.208  29.563  1.00  0.00     0.293 HD
ENDBRANCH   2  22
BRANCH   6  24
ATOM     24  O   UNL     1      10.835  -7.920  26.408  1.00  0.00    -0.507 OA
ATOM     25  H   UNL     1      11.599  -8.531  26.161  1.00  0.00     0.293 HD
ENDBRANCH   6  24
BRANCH   8  26
ATOM     26  O   UNL     1       8.712  -8.588  22.156  1.00  0.00    -0.508 OA
ATOM     27  H   UNL     1       8.671  -9.594  22.038  1.00  0.00     0.293 HD
ENDBRANCH   8  26
TORSDOF 6
ENDMDL
MODEL 9
REMARK VINA RESULT:    -4.878      2.103      7.611
REMARK INTER + INTRA:          -6.134
REMARK INTER:                  -5.812
REMARK INTRA:                  -0.322
REMARK UNBOUND:                -0.258
REMARK SMILES O=c1c(O)c(-c2ccc(O)c(O)c2)oc2cc(O)cc(O)c12
REMARK SMILES IDX 5 1 3 2 2 3 1 4 22 5 20 6 19 7 17 8 16 9 15 10 14 11 6 12
REMARK SMILES IDX 7 13 8 14 9 15 13 16 11 17 10 18 12 20 4 22 21 24 18 26
REMARK H PARENT 10 19 12 21 4 23 21 25 18 27
REMARK Flexibility Score: inf
ROOT
ATOM      1  C   UNL     1       7.196  -5.901  26.242  1.00  0.00     0.180 A 
ATOM      2  C   UNL     1       7.486  -5.300  27.479  1.00  0.00     0.208 A 
ATOM      3  C   UNL     1       6.599  -4.342  27.995  1.00  0.00     0.238 A 
ATOM      4  O   UNL     1       6.902  -3.754  29.066  1.00  0.00    -0.285 OA
ATOM      5  C   UNL     1       5.404  -4.039  27.298  1.00  0.00     0.111 A 
ATOM      6  C   UNL     1       4.411  -3.117  27.749  1.00  0.00     0.134 A 
ATOM      7  C   UNL     1       3.320  -2.817  26.924  1.00  0.00     0.093 A 
ATOM      8  C   UNL     1       3.154  -3.452  25.691  1.00  0.00     0.123 A 
ATOM      9  C   UNL     1       4.089  -4.392  25.265  1.00  0.00     0.094 A 
ATOM     10  C   UNL     1       5.207  -4.685  26.049  1.00  0.00     0.146 A 
ATOM     11  O   UNL     1       6.084  -5.572  25.595  1.00  0.00    -0.452 OA
ENDROOT
BRANCH   1  12
ATOM     12  C   UNL     1       8.089  -6.908  25.626  1.00  0.00     0.025 A 
ATOM     13  C   UNL     1       7.780  -8.272  25.749  1.00  0.00     0.016 A 
ATOM     14  C   UNL     1       8.597  -9.239  25.157  1.00  0.00     0.051 A 
ATOM     15  C   UNL     1       9.724  -8.859  24.423  1.00  0.00     0.157 A 
ATOM     16  C   UNL     1       9.211  -6.527  24.869  1.00  0.00     0.062 A 
ATOM     17  C   UNL     1      10.032  -7.496  24.272  1.00  0.00     0.158 A 
BRANCH  15  18
ATOM     18  O   UNL     1      10.522  -9.846  23.846  1.00  0.00    -0.504 OA
ATOM     19  H   UNL     1      11.339 -10.220  24.315  1.00  0.00     0.293 HD
ENDBRANCH  15  18
BRANCH  17  20
ATOM     20  O   UNL     1      11.146  -7.110  23.529  1.00  0.00    -0.504 OA
ATOM     21  H   UNL     1      11.053  -6.704  22.606  1.00  0.00     0.293 HD
ENDBRANCH  17  20
ENDBRANCH   1  12
BRANCH   2  22
ATOM     22  O   UNL     1       8.631  -5.670  28.189  1.00  0.00    -0.502 OA
ATOM     23  H   UNL     1       9.444  -5.068  28.261  1.00  0.00     0.293 HD
ENDBRANCH   2  22
BRANCH   6  24
ATOM     24  O   UNL     1       4.432  -2.494  29.001  1.00  0.00    -0.507 OA
ATOM     25  H   UNL     1       3.914  -1.663  29.241  1.00  0.00     0.293 HD
ENDBRANCH   6  24
BRANCH   8  26
ATOM     26  O   UNL     1       2.057  -3.161  24.884  1.00  0.00    -0.508 OA
ATOM     27  H   UNL     1       1.154  -3.595  25.038  1.00  0.00     0.293 HD
ENDBRANCH   8  26
TORSDOF 6
ENDMDL
