MODEL 1
REMARK VINA RESULT:    -5.748      0.000      0.000
REMARK INTER + INTRA:          -6.282
REMARK INTER:                  -6.084
REMARK INTRA:                  -0.198
REMARK UNBOUND:                -0.198
REMARK SMILES CC1=CC[C@H](C(C)C)C=C1
REMARK SMILES IDX 1 1 2 2 3 3 4 4 5 5 9 6 10 7 6 8 7 9 8 10
REMARK H PARENT
REMARK Flexibility Score: inf
ROOT
ATOM      1  C   UNL     1     135.006 139.355 123.388  1.00  0.00     0.044 C 
ATOM      2  C   UNL     1     136.016 138.270 123.612  1.00  0.00    -0.055 C 
ATOM      3  C   UNL     1     136.010 137.562 124.751  1.00  0.00    -0.023 C 
ATOM      4  C   UNL     1     137.103 136.567 125.045  1.00  0.00     0.035 C 
ATOM      5  C   UNL     1     137.615 135.890 123.748  1.00  0.00     0.018 C 
ATOM      6  C   UNL     1     137.870 136.959 122.698  1.00  0.00    -0.023 C 
ATOM      7  C   UNL     1     137.078 138.034 122.610  1.00  0.00    -0.001 C 
ENDROOT
BRANCH   5   8
ATOM      8  C   UNL     1     138.881 135.004 123.978  1.00  0.00    -0.010 C 
ATOM      9  C   UNL     1     140.124 135.554 123.254  1.00  0.00     0.008 C 
ATOM     10  C   UNL     1     139.206 134.875 125.478  1.00  0.00     0.008 C 
ENDBRANCH   5   8
TORSDOF 1
ENDMDL
MODEL 2
REMARK VINA RESULT:    -5.545      0.974      4.248
REMARK INTER + INTRA:          -6.067
REMARK INTER:                  -5.916
REMARK INTRA:                  -0.151
REMARK UNBOUND:                -0.198
REMARK SMILES CC1=CC[C@H](C(C)C)C=C1
REMARK SMILES IDX 1 1 2 2 3 3 4 4 5 5 9 6 10 7 6 8 7 9 8 10
REMARK H PARENT
REMARK Flexibility Score: inf
ROOT
ATOM      1  C   UNL     1     139.928 134.927 123.017  1.00  0.00     0.044 C 
ATOM      2  C   UNL     1     138.790 135.829 123.389  1.00  0.00    -0.055 C 
ATOM      3  C   UNL     1     138.265 135.786 124.622  1.00  0.00    -0.023 C 
ATOM      4  C   UNL     1     137.034 136.586 124.964  1.00  0.00     0.035 C 
ATOM      5  C   UNL     1     136.995 137.924 124.182  1.00  0.00     0.018 C 
ATOM      6  C   UNL     1     137.301 137.653 122.718  1.00  0.00    -0.023 C 
ATOM      7  C   UNL     1     138.185 136.712 122.368  1.00  0.00    -0.001 C 
ENDROOT
BRANCH   5   8
ATOM      8  C   UNL     1     135.645 138.692 124.349  1.00  0.00    -0.010 C 
ATOM      9  C   UNL     1     135.844 140.126 124.875  1.00  0.00     0.008 C 
ATOM     10  C   UNL     1     134.875 138.761 123.017  1.00  0.00     0.008 C 
ENDBRANCH   5   8
TORSDOF 1
ENDMDL
MODEL 3
REMARK VINA RESULT:    -5.275     14.972     16.906
REMARK INTER + INTRA:          -5.781
REMARK INTER:                  -5.583
REMARK INTRA:                  -0.199
REMARK UNBOUND:                -0.198
REMARK SMILES CC1=CC[C@H](C(C)C)C=C1
REMARK SMILES IDX 1 1 2 2 3 3 4 4 5 5 9 6 10 7 6 8 7 9 8 10
REMARK H PARENT
REMARK Flexibility Score: inf
ROOT
ATOM      1  C   UNL     1     139.980 155.125 124.503  1.00  0.00     0.044 C 
ATOM      2  C   UNL     1     138.678 154.424 124.258  1.00  0.00    -0.055 C 
ATOM      3  C   UNL     1     137.719 154.426 125.195  1.00  0.00    -0.023 C 
ATOM      4  C   UNL     1     136.465 153.609 125.017  1.00  0.00     0.035 C 
ATOM      5  C   UNL     1     136.050 153.530 123.525  1.00  0.00     0.018 C 
ATOM      6  C   UNL     1     137.270 153.179 122.689  1.00  0.00    -0.023 C 
ATOM      7  C   UNL     1     138.478 153.653 123.012  1.00  0.00    -0.001 C 
ENDROOT
BRANCH   5   8
ATOM      8  C   UNL     1     134.877 152.531 123.268  1.00  0.00    -0.010 C 
ATOM      9  C   UNL     1     134.908 151.940 121.847  1.00  0.00     0.008 C 
ATOM     10  C   UNL     1     134.900 151.372 124.281  1.00  0.00     0.008 C 
ENDBRANCH   5   8
TORSDOF 1
ENDMDL
MODEL 4
REMARK VINA RESULT:    -5.138     13.448     16.082
REMARK INTER + INTRA:          -5.637
REMARK INTER:                  -5.461
REMARK INTRA:                  -0.175
REMARK UNBOUND:                -0.198
REMARK SMILES CC1=CC[C@H](C(C)C)C=C1
REMARK SMILES IDX 1 1 2 2 3 3 4 4 5 5 9 6 10 7 6 8 7 9 8 10
REMARK H PARENT
REMARK Flexibility Score: inf
ROOT
ATOM      1  C   UNL     1     150.504 134.892 124.153  1.00  0.00     0.044 C 
ATOM      2  C   UNL     1     151.718 135.750 123.963  1.00  0.00    -0.055 C 
ATOM      3  C   UNL     1     152.946 135.229 124.105  1.00  0.00    -0.023 C 
ATOM      4  C   UNL     1     154.168 136.110 124.055  1.00  0.00     0.035 C 
ATOM      5  C   UNL     1     153.969 137.295 123.076  1.00  0.00     0.018 C 
ATOM      6  C   UNL     1     152.619 137.941 123.347  1.00  0.00    -0.023 C 
ATOM      7  C   UNL     1     151.566 137.197 123.702  1.00  0.00    -0.001 C 
ENDROOT
BRANCH   5   8
ATOM      8  C   UNL     1     155.125 138.344 123.142  1.00  0.00    -0.010 C 
ATOM      9  C   UNL     1     155.115 139.308 121.941  1.00  0.00     0.008 C 
ATOM     10  C   UNL     1     155.050 139.176 124.436  1.00  0.00     0.008 C 
ENDBRANCH   5   8
TORSDOF 1
ENDMDL
MODEL 5
REMARK VINA RESULT:    -4.299     13.928     16.552
REMARK INTER + INTRA:          -4.749
REMARK INTER:                  -4.551
REMARK INTRA:                  -0.197
REMARK UNBOUND:                -0.198
REMARK SMILES CC1=CC[C@H](C(C)C)C=C1
REMARK SMILES IDX 1 1 2 2 3 3 4 4 5 5 9 6 10 7 6 8 7 9 8 10
REMARK H PARENT
REMARK Flexibility Score: inf
ROOT
ATOM      1  C   UNL     1     134.876 150.085 122.958  1.00  0.00     0.044 C 
ATOM      2  C   UNL     1     135.728 151.300 123.169  1.00  0.00    -0.055 C 
ATOM      3  C   UNL     1     136.248 151.955 122.121  1.00  0.00    -0.023 C 
ATOM      4  C   UNL     1     137.218 153.090 122.326  1.00  0.00     0.035 C 
ATOM      5  C   UNL     1     136.892 153.886 123.615  1.00  0.00     0.018 C 
ATOM      6  C   UNL     1     136.667 152.908 124.758  1.00  0.00    -0.023 C 
ATOM      7  C   UNL     1     136.069 151.731 124.542  1.00  0.00    -0.001 C 
ENDROOT
BRANCH   5   8
ATOM      8  C   UNL     1     137.984 154.942 123.977  1.00  0.00    -0.010 C 
ATOM      9  C   UNL     1     138.764 154.570 125.251  1.00  0.00     0.008 C 
ATOM     10  C   UNL     1     138.989 155.121 122.823  1.00  0.00     0.008 C 
ENDBRANCH   5   8
TORSDOF 1
ENDMDL
MODEL 6
REMARK VINA RESULT:    -4.265     15.032     16.294
REMARK INTER + INTRA:          -4.713
REMARK INTER:                  -4.569
REMARK INTRA:                  -0.143
REMARK UNBOUND:                -0.198
REMARK SMILES CC1=CC[C@H](C(C)C)C=C1
REMARK SMILES IDX 1 1 2 2 3 3 4 4 5 5 9 6 10 7 6 8 7 9 8 10
REMARK H PARENT
REMARK Flexibility Score: inf
ROOT
ATOM      1  C   UNL     1     138.192 152.864 120.143  1.00  0.00     0.044 C 
ATOM      2  C   UNL     1     137.314 152.799 121.356  1.00  0.00    -0.055 C 
ATOM      3  C   UNL     1     136.139 152.153 121.309  1.00  0.00    -0.023 C 
ATOM      4  C   UNL     1     135.187 152.200 122.476  1.00  0.00     0.035 C 
ATOM      5  C   UNL     1     135.949 152.266 123.825  1.00  0.00     0.018 C 
ATOM      6  C   UNL     1     137.034 153.327 123.730  1.00  0.00    -0.023 C 
ATOM      7  C   UNL     1     137.701 153.522 122.587  1.00  0.00    -0.001 C 
ENDROOT
BRANCH   5   8
ATOM      8  C   UNL     1     135.010 152.520 125.047  1.00  0.00    -0.010 C 
ATOM      9  C   UNL     1     134.881 151.284 125.957  1.00  0.00     0.008 C 
ATOM     10  C   UNL     1     135.510 153.703 125.898  1.00  0.00     0.008 C 
ENDBRANCH   5   8
TORSDOF 1
ENDMDL
MODEL 7
REMARK VINA RESULT:    -4.202      1.468      2.514
REMARK INTER + INTRA:          -4.645
REMARK INTER:                  -4.455
REMARK INTRA:                  -0.190
REMARK UNBOUND:                -0.198
REMARK SMILES CC1=CC[C@H](C(C)C)C=C1
REMARK SMILES IDX 1 1 2 2 3 3 4 4 5 5 9 6 10 7 6 8 7 9 8 10
REMARK H PARENT
REMARK Flexibility Score: inf
ROOT
ATOM      1  C   UNL     1     137.933 138.202 120.073  1.00  0.00     0.044 C 
ATOM      2  C   UNL     1     137.887 137.441 121.364  1.00  0.00    -0.055 C 
ATOM      3  C   UNL     1     137.190 137.915 122.407  1.00  0.00    -0.023 C 
ATOM      4  C   UNL     1     137.251 137.232 123.749  1.00  0.00     0.035 C 
ATOM      5  C   UNL     1     137.414 135.697 123.595  1.00  0.00     0.018 C 
ATOM      6  C   UNL     1     138.514 135.414 122.585  1.00  0.00    -0.023 C 
ATOM      7  C   UNL     1     138.683 136.204 121.519  1.00  0.00    -0.001 C 
ENDROOT
BRANCH   5   8
ATOM      8  C   UNL     1     137.684 134.971 124.951  1.00  0.00    -0.010 C 
ATOM      9  C   UNL     1     139.186 134.876 125.279  1.00  0.00     0.008 C 
ATOM     10  C   UNL     1     136.973 135.684 126.116  1.00  0.00     0.008 C 
ENDBRANCH   5   8
TORSDOF 1
ENDMDL
