MODEL 1
REMARK VINA RESULT:    -3.970      0.000      0.000
REMARK INTER + INTRA:         -11.764
REMARK INTER:                  -8.613
REMARK INTRA:                  -3.151
REMARK UNBOUND:                -3.151
REMARK SMILES CCCCCCCCCCCCCCCCCCCCCC(=O)[O-]
REMARK SMILES IDX 12 1 11 2 10 3 9 4 8 5 7 6 6 7 5 8 4 9 3 10 2 11 1 12 13 13
REMARK SMILES IDX 14 14 15 15 16 16 17 17 18 18 19 19 20 20 21 21 22 22 23 23
REMARK SMILES IDX 24 24
REMARK H PARENT
REMARK Flexibility Score: inf
ROOT
ATOM      1  C   UNL     1     -23.711   5.607  23.108  1.00  0.00     0.000 C 
ENDROOT
BRANCH   1   2
ATOM      2  C   UNL     1     -23.485   6.945  22.383  1.00  0.00     0.000 C 
BRANCH   2   3
ATOM      3  C   UNL     1     -22.065   7.502  22.603  1.00  0.00     0.000 C 
BRANCH   3   4
ATOM      4  C   UNL     1     -21.409   8.074  21.333  1.00  0.00    -0.000 C 
BRANCH   4   5
ATOM      5  C   UNL     1     -22.052   7.531  20.043  1.00  0.00    -0.000 C 
BRANCH   5   6
ATOM      6  C   UNL     1     -21.190   6.457  19.362  1.00  0.00    -0.000 C 
BRANCH   6   7
ATOM      7  C   UNL     1     -21.186   5.124  20.129  1.00  0.00    -0.000 C 
BRANCH   7   8
ATOM      8  C   UNL     1     -19.764   4.689  20.554  1.00  0.00    -0.000 C 
BRANCH   8   9
ATOM      9  C   UNL     1     -19.742   3.411  21.412  1.00  0.00    -0.000 C 
BRANCH   9  10
ATOM     10  C   UNL     1     -19.190   3.604  22.835  1.00  0.00    -0.000 C 
BRANCH  10  11
ATOM     11  C   UNL     1     -20.287   3.755  23.912  1.00  0.00    -0.003 C 
ATOM     12  C   UNL     1     -20.322   5.149  24.538  1.00  0.00     0.004 C 
ENDBRANCH  10  11
ENDBRANCH   9  10
ENDBRANCH   8   9
ENDBRANCH   7   8
ENDBRANCH   6   7
ENDBRANCH   5   6
ENDBRANCH   4   5
ENDBRANCH   3   4
ENDBRANCH   2   3
ENDBRANCH   1   2
BRANCH   1  13
ATOM     13  C   UNL     1     -25.078   5.537  23.809  1.00  0.00     0.000 C 
BRANCH  13  14
ATOM     14  C   UNL     1     -25.007   4.852  25.183  1.00  0.00     0.000 C 
BRANCH  14  15
ATOM     15  C   UNL     1     -25.125   3.329  25.044  1.00  0.00     0.000 C 
BRANCH  15  16
ATOM     16  C   UNL     1     -23.848   2.631  25.534  1.00  0.00     0.000 C 
BRANCH  16  17
ATOM     17  C   UNL     1     -23.240   1.689  24.480  1.00  0.00     0.000 C 
BRANCH  17  18
ATOM     18  C   UNL     1     -23.710   1.942  23.033  1.00  0.00     0.000 C 
BRANCH  18  19
ATOM     19  C   UNL     1     -22.794   1.365  21.935  1.00  0.00     0.000 C 
BRANCH  19  20
ATOM     20  C   UNL     1     -21.558   0.608  22.454  1.00  0.00     0.006 C 
BRANCH  20  21
ATOM     21  C   UNL     1     -20.891  -0.254  21.375  1.00  0.00     0.053 C 
BRANCH  21  22
ATOM     22  C   UNL     1     -21.669  -1.513  21.159  1.00  0.00     0.041 C 
ATOM     23  O   UNL     1     -22.369  -1.656  20.122  1.00  0.00    -0.550 OA
ATOM     24  O   UNL     1     -21.659  -2.510  22.126  1.00  0.00    -0.550 OA
ENDBRANCH  21  22
ENDBRANCH  20  21
ENDBRANCH  19  20
ENDBRANCH  18  19
ENDBRANCH  17  18
ENDBRANCH  16  17
ENDBRANCH  15  16
ENDBRANCH  14  15
ENDBRANCH  13  14
ENDBRANCH   1  13
TORSDOF 20
ENDMDL
MODEL 2
REMARK VINA RESULT:    -3.946      2.329      5.747
REMARK INTER + INTRA:         -11.711
REMARK INTER:                  -8.011
REMARK INTRA:                  -3.700
REMARK UNBOUND:                -3.151
REMARK SMILES CCCCCCCCCCCCCCCCCCCCCC(=O)[O-]
REMARK SMILES IDX 12 1 11 2 10 3 9 4 8 5 7 6 6 7 5 8 4 9 3 10 2 11 1 12 13 13
REMARK SMILES IDX 14 14 15 15 16 16 17 17 18 18 19 19 20 20 21 21 22 22 23 23
REMARK SMILES IDX 24 24
REMARK H PARENT
REMARK Flexibility Score: inf
ROOT
ATOM      1  C   UNL     1     -22.082   4.450  24.702  1.00  0.00     0.000 C 
ENDROOT
BRANCH   1   2
ATOM      2  C   UNL     1     -22.610   4.508  26.146  1.00  0.00     0.000 C 
BRANCH   2   3
ATOM      3  C   UNL     1     -24.149   4.568  26.208  1.00  0.00     0.000 C 
BRANCH   3   4
ATOM      4  C   UNL     1     -24.853   3.372  25.540  1.00  0.00    -0.000 C 
BRANCH   4   5
ATOM      5  C   UNL     1     -24.318   2.019  26.042  1.00  0.00    -0.000 C 
BRANCH   5   6
ATOM      6  C   UNL     1     -23.821   1.121  24.897  1.00  0.00    -0.000 C 
BRANCH   6   7
ATOM      7  C   UNL     1     -24.426   1.504  23.536  1.00  0.00    -0.000 C 
BRANCH   7   8
ATOM      8  C   UNL     1     -23.347   1.842  22.482  1.00  0.00    -0.000 C 
BRANCH   8   9
ATOM      9  C   UNL     1     -21.934   1.375  22.875  1.00  0.00    -0.000 C 
BRANCH   9  10
ATOM     10  C   UNL     1     -21.209   0.547  21.799  1.00  0.00    -0.000 C 
BRANCH  10  11
ATOM     11  C   UNL     1     -22.076  -0.580  21.194  1.00  0.00    -0.003 C 
ATOM     12  C   UNL     1     -22.318  -1.734  22.167  1.00  0.00     0.004 C 
ENDBRANCH  10  11
ENDBRANCH   9  10
ENDBRANCH   8   9
ENDBRANCH   7   8
ENDBRANCH   6   7
ENDBRANCH   5   6
ENDBRANCH   4   5
ENDBRANCH   3   4
ENDBRANCH   2   3
ENDBRANCH   1   2
BRANCH   1  13
ATOM     13  C   UNL     1     -22.274   5.777  23.949  1.00  0.00     0.000 C 
BRANCH  13  14
ATOM     14  C   UNL     1     -23.441   5.730  22.950  1.00  0.00     0.000 C 
BRANCH  14  15
ATOM     15  C   UNL     1     -23.566   7.055  22.188  1.00  0.00     0.000 C 
BRANCH  15  16
ATOM     16  C   UNL     1     -22.188   7.698  21.971  1.00  0.00     0.000 C 
BRANCH  16  17
ATOM     17  C   UNL     1     -21.788   7.766  20.487  1.00  0.00     0.000 C 
BRANCH  17  18
ATOM     18  C   UNL     1     -20.788   6.685  20.032  1.00  0.00     0.000 C 
BRANCH  18  19
ATOM     19  C   UNL     1     -21.406   5.306  19.725  1.00  0.00     0.000 C 
BRANCH  19  20
ATOM     20  C   UNL     1     -21.076   4.205  20.749  1.00  0.00     0.006 C 
BRANCH  20  21
ATOM     21  C   UNL     1     -19.573   3.915  20.847  1.00  0.00     0.053 C 
BRANCH  21  22
ATOM     22  C   UNL     1     -19.103   4.070  22.259  1.00  0.00     0.041 C 
ATOM     23  O   UNL     1     -19.026   5.214  22.780  1.00  0.00    -0.550 OA
ATOM     24  O   UNL     1     -18.704   2.955  22.984  1.00  0.00    -0.550 OA
ENDBRANCH  21  22
ENDBRANCH  20  21
ENDBRANCH  19  20
ENDBRANCH  18  19
ENDBRANCH  17  18
ENDBRANCH  16  17
ENDBRANCH  15  16
ENDBRANCH  14  15
ENDBRANCH  13  14
ENDBRANCH   1  13
TORSDOF 20
ENDMDL
MODEL 3
REMARK VINA RESULT:    -3.831      2.848      5.800
REMARK INTER + INTRA:         -11.461
REMARK INTER:                  -7.549
REMARK INTRA:                  -3.912
REMARK UNBOUND:                -3.151
REMARK SMILES CCCCCCCCCCCCCCCCCCCCCC(=O)[O-]
REMARK SMILES IDX 12 1 11 2 10 3 9 4 8 5 7 6 6 7 5 8 4 9 3 10 2 11 1 12 13 13
REMARK SMILES IDX 14 14 15 15 16 16 17 17 18 18 19 19 20 20 21 21 22 22 23 23
REMARK SMILES IDX 24 24
REMARK H PARENT
REMARK Flexibility Score: inf
ROOT
ATOM      1  C   UNL     1     -24.828   4.899  24.080  1.00  0.00     0.000 C 
ENDROOT
BRANCH   1   2
ATOM      2  C   UNL     1     -24.460   4.853  25.574  1.00  0.00     0.000 C 
BRANCH   2   3
ATOM      3  C   UNL     1     -24.249   3.414  26.084  1.00  0.00     0.000 C 
BRANCH   3   4
ATOM      4  C   UNL     1     -22.806   2.899  25.934  1.00  0.00    -0.000 C 
BRANCH   4   5
ATOM      5  C   UNL     1     -22.727   1.595  25.119  1.00  0.00    -0.000 C 
BRANCH   5   6
ATOM      6  C   UNL     1     -24.019   1.310  24.337  1.00  0.00    -0.000 C 
BRANCH   6   7
ATOM      7  C   UNL     1     -23.859   1.533  22.824  1.00  0.00    -0.000 C 
BRANCH   7   8
ATOM      8  C   UNL     1     -22.377   1.599  22.388  1.00  0.00    -0.000 C 
BRANCH   8   9
ATOM      9  C   UNL     1     -21.986   0.513  21.369  1.00  0.00    -0.000 C 
BRANCH   9  10
ATOM     10  C   UNL     1     -20.555  -0.028  21.527  1.00  0.00    -0.000 C 
BRANCH  10  11
ATOM     11  C   UNL     1     -19.816   0.521  22.768  1.00  0.00    -0.003 C 
ATOM     12  C   UNL     1     -18.455   1.130  22.432  1.00  0.00     0.004 C 
ENDBRANCH  10  11
ENDBRANCH   9  10
ENDBRANCH   8   9
ENDBRANCH   7   8
ENDBRANCH   6   7
ENDBRANCH   5   6
ENDBRANCH   4   5
ENDBRANCH   3   4
ENDBRANCH   2   3
ENDBRANCH   1   2
BRANCH   1  13
ATOM     13  C   UNL     1     -23.648   5.332  23.194  1.00  0.00     0.000 C 
BRANCH  13  14
ATOM     14  C   UNL     1     -23.907   6.660  22.466  1.00  0.00     0.000 C 
BRANCH  14  15
ATOM     15  C   UNL     1     -22.607   7.453  22.290  1.00  0.00     0.000 C 
BRANCH  15  16
ATOM     16  C   UNL     1     -22.260   7.618  20.803  1.00  0.00     0.000 C 
BRANCH  16  17
ATOM     17  C   UNL     1     -21.048   6.772  20.375  1.00  0.00     0.000 C 
BRANCH  17  18
ATOM     18  C   UNL     1     -21.370   5.306  20.021  1.00  0.00     0.000 C 
BRANCH  18  19
ATOM     19  C   UNL     1     -20.514   4.251  20.750  1.00  0.00     0.000 C 
BRANCH  19  20
ATOM     20  C   UNL     1     -19.603   4.809  21.858  1.00  0.00     0.006 C 
BRANCH  20  21
ATOM     21  C   UNL     1     -20.096   4.457  23.267  1.00  0.00     0.053 C 
BRANCH  21  22
ATOM     22  C   UNL     1     -20.084   5.670  24.142  1.00  0.00     0.041 C 
ATOM     23  O   UNL     1     -20.717   5.673  25.231  1.00  0.00    -0.550 OA
ATOM     24  O   UNL     1     -19.413   6.815  23.733  1.00  0.00    -0.550 OA
ENDBRANCH  21  22
ENDBRANCH  20  21
ENDBRANCH  19  20
ENDBRANCH  18  19
ENDBRANCH  17  18
ENDBRANCH  16  17
ENDBRANCH  15  16
ENDBRANCH  14  15
ENDBRANCH  13  14
ENDBRANCH   1  13
TORSDOF 20
ENDMDL
MODEL 4
REMARK VINA RESULT:    -3.809      1.498      2.965
REMARK INTER + INTRA:         -11.413
REMARK INTER:                  -7.776
REMARK INTRA:                  -3.637
REMARK UNBOUND:                -3.151
REMARK SMILES CCCCCCCCCCCCCCCCCCCCCC(=O)[O-]
REMARK SMILES IDX 12 1 11 2 10 3 9 4 8 5 7 6 6 7 5 8 4 9 3 10 2 11 1 12 13 13
REMARK SMILES IDX 14 14 15 15 16 16 17 17 18 18 19 19 20 20 21 21 22 22 23 23
REMARK SMILES IDX 24 24
REMARK H PARENT
REMARK Flexibility Score: inf
ROOT
ATOM      1  C   UNL     1     -23.142   4.762  25.755  1.00  0.00     0.000 C 
ENDROOT
BRANCH   1   2
ATOM      2  C   UNL     1     -24.665   4.863  25.564  1.00  0.00     0.000 C 
BRANCH   2   3
ATOM      3  C   UNL     1     -25.051   5.320  24.143  1.00  0.00     0.000 C 
BRANCH   3   4
ATOM      4  C   UNL     1     -23.856   5.467  23.183  1.00  0.00    -0.000 C 
BRANCH   4   5
ATOM      5  C   UNL     1     -23.825   6.839  22.487  1.00  0.00    -0.000 C 
BRANCH   5   6
ATOM      6  C   UNL     1     -22.395   7.310  22.174  1.00  0.00    -0.000 C 
BRANCH   6   7
ATOM      7  C   UNL     1     -22.206   7.695  20.698  1.00  0.00    -0.000 C 
BRANCH   7   8
ATOM      8  C   UNL     1     -21.341   6.673  19.924  1.00  0.00    -0.000 C 
BRANCH   8   9
ATOM      9  C   UNL     1     -21.289   5.285  20.585  1.00  0.00    -0.000 C 
BRANCH   9  10
ATOM     10  C   UNL     1     -19.879   4.676  20.689  1.00  0.00    -0.000 C 
BRANCH  10  11
ATOM     11  C   UNL     1     -19.334   4.613  22.134  1.00  0.00    -0.003 C 
ATOM     12  C   UNL     1     -20.421   4.329  23.170  1.00  0.00     0.004 C 
ENDBRANCH  10  11
ENDBRANCH   9  10
ENDBRANCH   8   9
ENDBRANCH   7   8
ENDBRANCH   6   7
ENDBRANCH   5   6
ENDBRANCH   4   5
ENDBRANCH   3   4
ENDBRANCH   2   3
ENDBRANCH   1   2
BRANCH   1  13
ATOM     13  C   UNL     1     -22.752   3.814  26.901  1.00  0.00     0.000 C 
BRANCH  13  14
ATOM     14  C   UNL     1     -23.106   2.348  26.607  1.00  0.00     0.000 C 
BRANCH  14  15
ATOM     15  C   UNL     1     -22.379   1.848  25.353  1.00  0.00     0.000 C 
BRANCH  15  16
ATOM     16  C   UNL     1     -23.300   0.968  24.495  1.00  0.00     0.000 C 
BRANCH  16  17
ATOM     17  C   UNL     1     -23.959   1.743  23.340  1.00  0.00     0.000 C 
BRANCH  17  18
ATOM     18  C   UNL     1     -23.063   1.954  22.103  1.00  0.00     0.000 C 
BRANCH  18  19
ATOM     19  C   UNL     1     -22.166   0.756  21.730  1.00  0.00     0.000 C 
BRANCH  19  20
ATOM     20  C   UNL     1     -20.686   1.104  21.491  1.00  0.00     0.006 C 
BRANCH  20  21
ATOM     21  C   UNL     1     -19.774   0.646  22.636  1.00  0.00     0.053 C 
BRANCH  21  22
ATOM     22  C   UNL     1     -18.941  -0.519  22.205  1.00  0.00     0.041 C 
ATOM     23  O   UNL     1     -18.104  -1.028  22.997  1.00  0.00    -0.550 OA
ATOM     24  O   UNL     1     -19.055  -1.014  20.912  1.00  0.00    -0.550 OA
ENDBRANCH  21  22
ENDBRANCH  20  21
ENDBRANCH  19  20
ENDBRANCH  18  19
ENDBRANCH  17  18
ENDBRANCH  16  17
ENDBRANCH  15  16
ENDBRANCH  14  15
ENDBRANCH  13  14
ENDBRANCH   1  13
TORSDOF 20
ENDMDL
MODEL 5
REMARK VINA RESULT:    -3.798      3.136      6.162
REMARK INTER + INTRA:         -11.390
REMARK INTER:                  -7.495
REMARK INTRA:                  -3.895
REMARK UNBOUND:                -3.151
REMARK SMILES CCCCCCCCCCCCCCCCCCCCCC(=O)[O-]
REMARK SMILES IDX 12 1 11 2 10 3 9 4 8 5 7 6 6 7 5 8 4 9 3 10 2 11 1 12 13 13
REMARK SMILES IDX 14 14 15 15 16 16 17 17 18 18 19 19 20 20 21 21 22 22 23 23
REMARK SMILES IDX 24 24
REMARK H PARENT
REMARK Flexibility Score: inf
ROOT
ATOM      1  C   UNL     1     -22.610   5.181  23.972  1.00  0.00     0.000 C 
ENDROOT
BRANCH   1   2
ATOM      2  C   UNL     1     -22.309   3.680  23.813  1.00  0.00     0.000 C 
BRANCH   2   3
ATOM      3  C   UNL     1     -23.242   2.998  22.794  1.00  0.00     0.000 C 
BRANCH   3   4
ATOM      4  C   UNL     1     -22.555   1.918  21.937  1.00  0.00    -0.000 C 
BRANCH   4   5
ATOM      5  C   UNL     1     -21.127   1.603  22.419  1.00  0.00    -0.000 C 
BRANCH   5   6
ATOM      6  C   UNL     1     -20.467   0.475  21.610  1.00  0.00    -0.000 C 
BRANCH   6   7
ATOM      7  C   UNL     1     -21.488  -0.526  21.044  1.00  0.00    -0.000 C 
BRANCH   7   8
ATOM      8  C   UNL     1     -21.667  -1.767  21.950  1.00  0.00    -0.000 C 
BRANCH   8   9
ATOM      9  C   UNL     1     -22.906  -1.692  22.859  1.00  0.00    -0.000 C 
BRANCH   9  10
ATOM     10  C   UNL     1     -22.596  -1.446  24.346  1.00  0.00    -0.000 C 
BRANCH  10  11
ATOM     11  C   UNL     1     -23.229  -0.152  24.906  1.00  0.00    -0.003 C 
ATOM     12  C   UNL     1     -24.684   0.035  24.479  1.00  0.00     0.004 C 
ENDBRANCH  10  11
ENDBRANCH   9  10
ENDBRANCH   8   9
ENDBRANCH   7   8
ENDBRANCH   6   7
ENDBRANCH   5   6
ENDBRANCH   4   5
ENDBRANCH   3   4
ENDBRANCH   2   3
ENDBRANCH   1   2
BRANCH   1  13
ATOM     13  C   UNL     1     -23.848   5.623  23.174  1.00  0.00     0.000 C 
BRANCH  13  14
ATOM     14  C   UNL     1     -23.636   6.954  22.437  1.00  0.00     0.000 C 
BRANCH  14  15
ATOM     15  C   UNL     1     -22.152   7.176  22.122  1.00  0.00     0.000 C 
BRANCH  15  16
ATOM     16  C   UNL     1     -21.959   7.622  20.664  1.00  0.00     0.000 C 
BRANCH  16  17
ATOM     17  C   UNL     1     -21.248   6.562  19.805  1.00  0.00     0.000 C 
BRANCH  17  18
ATOM     18  C   UNL     1     -21.355   5.117  20.334  1.00  0.00     0.000 C 
BRANCH  18  19
ATOM     19  C   UNL     1     -20.024   4.340  20.393  1.00  0.00     0.000 C 
BRANCH  19  20
ATOM     20  C   UNL     1     -18.913   5.020  21.213  1.00  0.00     0.006 C 
BRANCH  20  21
ATOM     21  C   UNL     1     -19.111   4.867  22.726  1.00  0.00     0.053 C 
BRANCH  21  22
ATOM     22  C   UNL     1     -18.750   6.136  23.430  1.00  0.00     0.041 C 
ATOM     23  O   UNL     1     -19.266   6.410  24.546  1.00  0.00    -0.550 OA
ATOM     24  O   UNL     1     -17.882   7.039  22.832  1.00  0.00    -0.550 OA
ENDBRANCH  21  22
ENDBRANCH  20  21
ENDBRANCH  19  20
ENDBRANCH  18  19
ENDBRANCH  17  18
ENDBRANCH  16  17
ENDBRANCH  15  16
ENDBRANCH  14  15
ENDBRANCH  13  14
ENDBRANCH   1  13
TORSDOF 20
ENDMDL
MODEL 6
REMARK VINA RESULT:    -3.790      3.061      5.906
REMARK INTER + INTRA:         -11.373
REMARK INTER:                  -7.461
REMARK INTRA:                  -3.912
REMARK UNBOUND:                -3.151
REMARK SMILES CCCCCCCCCCCCCCCCCCCCCC(=O)[O-]
REMARK SMILES IDX 12 1 11 2 10 3 9 4 8 5 7 6 6 7 5 8 4 9 3 10 2 11 1 12 13 13
REMARK SMILES IDX 14 14 15 15 16 16 17 17 18 18 19 19 20 20 21 21 22 22 23 23
REMARK SMILES IDX 24 24
REMARK H PARENT
REMARK Flexibility Score: inf
ROOT
ATOM      1  C   UNL     1     -19.941   6.060  24.208  1.00  0.00     0.000 C 
ENDROOT
BRANCH   1   2
ATOM      2  C   UNL     1     -20.236   4.706  23.538  1.00  0.00     0.000 C 
BRANCH   2   3
ATOM      3  C   UNL     1     -19.325   4.439  22.324  1.00  0.00     0.000 C 
BRANCH   3   4
ATOM      4  C   UNL     1     -20.082   4.012  21.052  1.00  0.00    -0.000 C 
BRANCH   4   5
ATOM      5  C   UNL     1     -21.389   3.264  21.368  1.00  0.00    -0.000 C 
BRANCH   5   6
ATOM      6  C   UNL     1     -21.162   1.768  21.637  1.00  0.00    -0.000 C 
BRANCH   6   7
ATOM      7  C   UNL     1     -22.477   0.979  21.755  1.00  0.00    -0.000 C 
BRANCH   7   8
ATOM      8  C   UNL     1     -23.568   1.758  22.525  1.00  0.00    -0.000 C 
BRANCH   8   9
ATOM      9  C   UNL     1     -23.700   1.339  24.000  1.00  0.00    -0.000 C 
BRANCH   9  10
ATOM     10  C   UNL     1     -22.974   0.031  24.362  1.00  0.00    -0.000 C 
BRANCH  10  11
ATOM     11  C   UNL     1     -21.752   0.235  25.286  1.00  0.00    -0.003 C 
ATOM     12  C   UNL     1     -21.345   1.701  25.424  1.00  0.00     0.004 C 
ENDBRANCH  10  11
ENDBRANCH   9  10
ENDBRANCH   8   9
ENDBRANCH   7   8
ENDBRANCH   6   7
ENDBRANCH   5   6
ENDBRANCH   4   5
ENDBRANCH   3   4
ENDBRANCH   2   3
ENDBRANCH   1   2
BRANCH   1  13
ATOM     13  C   UNL     1     -19.628   7.168  23.188  1.00  0.00     0.000 C 
BRANCH  13  14
ATOM     14  C   UNL     1     -20.882   7.937  22.744  1.00  0.00     0.000 C 
BRANCH  14  15
ATOM     15  C   UNL     1     -21.223   7.632  21.280  1.00  0.00     0.000 C 
BRANCH  15  16
ATOM     16  C   UNL     1     -22.563   6.889  21.169  1.00  0.00     0.000 C 
BRANCH  16  17
ATOM     17  C   UNL     1     -23.375   6.924  22.476  1.00  0.00     0.000 C 
BRANCH  17  18
ATOM     18  C   UNL     1     -23.755   5.541  23.043  1.00  0.00     0.000 C 
BRANCH  18  19
ATOM     19  C   UNL     1     -25.007   5.523  23.943  1.00  0.00     0.000 C 
BRANCH  19  20
ATOM     20  C   UNL     1     -24.840   4.758  25.269  1.00  0.00     0.006 C 
BRANCH  20  21
ATOM     21  C   UNL     1     -23.393   4.759  25.778  1.00  0.00     0.053 C 
BRANCH  21  22
ATOM     22  C   UNL     1     -23.366   4.743  27.274  1.00  0.00     0.041 C 
ATOM     23  O   UNL     1     -23.013   3.702  27.890  1.00  0.00    -0.550 OA
ATOM     24  O   UNL     1     -23.777   5.860  27.988  1.00  0.00    -0.550 OA
ENDBRANCH  21  22
ENDBRANCH  20  21
ENDBRANCH  19  20
ENDBRANCH  18  19
ENDBRANCH  17  18
ENDBRANCH  16  17
ENDBRANCH  15  16
ENDBRANCH  14  15
ENDBRANCH  13  14
ENDBRANCH   1  13
TORSDOF 20
ENDMDL
MODEL 7
REMARK VINA RESULT:    -3.782      1.527      2.404
REMARK INTER + INTRA:         -11.354
REMARK INTER:                  -8.020
REMARK INTRA:                  -3.334
REMARK UNBOUND:                -3.151
REMARK SMILES CCCCCCCCCCCCCCCCCCCCCC(=O)[O-]
REMARK SMILES IDX 12 1 11 2 10 3 9 4 8 5 7 6 6 7 5 8 4 9 3 10 2 11 1 12 13 13
REMARK SMILES IDX 14 14 15 15 16 16 17 17 18 18 19 19 20 20 21 21 22 22 23 23
REMARK SMILES IDX 24 24
REMARK H PARENT
REMARK Flexibility Score: inf
ROOT
ATOM      1  C   UNL     1     -23.731   5.495  23.218  1.00  0.00     0.000 C 
ENDROOT
BRANCH   1   2
ATOM      2  C   UNL     1     -23.648   6.788  22.387  1.00  0.00     0.000 C 
BRANCH   2   3
ATOM      3  C   UNL     1     -22.239   7.412  22.408  1.00  0.00     0.000 C 
BRANCH   3   4
ATOM      4  C   UNL     1     -21.663   7.712  21.012  1.00  0.00    -0.000 C 
BRANCH   4   5
ATOM      5  C   UNL     1     -20.646   6.651  20.555  1.00  0.00    -0.000 C 
BRANCH   5   6
ATOM      6  C   UNL     1     -21.319   5.427  19.912  1.00  0.00    -0.000 C 
BRANCH   6   7
ATOM      7  C   UNL     1     -21.180   4.156  20.766  1.00  0.00    -0.000 C 
BRANCH   7   8
ATOM      8  C   UNL     1     -20.227   4.350  21.968  1.00  0.00    -0.000 C 
BRANCH   8   9
ATOM      9  C   UNL     1     -19.014   3.404  21.951  1.00  0.00    -0.000 C 
BRANCH   9  10
ATOM     10  C   UNL     1     -17.721   4.028  21.396  1.00  0.00    -0.000 C 
BRANCH  10  11
ATOM     11  C   UNL     1     -17.110   3.243  20.214  1.00  0.00    -0.003 C 
ATOM     12  C   UNL     1     -17.237   1.728  20.373  1.00  0.00     0.004 C 
ENDBRANCH  10  11
ENDBRANCH   9  10
ENDBRANCH   8   9
ENDBRANCH   7   8
ENDBRANCH   6   7
ENDBRANCH   5   6
ENDBRANCH   4   5
ENDBRANCH   3   4
ENDBRANCH   2   3
ENDBRANCH   1   2
BRANCH   1  13
ATOM     13  C   UNL     1     -25.059   5.369  23.984  1.00  0.00     0.000 C 
BRANCH  13  14
ATOM     14  C   UNL     1     -24.988   4.351  25.133  1.00  0.00     0.000 C 
BRANCH  14  15
ATOM     15  C   UNL     1     -23.982   4.797  26.200  1.00  0.00     0.000 C 
BRANCH  15  16
ATOM     16  C   UNL     1     -22.989   3.671  26.526  1.00  0.00     0.000 C 
BRANCH  16  17
ATOM     17  C   UNL     1     -21.799   3.624  25.552  1.00  0.00     0.000 C 
BRANCH  17  18
ATOM     18  C   UNL     1     -21.727   2.359  24.672  1.00  0.00     0.000 C 
BRANCH  18  19
ATOM     19  C   UNL     1     -22.891   1.365  24.856  1.00  0.00     0.000 C 
BRANCH  19  20
ATOM     20  C   UNL     1     -23.777   1.167  23.613  1.00  0.00     0.006 C 
BRANCH  20  21
ATOM     21  C   UNL     1     -23.072   1.564  22.310  1.00  0.00     0.053 C 
BRANCH  21  22
ATOM     22  C   UNL     1     -22.289   0.410  21.769  1.00  0.00     0.041 C 
ATOM     23  O   UNL     1     -21.147   0.597  21.272  1.00  0.00    -0.550 OA
ATOM     24  O   UNL     1     -22.840  -0.864  21.768  1.00  0.00    -0.550 OA
ENDBRANCH  21  22
ENDBRANCH  20  21
ENDBRANCH  19  20
ENDBRANCH  18  19
ENDBRANCH  17  18
ENDBRANCH  16  17
ENDBRANCH  15  16
ENDBRANCH  14  15
ENDBRANCH  13  14
ENDBRANCH   1  13
TORSDOF 20
ENDMDL
MODEL 8
REMARK VINA RESULT:    -3.772      1.094      2.095
REMARK INTER + INTRA:         -11.333
REMARK INTER:                  -7.740
REMARK INTRA:                  -3.593
REMARK UNBOUND:                -3.151
REMARK SMILES CCCCCCCCCCCCCCCCCCCCCC(=O)[O-]
REMARK SMILES IDX 12 1 11 2 10 3 9 4 8 5 7 6 6 7 5 8 4 9 3 10 2 11 1 12 13 13
REMARK SMILES IDX 14 14 15 15 16 16 17 17 18 18 19 19 20 20 21 21 22 22 23 23
REMARK SMILES IDX 24 24
REMARK H PARENT
REMARK Flexibility Score: inf
ROOT
ATOM      1  C   UNL     1     -23.197   7.300  22.048  1.00  0.00     0.000 C 
ENDROOT
BRANCH   1   2
ATOM      2  C   UNL     1     -21.859   7.265  22.808  1.00  0.00     0.000 C 
BRANCH   2   3
ATOM      3  C   UNL     1     -20.649   7.134  21.863  1.00  0.00     0.000 C 
BRANCH   3   4
ATOM      4  C   UNL     1     -20.998   6.592  20.465  1.00  0.00    -0.000 C 
BRANCH   4   5
ATOM      5  C   UNL     1     -20.635   5.104  20.302  1.00  0.00    -0.000 C 
BRANCH   5   6
ATOM      6  C   UNL     1     -21.664   4.171  20.960  1.00  0.00    -0.000 C 
BRANCH   6   7
ATOM      7  C   UNL     1     -21.009   3.014  21.733  1.00  0.00    -0.000 C 
BRANCH   7   8
ATOM      8  C   UNL     1     -20.070   3.509  22.857  1.00  0.00    -0.000 C 
BRANCH   8   9
ATOM      9  C   UNL     1     -20.802   3.832  24.173  1.00  0.00    -0.000 C 
BRANCH   9  10
ATOM     10  C   UNL     1     -20.058   4.814  25.095  1.00  0.00    -0.000 C 
BRANCH  10  11
ATOM     11  C   UNL     1     -18.711   5.307  24.522  1.00  0.00    -0.003 C 
ATOM     12  C   UNL     1     -18.441   6.782  24.814  1.00  0.00     0.004 C 
ENDBRANCH  10  11
ENDBRANCH   9  10
ENDBRANCH   8   9
ENDBRANCH   7   8
ENDBRANCH   6   7
ENDBRANCH   5   6
ENDBRANCH   4   5
ENDBRANCH   3   4
ENDBRANCH   2   3
ENDBRANCH   1   2
BRANCH   1  13
ATOM     13  C   UNL     1     -24.326   6.583  22.806  1.00  0.00     0.000 C 
BRANCH  13  14
ATOM     14  C   UNL     1     -23.825   5.383  23.623  1.00  0.00     0.000 C 
BRANCH  14  15
ATOM     15  C   UNL     1     -24.992   4.650  24.295  1.00  0.00     0.000 C 
BRANCH  15  16
ATOM     16  C   UNL     1     -24.509   3.370  24.994  1.00  0.00     0.000 C 
BRANCH  16  17
ATOM     17  C   UNL     1     -25.026   2.089  24.316  1.00  0.00     0.000 C 
BRANCH  17  18
ATOM     18  C   UNL     1     -24.005   1.376  23.406  1.00  0.00     0.000 C 
BRANCH  18  19
ATOM     19  C   UNL     1     -22.852   0.666  24.143  1.00  0.00     0.000 C 
BRANCH  19  20
ATOM     20  C   UNL     1     -22.021  -0.294  23.273  1.00  0.00     0.006 C 
BRANCH  20  21
ATOM     21  C   UNL     1     -22.421  -0.253  21.793  1.00  0.00     0.053 C 
BRANCH  21  22
ATOM     22  C   UNL     1     -22.029  -1.526  21.111  1.00  0.00     0.041 C 
ATOM     23  O   UNL     1     -21.305  -2.367  21.707  1.00  0.00    -0.550 OA
ATOM     24  O   UNL     1     -22.423  -1.762  19.801  1.00  0.00    -0.550 OA
ENDBRANCH  21  22
ENDBRANCH  20  21
ENDBRANCH  19  20
ENDBRANCH  18  19
ENDBRANCH  17  18
ENDBRANCH  16  17
ENDBRANCH  15  16
ENDBRANCH  14  15
ENDBRANCH  13  14
ENDBRANCH   1  13
TORSDOF 20
ENDMDL
MODEL 9
REMARK VINA RESULT:    -3.767      1.556      3.063
REMARK INTER + INTRA:         -11.322
REMARK INTER:                  -7.791
REMARK INTRA:                  -3.531
REMARK UNBOUND:                -3.151
REMARK SMILES CCCCCCCCCCCCCCCCCCCCCC(=O)[O-]
REMARK SMILES IDX 12 1 11 2 10 3 9 4 8 5 7 6 6 7 5 8 4 9 3 10 2 11 1 12 13 13
REMARK SMILES IDX 14 14 15 15 16 16 17 17 18 18 19 19 20 20 21 21 22 22 23 23
REMARK SMILES IDX 24 24
REMARK H PARENT
REMARK Flexibility Score: inf
ROOT
ATOM      1  C   UNL     1     -22.144   7.390  22.480  1.00  0.00     0.000 C 
ENDROOT
BRANCH   1   2
ATOM      2  C   UNL     1     -21.582   7.722  21.087  1.00  0.00     0.000 C 
BRANCH   2   3
ATOM      3  C   UNL     1     -20.639   6.625  20.556  1.00  0.00     0.000 C 
BRANCH   3   4
ATOM      4  C   UNL     1     -21.365   5.406  19.958  1.00  0.00    -0.000 C 
BRANCH   4   5
ATOM      5  C   UNL     1     -21.167   4.132  20.800  1.00  0.00    -0.000 C 
BRANCH   5   6
ATOM      6  C   UNL     1     -20.132   4.320  21.920  1.00  0.00    -0.000 C 
BRANCH   6   7
ATOM      7  C   UNL     1     -20.681   3.941  23.306  1.00  0.00    -0.000 C 
BRANCH   7   8
ATOM      8  C   UNL     1     -20.019   4.748  24.447  1.00  0.00    -0.000 C 
BRANCH   8   9
ATOM      9  C   UNL     1     -21.027   5.497  25.336  1.00  0.00    -0.000 C 
BRANCH   9  10
ATOM     10  C   UNL     1     -21.459   4.735  26.601  1.00  0.00    -0.000 C 
BRANCH  10  11
ATOM     11  C   UNL     1     -21.788   5.654  27.798  1.00  0.00    -0.003 C 
ATOM     12  C   UNL     1     -23.265   5.618  28.190  1.00  0.00     0.004 C 
ENDBRANCH  10  11
ENDBRANCH   9  10
ENDBRANCH   8   9
ENDBRANCH   7   8
ENDBRANCH   6   7
ENDBRANCH   5   6
ENDBRANCH   4   5
ENDBRANCH   3   4
ENDBRANCH   2   3
ENDBRANCH   1   2
BRANCH   1  13
ATOM     13  C   UNL     1     -23.635   7.015  22.442  1.00  0.00     0.000 C 
BRANCH  13  14
ATOM     14  C   UNL     1     -23.895   5.568  22.887  1.00  0.00     0.000 C 
BRANCH  14  15
ATOM     15  C   UNL     1     -24.919   5.519  24.028  1.00  0.00     0.000 C 
BRANCH  15  16
ATOM     16  C   UNL     1     -24.603   4.376  25.004  1.00  0.00     0.000 C 
BRANCH  16  17
ATOM     17  C   UNL     1     -25.095   3.008  24.500  1.00  0.00     0.000 C 
BRANCH  17  18
ATOM     18  C   UNL     1     -24.070   2.214  23.666  1.00  0.00     0.000 C 
BRANCH  18  19
ATOM     19  C   UNL     1     -23.066   1.377  24.483  1.00  0.00     0.000 C 
BRANCH  19  20
ATOM     20  C   UNL     1     -22.165   0.449  23.648  1.00  0.00     0.006 C 
BRANCH  20  21
ATOM     21  C   UNL     1     -22.238   0.743  22.145  1.00  0.00     0.053 C 
BRANCH  21  22
ATOM     22  C   UNL     1     -21.060   0.151  21.439  1.00  0.00     0.041 C 
ATOM     23  O   UNL     1     -20.046   0.858  21.194  1.00  0.00    -0.550 OA
ATOM     24  O   UNL     1     -21.099  -1.169  21.009  1.00  0.00    -0.550 OA
ENDBRANCH  21  22
ENDBRANCH  20  21
ENDBRANCH  19  20
ENDBRANCH  18  19
ENDBRANCH  17  18
ENDBRANCH  16  17
ENDBRANCH  15  16
ENDBRANCH  14  15
ENDBRANCH  13  14
ENDBRANCH   1  13
TORSDOF 20
ENDMDL
