MODEL 1
REMARK VINA RESULT:    -6.006      0.000      0.000
REMARK INTER + INTRA:          -6.764
REMARK INTER:                  -6.533
REMARK INTRA:                  -0.231
REMARK UNBOUND:                -0.231
REMARK SMILES C[C@@H]1[C@H]2C3=CC[C@H]4[C@@]5(C)CC[C@H](O)C(C)(C)[C@H]5CC[C@]4(C)[C@]3(C)CC[C@@]2(C(=O)[O-])CC[C@@H]1C
REMARK SMILES IDX 26 1 30 2 25 3 3 4 31 5 24 6 4 7 2 8 32 9 22 10 5 11 1 12
REMARK SMILES IDX 33 13 23 14 20 15 6 16 7 17 19 18 21 19 8 20 18 21 17 22
REMARK SMILES IDX 10 23 9 24 14 25 11 26 12 27 15 28 16 29 27 30 28 31 29 32
REMARK SMILES IDX 13 33
REMARK H PARENT 13 34
REMARK Flexibility Score: inf
ROOT
ATOM      1  C   UNL     1      13.119  46.177  32.843  1.00  0.00     0.017 C 
ATOM      2  C   UNL     1      12.938  44.683  32.416  1.00  0.00     0.014 C 
ATOM      3  C   UNL     1      11.779  46.907  32.564  1.00  0.00     0.014 C 
ATOM      4  C   UNL     1      14.294  46.852  32.036  1.00  0.00     0.030 C 
ATOM      5  C   UNL     1      14.253  44.030  31.990  1.00  0.00     0.004 C 
ATOM      6  C   UNL     1      11.852  48.426  32.793  1.00  0.00     0.013 C 
ATOM      7  C   UNL     1      14.246  48.396  32.110  1.00  0.00    -0.063 C 
ATOM      8  C   UNL     1      14.458  46.232  30.618  1.00  0.00    -0.003 C 
ATOM      9  C   UNL     1      14.874  44.721  30.740  1.00  0.00    -0.011 C 
ATOM     10  C   UNL     1      12.912  49.175  31.918  1.00  0.00    -0.006 C 
ATOM     11  C   UNL     1      15.364  48.995  32.590  1.00  0.00    -0.027 C 
ATOM     12  C   UNL     1      15.408  47.034  29.710  1.00  0.00     0.008 C 
ATOM     13  C   UNL     1      16.398  44.493  30.762  1.00  0.00     0.008 C 
ATOM     14  C   UNL     1      12.441  49.063  30.434  1.00  0.00     0.017 C 
ATOM     15  C   UNL     1      13.028  50.751  32.340  1.00  0.00    -0.020 C 
ATOM     16  C   UNL     1      15.428  50.416  33.047  1.00  0.00     0.032 C 
ATOM     17  C   UNL     1      14.037  50.902  33.528  1.00  0.00     0.006 C 
ATOM     18  C   UNL     1      11.658  51.312  32.803  1.00  0.00     0.008 C 
ATOM     19  C   UNL     1      13.512  51.608  31.126  1.00  0.00     0.012 C 
ATOM     20  C   UNL     1      14.060  52.263  34.393  1.00  0.00    -0.025 C 
ATOM     21  C   UNL     1      11.731  52.742  33.319  1.00  0.00     0.005 C 
ATOM     22  C   UNL     1      12.601  52.860  34.603  1.00  0.00     0.003 C 
ATOM     23  C   UNL     1      15.029  53.383  33.827  1.00  0.00     0.010 C 
ATOM     24  C   UNL     1      14.612  51.802  35.802  1.00  0.00     0.012 C 
ATOM     25  C   UNL     1      12.582  54.343  35.172  1.00  0.00    -0.006 C 
ATOM     26  C   UNL     1      14.404  54.700  33.311  1.00  0.00     0.033 C 
ATOM     27  C   UNL     1      13.246  55.316  34.144  1.00  0.00     0.120 C 
ATOM     28  C   UNL     1      13.290  54.446  36.555  1.00  0.00     0.014 C 
ATOM     29  C   UNL     1      11.117  54.804  35.422  1.00  0.00     0.014 C 
ENDROOT
BRANCH   1  30
ATOM     30  C   UNL     1      13.398  46.213  34.347  1.00  0.00     0.048 C 
ATOM     31  O   UNL     1      14.576  46.173  34.805  1.00  0.00    -0.550 OA
ATOM     32  O   UNL     1      12.343  46.236  35.252  1.00  0.00    -0.550 OA
ENDBRANCH   1  30
BRANCH  27  33
ATOM     33  O   UNL     1      13.620  56.536  34.743  1.00  0.00    -0.393 OA
ATOM     34  H   UNL     1      13.102  56.648  35.586  1.00  0.00     0.210 HD
ENDBRANCH  27  33
TORSDOF 2
ENDMDL
MODEL 2
REMARK VINA RESULT:    -5.776      3.179      9.583
REMARK INTER + INTRA:          -6.514
REMARK INTER:                  -6.257
REMARK INTRA:                  -0.257
REMARK UNBOUND:                -0.231
REMARK SMILES C[C@@H]1[C@H]2C3=CC[C@H]4[C@@]5(C)CC[C@H](O)C(C)(C)[C@H]5CC[C@]4(C)[C@]3(C)CC[C@@]2(C(=O)[O-])CC[C@@H]1C
REMARK SMILES IDX 26 1 30 2 25 3 3 4 31 5 24 6 4 7 2 8 32 9 22 10 5 11 1 12
REMARK SMILES IDX 33 13 23 14 20 15 6 16 7 17 19 18 21 19 8 20 18 21 17 22
REMARK SMILES IDX 10 23 9 24 14 25 11 26 12 27 15 28 16 29 27 30 28 31 29 32
REMARK SMILES IDX 13 33
REMARK H PARENT 13 34
REMARK Flexibility Score: inf
ROOT
ATOM      1  C   UNL     1      13.240  58.708  33.843  1.00  0.00     0.017 C 
ATOM      2  C   UNL     1      13.248  60.130  34.495  1.00  0.00     0.014 C 
ATOM      3  C   UNL     1      12.519  57.750  34.827  1.00  0.00     0.014 C 
ATOM      4  C   UNL     1      14.710  58.210  33.565  1.00  0.00     0.030 C 
ATOM      5  C   UNL     1      14.433  60.980  34.036  1.00  0.00     0.004 C 
ATOM      6  C   UNL     1      12.567  56.276  34.389  1.00  0.00     0.013 C 
ATOM      7  C   UNL     1      14.777  56.686  33.317  1.00  0.00    -0.063 C 
ATOM      8  C   UNL     1      15.726  58.790  34.592  1.00  0.00    -0.003 C 
ATOM      9  C   UNL     1      15.799  60.353  34.447  1.00  0.00    -0.011 C 
ATOM     10  C   UNL     1      14.007  55.683  34.226  1.00  0.00    -0.006 C 
ATOM     11  C   UNL     1      15.330  56.307  32.138  1.00  0.00    -0.027 C 
ATOM     12  C   UNL     1      17.112  58.125  34.517  1.00  0.00     0.008 C 
ATOM     13  C   UNL     1      16.877  60.839  33.458  1.00  0.00     0.008 C 
ATOM     14  C   UNL     1      14.652  55.652  35.647  1.00  0.00     0.017 C 
ATOM     15  C   UNL     1      13.962  54.169  33.609  1.00  0.00    -0.020 C 
ATOM     16  C   UNL     1      15.208  54.937  31.553  1.00  0.00     0.032 C 
ATOM     17  C   UNL     1      13.914  54.242  32.046  1.00  0.00     0.006 C 
ATOM     18  C   UNL     1      12.702  53.402  34.090  1.00  0.00     0.008 C 
ATOM     19  C   UNL     1      15.219  53.357  34.060  1.00  0.00     0.012 C 
ATOM     20  C   UNL     1      13.480  52.942  31.195  1.00  0.00    -0.025 C 
ATOM     21  C   UNL     1      12.548  52.028  33.454  1.00  0.00     0.005 C 
ATOM     22  C   UNL     1      12.330  52.114  31.916  1.00  0.00     0.003 C 
ATOM     23  C   UNL     1      14.682  51.981  30.810  1.00  0.00     0.010 C 
ATOM     24  C   UNL     1      12.889  53.548  29.859  1.00  0.00     0.012 C 
ATOM     25  C   UNL     1      12.078  50.674  31.293  1.00  0.00    -0.006 C 
ATOM     26  C   UNL     1      14.703  50.556  31.411  1.00  0.00     0.033 C 
ATOM     27  C   UNL     1      13.353  49.787  31.472  1.00  0.00     0.120 C 
ATOM     28  C   UNL     1      11.674  50.750  29.792  1.00  0.00     0.014 C 
ATOM     29  C   UNL     1      10.883  49.981  32.009  1.00  0.00     0.014 C 
ENDROOT
BRANCH   1  30
ATOM     30  C   UNL     1      12.433  58.783  32.545  1.00  0.00     0.048 C 
ATOM     31  O   UNL     1      12.997  58.857  31.416  1.00  0.00    -0.550 OA
ATOM     32  O   UNL     1      11.044  58.826  32.588  1.00  0.00    -0.550 OA
ENDBRANCH   1  30
BRANCH  27  33
ATOM     33  O   UNL     1      13.343  48.674  30.606  1.00  0.00    -0.393 OA
ATOM     34  H   UNL     1      12.405  48.354  30.512  1.00  0.00     0.210 HD
ENDBRANCH  27  33
TORSDOF 2
ENDMDL
MODEL 3
REMARK VINA RESULT:    -5.761      2.803      4.330
REMARK INTER + INTRA:          -6.497
REMARK INTER:                  -6.599
REMARK INTRA:                   0.102
REMARK UNBOUND:                -0.231
REMARK SMILES C[C@@H]1[C@H]2C3=CC[C@H]4[C@@]5(C)CC[C@H](O)C(C)(C)[C@H]5CC[C@]4(C)[C@]3(C)CC[C@@]2(C(=O)[O-])CC[C@@H]1C
REMARK SMILES IDX 26 1 30 2 25 3 3 4 31 5 24 6 4 7 2 8 32 9 22 10 5 11 1 12
REMARK SMILES IDX 33 13 23 14 20 15 6 16 7 17 19 18 21 19 8 20 18 21 17 22
REMARK SMILES IDX 10 23 9 24 14 25 11 26 12 27 15 28 16 29 27 30 28 31 29 32
REMARK SMILES IDX 13 33
REMARK H PARENT 13 34
REMARK Flexibility Score: inf
ROOT
ATOM      1  C   UNL     1      16.251  48.607  29.147  1.00  0.00     0.017 C 
ATOM      2  C   UNL     1      16.762  47.472  28.200  1.00  0.00     0.014 C 
ATOM      3  C   UNL     1      16.517  48.152  30.606  1.00  0.00     0.014 C 
ATOM      4  C   UNL     1      14.713  48.873  28.924  1.00  0.00     0.030 C 
ATOM      5  C   UNL     1      16.007  47.430  26.872  1.00  0.00     0.004 C 
ATOM      6  C   UNL     1      15.927  49.104  31.659  1.00  0.00     0.013 C 
ATOM      7  C   UNL     1      14.079  49.667  30.089  1.00  0.00    -0.063 C 
ATOM      8  C   UNL     1      13.959  47.589  28.471  1.00  0.00    -0.003 C 
ATOM      9  C   UNL     1      14.491  47.124  27.067  1.00  0.00    -0.011 C 
ATOM     10  C   UNL     1      14.376  49.303  31.573  1.00  0.00    -0.006 C 
ATOM     11  C   UNL     1      13.464  50.826  29.744  1.00  0.00    -0.027 C 
ATOM     12  C   UNL     1      12.428  47.740  28.499  1.00  0.00     0.008 C 
ATOM     13  C   UNL     1      13.715  47.719  25.876  1.00  0.00     0.008 C 
ATOM     14  C   UNL     1      13.718  47.932  31.926  1.00  0.00     0.017 C 
ATOM     15  C   UNL     1      13.862  50.446  32.625  1.00  0.00    -0.020 C 
ATOM     16  C   UNL     1      13.075  51.894  30.714  1.00  0.00     0.032 C 
ATOM     17  C   UNL     1      13.989  51.860  31.965  1.00  0.00     0.006 C 
ATOM     18  C   UNL     1      14.717  50.446  33.919  1.00  0.00     0.008 C 
ATOM     19  C   UNL     1      12.376  50.185  33.032  1.00  0.00     0.012 C 
ATOM     20  C   UNL     1      13.924  53.184  32.884  1.00  0.00    -0.025 C 
ATOM     21  C   UNL     1      14.358  51.566  34.884  1.00  0.00     0.005 C 
ATOM     22  C   UNL     1      14.646  52.972  34.285  1.00  0.00     0.003 C 
ATOM     23  C   UNL     1      12.461  53.754  33.108  1.00  0.00     0.010 C 
ATOM     24  C   UNL     1      14.747  54.253  32.061  1.00  0.00     0.012 C 
ATOM     25  C   UNL     1      14.352  54.117  35.347  1.00  0.00    -0.006 C 
ATOM     26  C   UNL     1      11.878  53.736  34.540  1.00  0.00     0.033 C 
ATOM     27  C   UNL     1      12.830  54.134  35.703  1.00  0.00     0.120 C 
ATOM     28  C   UNL     1      14.807  55.516  34.837  1.00  0.00     0.014 C 
ATOM     29  C   UNL     1      15.167  53.865  36.647  1.00  0.00     0.014 C 
ENDROOT
BRANCH   1  30
ATOM     30  C   UNL     1      17.070  49.869  28.865  1.00  0.00     0.048 C 
ATOM     31  O   UNL     1      16.558  51.022  28.934  1.00  0.00    -0.550 OA
ATOM     32  O   UNL     1      18.399  49.764  28.468  1.00  0.00    -0.550 OA
ENDBRANCH   1  30
BRANCH  27  33
ATOM     33  O   UNL     1      12.445  55.350  36.305  1.00  0.00    -0.393 OA
ATOM     34  H   UNL     1      11.455  55.433  36.247  1.00  0.00     0.210 HD
ENDBRANCH  27  33
TORSDOF 2
ENDMDL
MODEL 4
REMARK VINA RESULT:    -5.704      5.481      8.692
REMARK INTER + INTRA:          -6.435
REMARK INTER:                  -6.673
REMARK INTRA:                   0.238
REMARK UNBOUND:                -0.231
REMARK SMILES C[C@@H]1[C@H]2C3=CC[C@H]4[C@@]5(C)CC[C@H](O)C(C)(C)[C@H]5CC[C@]4(C)[C@]3(C)CC[C@@]2(C(=O)[O-])CC[C@@H]1C
REMARK SMILES IDX 26 1 30 2 25 3 3 4 31 5 24 6 4 7 2 8 32 9 22 10 5 11 1 12
REMARK SMILES IDX 33 13 23 14 20 15 6 16 7 17 19 18 21 19 8 20 18 21 17 22
REMARK SMILES IDX 10 23 9 24 14 25 11 26 12 27 15 28 16 29 27 30 28 31 29 32
REMARK SMILES IDX 13 33
REMARK H PARENT 13 34
REMARK Flexibility Score: inf
ROOT
ATOM      1  C   UNL     1      14.515  54.316  35.356  1.00  0.00     0.017 C 
ATOM      2  C   UNL     1      14.667  53.809  36.828  1.00  0.00     0.014 C 
ATOM      3  C   UNL     1      15.572  55.430  35.135  1.00  0.00     0.014 C 
ATOM      4  C   UNL     1      13.063  54.874  35.102  1.00  0.00     0.030 C 
ATOM      5  C   UNL     1      13.360  53.259  37.398  1.00  0.00     0.004 C 
ATOM      6  C   UNL     1      15.442  56.133  33.774  1.00  0.00     0.013 C 
ATOM      7  C   UNL     1      12.983  55.747  33.829  1.00  0.00    -0.063 C 
ATOM      8  C   UNL     1      12.436  55.475  36.394  1.00  0.00    -0.003 C 
ATOM      9  C   UNL     1      12.247  54.347  37.471  1.00  0.00    -0.011 C 
ATOM     10  C   UNL     1      14.062  56.826  33.518  1.00  0.00    -0.006 C 
ATOM     11  C   UNL     1      12.076  55.351  32.901  1.00  0.00    -0.027 C 
ATOM     12  C   UNL     1      11.139  56.262  36.131  1.00  0.00     0.008 C 
ATOM     13  C   UNL     1      10.875  53.647  37.410  1.00  0.00     0.008 C 
ATOM     14  C   UNL     1      13.945  58.003  34.537  1.00  0.00     0.017 C 
ATOM     15  C   UNL     1      13.960  57.408  31.993  1.00  0.00    -0.020 C 
ATOM     16  C   UNL     1      12.052  55.836  31.488  1.00  0.00     0.032 C 
ATOM     17  C   UNL     1      13.466  56.275  31.032  1.00  0.00     0.006 C 
ATOM     18  C   UNL     1      15.341  57.897  31.483  1.00  0.00     0.008 C 
ATOM     19  C   UNL     1      12.972  58.617  31.934  1.00  0.00     0.012 C 
ATOM     20  C   UNL     1      13.639  56.443  29.437  1.00  0.00    -0.025 C 
ATOM     21  C   UNL     1      15.329  58.341  30.028  1.00  0.00     0.005 C 
ATOM     22  C   UNL     1      15.003  57.168  29.059  1.00  0.00     0.003 C 
ATOM     23  C   UNL     1      12.423  57.164  28.719  1.00  0.00     0.010 C 
ATOM     24  C   UNL     1      13.709  54.955  28.908  1.00  0.00     0.012 C 
ATOM     25  C   UNL     1      15.090  57.638  27.543  1.00  0.00    -0.006 C 
ATOM     26  C   UNL     1      12.673  58.539  28.056  1.00  0.00     0.033 C 
ATOM     27  C   UNL     1      13.995  58.716  27.257  1.00  0.00     0.120 C 
ATOM     28  C   UNL     1      14.951  56.444  26.554  1.00  0.00     0.014 C 
ATOM     29  C   UNL     1      16.488  58.256  27.253  1.00  0.00     0.014 C 
ENDROOT
BRANCH   1  30
ATOM     30  C   UNL     1      14.824  53.149  34.415  1.00  0.00     0.048 C 
ATOM     31  O   UNL     1      14.557  53.202  33.181  1.00  0.00    -0.550 OA
ATOM     32  O   UNL     1      15.361  51.969  34.920  1.00  0.00    -0.550 OA
ENDBRANCH   1  30
BRANCH  27  33
ATOM     33  O   UNL     1      13.757  58.868  25.875  1.00  0.00    -0.393 OA
ATOM     34  H   UNL     1      14.609  59.132  25.434  1.00  0.00     0.210 HD
ENDBRANCH  27  33
TORSDOF 2
ENDMDL
MODEL 5
REMARK VINA RESULT:    -5.676      3.350      9.819
REMARK INTER + INTRA:          -6.404
REMARK INTER:                  -6.375
REMARK INTRA:                  -0.029
REMARK UNBOUND:                -0.231
REMARK SMILES C[C@@H]1[C@H]2C3=CC[C@H]4[C@@]5(C)CC[C@H](O)C(C)(C)[C@H]5CC[C@]4(C)[C@]3(C)CC[C@@]2(C(=O)[O-])CC[C@@H]1C
REMARK SMILES IDX 26 1 30 2 25 3 3 4 31 5 24 6 4 7 2 8 32 9 22 10 5 11 1 12
REMARK SMILES IDX 33 13 23 14 20 15 6 16 7 17 19 18 21 19 8 20 18 21 17 22
REMARK SMILES IDX 10 23 9 24 14 25 11 26 12 27 15 28 16 29 27 30 28 31 29 32
REMARK SMILES IDX 13 33
REMARK H PARENT 13 34
REMARK Flexibility Score: inf
ROOT
ATOM      1  C   UNL     1      15.573  58.792  33.480  1.00  0.00     0.017 C 
ATOM      2  C   UNL     1      15.936  60.306  33.627  1.00  0.00     0.014 C 
ATOM      3  C   UNL     1      15.925  58.366  32.030  1.00  0.00     0.014 C 
ATOM      4  C   UNL     1      14.042  58.552  33.770  1.00  0.00     0.030 C 
ATOM      5  C   UNL     1      15.078  61.019  34.671  1.00  0.00     0.004 C 
ATOM      6  C   UNL     1      15.479  56.935  31.690  1.00  0.00     0.013 C 
ATOM      7  C   UNL     1      13.552  57.183  33.247  1.00  0.00    -0.063 C 
ATOM      8  C   UNL     1      13.176  59.789  33.389  1.00  0.00    -0.003 C 
ATOM      9  C   UNL     1      13.567  61.014  34.293  1.00  0.00    -0.011 C 
ATOM     10  C   UNL     1      13.942  56.671  31.829  1.00  0.00    -0.006 C 
ATOM     11  C   UNL     1      12.985  56.370  34.172  1.00  0.00    -0.027 C 
ATOM     12  C   UNL     1      11.664  59.502  33.407  1.00  0.00     0.008 C 
ATOM     13  C   UNL     1      12.738  61.125  35.587  1.00  0.00     0.008 C 
ATOM     14  C   UNL     1      13.230  57.533  30.739  1.00  0.00     0.017 C 
ATOM     15  C   UNL     1      13.584  55.091  31.601  1.00  0.00    -0.020 C 
ATOM     16  C   UNL     1      12.741  54.909  33.972  1.00  0.00     0.032 C 
ATOM     17  C   UNL     1      13.747  54.318  32.952  1.00  0.00     0.006 C 
ATOM     18  C   UNL     1      14.537  54.442  30.562  1.00  0.00     0.008 C 
ATOM     19  C   UNL     1      12.121  54.933  31.075  1.00  0.00     0.012 C 
ATOM     20  C   UNL     1      13.836  52.707  32.949  1.00  0.00    -0.025 C 
ATOM     21  C   UNL     1      14.325  52.945  30.397  1.00  0.00     0.005 C 
ATOM     22  C   UNL     1      14.652  52.159  31.699  1.00  0.00     0.003 C 
ATOM     23  C   UNL     1      12.434  51.973  33.048  1.00  0.00     0.010 C 
ATOM     24  C   UNL     1      14.657  52.375  34.259  1.00  0.00     0.012 C 
ATOM     25  C   UNL     1      14.514  50.592  31.470  1.00  0.00    -0.006 C 
ATOM     26  C   UNL     1      11.965  51.123  31.844  1.00  0.00     0.033 C 
ATOM     27  C   UNL     1      13.028  50.231  31.142  1.00  0.00     0.120 C 
ATOM     28  C   UNL     1      15.014  49.777  32.699  1.00  0.00     0.014 C 
ATOM     29  C   UNL     1      15.412  50.142  30.282  1.00  0.00     0.014 C 
ENDROOT
BRANCH   1  30
ATOM     30  C   UNL     1      16.444  57.996  34.454  1.00  0.00     0.048 C 
ATOM     31  O   UNL     1      15.945  57.161  35.262  1.00  0.00    -0.550 OA
ATOM     32  O   UNL     1      17.816  58.220  34.507  1.00  0.00    -0.550 OA
ENDBRANCH   1  30
BRANCH  27  33
ATOM     33  O   UNL     1      12.769  48.858  31.329  1.00  0.00    -0.393 OA
ATOM     34  H   UNL     1      13.355  48.338  30.715  1.00  0.00     0.210 HD
ENDBRANCH  27  33
TORSDOF 2
ENDMDL
MODEL 6
REMARK VINA RESULT:    -5.604      2.180      3.839
REMARK INTER + INTRA:          -6.327
REMARK INTER:                  -6.292
REMARK INTRA:                  -0.034
REMARK UNBOUND:                -0.231
REMARK SMILES C[C@@H]1[C@H]2C3=CC[C@H]4[C@@]5(C)CC[C@H](O)C(C)(C)[C@H]5CC[C@]4(C)[C@]3(C)CC[C@@]2(C(=O)[O-])CC[C@@H]1C
REMARK SMILES IDX 26 1 30 2 25 3 3 4 31 5 24 6 4 7 2 8 32 9 22 10 5 11 1 12
REMARK SMILES IDX 33 13 23 14 20 15 6 16 7 17 19 18 21 19 8 20 18 21 17 22
REMARK SMILES IDX 10 23 9 24 14 25 11 26 12 27 15 28 16 29 27 30 28 31 29 32
REMARK SMILES IDX 13 33
REMARK H PARENT 13 34
REMARK Flexibility Score: inf
ROOT
ATOM      1  C   UNL     1      12.105  43.936  34.616  1.00  0.00     0.017 C 
ATOM      2  C   UNL     1      11.650  42.518  35.097  1.00  0.00     0.014 C 
ATOM      3  C   UNL     1      10.915  44.572  33.851  1.00  0.00     0.014 C 
ATOM      4  C   UNL     1      13.370  43.832  33.681  1.00  0.00     0.030 C 
ATOM      5  C   UNL     1      12.818  41.543  35.239  1.00  0.00     0.004 C 
ATOM      6  C   UNL     1      11.265  45.913  33.184  1.00  0.00     0.013 C 
ATOM      7  C   UNL     1      13.604  45.123  32.863  1.00  0.00    -0.063 C 
ATOM      8  C   UNL     1      13.399  42.494  32.886  1.00  0.00    -0.003 C 
ATOM      9  C   UNL     1      13.537  41.285  33.881  1.00  0.00    -0.011 C 
ATOM     10  C   UNL     1      12.430  45.847  32.141  1.00  0.00    -0.006 C 
ATOM     11  C   UNL     1      14.819  45.705  33.019  1.00  0.00    -0.027 C 
ATOM     12  C   UNL     1      14.465  42.469  31.777  1.00  0.00     0.008 C 
ATOM     13  C   UNL     1      14.994  40.875  34.169  1.00  0.00     0.008 C 
ATOM     14  C   UNL     1      11.925  44.979  30.946  1.00  0.00     0.017 C 
ATOM     15  C   UNL     1      12.835  47.338  31.604  1.00  0.00    -0.020 C 
ATOM     16  C   UNL     1      15.145  47.100  32.593  1.00  0.00     0.032 C 
ATOM     17  C   UNL     1      13.872  47.983  32.584  1.00  0.00     0.006 C 
ATOM     18  C   UNL     1      11.597  48.270  31.539  1.00  0.00     0.008 C 
ATOM     19  C   UNL     1      13.448  47.254  30.169  1.00  0.00     0.012 C 
ATOM     20  C   UNL     1      14.153  49.571  32.523  1.00  0.00    -0.025 C 
ATOM     21  C   UNL     1      11.934  49.703  31.157  1.00  0.00     0.005 C 
ATOM     22  C   UNL     1      12.830  50.399  32.222  1.00  0.00     0.003 C 
ATOM     23  C   UNL     1      15.301  49.994  31.514  1.00  0.00     0.010 C 
ATOM     24  C   UNL     1      14.633  49.923  33.988  1.00  0.00     0.012 C 
ATOM     25  C   UNL     1      13.088  51.921  31.846  1.00  0.00    -0.006 C 
ATOM     26  C   UNL     1      14.917  50.854  30.287  1.00  0.00     0.033 C 
ATOM     27  C   UNL     1      13.901  52.009  30.514  1.00  0.00     0.120 C 
ATOM     28  C   UNL     1      13.823  52.687  32.985  1.00  0.00     0.014 C 
ATOM     29  C   UNL     1      11.734  52.664  31.654  1.00  0.00     0.014 C 
ENDROOT
BRANCH   1  30
ATOM     30  C   UNL     1      12.408  44.785  35.853  1.00  0.00     0.048 C 
ATOM     31  O   UNL     1      13.505  45.396  35.986  1.00  0.00    -0.550 OA
ATOM     32  O   UNL     1      11.487  44.855  36.893  1.00  0.00    -0.550 OA
ENDBRANCH   1  30
BRANCH  27  33
ATOM     33  O   UNL     1      14.499  53.275  30.347  1.00  0.00    -0.393 OA
ATOM     34  H   UNL     1      15.254  53.188  29.704  1.00  0.00     0.210 HD
ENDBRANCH  27  33
TORSDOF 2
ENDMDL
MODEL 7
REMARK VINA RESULT:    -5.394      2.603      8.301
REMARK INTER + INTRA:          -6.098
REMARK INTER:                  -5.848
REMARK INTRA:                  -0.251
REMARK UNBOUND:                -0.231
REMARK SMILES C[C@@H]1[C@H]2C3=CC[C@H]4[C@@]5(C)CC[C@H](O)C(C)(C)[C@H]5CC[C@]4(C)[C@]3(C)CC[C@@]2(C(=O)[O-])CC[C@@H]1C
REMARK SMILES IDX 26 1 30 2 25 3 3 4 31 5 24 6 4 7 2 8 32 9 22 10 5 11 1 12
REMARK SMILES IDX 33 13 23 14 20 15 6 16 7 17 19 18 21 19 8 20 18 21 17 22
REMARK SMILES IDX 10 23 9 24 14 25 11 26 12 27 15 28 16 29 27 30 28 31 29 32
REMARK SMILES IDX 13 33
REMARK H PARENT 13 34
REMARK Flexibility Score: inf
ROOT
ATOM      1  C   UNL     1      12.025  50.743  31.947  1.00  0.00     0.017 C 
ATOM      2  C   UNL     1      11.177  51.916  32.539  1.00  0.00     0.014 C 
ATOM      3  C   UNL     1      11.359  49.415  32.394  1.00  0.00     0.014 C 
ATOM      4  C   UNL     1      13.515  50.814  32.460  1.00  0.00     0.030 C 
ATOM      5  C   UNL     1      12.006  53.178  32.780  1.00  0.00     0.004 C 
ATOM      6  C   UNL     1      12.172  48.166  32.013  1.00  0.00     0.013 C 
ATOM      7  C   UNL     1      14.273  49.483  32.250  1.00  0.00    -0.063 C 
ATOM      8  C   UNL     1      13.613  51.450  33.878  1.00  0.00    -0.003 C 
ATOM      9  C   UNL     1      13.138  52.947  33.825  1.00  0.00    -0.011 C 
ATOM     10  C   UNL     1      13.620  48.115  32.606  1.00  0.00    -0.006 C 
ATOM     11  C   UNL     1      15.413  49.565  31.521  1.00  0.00    -0.027 C 
ATOM     12  C   UNL     1      15.005  51.296  34.517  1.00  0.00     0.008 C 
ATOM     13  C   UNL     1      14.271  53.954  33.549  1.00  0.00     0.008 C 
ATOM     14  C   UNL     1      13.475  47.983  34.155  1.00  0.00     0.017 C 
ATOM     15  C   UNL     1      14.459  46.837  32.023  1.00  0.00    -0.020 C 
ATOM     16  C   UNL     1      16.120  48.390  30.928  1.00  0.00     0.032 C 
ATOM     17  C   UNL     1      15.129  47.228  30.663  1.00  0.00     0.006 C 
ATOM     18  C   UNL     1      13.529  45.623  31.765  1.00  0.00     0.008 C 
ATOM     19  C   UNL     1      15.556  46.392  33.043  1.00  0.00     0.012 C 
ATOM     20  C   UNL     1      15.687  46.075  29.683  1.00  0.00    -0.025 C 
ATOM     21  C   UNL     1      14.236  44.445  31.112  1.00  0.00     0.005 C 
ATOM     22  C   UNL     1      14.754  44.788  29.685  1.00  0.00     0.003 C 
ATOM     23  C   UNL     1      17.193  45.656  29.956  1.00  0.00     0.010 C 
ATOM     24  C   UNL     1      15.614  46.735  28.248  1.00  0.00     0.012 C 
ATOM     25  C   UNL     1      15.403  43.514  28.992  1.00  0.00    -0.006 C 
ATOM     26  C   UNL     1      17.475  44.218  30.450  1.00  0.00     0.033 C 
ATOM     27  C   UNL     1      16.672  43.064  29.786  1.00  0.00     0.120 C 
ATOM     28  C   UNL     1      15.760  43.781  27.500  1.00  0.00     0.014 C 
ATOM     29  C   UNL     1      14.384  42.338  28.969  1.00  0.00     0.014 C 
ENDROOT
BRANCH   1  30
ATOM     30  C   UNL     1      11.968  50.836  30.421  1.00  0.00     0.048 C 
ATOM     31  O   UNL     1      12.861  51.436  29.758  1.00  0.00    -0.550 OA
ATOM     32  O   UNL     1      10.887  50.300  29.729  1.00  0.00    -0.550 OA
ENDBRANCH   1  30
BRANCH  27  33
ATOM     33  O   UNL     1      17.501  42.222  29.016  1.00  0.00    -0.393 OA
ATOM     34  H   UNL     1      17.172  41.287  29.103  1.00  0.00     0.210 HD
ENDBRANCH  27  33
TORSDOF 2
ENDMDL
MODEL 8
REMARK VINA RESULT:    -5.363      2.722      4.717
REMARK INTER + INTRA:          -6.064
REMARK INTER:                  -5.880
REMARK INTRA:                  -0.185
REMARK UNBOUND:                -0.231
REMARK SMILES C[C@@H]1[C@H]2C3=CC[C@H]4[C@@]5(C)CC[C@H](O)C(C)(C)[C@H]5CC[C@]4(C)[C@]3(C)CC[C@@]2(C(=O)[O-])CC[C@@H]1C
REMARK SMILES IDX 26 1 30 2 25 3 3 4 31 5 24 6 4 7 2 8 32 9 22 10 5 11 1 12
REMARK SMILES IDX 33 13 23 14 20 15 6 16 7 17 19 18 21 19 8 20 18 21 17 22
REMARK SMILES IDX 10 23 9 24 14 25 11 26 12 27 15 28 16 29 27 30 28 31 29 32
REMARK SMILES IDX 13 33
REMARK H PARENT 13 34
REMARK Flexibility Score: inf
ROOT
ATOM      1  C   UNL     1      16.474  44.836  30.135  1.00  0.00     0.017 C 
ATOM      2  C   UNL     1      17.298  43.516  29.975  1.00  0.00     0.014 C 
ATOM      3  C   UNL     1      17.262  45.764  31.096  1.00  0.00     0.014 C 
ATOM      4  C   UNL     1      15.038  44.533  30.715  1.00  0.00     0.030 C 
ATOM      5  C   UNL     1      16.418  42.307  29.659  1.00  0.00     0.004 C 
ATOM      6  C   UNL     1      16.497  47.044  31.472  1.00  0.00     0.013 C 
ATOM      7  C   UNL     1      14.350  45.800  31.272  1.00  0.00    -0.063 C 
ATOM      8  C   UNL     1      15.036  43.279  31.639  1.00  0.00    -0.003 C 
ATOM      9  C   UNL     1      15.408  42.000  30.805  1.00  0.00    -0.011 C 
ATOM     10  C   UNL     1      15.120  46.807  32.176  1.00  0.00    -0.006 C 
ATOM     11  C   UNL     1      13.142  46.097  30.733  1.00  0.00    -0.027 C 
ATOM     12  C   UNL     1      13.725  43.108  32.427  1.00  0.00     0.008 C 
ATOM     13  C   UNL     1      14.192  41.271  30.203  1.00  0.00     0.008 C 
ATOM     14  C   UNL     1      15.420  46.155  33.562  1.00  0.00     0.017 C 
ATOM     15  C   UNL     1      14.312  48.213  32.394  1.00  0.00    -0.020 C 
ATOM     16  C   UNL     1      12.458  47.418  30.878  1.00  0.00     0.032 C 
ATOM     17  C   UNL     1      13.491  48.550  31.105  1.00  0.00     0.006 C 
ATOM     18  C   UNL     1      15.288  49.389  32.660  1.00  0.00     0.008 C 
ATOM     19  C   UNL     1      13.347  48.104  33.620  1.00  0.00     0.012 C 
ATOM     20  C   UNL     1      12.916  50.042  30.887  1.00  0.00    -0.025 C 
ATOM     21  C   UNL     1      14.598  50.741  32.755  1.00  0.00     0.005 C 
ATOM     22  C   UNL     1      13.925  51.152  31.413  1.00  0.00     0.003 C 
ATOM     23  C   UNL     1      11.473  50.283  31.501  1.00  0.00     0.010 C 
ATOM     24  C   UNL     1      12.809  50.177  29.315  1.00  0.00     0.012 C 
ATOM     25  C   UNL     1      13.295  52.608  31.513  1.00  0.00    -0.006 C 
ATOM     26  C   UNL     1      11.331  51.291  32.665  1.00  0.00     0.033 C 
ATOM     27  C   UNL     1      12.139  52.616  32.565  1.00  0.00     0.120 C 
ATOM     28  C   UNL     1      12.780  53.115  30.133  1.00  0.00     0.014 C 
ATOM     29  C   UNL     1      14.379  53.633  31.953  1.00  0.00     0.014 C 
ENDROOT
BRANCH   1  30
ATOM     30  C   UNL     1      16.378  45.509  28.765  1.00  0.00     0.048 C 
ATOM     31  O   UNL     1      17.216  46.378  28.392  1.00  0.00    -0.550 OA
ATOM     32  O   UNL     1      15.320  45.210  27.913  1.00  0.00    -0.550 OA
ENDBRANCH   1  30
BRANCH  27  33
ATOM     33  O   UNL     1      11.295  53.735  32.407  1.00  0.00    -0.393 OA
ATOM     34  H   UNL     1      11.185  54.176  33.292  1.00  0.00     0.210 HD
ENDBRANCH  27  33
TORSDOF 2
ENDMDL
MODEL 9
REMARK VINA RESULT:    -5.305     14.602     18.053
REMARK INTER + INTRA:          -6.001
REMARK INTER:                  -5.802
REMARK INTRA:                  -0.200
REMARK UNBOUND:                -0.231
REMARK SMILES C[C@@H]1[C@H]2C3=CC[C@H]4[C@@]5(C)CC[C@H](O)C(C)(C)[C@H]5CC[C@]4(C)[C@]3(C)CC[C@@]2(C(=O)[O-])CC[C@@H]1C
REMARK SMILES IDX 26 1 30 2 25 3 3 4 31 5 24 6 4 7 2 8 32 9 22 10 5 11 1 12
REMARK SMILES IDX 33 13 23 14 20 15 6 16 7 17 19 18 21 19 8 20 18 21 17 22
REMARK SMILES IDX 10 23 9 24 14 25 11 26 12 27 15 28 16 29 27 30 28 31 29 32
REMARK SMILES IDX 13 33
REMARK H PARENT 13 34
REMARK Flexibility Score: inf
ROOT
ATOM      1  C   UNL     1      24.076  55.482  42.312  1.00  0.00     0.017 C 
ATOM      2  C   UNL     1      23.173  54.541  43.176  1.00  0.00     0.014 C 
ATOM      3  C   UNL     1      25.183  54.605  41.670  1.00  0.00     0.014 C 
ATOM      4  C   UNL     1      24.717  56.615  43.202  1.00  0.00     0.030 C 
ATOM      5  C   UNL     1      22.515  55.270  44.347  1.00  0.00     0.004 C 
ATOM      6  C   UNL     1      26.243  55.420  40.911  1.00  0.00     0.013 C 
ATOM      7  C   UNL     1      25.914  57.303  42.506  1.00  0.00    -0.063 C 
ATOM      8  C   UNL     1      24.945  56.146  44.669  1.00  0.00    -0.003 C 
ATOM      9  C   UNL     1      23.563  55.835  45.351  1.00  0.00    -0.011 C 
ATOM     10  C   UNL     1      27.011  56.473  41.777  1.00  0.00    -0.006 C 
ATOM     11  C   UNL     1      25.815  58.647  42.360  1.00  0.00    -0.027 C 
ATOM     12  C   UNL     1      25.803  57.122  45.493  1.00  0.00     0.008 C 
ATOM     13  C   UNL     1      22.941  57.042  46.080  1.00  0.00     0.008 C 
ATOM     14  C   UNL     1      27.857  55.678  42.821  1.00  0.00     0.017 C 
ATOM     15  C   UNL     1      28.001  57.395  40.857  1.00  0.00    -0.020 C 
ATOM     16  C   UNL     1      26.678  59.461  41.451  1.00  0.00     0.032 C 
ATOM     17  C   UNL     1      27.195  58.602  40.269  1.00  0.00     0.006 C 
ATOM     18  C   UNL     1      28.582  56.585  39.668  1.00  0.00     0.008 C 
ATOM     19  C   UNL     1      29.200  57.926  41.707  1.00  0.00     0.012 C 
ATOM     20  C   UNL     1      27.801  59.446  39.035  1.00  0.00    -0.025 C 
ATOM     21  C   UNL     1      29.417  57.424  38.712  1.00  0.00     0.005 C 
ATOM     22  C   UNL     1      28.571  58.518  38.000  1.00  0.00     0.003 C 
ATOM     23  C   UNL     1      28.722  60.664  39.465  1.00  0.00     0.010 C 
ATOM     24  C   UNL     1      26.519  60.030  38.316  1.00  0.00     0.012 C 
ATOM     25  C   UNL     1      29.446  59.316  36.939  1.00  0.00    -0.006 C 
ATOM     26  C   UNL     1      30.221  60.616  39.089  1.00  0.00     0.033 C 
ATOM     27  C   UNL     1      30.586  60.097  37.670  1.00  0.00     0.120 C 
ATOM     28  C   UNL     1      28.582  60.287  36.083  1.00  0.00     0.014 C 
ATOM     29  C   UNL     1      30.089  58.329  35.923  1.00  0.00     0.014 C 
ENDROOT
BRANCH   1  30
ATOM     30  C   UNL     1      23.214  56.082  41.200  1.00  0.00     0.048 C 
ATOM     31  O   UNL     1      22.889  55.414  40.178  1.00  0.00    -0.550 OA
ATOM     32  O   UNL     1      22.812  57.412  41.270  1.00  0.00    -0.550 OA
ENDBRANCH   1  30
BRANCH  27  33
ATOM     33  O   UNL     1      31.125  61.118  36.859  1.00  0.00    -0.393 OA
ATOM     34  H   UNL     1      32.118  61.055  36.889  1.00  0.00     0.210 HD
ENDBRANCH  27  33
TORSDOF 2
ENDMDL
