MODEL 1
REMARK VINA RESULT:    -3.187      0.000      0.000
REMARK INTER + INTRA:          -3.875
REMARK INTER:                  -3.746
REMARK INTRA:                  -0.129
REMARK UNBOUND:                -0.129
REMARK SMILES O=C([O-])C=Cc1ccc(O)c(O)c1
REMARK SMILES IDX 6 1 13 2 7 3 11 4 8 5 9 6 5 7 4 8 2 9 1 10 3 11 12 12 10 14
REMARK H PARENT 12 13 10 15
REMARK Flexibility Score: inf
ROOT
ATOM      1  C   UNL     1      53.663 -34.310  23.576  1.00  0.00    -0.022 A 
ATOM      2  C   UNL     1      53.678 -32.905  23.583  1.00  0.00     0.058 A 
ATOM      3  C   UNL     1      52.428 -34.976  23.453  1.00  0.00     0.012 A 
ATOM      4  C   UNL     1      52.489 -32.174  23.443  1.00  0.00     0.157 A 
ATOM      5  C   UNL     1      51.243 -34.248  23.316  1.00  0.00     0.051 A 
ATOM      6  C   UNL     1      51.266 -32.851  23.307  1.00  0.00     0.157 A 
ENDROOT
BRANCH   1   7
ATOM      7  C   UNL     1      54.949 -35.034  23.736  1.00  0.00     0.010 C 
ATOM      8  C   UNL     1      55.630 -35.576  22.718  1.00  0.00     0.025 C 
BRANCH   8   9
ATOM      9  C   UNL     1      56.907 -36.276  22.921  1.00  0.00     0.064 C 
ATOM     10  O   UNL     1      57.012 -37.124  23.846  1.00  0.00    -0.545 OA
ATOM     11  O   UNL     1      58.005 -36.016  22.108  1.00  0.00    -0.545 OA
ENDBRANCH   8   9
ENDBRANCH   1   7
BRANCH   4  12
ATOM     12  O   UNL     1      52.519 -30.780  23.441  1.00  0.00    -0.504 OA
ATOM     13  H   UNL     1      51.735 -30.233  23.106  1.00  0.00     0.293 HD
ENDBRANCH   4  12
BRANCH   6  14
ATOM     14  O   UNL     1      50.067 -32.154  23.166  1.00  0.00    -0.504 OA
ATOM     15  H   UNL     1      50.041 -31.174  22.909  1.00  0.00     0.293 HD
ENDBRANCH   6  14
TORSDOF 4
ENDMDL
MODEL 2
REMARK VINA RESULT:    -3.184      2.954      6.096
REMARK INTER + INTRA:          -3.872
REMARK INTER:                  -3.741
REMARK INTRA:                  -0.131
REMARK UNBOUND:                -0.129
REMARK SMILES O=C([O-])C=Cc1ccc(O)c(O)c1
REMARK SMILES IDX 6 1 13 2 7 3 11 4 8 5 9 6 5 7 4 8 2 9 1 10 3 11 12 12 10 14
REMARK H PARENT 12 13 10 15
REMARK Flexibility Score: inf
ROOT
ATOM      1  C   UNL     1      51.525 -31.856  23.273  1.00  0.00    -0.022 A 
ATOM      2  C   UNL     1      52.771 -32.365  23.675  1.00  0.00     0.058 A 
ATOM      3  C   UNL     1      50.480 -32.758  22.991  1.00  0.00     0.012 A 
ATOM      4  C   UNL     1      52.969 -33.746  23.821  1.00  0.00     0.157 A 
ATOM      5  C   UNL     1      50.677 -34.134  23.135  1.00  0.00     0.051 A 
ATOM      6  C   UNL     1      51.914 -34.633  23.551  1.00  0.00     0.157 A 
ENDROOT
BRANCH   1   7
ATOM      7  C   UNL     1      51.373 -30.386  23.125  1.00  0.00     0.010 C 
ATOM      8  C   UNL     1      52.109 -29.491  23.797  1.00  0.00     0.025 C 
BRANCH   8   9
ATOM      9  C   UNL     1      51.932 -28.042  23.611  1.00  0.00     0.064 C 
ATOM     10  O   UNL     1      52.938 -27.315  23.399  1.00  0.00    -0.545 OA
ATOM     11  O   UNL     1      50.670 -27.461  23.666  1.00  0.00    -0.545 OA
ENDBRANCH   8   9
ENDBRANCH   1   7
BRANCH   4  12
ATOM     12  O   UNL     1      54.207 -34.238  24.231  1.00  0.00    -0.504 OA
ATOM     13  H   UNL     1      54.373 -35.231  24.342  1.00  0.00     0.293 HD
ENDBRANCH   4  12
BRANCH   6  14
ATOM     14  O   UNL     1      52.078 -36.011  23.687  1.00  0.00    -0.504 OA
ATOM     15  H   UNL     1      51.342 -36.667  23.452  1.00  0.00     0.293 HD
ENDBRANCH   6  14
TORSDOF 4
ENDMDL
MODEL 3
REMARK VINA RESULT:    -3.174      3.045      6.270
REMARK INTER + INTRA:          -3.859
REMARK INTER:                  -3.716
REMARK INTRA:                  -0.143
REMARK UNBOUND:                -0.129
REMARK SMILES O=C([O-])C=Cc1ccc(O)c(O)c1
REMARK SMILES IDX 6 1 13 2 7 3 11 4 8 5 9 6 5 7 4 8 2 9 1 10 3 11 12 12 10 14
REMARK H PARENT 12 13 10 15
REMARK Flexibility Score: inf
ROOT
ATOM      1  C   UNL     1      51.641 -31.873  23.311  1.00  0.00    -0.022 A 
ATOM      2  C   UNL     1      50.639 -32.806  22.995  1.00  0.00     0.058 A 
ATOM      3  C   UNL     1      52.882 -32.342  23.785  1.00  0.00     0.012 A 
ATOM      4  C   UNL     1      50.875 -34.183  23.123  1.00  0.00     0.157 A 
ATOM      5  C   UNL     1      53.117 -33.714  23.913  1.00  0.00     0.051 A 
ATOM      6  C   UNL     1      52.121 -34.637  23.583  1.00  0.00     0.157 A 
ENDROOT
BRANCH   1   7
ATOM      7  C   UNL     1      51.335 -30.427  23.166  1.00  0.00     0.010 C 
ATOM      8  C   UNL     1      52.048 -29.454  23.749  1.00  0.00     0.025 C 
BRANCH   8   9
ATOM      9  C   UNL     1      51.716 -28.032  23.569  1.00  0.00     0.064 C 
ATOM     10  O   UNL     1      50.510 -27.678  23.506  1.00  0.00    -0.545 OA
ATOM     11  O   UNL     1      52.715 -27.071  23.467  1.00  0.00    -0.545 OA
ENDBRANCH   8   9
ENDBRANCH   1   7
BRANCH   4  12
ATOM     12  O   UNL     1      49.875 -35.099  22.796  1.00  0.00    -0.504 OA
ATOM     13  H   UNL     1      49.116 -35.304  23.434  1.00  0.00     0.293 HD
ENDBRANCH   4  12
BRANCH   6  14
ATOM     14  O   UNL     1      52.388 -35.999  23.720  1.00  0.00    -0.504 OA
ATOM     15  H   UNL     1      52.569 -36.424  24.621  1.00  0.00     0.293 HD
ENDBRANCH   6  14
TORSDOF 4
ENDMDL
MODEL 4
REMARK VINA RESULT:    -3.119      1.360      5.874
REMARK INTER + INTRA:          -3.795
REMARK INTER:                  -3.666
REMARK INTRA:                  -0.129
REMARK UNBOUND:                -0.129
REMARK SMILES O=C([O-])C=Cc1ccc(O)c(O)c1
REMARK SMILES IDX 6 1 13 2 7 3 11 4 8 5 9 6 5 7 4 8 2 9 1 10 3 11 12 12 10 14
REMARK H PARENT 12 13 10 15
REMARK Flexibility Score: inf
ROOT
ATOM      1  C   UNL     1      54.012 -35.313  23.597  1.00  0.00    -0.022 A 
ATOM      2  C   UNL     1      55.016 -35.336  22.614  1.00  0.00     0.058 A 
ATOM      3  C   UNL     1      54.350 -35.644  24.924  1.00  0.00     0.012 A 
ATOM      4  C   UNL     1      56.340 -35.657  22.949  1.00  0.00     0.157 A 
ATOM      5  C   UNL     1      55.669 -35.965  25.257  1.00  0.00     0.051 A 
ATOM      6  C   UNL     1      56.666 -35.971  24.278  1.00  0.00     0.157 A 
ENDROOT
BRANCH   1   7
ATOM      7  C   UNL     1      52.625 -34.975  23.187  1.00  0.00     0.010 C 
ATOM      8  C   UNL     1      51.974 -33.880  23.598  1.00  0.00     0.025 C 
BRANCH   8   9
ATOM      9  C   UNL     1      50.603 -33.579  23.157  1.00  0.00     0.064 C 
ATOM     10  O   UNL     1      50.077 -32.477  23.467  1.00  0.00    -0.545 OA
ATOM     11  O   UNL     1      49.875 -34.493  22.403  1.00  0.00    -0.545 OA
ENDBRANCH   8   9
ENDBRANCH   1   7
BRANCH   4  12
ATOM     12  O   UNL     1      57.328 -35.666  21.966  1.00  0.00    -0.504 OA
ATOM     13  H   UNL     1      57.406 -34.919  21.286  1.00  0.00     0.293 HD
ENDBRANCH   4  12
BRANCH   6  14
ATOM     14  O   UNL     1      57.973 -36.294  24.643  1.00  0.00    -0.504 OA
ATOM     15  H   UNL     1      58.222 -37.208  25.001  1.00  0.00     0.293 HD
ENDBRANCH   6  14
TORSDOF 4
ENDMDL
MODEL 5
REMARK VINA RESULT:    -3.044      1.667      5.962
REMARK INTER + INTRA:          -3.707
REMARK INTER:                  -3.569
REMARK INTRA:                  -0.138
REMARK UNBOUND:                -0.129
REMARK SMILES O=C([O-])C=Cc1ccc(O)c(O)c1
REMARK SMILES IDX 6 1 13 2 7 3 11 4 8 5 9 6 5 7 4 8 2 9 1 10 3 11 12 12 10 14
REMARK H PARENT 12 13 10 15
REMARK Flexibility Score: inf
ROOT
ATOM      1  C   UNL     1      54.292 -35.401  23.608  1.00  0.00    -0.022 A 
ATOM      2  C   UNL     1      55.199 -35.660  24.649  1.00  0.00     0.058 A 
ATOM      3  C   UNL     1      54.678 -35.685  22.283  1.00  0.00     0.012 A 
ATOM      4  C   UNL     1      56.459 -36.215  24.382  1.00  0.00     0.157 A 
ATOM      5  C   UNL     1      55.934 -36.237  22.016  1.00  0.00     0.051 A 
ATOM      6  C   UNL     1      56.826 -36.506  23.059  1.00  0.00     0.157 A 
ENDROOT
BRANCH   1   7
ATOM      7  C   UNL     1      52.975 -34.804  23.945  1.00  0.00     0.010 C 
ATOM      8  C   UNL     1      51.889 -34.910  23.168  1.00  0.00     0.025 C 
BRANCH   8   9
ATOM      9  C   UNL     1      50.600 -34.311  23.547  1.00  0.00     0.064 C 
ATOM     10  O   UNL     1      50.013 -34.706  24.589  1.00  0.00    -0.545 OA
ATOM     11  O   UNL     1      50.016 -33.315  22.771  1.00  0.00    -0.545 OA
ENDBRANCH   8   9
ENDBRANCH   1   7
BRANCH   4  12
ATOM     12  O   UNL     1      57.345 -36.476  25.426  1.00  0.00    -0.504 OA
ATOM     13  H   UNL     1      57.023 -36.827  26.320  1.00  0.00     0.293 HD
ENDBRANCH   4  12
BRANCH   6  14
ATOM     14  O   UNL     1      58.071 -37.059  22.760  1.00  0.00    -0.504 OA
ATOM     15  H   UNL     1      58.485 -36.988  21.838  1.00  0.00     0.293 HD
ENDBRANCH   6  14
TORSDOF 4
ENDMDL
MODEL 6
REMARK VINA RESULT:    -3.023      1.803      5.904
REMARK INTER + INTRA:          -3.682
REMARK INTER:                  -3.554
REMARK INTRA:                  -0.128
REMARK UNBOUND:                -0.129
REMARK SMILES O=C([O-])C=Cc1ccc(O)c(O)c1
REMARK SMILES IDX 6 1 13 2 7 3 11 4 8 5 9 6 5 7 4 8 2 9 1 10 3 11 12 12 10 14
REMARK H PARENT 12 13 10 15
REMARK Flexibility Score: inf
ROOT
ATOM      1  C   UNL     1      53.128 -32.957  23.782  1.00  0.00    -0.022 A 
ATOM      2  C   UNL     1      54.510 -32.702  23.742  1.00  0.00     0.058 A 
ATOM      3  C   UNL     1      52.673 -34.275  23.582  1.00  0.00     0.012 A 
ATOM      4  C   UNL     1      55.425 -33.744  23.532  1.00  0.00     0.157 A 
ATOM      5  C   UNL     1      53.585 -35.313  23.372  1.00  0.00     0.051 A 
ATOM      6  C   UNL     1      54.959 -35.056  23.349  1.00  0.00     0.157 A 
ENDROOT
BRANCH   1   7
ATOM      7  C   UNL     1      52.203 -31.816  23.998  1.00  0.00     0.010 C 
ATOM      8  C   UNL     1      51.587 -31.160  23.006  1.00  0.00     0.025 C 
BRANCH   8   9
ATOM      9  C   UNL     1      50.668 -30.041  23.266  1.00  0.00     0.064 C 
ATOM     10  O   UNL     1      50.561 -29.582  24.433  1.00  0.00    -0.545 OA
ATOM     11  O   UNL     1      49.912 -29.481  22.241  1.00  0.00    -0.545 OA
ENDBRANCH   8   9
ENDBRANCH   1   7
BRANCH   4  12
ATOM     12  O   UNL     1      56.794 -33.480  23.505  1.00  0.00    -0.504 OA
ATOM     13  H   UNL     1      57.244 -32.941  24.235  1.00  0.00     0.293 HD
ENDBRANCH   4  12
BRANCH   6  14
ATOM     14  O   UNL     1      55.843 -36.113  23.139  1.00  0.00    -0.504 OA
ATOM     15  H   UNL     1      55.713 -37.018  23.576  1.00  0.00     0.293 HD
ENDBRANCH   6  14
TORSDOF 4
ENDMDL
MODEL 7
REMARK VINA RESULT:    -3.002      6.156      8.389
REMARK INTER + INTRA:          -3.657
REMARK INTER:                  -3.526
REMARK INTRA:                  -0.132
REMARK UNBOUND:                -0.129
REMARK SMILES O=C([O-])C=Cc1ccc(O)c(O)c1
REMARK SMILES IDX 6 1 13 2 7 3 11 4 8 5 9 6 5 7 4 8 2 9 1 10 3 11 12 12 10 14
REMARK H PARENT 12 13 10 15
REMARK Flexibility Score: inf
ROOT
ATOM      1  C   UNL     1      52.077 -26.340  23.641  1.00  0.00    -0.022 A 
ATOM      2  C   UNL     1      53.105 -25.558  23.085  1.00  0.00     0.058 A 
ATOM      3  C   UNL     1      50.801 -25.768  23.805  1.00  0.00     0.012 A 
ATOM      4  C   UNL     1      52.860 -24.239  22.675  1.00  0.00     0.157 A 
ATOM      5  C   UNL     1      50.557 -24.453  23.398  1.00  0.00     0.051 A 
ATOM      6  C   UNL     1      51.579 -23.686  22.832  1.00  0.00     0.157 A 
ENDROOT
BRANCH   1   7
ATOM      7  C   UNL     1      52.392 -27.727  24.067  1.00  0.00     0.010 C 
ATOM      8  C   UNL     1      51.835 -28.816  23.524  1.00  0.00     0.025 C 
BRANCH   8   9
ATOM      9  C   UNL     1      52.185 -30.174  23.969  1.00  0.00     0.064 C 
ATOM     10  O   UNL     1      52.704 -30.342  25.104  1.00  0.00    -0.545 OA
ATOM     11  O   UNL     1      51.953 -31.278  23.155  1.00  0.00    -0.545 OA
ENDBRANCH   8   9
ENDBRANCH   1   7
BRANCH   4  12
ATOM     12  O   UNL     1      53.886 -23.478  22.116  1.00  0.00    -0.504 OA
ATOM     13  H   UNL     1      54.221 -23.650  21.176  1.00  0.00     0.293 HD
ENDBRANCH   4  12
BRANCH   6  14
ATOM     14  O   UNL     1      51.304 -22.378  22.434  1.00  0.00    -0.504 OA
ATOM     15  H   UNL     1      50.700 -22.170  21.647  1.00  0.00     0.293 HD
ENDBRANCH   6  14
TORSDOF 4
ENDMDL
MODEL 8
REMARK VINA RESULT:    -2.984      2.934      4.032
REMARK INTER + INTRA:          -3.636
REMARK INTER:                  -3.501
REMARK INTRA:                  -0.136
REMARK UNBOUND:                -0.129
REMARK SMILES O=C([O-])C=Cc1ccc(O)c(O)c1
REMARK SMILES IDX 6 1 13 2 7 3 11 4 8 5 9 6 5 7 4 8 2 9 1 10 3 11 12 12 10 14
REMARK H PARENT 12 13 10 15
REMARK Flexibility Score: inf
ROOT
ATOM      1  C   UNL     1      56.686 -35.277  24.032  1.00  0.00    -0.022 A 
ATOM      2  C   UNL     1      56.284 -35.691  22.751  1.00  0.00     0.058 A 
ATOM      3  C   UNL     1      55.702 -34.884  24.960  1.00  0.00     0.012 A 
ATOM      4  C   UNL     1      54.925 -35.739  22.407  1.00  0.00     0.157 A 
ATOM      5  C   UNL     1      54.348 -34.931  24.617  1.00  0.00     0.051 A 
ATOM      6  C   UNL     1      53.954 -35.359  23.346  1.00  0.00     0.157 A 
ENDROOT
BRANCH   1   7
ATOM      7  C   UNL     1      58.138 -35.235  24.341  1.00  0.00     0.010 C 
ATOM      8  C   UNL     1      59.093 -35.607  23.479  1.00  0.00     0.025 C 
BRANCH   8   9
ATOM      9  C   UNL     1      60.522 -35.539  23.824  1.00  0.00     0.064 C 
ATOM     10  O   UNL     1      60.913 -34.718  24.695  1.00  0.00    -0.545 OA
ATOM     11  O   UNL     1      61.450 -36.367  23.201  1.00  0.00    -0.545 OA
ENDBRANCH   8   9
ENDBRANCH   1   7
BRANCH   4  12
ATOM     12  O   UNL     1      54.539 -36.162  21.135  1.00  0.00    -0.504 OA
ATOM     13  H   UNL     1      53.565 -36.311  20.899  1.00  0.00     0.293 HD
ENDBRANCH   4  12
BRANCH   6  14
ATOM     14  O   UNL     1      52.595 -35.396  23.035  1.00  0.00    -0.504 OA
ATOM     15  H   UNL     1      51.889 -35.615  23.729  1.00  0.00     0.293 HD
ENDBRANCH   6  14
TORSDOF 4
ENDMDL
MODEL 9
REMARK VINA RESULT:    -2.856      2.006      3.073
REMARK INTER + INTRA:          -3.486
REMARK INTER:                  -3.355
REMARK INTRA:                  -0.131
REMARK UNBOUND:                -0.129
REMARK SMILES O=C([O-])C=Cc1ccc(O)c(O)c1
REMARK SMILES IDX 6 1 13 2 7 3 11 4 8 5 9 6 5 7 4 8 2 9 1 10 3 11 12 12 10 14
REMARK H PARENT 12 13 10 15
REMARK Flexibility Score: inf
ROOT
ATOM      1  C   UNL     1      52.953 -32.097  23.829  1.00  0.00    -0.022 A 
ATOM      2  C   UNL     1      51.851 -31.718  23.043  1.00  0.00     0.058 A 
ATOM      3  C   UNL     1      53.592 -31.121  24.619  1.00  0.00     0.012 A 
ATOM      4  C   UNL     1      51.376 -30.398  23.062  1.00  0.00     0.157 A 
ATOM      5  C   UNL     1      53.120 -29.806  24.637  1.00  0.00     0.051 A 
ATOM      6  C   UNL     1      52.014 -29.439  23.865  1.00  0.00     0.157 A 
ENDROOT
BRANCH   1   7
ATOM      7  C   UNL     1      53.420 -33.505  23.765  1.00  0.00     0.010 C 
ATOM      8  C   UNL     1      54.660 -33.861  23.407  1.00  0.00     0.025 C 
BRANCH   8   9
ATOM      9  C   UNL     1      55.085 -35.269  23.368  1.00  0.00     0.064 C 
ATOM     10  O   UNL     1      55.498 -35.824  24.420  1.00  0.00    -0.545 OA
ATOM     11  O   UNL     1      55.038 -36.000  22.185  1.00  0.00    -0.545 OA
ENDBRANCH   8   9
ENDBRANCH   1   7
BRANCH   4  12
ATOM     12  O   UNL     1      50.276 -30.039  22.285  1.00  0.00    -0.504 OA
ATOM     13  H   UNL     1      50.373 -29.448  21.468  1.00  0.00     0.293 HD
ENDBRANCH   4  12
BRANCH   6  14
ATOM     14  O   UNL     1      51.566 -28.120  23.906  1.00  0.00    -0.504 OA
ATOM     15  H   UNL     1      50.663 -27.869  24.291  1.00  0.00     0.293 HD
ENDBRANCH   6  14
TORSDOF 4
ENDMDL
