MODEL 1
REMARK VINA RESULT:     2.209      0.000      0.000
REMARK INTER + INTRA:           2.209
REMARK INTER:                   2.209
REMARK INTRA:                   0.000
REMARK UNBOUND:                 0.000
REMARK SMILES CC1(C)O[C@]2(C)CC[C@H]1CC2
REMARK SMILES IDX 1 1 2 2 9 3 8 4 7 5 5 6 4 7 11 8 10 9 6 10 3 11
REMARK H PARENT
REMARK Flexibility Score: inf
ROOT
ATOM      1  C   UNL     1       8.028 -10.665   2.074  1.00  0.00     0.042 C 
ATOM      2  C   UNL     1       9.554 -10.559   2.283  1.00  0.00     0.066 C 
ATOM      3  C   UNL     1       9.911  -9.304   3.169  1.00  0.00     0.021 C 
ATOM      4  C   UNL     1      11.443  -9.278   3.388  1.00  0.00     0.009 C 
ATOM      5  C   UNL     1      11.904 -10.658   3.914  1.00  0.00     0.035 C 
ATOM      6  C   UNL     1      10.669 -11.579   4.134  1.00  0.00     0.066 C 
ATOM      7  O   UNL     1      10.008 -11.781   2.884  1.00  0.00    -0.369 OA
ATOM      8  C   UNL     1       9.691 -10.885   5.123  1.00  0.00     0.035 C 
ATOM      9  C   UNL     1       9.280  -9.499   4.569  1.00  0.00     0.009 C 
ATOM     10  C   UNL     1      11.110 -12.938   4.685  1.00  0.00     0.042 C 
ATOM     11  C   UNL     1      10.203 -10.443   0.886  1.00  0.00     0.042 C 
ENDROOT
TORSDOF 0
ENDMDL
MODEL 2
REMARK VINA RESULT:     3.468      0.961      3.329
REMARK INTER + INTRA:           3.468
REMARK INTER:                   3.468
REMARK INTRA:                   0.000
REMARK UNBOUND:                 0.000
REMARK SMILES CC1(C)O[C@]2(C)CC[C@H]1CC2
REMARK SMILES IDX 1 1 2 2 9 3 8 4 7 5 5 6 4 7 11 8 10 9 6 10 3 11
REMARK H PARENT
REMARK Flexibility Score: inf
ROOT
ATOM      1  C   UNL     1      12.391 -12.005   4.671  1.00  0.00     0.042 C 
ATOM      2  C   UNL     1      10.878 -11.772   4.468  1.00  0.00     0.066 C 
ATOM      3  C   UNL     1      10.430 -10.410   5.125  1.00  0.00     0.021 C 
ATOM      4  C   UNL     1       8.921 -10.205   4.846  1.00  0.00     0.009 C 
ATOM      5  C   UNL     1       8.658 -10.370   3.330  1.00  0.00     0.035 C 
ATOM      6  C   UNL     1      10.003 -10.594   2.582  1.00  0.00     0.066 C 
ATOM      7  O   UNL     1      10.609 -11.797   3.058  1.00  0.00    -0.369 OA
ATOM      8  C   UNL     1      10.951  -9.396   2.874  1.00  0.00     0.035 C 
ATOM      9  C   UNL     1      11.161  -9.254   4.401  1.00  0.00     0.009 C 
ATOM     10  C   UNL     1       9.760 -10.726   1.076  1.00  0.00     0.042 C 
ATOM     11  C   UNL     1      10.138 -12.962   5.118  1.00  0.00     0.042 C 
ENDROOT
TORSDOF 0
ENDMDL
MODEL 3
REMARK VINA RESULT:     3.853      1.297      3.357
REMARK INTER + INTRA:           3.853
REMARK INTER:                   3.853
REMARK INTRA:                   0.000
REMARK UNBOUND:                 0.000
REMARK SMILES CC1(C)O[C@]2(C)CC[C@H]1CC2
REMARK SMILES IDX 1 1 2 2 9 3 8 4 7 5 5 6 4 7 11 8 10 9 6 10 3 11
REMARK H PARENT
REMARK Flexibility Score: inf
ROOT
ATOM      1  C   UNL     1      12.402  -9.039   5.105  1.00  0.00     0.042 C 
ATOM      2  C   UNL     1      11.979 -10.342   4.391  1.00  0.00     0.066 C 
ATOM      3  C   UNL     1      10.751 -11.007   5.125  1.00  0.00     0.021 C 
ATOM      4  C   UNL     1      10.339 -12.275   4.339  1.00  0.00     0.009 C 
ATOM      5  C   UNL     1      10.147 -11.908   2.848  1.00  0.00     0.035 C 
ATOM      6  C   UNL     1      10.341 -10.377   2.652  1.00  0.00     0.066 C 
ATOM      7  O   UNL     1      11.674 -10.022   3.025  1.00  0.00    -0.369 OA
ATOM      8  C   UNL     1       9.336  -9.618   3.564  1.00  0.00     0.035 C 
ATOM      9  C   UNL     1       9.547 -10.038   5.039  1.00  0.00     0.009 C 
ATOM     10  C   UNL     1      10.122  -9.996   1.184  1.00  0.00     0.042 C 
ATOM     11  C   UNL     1      13.199 -11.288   4.400  1.00  0.00     0.042 C 
ENDROOT
TORSDOF 0
ENDMDL
