MODEL 1
REMARK VINA RESULT:    -3.203      0.000      0.000
REMARK INTER + INTRA:          -6.922
REMARK INTER:                  -5.450
REMARK INTRA:                  -1.472
REMARK UNBOUND:                -1.472
REMARK SMILES CCCCCCCCCCCCCC(=O)[O-]
REMARK SMILES IDX 8 1 9 2 10 3 11 4 12 5 13 6 14 7 15 8 16 9 7 10 6 11 5 12
REMARK SMILES IDX 4 13 3 14 2 15 1 16
REMARK H PARENT
REMARK Flexibility Score: inf
ROOT
ATOM      1  C   UNL     1      63.127  29.379  61.001  1.00  0.00     0.000 C 
ENDROOT
BRANCH   1   2
ATOM      2  C   UNL     1      61.851  28.529  60.878  1.00  0.00     0.000 C 
BRANCH   2   3
ATOM      3  C   UNL     1      61.178  28.672  59.504  1.00  0.00     0.000 C 
BRANCH   3   4
ATOM      4  C   UNL     1      60.393  29.988  59.361  1.00  0.00     0.000 C 
BRANCH   4   5
ATOM      5  C   UNL     1      60.615  30.662  57.997  1.00  0.00     0.006 C 
BRANCH   5   6
ATOM      6  C   UNL     1      60.966  32.149  58.124  1.00  0.00     0.053 C 
BRANCH   6   7
ATOM      7  C   UNL     1      59.845  32.997  57.615  1.00  0.00     0.041 C 
ATOM      8  O   UNL     1      59.857  33.417  56.428  1.00  0.00    -0.550 OA
ATOM      9  O   UNL     1      58.760  33.282  58.435  1.00  0.00    -0.550 OA
ENDBRANCH   6   7
ENDBRANCH   5   6
ENDBRANCH   4   5
ENDBRANCH   3   4
ENDBRANCH   2   3
ENDBRANCH   1   2
BRANCH   1  10
ATOM     10  C   UNL     1      63.965  29.374  59.712  1.00  0.00     0.000 C 
BRANCH  10  11
ATOM     11  C   UNL     1      64.380  30.785  59.268  1.00  0.00    -0.000 C 
BRANCH  11  12
ATOM     12  C   UNL     1      64.145  31.805  60.390  1.00  0.00    -0.000 C 
BRANCH  12  13
ATOM     13  C   UNL     1      64.140  33.237  59.842  1.00  0.00    -0.000 C 
BRANCH  13  14
ATOM     14  C   UNL     1      64.329  34.259  60.972  1.00  0.00    -0.000 C 
BRANCH  14  15
ATOM     15  C   UNL     1      63.278  35.380  60.935  1.00  0.00    -0.003 C 
ATOM     16  C   UNL     1      62.262  35.202  59.807  1.00  0.00     0.004 C 
ENDBRANCH  14  15
ENDBRANCH  13  14
ENDBRANCH  12  13
ENDBRANCH  11  12
ENDBRANCH  10  11
ENDBRANCH   1  10
TORSDOF 12
ENDMDL
MODEL 2
REMARK VINA RESULT:    -3.194     14.271     16.285
REMARK INTER + INTRA:          -6.906
REMARK INTER:                  -4.691
REMARK INTRA:                  -2.215
REMARK UNBOUND:                -1.472
REMARK SMILES CCCCCCCCCCCCCC(=O)[O-]
REMARK SMILES IDX 8 1 9 2 10 3 11 4 12 5 13 6 14 7 15 8 16 9 7 10 6 11 5 12
REMARK SMILES IDX 4 13 3 14 2 15 1 16
REMARK H PARENT
REMARK Flexibility Score: inf
ROOT
ATOM      1  C   UNL     1      58.088  16.223  50.480  1.00  0.00     0.000 C 
ENDROOT
BRANCH   1   2
ATOM      2  C   UNL     1      59.415  16.241  51.257  1.00  0.00     0.000 C 
BRANCH   2   3
ATOM      3  C   UNL     1      60.351  17.370  50.798  1.00  0.00     0.000 C 
BRANCH   3   4
ATOM      4  C   UNL     1      60.737  18.324  51.942  1.00  0.00     0.000 C 
BRANCH   4   5
ATOM      5  C   UNL     1      60.366  19.785  51.643  1.00  0.00     0.006 C 
BRANCH   5   6
ATOM      6  C   UNL     1      60.447  20.119  50.148  1.00  0.00     0.053 C 
BRANCH   6   7
ATOM      7  C   UNL     1      60.955  21.511  49.950  1.00  0.00     0.041 C 
ATOM      8  O   UNL     1      60.437  22.258  49.078  1.00  0.00    -0.550 OA
ATOM      9  O   UNL     1      61.970  22.004  50.762  1.00  0.00    -0.550 OA
ENDBRANCH   6   7
ENDBRANCH   5   6
ENDBRANCH   4   5
ENDBRANCH   3   4
ENDBRANCH   2   3
ENDBRANCH   1   2
BRANCH   1  10
ATOM     10  C   UNL     1      57.880  17.492  49.638  1.00  0.00     0.000 C 
BRANCH  10  11
ATOM     11  C   UNL     1      56.505  18.138  49.867  1.00  0.00    -0.000 C 
BRANCH  11  12
ATOM     12  C   UNL     1      56.158  18.175  51.361  1.00  0.00    -0.000 C 
BRANCH  12  13
ATOM     13  C   UNL     1      56.832  19.365  52.054  1.00  0.00    -0.000 C 
BRANCH  13  14
ATOM     14  C   UNL     1      57.205  19.018  53.503  1.00  0.00    -0.000 C 
BRANCH  14  15
ATOM     15  C   UNL     1      56.969  17.536  53.835  1.00  0.00    -0.003 C 
ATOM     16  C   UNL     1      58.156  16.895  54.552  1.00  0.00     0.004 C 
ENDBRANCH  14  15
ENDBRANCH  13  14
ENDBRANCH  12  13
ENDBRANCH  11  12
ENDBRANCH  10  11
ENDBRANCH   1  10
TORSDOF 12
ENDMDL
MODEL 3
REMARK VINA RESULT:    -3.141      2.764      5.096
REMARK INTER + INTRA:          -6.817
REMARK INTER:                  -4.915
REMARK INTRA:                  -1.902
REMARK UNBOUND:                -1.472
REMARK SMILES CCCCCCCCCCCCCC(=O)[O-]
REMARK SMILES IDX 8 1 9 2 10 3 11 4 12 5 13 6 14 7 15 8 16 9 7 10 6 11 5 12
REMARK SMILES IDX 4 13 3 14 2 15 1 16
REMARK H PARENT
REMARK Flexibility Score: inf
ROOT
ATOM      1  C   UNL     1      64.791  28.684  59.165  1.00  0.00     0.000 C 
ENDROOT
BRANCH   1   2
ATOM      2  C   UNL     1      65.111  30.168  59.414  1.00  0.00     0.000 C 
BRANCH   2   3
ATOM      3  C   UNL     1      64.930  31.028  58.154  1.00  0.00     0.000 C 
BRANCH   3   4
ATOM      4  C   UNL     1      64.644  32.505  58.479  1.00  0.00     0.000 C 
BRANCH   4   5
ATOM      5  C   UNL     1      64.087  32.700  59.898  1.00  0.00     0.006 C 
BRANCH   5   6
ATOM      6  C   UNL     1      63.609  34.135  60.152  1.00  0.00     0.053 C 
BRANCH   6   7
ATOM      7  C   UNL     1      64.534  34.833  61.098  1.00  0.00     0.041 C 
ATOM      8  O   UNL     1      64.168  35.076  62.278  1.00  0.00    -0.550 OA
ATOM      9  O   UNL     1      65.819  35.173  60.692  1.00  0.00    -0.550 OA
ENDBRANCH   6   7
ENDBRANCH   5   6
ENDBRANCH   4   5
ENDBRANCH   3   4
ENDBRANCH   2   3
ENDBRANCH   1   2
BRANCH   1  10
ATOM     10  C   UNL     1      63.710  28.146  60.118  1.00  0.00     0.000 C 
BRANCH  10  11
ATOM     11  C   UNL     1      63.082  29.248  60.984  1.00  0.00    -0.000 C 
BRANCH  11  12
ATOM     12  C   UNL     1      61.554  29.117  61.015  1.00  0.00    -0.000 C 
BRANCH  12  13
ATOM     13  C   UNL     1      60.988  28.924  59.603  1.00  0.00    -0.000 C 
BRANCH  13  14
ATOM     14  C   UNL     1      60.444  30.246  59.043  1.00  0.00    -0.000 C 
BRANCH  14  15
ATOM     15  C   UNL     1      61.276  30.775  57.863  1.00  0.00    -0.003 C 
ATOM     16  C   UNL     1      61.791  29.657  56.956  1.00  0.00     0.004 C 
ENDBRANCH  14  15
ENDBRANCH  13  14
ENDBRANCH  12  13
ENDBRANCH  11  12
ENDBRANCH  10  11
ENDBRANCH   1  10
TORSDOF 12
ENDMDL
MODEL 4
REMARK VINA RESULT:    -3.100      8.547     10.675
REMARK INTER + INTRA:          -6.746
REMARK INTER:                  -4.708
REMARK INTRA:                  -2.038
REMARK UNBOUND:                -1.472
REMARK SMILES CCCCCCCCCCCCCC(=O)[O-]
REMARK SMILES IDX 8 1 9 2 10 3 11 4 12 5 13 6 14 7 15 8 16 9 7 10 6 11 5 12
REMARK SMILES IDX 4 13 3 14 2 15 1 16
REMARK H PARENT
REMARK Flexibility Score: inf
ROOT
ATOM      1  C   UNL     1      58.041  25.186  50.804  1.00  0.00     0.000 C 
ENDROOT
BRANCH   1   2
ATOM      2  C   UNL     1      56.659  25.821  51.033  1.00  0.00     0.000 C 
BRANCH   2   3
ATOM      3  C   UNL     1      56.725  27.353  51.140  1.00  0.00     0.000 C 
BRANCH   3   4
ATOM      4  C   UNL     1      56.114  28.060  49.918  1.00  0.00     0.000 C 
BRANCH   4   5
ATOM      5  C   UNL     1      56.444  29.561  49.879  1.00  0.00     0.006 C 
BRANCH   5   6
ATOM      6  C   UNL     1      55.249  30.438  50.271  1.00  0.00     0.053 C 
BRANCH   6   7
ATOM      7  C   UNL     1      55.541  31.184  51.534  1.00  0.00     0.041 C 
ATOM      8  O   UNL     1      55.320  32.422  51.605  1.00  0.00    -0.550 OA
ATOM      9  O   UNL     1      56.011  30.505  52.651  1.00  0.00    -0.550 OA
ENDBRANCH   6   7
ENDBRANCH   5   6
ENDBRANCH   4   5
ENDBRANCH   3   4
ENDBRANCH   2   3
ENDBRANCH   1   2
BRANCH   1  10
ATOM     10  C   UNL     1      58.510  25.305  49.345  1.00  0.00     0.000 C 
BRANCH  10  11
ATOM     11  C   UNL     1      59.810  26.113  49.203  1.00  0.00    -0.000 C 
BRANCH  11  12
ATOM     12  C   UNL     1      59.529  27.510  48.636  1.00  0.00    -0.000 C 
BRANCH  12  13
ATOM     13  C   UNL     1      60.037  28.603  49.583  1.00  0.00    -0.000 C 
BRANCH  13  14
ATOM     14  C   UNL     1      60.725  27.989  50.812  1.00  0.00    -0.000 C 
BRANCH  14  15
ATOM     15  C   UNL     1      60.063  28.414  52.133  1.00  0.00    -0.003 C 
ATOM     16  C   UNL     1      59.461  29.817  52.067  1.00  0.00     0.004 C 
ENDBRANCH  14  15
ENDBRANCH  13  14
ENDBRANCH  12  13
ENDBRANCH  11  12
ENDBRANCH  10  11
ENDBRANCH   1  10
TORSDOF 12
ENDMDL
MODEL 5
REMARK VINA RESULT:    -3.089     12.769     14.718
REMARK INTER + INTRA:          -6.728
REMARK INTER:                  -6.107
REMARK INTRA:                  -0.621
REMARK UNBOUND:                -1.472
REMARK SMILES CCCCCCCCCCCCCC(=O)[O-]
REMARK SMILES IDX 8 1 9 2 10 3 11 4 12 5 13 6 14 7 15 8 16 9 7 10 6 11 5 12
REMARK SMILES IDX 4 13 3 14 2 15 1 16
REMARK H PARENT
REMARK Flexibility Score: inf
ROOT
ATOM      1  C   UNL     1      60.758  22.465  49.012  1.00  0.00     0.000 C 
ENDROOT
BRANCH   1   2
ATOM      2  C   UNL     1      60.799  20.976  48.629  1.00  0.00     0.000 C 
BRANCH   2   3
ATOM      3  C   UNL     1      60.085  20.083  49.656  1.00  0.00     0.000 C 
BRANCH   3   4
ATOM      4  C   UNL     1      59.267  18.957  48.999  1.00  0.00     0.000 C 
BRANCH   4   5
ATOM      5  C   UNL     1      59.090  17.740  49.922  1.00  0.00     0.006 C 
BRANCH   5   6
ATOM      6  C   UNL     1      57.684  17.135  49.837  1.00  0.00     0.053 C 
BRANCH   6   7
ATOM      7  C   UNL     1      56.672  18.086  50.392  1.00  0.00     0.041 C 
ATOM      8  O   UNL     1      56.917  18.726  51.449  1.00  0.00    -0.550 OA
ATOM      9  O   UNL     1      55.477  18.303  49.718  1.00  0.00    -0.550 OA
ENDBRANCH   6   7
ENDBRANCH   5   6
ENDBRANCH   4   5
ENDBRANCH   3   4
ENDBRANCH   2   3
ENDBRANCH   1   2
BRANCH   1  10
ATOM     10  C   UNL     1      60.301  22.687  50.463  1.00  0.00     0.000 C 
BRANCH  10  11
ATOM     11  C   UNL     1      59.636  24.056  50.673  1.00  0.00    -0.000 C 
BRANCH  11  12
ATOM     12  C   UNL     1      59.638  24.872  49.374  1.00  0.00    -0.000 C 
BRANCH  12  13
ATOM     13  C   UNL     1      58.497  25.896  49.364  1.00  0.00    -0.000 C 
BRANCH  13  14
ATOM     14  C   UNL     1      59.031  27.312  49.102  1.00  0.00    -0.000 C 
BRANCH  14  15
ATOM     15  C   UNL     1      58.129  28.403  49.701  1.00  0.00    -0.003 C 
ATOM     16  C   UNL     1      56.654  28.004  49.725  1.00  0.00     0.004 C 
ENDBRANCH  14  15
ENDBRANCH  13  14
ENDBRANCH  12  13
ENDBRANCH  11  12
ENDBRANCH  10  11
ENDBRANCH   1  10
TORSDOF 12
ENDMDL
MODEL 6
REMARK VINA RESULT:    -3.080     14.497     16.733
REMARK INTER + INTRA:          -6.713
REMARK INTER:                  -4.452
REMARK INTRA:                  -2.261
REMARK UNBOUND:                -1.472
REMARK SMILES CCCCCCCCCCCCCC(=O)[O-]
REMARK SMILES IDX 8 1 9 2 10 3 11 4 12 5 13 6 14 7 15 8 16 9 7 10 6 11 5 12
REMARK SMILES IDX 4 13 3 14 2 15 1 16
REMARK H PARENT
REMARK Flexibility Score: inf
ROOT
ATOM      1  C   UNL     1      59.269  19.964  53.197  1.00  0.00     0.000 C 
ENDROOT
BRANCH   1   2
ATOM      2  C   UNL     1      58.175  20.355  52.189  1.00  0.00     0.000 C 
BRANCH   2   3
ATOM      3  C   UNL     1      56.759  20.206  52.769  1.00  0.00     0.000 C 
BRANCH   3   4
ATOM      4  C   UNL     1      55.950  19.092  52.081  1.00  0.00     0.000 C 
BRANCH   4   5
ATOM      5  C   UNL     1      55.136  18.252  53.078  1.00  0.00     0.006 C 
BRANCH   5   6
ATOM      6  C   UNL     1      55.788  18.187  54.464  1.00  0.00     0.053 C 
BRANCH   6   7
ATOM      7  C   UNL     1      55.588  16.835  55.072  1.00  0.00     0.041 C 
ATOM      8  O   UNL     1      56.572  16.192  55.524  1.00  0.00    -0.550 OA
ATOM      9  O   UNL     1      54.309  16.305  55.186  1.00  0.00    -0.550 OA
ENDBRANCH   6   7
ENDBRANCH   5   6
ENDBRANCH   4   5
ENDBRANCH   3   4
ENDBRANCH   2   3
ENDBRANCH   1   2
BRANCH   1  10
ATOM     10  C   UNL     1      59.917  18.610  52.867  1.00  0.00     0.000 C 
BRANCH  10  11
ATOM     11  C   UNL     1      59.315  17.451  53.677  1.00  0.00    -0.000 C 
BRANCH  11  12
ATOM     12  C   UNL     1      58.741  16.373  52.750  1.00  0.00    -0.000 C 
BRANCH  12  13
ATOM     13  C   UNL     1      59.156  16.619  51.294  1.00  0.00    -0.000 C 
BRANCH  13  14
ATOM     14  C   UNL     1      57.968  16.416  50.342  1.00  0.00    -0.000 C 
BRANCH  14  15
ATOM     15  C   UNL     1      57.800  17.579  49.352  1.00  0.00    -0.003 C 
ATOM     16  C   UNL     1      59.105  18.331  49.096  1.00  0.00     0.004 C 
ENDBRANCH  14  15
ENDBRANCH  13  14
ENDBRANCH  12  13
ENDBRANCH  11  12
ENDBRANCH  10  11
ENDBRANCH   1  10
TORSDOF 12
ENDMDL
MODEL 7
REMARK VINA RESULT:    -3.077      6.058      8.078
REMARK INTER + INTRA:          -6.708
REMARK INTER:                  -4.961
REMARK INTRA:                  -1.747
REMARK UNBOUND:                -1.472
REMARK SMILES CCCCCCCCCCCCCC(=O)[O-]
REMARK SMILES IDX 8 1 9 2 10 3 11 4 12 5 13 6 14 7 15 8 16 9 7 10 6 11 5 12
REMARK SMILES IDX 4 13 3 14 2 15 1 16
REMARK H PARENT
REMARK Flexibility Score: inf
ROOT
ATOM      1  C   UNL     1      71.270  30.750  57.774  1.00  0.00     0.000 C 
ENDROOT
BRANCH   1   2
ATOM      2  C   UNL     1      70.129  29.834  57.299  1.00  0.00     0.000 C 
BRANCH   2   3
ATOM      3  C   UNL     1      68.783  30.181  57.956  1.00  0.00     0.000 C 
BRANCH   3   4
ATOM      4  C   UNL     1      67.741  29.058  57.804  1.00  0.00     0.000 C 
BRANCH   4   5
ATOM      5  C   UNL     1      66.346  29.478  58.294  1.00  0.00     0.006 C 
BRANCH   5   6
ATOM      6  C   UNL     1      66.050  28.993  59.718  1.00  0.00     0.053 C 
BRANCH   6   7
ATOM      7  C   UNL     1      64.727  29.514  60.183  1.00  0.00     0.041 C 
ATOM      8  O   UNL     1      64.545  30.753  60.315  1.00  0.00    -0.550 OA
ATOM      9  O   UNL     1      63.679  28.634  60.423  1.00  0.00    -0.550 OA
ENDBRANCH   6   7
ENDBRANCH   5   6
ENDBRANCH   4   5
ENDBRANCH   3   4
ENDBRANCH   2   3
ENDBRANCH   1   2
BRANCH   1  10
ATOM     10  C   UNL     1      70.824  31.723  58.878  1.00  0.00     0.000 C 
BRANCH  10  11
ATOM     11  C   UNL     1      71.645  31.574  60.167  1.00  0.00    -0.000 C 
BRANCH  11  12
ATOM     12  C   UNL     1      72.457  30.273  60.154  1.00  0.00    -0.000 C 
BRANCH  12  13
ATOM     13  C   UNL     1      71.843  29.230  61.096  1.00  0.00    -0.000 C 
BRANCH  13  14
ATOM     14  C   UNL     1      71.553  27.919  60.351  1.00  0.00    -0.000 C 
BRANCH  14  15
ATOM     15  C   UNL     1      70.053  27.586  60.303  1.00  0.00    -0.003 C 
ATOM     16  C   UNL     1      69.242  28.365  61.338  1.00  0.00     0.004 C 
ENDBRANCH  14  15
ENDBRANCH  13  14
ENDBRANCH  12  13
ENDBRANCH  11  12
ENDBRANCH  10  11
ENDBRANCH   1  10
TORSDOF 12
ENDMDL
MODEL 8
REMARK VINA RESULT:    -3.059      2.693      5.181
REMARK INTER + INTRA:          -6.677
REMARK INTER:                  -5.436
REMARK INTRA:                  -1.241
REMARK UNBOUND:                -1.472
REMARK SMILES CCCCCCCCCCCCCC(=O)[O-]
REMARK SMILES IDX 8 1 9 2 10 3 11 4 12 5 13 6 14 7 15 8 16 9 7 10 6 11 5 12
REMARK SMILES IDX 4 13 3 14 2 15 1 16
REMARK H PARENT
REMARK Flexibility Score: inf
ROOT
ATOM      1  C   UNL     1      60.880  29.788  58.554  1.00  0.00     0.000 C 
ENDROOT
BRANCH   1   2
ATOM      2  C   UNL     1      60.173  31.142  58.371  1.00  0.00     0.000 C 
BRANCH   2   3
ATOM      3  C   UNL     1      61.153  32.276  58.029  1.00  0.00     0.000 C 
BRANCH   3   4
ATOM      4  C   UNL     1      62.526  32.097  58.700  1.00  0.00     0.000 C 
BRANCH   4   5
ATOM      5  C   UNL     1      63.141  33.432  59.150  1.00  0.00     0.006 C 
BRANCH   5   6
ATOM      6  C   UNL     1      64.198  33.255  60.247  1.00  0.00     0.053 C 
BRANCH   6   7
ATOM      7  C   UNL     1      64.532  34.573  60.869  1.00  0.00     0.041 C 
ATOM      8  O   UNL     1      63.828  35.027  61.808  1.00  0.00    -0.550 OA
ATOM      9  O   UNL     1      65.651  35.279  60.445  1.00  0.00    -0.550 OA
ENDBRANCH   6   7
ENDBRANCH   5   6
ENDBRANCH   4   5
ENDBRANCH   3   4
ENDBRANCH   2   3
ENDBRANCH   1   2
BRANCH   1  10
ATOM     10  C   UNL     1      60.319  28.986  59.739  1.00  0.00     0.000 C 
BRANCH  10  11
ATOM     11  C   UNL     1      61.223  29.048  60.979  1.00  0.00    -0.000 C 
BRANCH  11  12
ATOM     12  C   UNL     1      62.653  28.608  60.639  1.00  0.00    -0.000 C 
BRANCH  12  13
ATOM     13  C   UNL     1      63.671  29.683  61.037  1.00  0.00    -0.000 C 
BRANCH  13  14
ATOM     14  C   UNL     1      64.928  29.602  60.158  1.00  0.00    -0.000 C 
BRANCH  14  15
ATOM     15  C   UNL     1      65.739  28.320  60.406  1.00  0.00    -0.003 C 
ATOM     16  C   UNL     1      66.050  27.560  59.117  1.00  0.00     0.004 C 
ENDBRANCH  14  15
ENDBRANCH  13  14
ENDBRANCH  12  13
ENDBRANCH  11  12
ENDBRANCH  10  11
ENDBRANCH   1  10
TORSDOF 12
ENDMDL
MODEL 9
REMARK VINA RESULT:    -3.038      9.806     12.194
REMARK INTER + INTRA:          -6.641
REMARK INTER:                  -4.391
REMARK INTRA:                  -2.250
REMARK UNBOUND:                -1.472
REMARK SMILES CCCCCCCCCCCCCC(=O)[O-]
REMARK SMILES IDX 8 1 9 2 10 3 11 4 12 5 13 6 14 7 15 8 16 9 7 10 6 11 5 12
REMARK SMILES IDX 4 13 3 14 2 15 1 16
REMARK H PARENT
REMARK Flexibility Score: inf
ROOT
ATOM      1  C   UNL     1      58.898  28.394  48.962  1.00  0.00     0.000 C 
ENDROOT
BRANCH   1   2
ATOM      2  C   UNL     1      59.518  27.034  48.599  1.00  0.00     0.000 C 
BRANCH   2   3
ATOM      3  C   UNL     1      60.982  26.915  49.051  1.00  0.00     0.000 C 
BRANCH   3   4
ATOM      4  C   UNL     1      61.293  25.557  49.705  1.00  0.00     0.000 C 
BRANCH   4   5
ATOM      5  C   UNL     1      60.135  24.555  49.566  1.00  0.00     0.006 C 
BRANCH   5   6
ATOM      6  C   UNL     1      60.121  23.511  50.688  1.00  0.00     0.053 C 
BRANCH   6   7
ATOM      7  C   UNL     1      60.437  22.154  50.143  1.00  0.00     0.041 C 
ATOM      8  O   UNL     1      60.612  21.994  48.906  1.00  0.00    -0.550 OA
ATOM      9  O   UNL     1      60.588  21.075  51.005  1.00  0.00    -0.550 OA
ENDBRANCH   6   7
ENDBRANCH   5   6
ENDBRANCH   4   5
ENDBRANCH   3   4
ENDBRANCH   2   3
ENDBRANCH   1   2
BRANCH   1  10
ATOM     10  C   UNL     1      57.543  28.252  49.676  1.00  0.00     0.000 C 
BRANCH  10  11
ATOM     11  C   UNL     1      57.025  26.806  49.683  1.00  0.00    -0.000 C 
BRANCH  11  12
ATOM     12  C   UNL     1      56.768  26.322  51.115  1.00  0.00    -0.000 C 
BRANCH  12  13
ATOM     13  C   UNL     1      57.545  27.168  52.131  1.00  0.00    -0.000 C 
BRANCH  13  14
ATOM     14  C   UNL     1      58.744  26.390  52.693  1.00  0.00    -0.000 C 
BRANCH  14  15
ATOM     15  C   UNL     1      60.050  27.198  52.636  1.00  0.00    -0.003 C 
ATOM     16  C   UNL     1      59.813  28.707  52.642  1.00  0.00     0.004 C 
ENDBRANCH  14  15
ENDBRANCH  13  14
ENDBRANCH  12  13
ENDBRANCH  11  12
ENDBRANCH  10  11
ENDBRANCH   1  10
TORSDOF 12
ENDMDL
