MODEL 1
REMARK VINA RESULT:    -5.245      0.000      0.000
REMARK INTER + INTRA:         -15.177
REMARK INTER:                 -11.990
REMARK INTRA:                  -3.187
REMARK UNBOUND:                -3.187
REMARK SMILES CCCCCCCCCCCCCCCCCCCCCCCC(=O)[O-]
REMARK SMILES IDX 13 1 14 2 15 3 16 4 17 5 18 6 19 7 20 8 21 9 22 10 23 11
REMARK SMILES IDX 24 12 25 13 26 14 12 15 11 16 10 17 9 18 8 19 7 20 6 21 5 22
REMARK SMILES IDX 4 23 3 24 2 25 1 26
REMARK H PARENT
REMARK Flexibility Score: inf
ROOT
ATOM      1  C   UNL     1      18.067 -32.025  20.487  1.00  0.00     0.000 C 
ENDROOT
BRANCH   1   2
ATOM      2  C   UNL     1      18.425 -33.512  20.323  1.00  0.00     0.000 C 
BRANCH   2   3
ATOM      3  C   UNL     1      17.736 -34.155  19.108  1.00  0.00     0.000 C 
BRANCH   3   4
ATOM      4  C   UNL     1      16.453 -34.915  19.489  1.00  0.00     0.000 C 
BRANCH   4   5
ATOM      5  C   UNL     1      16.333 -35.159  21.004  1.00  0.00     0.000 C 
BRANCH   5   6
ATOM      6  C   UNL     1      15.262 -34.311  21.723  1.00  0.00     0.000 C 
BRANCH   6   7
ATOM      7  C   UNL     1      14.686 -33.147  20.896  1.00  0.00     0.000 C 
BRANCH   7   8
ATOM      8  C   UNL     1      13.859 -32.125  21.700  1.00  0.00     0.000 C 
BRANCH   8   9
ATOM      9  C   UNL     1      14.007 -32.267  23.230  1.00  0.00     0.000 C 
BRANCH   9  10
ATOM     10  C   UNL     1      13.506 -31.025  23.990  1.00  0.00     0.006 C 
BRANCH  10  11
ATOM     11  C   UNL     1      12.992 -29.934  23.040  1.00  0.00     0.053 C 
BRANCH  11  12
ATOM     12  C   UNL     1      13.059 -28.574  23.664  1.00  0.00     0.041 C 
ATOM     13  O   UNL     1      12.146 -28.185  24.439  1.00  0.00    -0.550 OA
ATOM     14  O   UNL     1      14.133 -27.734  23.391  1.00  0.00    -0.550 OA
ENDBRANCH  11  12
ENDBRANCH  10  11
ENDBRANCH   9  10
ENDBRANCH   8   9
ENDBRANCH   7   8
ENDBRANCH   6   7
ENDBRANCH   5   6
ENDBRANCH   4   5
ENDBRANCH   3   4
ENDBRANCH   2   3
ENDBRANCH   1   2
BRANCH   1  15
ATOM     15  C   UNL     1      18.402 -31.479  21.889  1.00  0.00     0.000 C 
BRANCH  15  16
ATOM     16  C   UNL     1      17.391 -30.470  22.461  1.00  0.00     0.000 C 
BRANCH  16  17
ATOM     17  C   UNL     1      17.085 -30.709  23.950  1.00  0.00     0.000 C 
BRANCH  17  18
ATOM     18  C   UNL     1      17.903 -31.867  24.554  1.00  0.00    -0.000 C 
BRANCH  18  19
ATOM     19  C   UNL     1      17.113 -33.165  24.809  1.00  0.00    -0.000 C 
BRANCH  19  20
ATOM     20  C   UNL     1      17.886 -34.428  24.394  1.00  0.00    -0.000 C 
BRANCH  20  21
ATOM     21  C   UNL     1      17.263 -35.717  24.955  1.00  0.00    -0.000 C 
BRANCH  21  22
ATOM     22  C   UNL     1      18.101 -36.337  26.082  1.00  0.00    -0.000 C 
BRANCH  22  23
ATOM     23  C   UNL     1      17.770 -37.825  26.256  1.00  0.00    -0.000 C 
BRANCH  23  24
ATOM     24  C   UNL     1      16.541 -38.016  27.158  1.00  0.00    -0.000 C 
BRANCH  24  25
ATOM     25  C   UNL     1      16.598 -37.153  28.428  1.00  0.00    -0.003 C 
ATOM     26  C   UNL     1      17.122 -37.919  29.642  1.00  0.00     0.004 C 
ENDBRANCH  24  25
ENDBRANCH  23  24
ENDBRANCH  22  23
ENDBRANCH  21  22
ENDBRANCH  20  21
ENDBRANCH  19  20
ENDBRANCH  18  19
ENDBRANCH  17  18
ENDBRANCH  16  17
ENDBRANCH  15  16
ENDBRANCH   1  15
TORSDOF 22
ENDMDL
MODEL 2
REMARK VINA RESULT:    -5.216      2.212      3.195
REMARK INTER + INTRA:         -15.112
REMARK INTER:                 -10.999
REMARK INTRA:                  -4.113
REMARK UNBOUND:                -3.187
REMARK SMILES CCCCCCCCCCCCCCCCCCCCCCCC(=O)[O-]
REMARK SMILES IDX 13 1 14 2 15 3 16 4 17 5 18 6 19 7 20 8 21 9 22 10 23 11
REMARK SMILES IDX 24 12 25 13 26 14 12 15 11 16 10 17 9 18 8 19 7 20 6 21 5 22
REMARK SMILES IDX 4 23 3 24 2 25 1 26
REMARK H PARENT
REMARK Flexibility Score: inf
ROOT
ATOM      1  C   UNL     1      18.770 -32.777  20.487  1.00  0.00     0.000 C 
ENDROOT
BRANCH   1   2
ATOM      2  C   UNL     1      17.245 -32.978  20.491  1.00  0.00     0.000 C 
BRANCH   2   3
ATOM      3  C   UNL     1      16.781 -34.003  19.443  1.00  0.00     0.000 C 
BRANCH   3   4
ATOM      4  C   UNL     1      15.380 -34.564  19.746  1.00  0.00     0.000 C 
BRANCH   4   5
ATOM      5  C   UNL     1      14.629 -33.749  20.815  1.00  0.00     0.000 C 
BRANCH   5   6
ATOM      6  C   UNL     1      13.818 -32.551  20.276  1.00  0.00     0.000 C 
BRANCH   6   7
ATOM      7  C   UNL     1      13.465 -31.477  21.322  1.00  0.00     0.000 C 
BRANCH   7   8
ATOM      8  C   UNL     1      14.363 -30.224  21.297  1.00  0.00     0.000 C 
BRANCH   8   9
ATOM      9  C   UNL     1      14.407 -29.461  22.638  1.00  0.00     0.000 C 
BRANCH   9  10
ATOM     10  C   UNL     1      13.389 -30.002  23.659  1.00  0.00     0.006 C 
BRANCH  10  11
ATOM     11  C   UNL     1      12.468 -28.899  24.199  1.00  0.00     0.053 C 
BRANCH  11  12
ATOM     12  C   UNL     1      11.405 -28.526  23.211  1.00  0.00     0.041 C 
ATOM     13  O   UNL     1      10.912 -29.399  22.449  1.00  0.00    -0.550 OA
ATOM     14  O   UNL     1      10.957 -27.213  23.132  1.00  0.00    -0.550 OA
ENDBRANCH  11  12
ENDBRANCH  10  11
ENDBRANCH   9  10
ENDBRANCH   8   9
ENDBRANCH   7   8
ENDBRANCH   6   7
ENDBRANCH   5   6
ENDBRANCH   4   5
ENDBRANCH   3   4
ENDBRANCH   2   3
ENDBRANCH   1   2
BRANCH   1  15
ATOM     15  C   UNL     1      19.210 -31.515  21.254  1.00  0.00     0.000 C 
BRANCH  15  16
ATOM     16  C   UNL     1      18.161 -30.934  22.220  1.00  0.00     0.000 C 
BRANCH  16  17
ATOM     17  C   UNL     1      18.613 -30.981  23.690  1.00  0.00     0.000 C 
BRANCH  17  18
ATOM     18  C   UNL     1      17.717 -31.876  24.568  1.00  0.00    -0.000 C 
BRANCH  18  19
ATOM     19  C   UNL     1      16.359 -32.254  23.946  1.00  0.00    -0.000 C 
BRANCH  19  20
ATOM     20  C   UNL     1      15.883 -33.659  24.356  1.00  0.00    -0.000 C 
BRANCH  20  21
ATOM     21  C   UNL     1      16.482 -34.769  23.478  1.00  0.00    -0.000 C 
BRANCH  21  22
ATOM     22  C   UNL     1      17.643 -35.504  24.164  1.00  0.00    -0.000 C 
BRANCH  22  23
ATOM     23  C   UNL     1      18.947 -35.324  23.377  1.00  0.00    -0.000 C 
BRANCH  23  24
ATOM     24  C   UNL     1      19.252 -36.562  22.520  1.00  0.00    -0.000 C 
BRANCH  24  25
ATOM     25  C   UNL     1      18.792 -36.401  21.063  1.00  0.00    -0.003 C 
ATOM     26  C   UNL     1      17.697 -37.394  20.673  1.00  0.00     0.004 C 
ENDBRANCH  24  25
ENDBRANCH  23  24
ENDBRANCH  22  23
ENDBRANCH  21  22
ENDBRANCH  20  21
ENDBRANCH  19  20
ENDBRANCH  18  19
ENDBRANCH  17  18
ENDBRANCH  16  17
ENDBRANCH  15  16
ENDBRANCH   1  15
TORSDOF 22
ENDMDL
MODEL 3
REMARK VINA RESULT:    -5.212      1.623      3.925
REMARK INTER + INTRA:         -15.102
REMARK INTER:                 -11.251
REMARK INTRA:                  -3.851
REMARK UNBOUND:                -3.187
REMARK SMILES CCCCCCCCCCCCCCCCCCCCCCCC(=O)[O-]
REMARK SMILES IDX 13 1 14 2 15 3 16 4 17 5 18 6 19 7 20 8 21 9 22 10 23 11
REMARK SMILES IDX 24 12 25 13 26 14 12 15 11 16 10 17 9 18 8 19 7 20 6 21 5 22
REMARK SMILES IDX 4 23 3 24 2 25 1 26
REMARK H PARENT
REMARK Flexibility Score: inf
ROOT
ATOM      1  C   UNL     1      14.742 -33.234  22.207  1.00  0.00     0.000 C 
ENDROOT
BRANCH   1   2
ATOM      2  C   UNL     1      15.747 -34.203  22.854  1.00  0.00     0.000 C 
BRANCH   2   3
ATOM      3  C   UNL     1      16.348 -33.649  24.156  1.00  0.00     0.000 C 
BRANCH   3   4
ATOM      4  C   UNL     1      17.517 -32.681  23.902  1.00  0.00     0.000 C 
BRANCH   4   5
ATOM      5  C   UNL     1      18.237 -32.953  22.569  1.00  0.00     0.000 C 
BRANCH   5   6
ATOM      6  C   UNL     1      18.702 -31.695  21.805  1.00  0.00     0.000 C 
BRANCH   6   7
ATOM      7  C   UNL     1      17.598 -30.960  21.023  1.00  0.00     0.000 C 
BRANCH   7   8
ATOM      8  C   UNL     1      16.967 -29.761  21.760  1.00  0.00     0.000 C 
BRANCH   8   9
ATOM      9  C   UNL     1      15.423 -29.768  21.756  1.00  0.00     0.000 C 
BRANCH   9  10
ATOM     10  C   UNL     1      14.827 -29.190  23.052  1.00  0.00     0.006 C 
BRANCH  10  11
ATOM     11  C   UNL     1      13.675 -30.049  23.593  1.00  0.00     0.053 C 
BRANCH  11  12
ATOM     12  C   UNL     1      12.339 -29.425  23.326  1.00  0.00     0.041 C 
ATOM     13  O   UNL     1      11.666 -29.773  22.320  1.00  0.00    -0.550 OA
ATOM     14  O   UNL     1      11.836 -28.460  24.190  1.00  0.00    -0.550 OA
ENDBRANCH  11  12
ENDBRANCH  10  11
ENDBRANCH   9  10
ENDBRANCH   8   9
ENDBRANCH   7   8
ENDBRANCH   6   7
ENDBRANCH   5   6
ENDBRANCH   4   5
ENDBRANCH   3   4
ENDBRANCH   2   3
ENDBRANCH   1   2
BRANCH   1  15
ATOM     15  C   UNL     1      14.657 -33.394  20.676  1.00  0.00     0.000 C 
BRANCH  15  16
ATOM     16  C   UNL     1      15.328 -34.658  20.108  1.00  0.00     0.000 C 
BRANCH  16  17
ATOM     17  C   UNL     1      16.550 -34.342  19.229  1.00  0.00     0.000 C 
BRANCH  17  18
ATOM     18  C   UNL     1      17.817 -35.104  19.662  1.00  0.00    -0.000 C 
BRANCH  18  19
ATOM     19  C   UNL     1      17.673 -36.636  19.722  1.00  0.00    -0.000 C 
BRANCH  19  20
ATOM     20  C   UNL     1      17.944 -37.210  21.123  1.00  0.00    -0.000 C 
BRANCH  20  21
ATOM     21  C   UNL     1      18.986 -36.395  21.907  1.00  0.00    -0.000 C 
BRANCH  21  22
ATOM     22  C   UNL     1      19.469 -37.115  23.175  1.00  0.00    -0.000 C 
BRANCH  22  23
ATOM     23  C   UNL     1      19.199 -36.268  24.424  1.00  0.00    -0.000 C 
BRANCH  23  24
ATOM     24  C   UNL     1      17.878 -36.677  25.095  1.00  0.00    -0.000 C 
BRANCH  24  25
ATOM     25  C   UNL     1      18.051 -37.847  26.076  1.00  0.00    -0.003 C 
ATOM     26  C   UNL     1      16.898 -37.961  27.072  1.00  0.00     0.004 C 
ENDBRANCH  24  25
ENDBRANCH  23  24
ENDBRANCH  22  23
ENDBRANCH  21  22
ENDBRANCH  20  21
ENDBRANCH  19  20
ENDBRANCH  18  19
ENDBRANCH  17  18
ENDBRANCH  16  17
ENDBRANCH  15  16
ENDBRANCH   1  15
TORSDOF 22
ENDMDL
MODEL 4
REMARK VINA RESULT:    -5.153      2.717      5.512
REMARK INTER + INTRA:         -14.966
REMARK INTER:                 -10.272
REMARK INTRA:                  -4.694
REMARK UNBOUND:                -3.187
REMARK SMILES CCCCCCCCCCCCCCCCCCCCCCCC(=O)[O-]
REMARK SMILES IDX 13 1 14 2 15 3 16 4 17 5 18 6 19 7 20 8 21 9 22 10 23 11
REMARK SMILES IDX 24 12 25 13 26 14 12 15 11 16 10 17 9 18 8 19 7 20 6 21 5 22
REMARK SMILES IDX 4 23 3 24 2 25 1 26
REMARK H PARENT
REMARK Flexibility Score: inf
ROOT
ATOM      1  C   UNL     1      15.025 -32.992  23.594  1.00  0.00     0.000 C 
ENDROOT
BRANCH   1   2
ATOM      2  C   UNL     1      14.214 -31.772  23.124  1.00  0.00     0.000 C 
BRANCH   2   3
ATOM      3  C   UNL     1      14.966 -30.447  23.329  1.00  0.00     0.000 C 
BRANCH   3   4
ATOM      4  C   UNL     1      15.497 -29.859  22.010  1.00  0.00     0.000 C 
BRANCH   4   5
ATOM      5  C   UNL     1      17.032 -29.920  21.904  1.00  0.00     0.000 C 
BRANCH   5   6
ATOM      6  C   UNL     1      17.579 -30.937  20.881  1.00  0.00     0.000 C 
BRANCH   6   7
ATOM      7  C   UNL     1      18.846 -31.693  21.323  1.00  0.00     0.000 C 
BRANCH   7   8
ATOM      8  C   UNL     1      18.662 -32.609  22.549  1.00  0.00     0.000 C 
BRANCH   8   9
ATOM      9  C   UNL     1      19.276 -32.043  23.848  1.00  0.00     0.000 C 
BRANCH   9  10
ATOM     10  C   UNL     1      18.222 -31.814  24.948  1.00  0.00     0.006 C 
BRANCH  10  11
ATOM     11  C   UNL     1      18.786 -32.074  26.352  1.00  0.00     0.053 C 
BRANCH  11  12
ATOM     12  C   UNL     1      19.661 -30.952  26.820  1.00  0.00     0.041 C 
ATOM     13  O   UNL     1      20.910 -31.099  26.866  1.00  0.00    -0.550 OA
ATOM     14  O   UNL     1      19.096 -29.741  27.202  1.00  0.00    -0.550 OA
ENDBRANCH  11  12
ENDBRANCH  10  11
ENDBRANCH   9  10
ENDBRANCH   8   9
ENDBRANCH   7   8
ENDBRANCH   6   7
ENDBRANCH   5   6
ENDBRANCH   4   5
ENDBRANCH   3   4
ENDBRANCH   2   3
ENDBRANCH   1   2
BRANCH   1  15
ATOM     15  C   UNL     1      15.280 -34.011  22.467  1.00  0.00     0.000 C 
BRANCH  15  16
ATOM     16  C   UNL     1      14.845 -33.561  21.061  1.00  0.00     0.000 C 
BRANCH  16  17
ATOM     17  C   UNL     1      15.341 -34.504  19.952  1.00  0.00     0.000 C 
BRANCH  17  18
ATOM     18  C   UNL     1      16.693 -34.071  19.352  1.00  0.00    -0.000 C 
BRANCH  18  19
ATOM     19  C   UNL     1      17.748 -35.188  19.239  1.00  0.00    -0.000 C 
BRANCH  19  20
ATOM     20  C   UNL     1      17.154 -36.595  19.425  1.00  0.00    -0.000 C 
BRANCH  20  21
ATOM     21  C   UNL     1      17.690 -37.306  20.678  1.00  0.00    -0.000 C 
BRANCH  21  22
ATOM     22  C   UNL     1      18.660 -36.431  21.486  1.00  0.00    -0.000 C 
BRANCH  22  23
ATOM     23  C   UNL     1      18.077 -36.092  22.863  1.00  0.00    -0.000 C 
BRANCH  23  24
ATOM     24  C   UNL     1      19.176 -36.058  23.936  1.00  0.00    -0.000 C 
BRANCH  24  25
ATOM     25  C   UNL     1      18.649 -35.617  25.310  1.00  0.00    -0.003 C 
ATOM     26  C   UNL     1      17.122 -35.601  25.383  1.00  0.00     0.004 C 
ENDBRANCH  24  25
ENDBRANCH  23  24
ENDBRANCH  22  23
ENDBRANCH  21  22
ENDBRANCH  20  21
ENDBRANCH  19  20
ENDBRANCH  18  19
ENDBRANCH  17  18
ENDBRANCH  16  17
ENDBRANCH  15  16
ENDBRANCH   1  15
TORSDOF 22
ENDMDL
MODEL 5
REMARK VINA RESULT:    -5.126      4.469      7.320
REMARK INTER + INTRA:         -14.906
REMARK INTER:                 -11.701
REMARK INTRA:                  -3.206
REMARK UNBOUND:                -3.187
REMARK SMILES CCCCCCCCCCCCCCCCCCCCCCCC(=O)[O-]
REMARK SMILES IDX 13 1 14 2 15 3 16 4 17 5 18 6 19 7 20 8 21 9 22 10 23 11
REMARK SMILES IDX 24 12 25 13 26 14 12 15 11 16 10 17 9 18 8 19 7 20 6 21 5 22
REMARK SMILES IDX 4 23 3 24 2 25 1 26
REMARK H PARENT
REMARK Flexibility Score: inf
ROOT
ATOM      1  C   UNL     1      17.242 -33.976  19.240  1.00  0.00     0.000 C 
ENDROOT
BRANCH   1   2
ATOM      2  C   UNL     1      18.461 -33.627  20.111  1.00  0.00     0.000 C 
BRANCH   2   3
ATOM      3  C   UNL     1      18.357 -32.227  20.740  1.00  0.00     0.000 C 
BRANCH   3   4
ATOM      4  C   UNL     1      19.675 -31.772  21.390  1.00  0.00     0.000 C 
BRANCH   4   5
ATOM      5  C   UNL     1      19.757 -30.245  21.567  1.00  0.00     0.000 C 
BRANCH   5   6
ATOM      6  C   UNL     1      18.582 -29.450  20.958  1.00  0.00     0.000 C 
BRANCH   6   7
ATOM      7  C   UNL     1      18.846 -27.947  20.752  1.00  0.00     0.000 C 
BRANCH   7   8
ATOM      8  C   UNL     1      20.326 -27.569  20.545  1.00  0.00     0.000 C 
BRANCH   8   9
ATOM      9  C   UNL     1      20.755 -26.293  21.301  1.00  0.00     0.000 C 
BRANCH   9  10
ATOM     10  C   UNL     1      22.282 -26.196  21.477  1.00  0.00     0.006 C 
BRANCH  10  11
ATOM     11  C   UNL     1      22.788 -24.752  21.357  1.00  0.00     0.053 C 
BRANCH  11  12
ATOM     12  C   UNL     1      23.492 -24.514  20.056  1.00  0.00     0.041 C 
ATOM     13  O   UNL     1      23.276 -25.267  19.070  1.00  0.00    -0.550 OA
ATOM     14  O   UNL     1      24.386 -23.457  19.931  1.00  0.00    -0.550 OA
ENDBRANCH  11  12
ENDBRANCH  10  11
ENDBRANCH   9  10
ENDBRANCH   8   9
ENDBRANCH   7   8
ENDBRANCH   6   7
ENDBRANCH   5   6
ENDBRANCH   4   5
ENDBRANCH   3   4
ENDBRANCH   2   3
ENDBRANCH   1   2
BRANCH   1  15
ATOM     15  C   UNL     1      16.424 -35.156  19.800  1.00  0.00     0.000 C 
BRANCH  15  16
ATOM     16  C   UNL     1      15.004 -34.804  20.278  1.00  0.00     0.000 C 
BRANCH  16  17
ATOM     17  C   UNL     1      14.925 -33.421  20.948  1.00  0.00     0.000 C 
BRANCH  17  18
ATOM     18  C   UNL     1      13.746 -32.571  20.437  1.00  0.00    -0.000 C 
BRANCH  18  19
ATOM     19  C   UNL     1      13.544 -31.227  21.162  1.00  0.00    -0.000 C 
BRANCH  19  20
ATOM     20  C   UNL     1      14.861 -30.466  21.393  1.00  0.00    -0.000 C 
BRANCH  20  21
ATOM     21  C   UNL     1      14.971 -29.885  22.812  1.00  0.00    -0.000 C 
BRANCH  21  22
ATOM     22  C   UNL     1      16.273 -30.287  23.518  1.00  0.00    -0.000 C 
BRANCH  22  23
ATOM     23  C   UNL     1      16.277 -31.785  23.849  1.00  0.00    -0.000 C 
BRANCH  23  24
ATOM     24  C   UNL     1      17.646 -32.228  24.389  1.00  0.00    -0.000 C 
BRANCH  24  25
ATOM     25  C   UNL     1      17.917 -33.723  24.160  1.00  0.00    -0.003 C 
ATOM     26  C   UNL     1      16.643 -34.521  23.883  1.00  0.00     0.004 C 
ENDBRANCH  24  25
ENDBRANCH  23  24
ENDBRANCH  22  23
ENDBRANCH  21  22
ENDBRANCH  20  21
ENDBRANCH  19  20
ENDBRANCH  18  19
ENDBRANCH  17  18
ENDBRANCH  16  17
ENDBRANCH  15  16
ENDBRANCH   1  15
TORSDOF 22
ENDMDL
MODEL 6
REMARK VINA RESULT:    -5.124      2.937      6.052
REMARK INTER + INTRA:         -14.902
REMARK INTER:                 -10.983
REMARK INTRA:                  -3.919
REMARK UNBOUND:                -3.187
REMARK SMILES CCCCCCCCCCCCCCCCCCCCCCCC(=O)[O-]
REMARK SMILES IDX 13 1 14 2 15 3 16 4 17 5 18 6 19 7 20 8 21 9 22 10 23 11
REMARK SMILES IDX 24 12 25 13 26 14 12 15 11 16 10 17 9 18 8 19 7 20 6 21 5 22
REMARK SMILES IDX 4 23 3 24 2 25 1 26
REMARK H PARENT
REMARK Flexibility Score: inf
ROOT
ATOM      1  C   UNL     1      13.823 -29.888  23.431  1.00  0.00     0.000 C 
ENDROOT
BRANCH   1   2
ATOM      2  C   UNL     1      14.519 -29.041  22.351  1.00  0.00     0.000 C 
BRANCH   2   3
ATOM      3  C   UNL     1      16.017 -29.362  22.222  1.00  0.00     0.000 C 
BRANCH   3   4
ATOM      4  C   UNL     1      16.532 -30.250  23.368  1.00  0.00     0.000 C 
BRANCH   4   5
ATOM      5  C   UNL     1      17.487 -31.356  22.883  1.00  0.00     0.000 C 
BRANCH   5   6
ATOM      6  C   UNL     1      17.749 -31.375  21.362  1.00  0.00     0.000 C 
BRANCH   6   7
ATOM      7  C   UNL     1      19.165 -31.817  20.948  1.00  0.00     0.000 C 
BRANCH   7   8
ATOM      8  C   UNL     1      20.219 -31.759  22.071  1.00  0.00     0.000 C 
BRANCH   8   9
ATOM      9  C   UNL     1      21.021 -30.439  22.108  1.00  0.00     0.000 C 
BRANCH   9  10
ATOM     10  C   UNL     1      20.923 -29.653  20.787  1.00  0.00     0.006 C 
BRANCH  10  11
ATOM     11  C   UNL     1      21.262 -28.167  20.972  1.00  0.00     0.053 C 
BRANCH  11  12
ATOM     12  C   UNL     1      20.094 -27.285  20.654  1.00  0.00     0.041 C 
ATOM     13  O   UNL     1      20.279 -26.140  20.163  1.00  0.00    -0.550 OA
ATOM     14  O   UNL     1      18.799 -27.727  20.898  1.00  0.00    -0.550 OA
ENDBRANCH  11  12
ENDBRANCH  10  11
ENDBRANCH   9  10
ENDBRANCH   8   9
ENDBRANCH   7   8
ENDBRANCH   6   7
ENDBRANCH   5   6
ENDBRANCH   4   5
ENDBRANCH   3   4
ENDBRANCH   2   3
ENDBRANCH   1   2
BRANCH   1  15
ATOM     15  C   UNL     1      13.008 -31.056  22.844  1.00  0.00     0.000 C 
BRANCH  15  16
ATOM     16  C   UNL     1      13.011 -31.153  21.307  1.00  0.00     0.000 C 
BRANCH  16  17
ATOM     17  C   UNL     1      13.811 -32.359  20.787  1.00  0.00     0.000 C 
BRANCH  17  18
ATOM     18  C   UNL     1      14.499 -33.157  21.913  1.00  0.00    -0.000 C 
BRANCH  18  19
ATOM     19  C   UNL     1      15.348 -34.354  21.444  1.00  0.00    -0.000 C 
BRANCH  19  20
ATOM     20  C   UNL     1      15.430 -34.467  19.912  1.00  0.00    -0.000 C 
BRANCH  20  21
ATOM     21  C   UNL     1      16.580 -35.374  19.445  1.00  0.00    -0.000 C 
BRANCH  21  22
ATOM     22  C   UNL     1      17.825 -35.258  20.336  1.00  0.00    -0.000 C 
BRANCH  22  23
ATOM     23  C   UNL     1      18.176 -36.611  20.967  1.00  0.00    -0.000 C 
BRANCH  23  24
ATOM     24  C   UNL     1      18.380 -36.476  22.484  1.00  0.00    -0.000 C 
BRANCH  24  25
ATOM     25  C   UNL     1      18.770 -35.051  22.905  1.00  0.00    -0.003 C 
ATOM     26  C   UNL     1      18.299 -34.699  24.315  1.00  0.00     0.004 C 
ENDBRANCH  24  25
ENDBRANCH  23  24
ENDBRANCH  22  23
ENDBRANCH  21  22
ENDBRANCH  20  21
ENDBRANCH  19  20
ENDBRANCH  18  19
ENDBRANCH  17  18
ENDBRANCH  16  17
ENDBRANCH  15  16
ENDBRANCH   1  15
TORSDOF 22
ENDMDL
MODEL 7
REMARK VINA RESULT:    -5.117      2.552      4.281
REMARK INTER + INTRA:         -14.884
REMARK INTER:                 -10.917
REMARK INTRA:                  -3.967
REMARK UNBOUND:                -3.187
REMARK SMILES CCCCCCCCCCCCCCCCCCCCCCCC(=O)[O-]
REMARK SMILES IDX 13 1 14 2 15 3 16 4 17 5 18 6 19 7 20 8 21 9 22 10 23 11
REMARK SMILES IDX 24 12 25 13 26 14 12 15 11 16 10 17 9 18 8 19 7 20 6 21 5 22
REMARK SMILES IDX 4 23 3 24 2 25 1 26
REMARK H PARENT
REMARK Flexibility Score: inf
ROOT
ATOM      1  C   UNL     1      17.621 -36.960  20.856  1.00  0.00     0.000 C 
ENDROOT
BRANCH   1   2
ATOM      2  C   UNL     1      17.680 -36.335  19.452  1.00  0.00     0.000 C 
BRANCH   2   3
ATOM      3  C   UNL     1      16.770 -35.103  19.314  1.00  0.00     0.000 C 
BRANCH   3   4
ATOM      4  C   UNL     1      15.584 -35.132  20.294  1.00  0.00     0.000 C 
BRANCH   4   5
ATOM      5  C   UNL     1      14.625 -33.942  20.106  1.00  0.00     0.000 C 
BRANCH   5   6
ATOM      6  C   UNL     1      14.620 -32.915  21.257  1.00  0.00     0.000 C 
BRANCH   6   7
ATOM      7  C   UNL     1      14.858 -33.504  22.660  1.00  0.00     0.000 C 
BRANCH   7   8
ATOM      8  C   UNL     1      14.052 -32.836  23.791  1.00  0.00     0.000 C 
BRANCH   8   9
ATOM      9  C   UNL     1      13.158 -31.669  23.317  1.00  0.00     0.000 C 
BRANCH   9  10
ATOM     10  C   UNL     1      13.608 -30.312  23.887  1.00  0.00     0.006 C 
BRANCH  10  11
ATOM     11  C   UNL     1      13.332 -29.155  22.916  1.00  0.00     0.053 C 
BRANCH  11  12
ATOM     12  C   UNL     1      12.181 -28.309  23.368  1.00  0.00     0.041 C 
ATOM     13  O   UNL     1      11.038 -28.471  22.863  1.00  0.00    -0.550 OA
ATOM     14  O   UNL     1      12.369 -27.343  24.349  1.00  0.00    -0.550 OA
ENDBRANCH  11  12
ENDBRANCH  10  11
ENDBRANCH   9  10
ENDBRANCH   8   9
ENDBRANCH   7   8
ENDBRANCH   6   7
ENDBRANCH   5   6
ENDBRANCH   4   5
ENDBRANCH   3   4
ENDBRANCH   2   3
ENDBRANCH   1   2
BRANCH   1  15
ATOM     15  C   UNL     1      18.853 -36.617  21.716  1.00  0.00     0.000 C 
BRANCH  15  16
ATOM     16  C   UNL     1      18.560 -35.800  22.988  1.00  0.00     0.000 C 
BRANCH  16  17
ATOM     17  C   UNL     1      18.212 -34.332  22.688  1.00  0.00     0.000 C 
BRANCH  17  18
ATOM     18  C   UNL     1      19.407 -33.530  22.138  1.00  0.00    -0.000 C 
BRANCH  18  19
ATOM     19  C   UNL     1      19.127 -32.734  20.849  1.00  0.00    -0.000 C 
BRANCH  19  20
ATOM     20  C   UNL     1      17.858 -31.869  20.943  1.00  0.00    -0.000 C 
BRANCH  20  21
ATOM     21  C   UNL     1      18.117 -30.505  21.603  1.00  0.00    -0.000 C 
BRANCH  21  22
ATOM     22  C   UNL     1      17.069 -30.155  22.670  1.00  0.00    -0.000 C 
BRANCH  22  23
ATOM     23  C   UNL     1      17.120 -31.150  23.837  1.00  0.00    -0.000 C 
BRANCH  23  24
ATOM     24  C   UNL     1      18.380 -30.936  24.690  1.00  0.00    -0.000 C 
BRANCH  24  25
ATOM     25  C   UNL     1      18.625 -32.085  25.681  1.00  0.00    -0.003 C 
ATOM     26  C   UNL     1      19.432 -31.651  26.904  1.00  0.00     0.004 C 
ENDBRANCH  24  25
ENDBRANCH  23  24
ENDBRANCH  22  23
ENDBRANCH  21  22
ENDBRANCH  20  21
ENDBRANCH  19  20
ENDBRANCH  18  19
ENDBRANCH  17  18
ENDBRANCH  16  17
ENDBRANCH  15  16
ENDBRANCH   1  15
TORSDOF 22
ENDMDL
MODEL 8
REMARK VINA RESULT:    -5.112      2.283      4.667
REMARK INTER + INTRA:         -14.873
REMARK INTER:                 -10.289
REMARK INTRA:                  -4.585
REMARK UNBOUND:                -3.187
REMARK SMILES CCCCCCCCCCCCCCCCCCCCCCCC(=O)[O-]
REMARK SMILES IDX 13 1 14 2 15 3 16 4 17 5 18 6 19 7 20 8 21 9 22 10 23 11
REMARK SMILES IDX 24 12 25 13 26 14 12 15 11 16 10 17 9 18 8 19 7 20 6 21 5 22
REMARK SMILES IDX 4 23 3 24 2 25 1 26
REMARK H PARENT
REMARK Flexibility Score: inf
ROOT
ATOM      1  C   UNL     1      18.545 -33.709  21.020  1.00  0.00     0.000 C 
ENDROOT
BRANCH   1   2
ATOM      2  C   UNL     1      18.519 -34.298  19.599  1.00  0.00     0.000 C 
BRANCH   2   3
ATOM      3  C   UNL     1      17.105 -34.319  18.993  1.00  0.00     0.000 C 
BRANCH   3   4
ATOM      4  C   UNL     1      16.258 -35.494  19.512  1.00  0.00     0.000 C 
BRANCH   4   5
ATOM      5  C   UNL     1      15.203 -35.058  20.546  1.00  0.00     0.000 C 
BRANCH   5   6
ATOM      6  C   UNL     1      14.688 -33.612  20.387  1.00  0.00     0.000 C 
BRANCH   6   7
ATOM      7  C   UNL     1      14.647 -32.786  21.686  1.00  0.00     0.000 C 
BRANCH   7   8
ATOM      8  C   UNL     1      15.623 -31.594  21.730  1.00  0.00     0.000 C 
BRANCH   8   9
ATOM      9  C   UNL     1      15.440 -30.684  22.965  1.00  0.00     0.000 C 
BRANCH   9  10
ATOM     10  C   UNL     1      14.114 -30.946  23.701  1.00  0.00     0.006 C 
BRANCH  10  11
ATOM     11  C   UNL     1      13.283 -29.666  23.870  1.00  0.00     0.053 C 
BRANCH  11  12
ATOM     12  C   UNL     1      12.183 -29.576  22.857  1.00  0.00     0.041 C 
ATOM     13  O   UNL     1      12.020 -30.498  22.014  1.00  0.00    -0.550 OA
ATOM     14  O   UNL     1      11.335 -28.475  22.844  1.00  0.00    -0.550 OA
ENDBRANCH  11  12
ENDBRANCH  10  11
ENDBRANCH   9  10
ENDBRANCH   8   9
ENDBRANCH   7   8
ENDBRANCH   6   7
ENDBRANCH   5   6
ENDBRANCH   4   5
ENDBRANCH   3   4
ENDBRANCH   2   3
ENDBRANCH   1   2
BRANCH   1  15
ATOM     15  C   UNL     1      19.244 -34.631  22.037  1.00  0.00     0.000 C 
BRANCH  15  16
ATOM     16  C   UNL     1      18.416 -35.841  22.507  1.00  0.00     0.000 C 
BRANCH  16  17
ATOM     17  C   UNL     1      17.832 -35.654  23.918  1.00  0.00     0.000 C 
BRANCH  17  18
ATOM     18  C   UNL     1      16.558 -34.787  23.932  1.00  0.00    -0.000 C 
BRANCH  18  19
ATOM     19  C   UNL     1      16.606 -33.566  24.871  1.00  0.00    -0.000 C 
BRANCH  19  20
ATOM     20  C   UNL     1      18.009 -33.307  25.446  1.00  0.00    -0.000 C 
BRANCH  20  21
ATOM     21  C   UNL     1      18.647 -32.019  24.900  1.00  0.00    -0.000 C 
BRANCH  21  22
ATOM     22  C   UNL     1      20.109 -32.218  24.473  1.00  0.00    -0.000 C 
BRANCH  22  23
ATOM     23  C   UNL     1      20.464 -31.304  23.293  1.00  0.00    -0.000 C 
BRANCH  23  24
ATOM     24  C   UNL     1      19.218 -30.581  22.759  1.00  0.00    -0.000 C 
BRANCH  24  25
ATOM     25  C   UNL     1      19.359 -30.170  21.285  1.00  0.00    -0.003 C 
ATOM     26  C   UNL     1      18.506 -28.954  20.924  1.00  0.00     0.004 C 
ENDBRANCH  24  25
ENDBRANCH  23  24
ENDBRANCH  22  23
ENDBRANCH  21  22
ENDBRANCH  20  21
ENDBRANCH  19  20
ENDBRANCH  18  19
ENDBRANCH  17  18
ENDBRANCH  16  17
ENDBRANCH  15  16
ENDBRANCH   1  15
TORSDOF 22
ENDMDL
