MODEL 1
REMARK VINA RESULT:    -4.322      0.000      0.000
REMARK INTER + INTRA:          -8.416
REMARK INTER:                  -7.101
REMARK INTRA:                  -1.315
REMARK UNBOUND:                -1.315
REMARK SMILES CC[C@@H](CC[C@H](C)[C@@H]1CC[C@@H]2[C@@H]3CC=C4C[C@@H](O[C@@H]5O[C@@H](CO)[C@@H](O)[C@H](O)[C@H]5O)CC[C@@]4(C)[C@@H]3CC[C@]21C)C(C)C
REMARK SMILES IDX 8 1 9 2 10 3 11 4 37 5 36 6 35 7 34 8 12 9 13 10 14 11 15 12
REMARK SMILES IDX 32 13 31 14 30 15 17 16 16 17 33 18 38 19 6 20 7 21 5 22
REMARK SMILES IDX 4 23 3 24 2 25 1 26 39 27 40 28 41 29 18 30 19 31 28 32
REMARK SMILES IDX 20 33 26 34 21 35 24 36 29 37 27 39 22 41 23 42 25 44
REMARK H PARENT 29 38 27 40 23 43 25 45
REMARK Flexibility Score: inf
ROOT
ATOM      1  C   UNL     1       6.926  23.773  45.281  1.00  0.00    -0.002 C 
ATOM      2  C   UNL     1       6.370  24.065  46.705  1.00  0.00     0.005 C 
ATOM      3  C   UNL     1       5.046  24.834  46.534  1.00  0.00     0.005 C 
ATOM      4  C   UNL     1       4.981  25.090  45.041  1.00  0.00    -0.001 C 
ATOM      5  C   UNL     1       5.654  23.872  44.371  1.00  0.00    -0.026 C 
ATOM      6  C   UNL     1       5.917  24.266  42.893  1.00  0.00     0.007 C 
ATOM      7  C   UNL     1       4.644  24.801  42.179  1.00  0.00     0.005 C 
ATOM      8  C   UNL     1       3.974  26.002  42.922  1.00  0.00     0.003 C 
ATOM      9  C   UNL     1       3.679  25.630  44.400  1.00  0.00     0.000 C 
ATOM     10  C   UNL     1       2.450  24.717  44.501  1.00  0.00     0.031 C 
ATOM     11  C   UNL     1       1.267  25.326  43.822  1.00  0.00    -0.027 C 
ATOM     12  C   UNL     1       1.367  26.090  42.712  1.00  0.00    -0.065 C 
ATOM     13  C   UNL     1       2.707  26.646  42.208  1.00  0.00    -0.008 C 
ATOM     14  C   UNL     1       2.688  28.173  42.533  1.00  0.00     0.014 C 
ATOM     15  C   UNL     1       1.421  28.903  42.046  1.00  0.00     0.033 C 
ATOM     16  C   UNL     1       0.112  28.237  42.543  1.00  0.00     0.125 C 
ATOM     17  C   UNL     1       0.109  26.745  42.176  1.00  0.00     0.063 C 
ATOM     18  C   UNL     1       2.803  26.457  40.665  1.00  0.00     0.016 C 
ATOM     19  C   UNL     1       4.814  22.553  44.459  1.00  0.00     0.012 C 
ENDROOT
BRANCH   1  20
ATOM     20  C   UNL     1       7.822  22.485  45.237  1.00  0.00    -0.011 C 
ATOM     21  C   UNL     1       9.298  22.798  45.556  1.00  0.00     0.008 C 
BRANCH  20  22
ATOM     22  C   UNL     1       7.299  21.416  46.239  1.00  0.00     0.004 C 
BRANCH  22  23
ATOM     23  C   UNL     1       7.200  19.998  45.613  1.00  0.00     0.004 C 
BRANCH  23  24
ATOM     24  C   UNL     1       7.516  19.960  44.086  1.00  0.00    -0.009 C 
BRANCH  24  25
ATOM     25  C   UNL     1       6.297  19.361  43.320  1.00  0.00     0.000 C 
ATOM     26  C   UNL     1       5.794  20.248  42.178  1.00  0.00     0.004 C 
ENDBRANCH  24  25
BRANCH  24  27
ATOM     27  C   UNL     1       8.840  19.180  43.708  1.00  0.00    -0.014 C 
ATOM     28  C   UNL     1       9.652  18.607  44.886  1.00  0.00     0.007 C 
ATOM     29  C   UNL     1       9.767  20.059  42.849  1.00  0.00     0.007 C 
ENDBRANCH  24  27
ENDBRANCH  23  24
ENDBRANCH  22  23
ENDBRANCH  20  22
ENDBRANCH   1  20
BRANCH  16  30
ATOM     30  O   UNL     1      -0.061  28.326  43.953  1.00  0.00    -0.346 OA
BRANCH  30  31
ATOM     31  C   UNL     1      -1.387  28.601  44.404  1.00  0.00     0.282 C 
ATOM     32  C   UNL     1      -1.508  29.597  45.597  1.00  0.00     0.202 C 
ATOM     33  O   UNL     1      -2.154  29.095  43.312  1.00  0.00    -0.341 OA
ATOM     34  C   UNL     1      -1.022  31.002  45.192  1.00  0.00     0.179 C 
ATOM     35  C   UNL     1      -1.612  30.309  42.804  1.00  0.00     0.178 C 
ATOM     36  C   UNL     1      -1.668  31.450  43.856  1.00  0.00     0.177 C 
BRANCH  32  37
ATOM     37  O   UNL     1      -2.855  29.688  45.991  1.00  0.00    -0.385 OA
ATOM     38  H   UNL     1      -3.313  28.877  45.648  1.00  0.00     0.211 HD
ENDBRANCH  32  37
BRANCH  34  39
ATOM     39  O   UNL     1       0.385  31.056  45.166  1.00  0.00    -0.387 OA
ATOM     40  H   UNL     1       0.668  32.000  45.077  1.00  0.00     0.211 HD
ENDBRANCH  34  39
BRANCH  35  41
ATOM     41  C   UNL     1      -2.348  30.693  41.512  1.00  0.00     0.191 C 
BRANCH  41  42
ATOM     42  O   UNL     1      -2.774  29.550  40.821  1.00  0.00    -0.394 OA
ATOM     43  H   UNL     1      -3.288  29.880  40.036  1.00  0.00     0.210 HD
ENDBRANCH  41  42
ENDBRANCH  35  41
BRANCH  36  44
ATOM     44  O   UNL     1      -3.002  31.834  44.077  1.00  0.00    -0.387 OA
ATOM     45  H   UNL     1      -3.034  32.824  43.995  1.00  0.00     0.211 HD
ENDBRANCH  36  44
ENDBRANCH  30  31
ENDBRANCH  16  30
TORSDOF 13
ENDMDL
MODEL 2
REMARK VINA RESULT:    -4.268      1.308      1.973
REMARK INTER + INTRA:          -8.328
REMARK INTER:                  -9.204
REMARK INTRA:                   0.876
REMARK UNBOUND:                -1.315
REMARK SMILES CC[C@@H](CC[C@H](C)[C@@H]1CC[C@@H]2[C@@H]3CC=C4C[C@@H](O[C@@H]5O[C@@H](CO)[C@@H](O)[C@H](O)[C@H]5O)CC[C@@]4(C)[C@@H]3CC[C@]21C)C(C)C
REMARK SMILES IDX 8 1 9 2 10 3 11 4 37 5 36 6 35 7 34 8 12 9 13 10 14 11 15 12
REMARK SMILES IDX 32 13 31 14 30 15 17 16 16 17 33 18 38 19 6 20 7 21 5 22
REMARK SMILES IDX 4 23 3 24 2 25 1 26 39 27 40 28 41 29 18 30 19 31 28 32
REMARK SMILES IDX 20 33 26 34 21 35 24 36 29 37 27 39 22 41 23 42 25 44
REMARK H PARENT 29 38 27 40 23 43 25 45
REMARK Flexibility Score: inf
ROOT
ATOM      1  C   UNL     1       7.065  22.508  45.419  1.00  0.00    -0.002 C 
ATOM      2  C   UNL     1       6.630  22.942  46.850  1.00  0.00     0.005 C 
ATOM      3  C   UNL     1       5.474  23.947  46.695  1.00  0.00     0.005 C 
ATOM      4  C   UNL     1       5.402  24.170  45.196  1.00  0.00    -0.001 C 
ATOM      5  C   UNL     1       5.802  22.826  44.548  1.00  0.00    -0.026 C 
ATOM      6  C   UNL     1       6.080  23.120  43.050  1.00  0.00     0.007 C 
ATOM      7  C   UNL     1       4.908  23.872  42.359  1.00  0.00     0.005 C 
ATOM      8  C   UNL     1       4.510  25.200  43.081  1.00  0.00     0.003 C 
ATOM      9  C   UNL     1       4.205  24.933  44.579  1.00  0.00     0.000 C 
ATOM     10  C   UNL     1       2.828  24.278  44.751  1.00  0.00     0.031 C 
ATOM     11  C   UNL     1       1.759  25.086  44.089  1.00  0.00    -0.027 C 
ATOM     12  C   UNL     1       1.962  25.785  42.951  1.00  0.00    -0.065 C 
ATOM     13  C   UNL     1       3.364  26.056  42.385  1.00  0.00    -0.008 C 
ATOM     14  C   UNL     1       3.652  27.567  42.658  1.00  0.00     0.014 C 
ATOM     15  C   UNL     1       2.531  28.515  42.187  1.00  0.00     0.033 C 
ATOM     16  C   UNL     1       1.138  28.128  42.748  1.00  0.00     0.125 C 
ATOM     17  C   UNL     1       0.834  26.656  42.433  1.00  0.00     0.063 C 
ATOM     18  C   UNL     1       3.363  25.810  40.847  1.00  0.00     0.016 C 
ATOM     19  C   UNL     1       4.728  21.697  44.708  1.00  0.00     0.012 C 
ENDROOT
BRANCH   1  20
ATOM     20  C   UNL     1       7.694  21.070  45.392  1.00  0.00    -0.011 C 
ATOM     21  C   UNL     1       7.367  20.322  44.083  1.00  0.00     0.008 C 
BRANCH  20  22
ATOM     22  C   UNL     1       9.238  21.140  45.567  1.00  0.00     0.004 C 
BRANCH  22  23
ATOM     23  C   UNL     1       9.840  19.834  46.152  1.00  0.00     0.004 C 
BRANCH  23  24
ATOM     24  C   UNL     1      10.826  19.107  45.185  1.00  0.00    -0.009 C 
BRANCH  24  25
ATOM     25  C   UNL     1      10.063  18.678  43.895  1.00  0.00     0.000 C 
ATOM     26  C   UNL     1      10.460  19.479  42.652  1.00  0.00     0.004 C 
ENDBRANCH  24  25
BRANCH  24  27
ATOM     27  C   UNL     1      11.574  17.866  45.821  1.00  0.00    -0.014 C 
ATOM     28  C   UNL     1      13.057  18.077  46.182  1.00  0.00     0.007 C 
ATOM     29  C   UNL     1      11.456  16.631  44.910  1.00  0.00     0.007 C 
ENDBRANCH  24  27
ENDBRANCH  23  24
ENDBRANCH  22  23
ENDBRANCH  20  22
ENDBRANCH   1  20
BRANCH  16  30
ATOM     30  O   UNL     1       1.039  28.288  44.159  1.00  0.00    -0.346 OA
BRANCH  30  31
ATOM     31  C   UNL     1      -0.230  27.986  44.734  1.00  0.00     0.282 C 
ATOM     32  C   UNL     1      -0.681  28.902  45.912  1.00  0.00     0.202 C 
ATOM     33  O   UNL     1      -1.222  28.025  43.715  1.00  0.00    -0.341 OA
ATOM     34  C   UNL     1      -0.898  30.349  45.432  1.00  0.00     0.179 C 
ATOM     35  C   UNL     1      -1.314  29.320  43.130  1.00  0.00     0.178 C 
ATOM     36  C   UNL     1      -1.781  30.386  44.158  1.00  0.00     0.177 C 
BRANCH  32  37
ATOM     37  O   UNL     1      -1.893  28.420  46.438  1.00  0.00    -0.385 OA
ATOM     38  H   UNL     1      -1.688  28.021  47.324  1.00  0.00     0.211 HD
ENDBRANCH  32  37
BRANCH  34  39
ATOM     39  O   UNL     1       0.334  31.010  45.264  1.00  0.00    -0.387 OA
ATOM     40  H   UNL     1       0.875  30.896  46.084  1.00  0.00     0.211 HD
ENDBRANCH  34  39
BRANCH  35  41
ATOM     41  C   UNL     1      -2.246  29.261  41.910  1.00  0.00     0.191 C 
BRANCH  41  42
ATOM     42  O   UNL     1      -2.958  30.460  41.768  1.00  0.00    -0.394 OA
ATOM     43  H   UNL     1      -3.719  30.256  41.161  1.00  0.00     0.210 HD
ENDBRANCH  41  42
ENDBRANCH  35  41
BRANCH  36  44
ATOM     44  O   UNL     1      -3.125  30.161  44.504  1.00  0.00    -0.387 OA
ATOM     45  H   UNL     1      -3.574  29.802  43.693  1.00  0.00     0.211 HD
ENDBRANCH  36  44
ENDBRANCH  30  31
ENDBRANCH  16  30
TORSDOF 13
ENDMDL
MODEL 3
REMARK VINA RESULT:    -4.010      1.623      3.507
REMARK INTER + INTRA:          -7.904
REMARK INTER:                  -9.173
REMARK INTRA:                   1.269
REMARK UNBOUND:                -1.315
REMARK SMILES CC[C@@H](CC[C@H](C)[C@@H]1CC[C@@H]2[C@@H]3CC=C4C[C@@H](O[C@@H]5O[C@@H](CO)[C@@H](O)[C@H](O)[C@H]5O)CC[C@@]4(C)[C@@H]3CC[C@]21C)C(C)C
REMARK SMILES IDX 8 1 9 2 10 3 11 4 37 5 36 6 35 7 34 8 12 9 13 10 14 11 15 12
REMARK SMILES IDX 32 13 31 14 30 15 17 16 16 17 33 18 38 19 6 20 7 21 5 22
REMARK SMILES IDX 4 23 3 24 2 25 1 26 39 27 40 28 41 29 18 30 19 31 28 32
REMARK SMILES IDX 20 33 26 34 21 35 24 36 29 37 27 39 22 41 23 42 25 44
REMARK H PARENT 29 38 27 40 23 43 25 45
REMARK Flexibility Score: inf
ROOT
ATOM      1  C   UNL     1       6.091  22.441  42.931  1.00  0.00    -0.002 C 
ATOM      2  C   UNL     1       5.817  22.512  41.400  1.00  0.00     0.005 C 
ATOM      3  C   UNL     1       4.692  23.541  41.180  1.00  0.00     0.005 C 
ATOM      4  C   UNL     1       4.261  23.895  42.590  1.00  0.00    -0.001 C 
ATOM      5  C   UNL     1       5.535  23.808  43.458  1.00  0.00    -0.026 C 
ATOM      6  C   UNL     1       5.066  23.814  44.938  1.00  0.00     0.007 C 
ATOM      7  C   UNL     1       4.117  25.001  45.262  1.00  0.00     0.005 C 
ATOM      8  C   UNL     1       2.868  25.073  44.324  1.00  0.00     0.003 C 
ATOM      9  C   UNL     1       3.307  25.090  42.835  1.00  0.00     0.000 C 
ATOM     10  C   UNL     1       3.843  26.471  42.438  1.00  0.00     0.031 C 
ATOM     11  C   UNL     1       2.852  27.545  42.750  1.00  0.00    -0.027 C 
ATOM     12  C   UNL     1       2.027  27.498  43.818  1.00  0.00    -0.065 C 
ATOM     13  C   UNL     1       1.818  26.222  44.647  1.00  0.00    -0.008 C 
ATOM     14  C   UNL     1       0.393  25.698  44.276  1.00  0.00     0.014 C 
ATOM     15  C   UNL     1      -0.714  26.765  44.376  1.00  0.00     0.033 C 
ATOM     16  C   UNL     1      -0.391  28.048  43.567  1.00  0.00     0.125 C 
ATOM     17  C   UNL     1       0.988  28.592  43.971  1.00  0.00     0.063 C 
ATOM     18  C   UNL     1       1.849  26.574  46.164  1.00  0.00     0.016 C 
ATOM     19  C   UNL     1       6.565  24.958  43.193  1.00  0.00     0.012 C 
ENDROOT
BRANCH   1  20
ATOM     20  C   UNL     1       7.565  22.016  43.260  1.00  0.00    -0.011 C 
ATOM     21  C   UNL     1       8.490  22.145  42.032  1.00  0.00     0.008 C 
BRANCH  20  22
ATOM     22  C   UNL     1       8.140  22.872  44.424  1.00  0.00     0.004 C 
BRANCH  22  23
ATOM     23  C   UNL     1       8.249  22.084  45.758  1.00  0.00     0.004 C 
BRANCH  23  24
ATOM     24  C   UNL     1       7.657  20.642  45.688  1.00  0.00    -0.009 C 
BRANCH  24  25
ATOM     25  C   UNL     1       6.699  20.417  46.897  1.00  0.00     0.000 C 
ATOM     26  C   UNL     1       5.245  20.797  46.607  1.00  0.00     0.004 C 
ENDBRANCH  24  25
BRANCH  24  27
ATOM     27  C   UNL     1       8.741  19.490  45.621  1.00  0.00    -0.014 C 
ATOM     28  C   UNL     1      10.210  19.929  45.767  1.00  0.00     0.007 C 
ATOM     29  C   UNL     1       8.593  18.675  44.324  1.00  0.00     0.007 C 
ENDBRANCH  24  27
ENDBRANCH  23  24
ENDBRANCH  22  23
ENDBRANCH  20  22
ENDBRANCH   1  20
BRANCH  16  30
ATOM     30  O   UNL     1      -0.365  27.831  42.160  1.00  0.00    -0.346 OA
BRANCH  30  31
ATOM     31  C   UNL     1       0.208  28.876  41.377  1.00  0.00     0.282 C 
ATOM     32  C   UNL     1      -0.520  29.203  40.038  1.00  0.00     0.202 C 
ATOM     33  O   UNL     1       0.279  30.060  42.164  1.00  0.00    -0.341 OA
ATOM     34  C   UNL     1      -1.933  29.755  40.301  1.00  0.00     0.179 C 
ATOM     35  C   UNL     1      -1.017  30.489  42.571  1.00  0.00     0.178 C 
ATOM     36  C   UNL     1      -1.899  30.889  41.357  1.00  0.00     0.177 C 
BRANCH  32  37
ATOM     37  O   UNL     1       0.215  30.174  39.335  1.00  0.00    -0.385 OA
ATOM     38  H   UNL     1      -0.398  30.574  38.664  1.00  0.00     0.211 HD
ENDBRANCH  32  37
BRANCH  34  39
ATOM     39  O   UNL     1      -2.821  28.716  40.640  1.00  0.00    -0.387 OA
ATOM     40  H   UNL     1      -3.380  28.502  39.853  1.00  0.00     0.211 HD
ENDBRANCH  34  39
BRANCH  35  41
ATOM     41  C   UNL     1      -0.877  31.643  43.576  1.00  0.00     0.191 C 
BRANCH  41  42
ATOM     42  O   UNL     1      -2.066  31.827  44.294  1.00  0.00    -0.394 OA
ATOM     43  H   UNL     1      -2.755  31.283  43.826  1.00  0.00     0.210 HD
ENDBRANCH  41  42
ENDBRANCH  35  41
BRANCH  36  44
ATOM     44  O   UNL     1      -1.406  32.069  40.774  1.00  0.00    -0.387 OA
ATOM     45  H   UNL     1      -2.111  32.402  40.158  1.00  0.00     0.211 HD
ENDBRANCH  36  44
ENDBRANCH  30  31
ENDBRANCH  16  30
TORSDOF 13
ENDMDL
MODEL 4
REMARK VINA RESULT:    -3.953      1.836      3.844
REMARK INTER + INTRA:          -7.810
REMARK INTER:                  -8.797
REMARK INTRA:                   0.987
REMARK UNBOUND:                -1.315
REMARK SMILES CC[C@@H](CC[C@H](C)[C@@H]1CC[C@@H]2[C@@H]3CC=C4C[C@@H](O[C@@H]5O[C@@H](CO)[C@@H](O)[C@H](O)[C@H]5O)CC[C@@]4(C)[C@@H]3CC[C@]21C)C(C)C
REMARK SMILES IDX 8 1 9 2 10 3 11 4 37 5 36 6 35 7 34 8 12 9 13 10 14 11 15 12
REMARK SMILES IDX 32 13 31 14 30 15 17 16 16 17 33 18 38 19 6 20 7 21 5 22
REMARK SMILES IDX 4 23 3 24 2 25 1 26 39 27 40 28 41 29 18 30 19 31 28 32
REMARK SMILES IDX 20 33 26 34 21 35 24 36 29 37 27 39 22 41 23 42 25 44
REMARK H PARENT 29 38 27 40 23 43 25 45
REMARK Flexibility Score: inf
ROOT
ATOM      1  C   UNL     1       6.788  21.743  42.917  1.00  0.00    -0.002 C 
ATOM      2  C   UNL     1       6.655  21.935  41.377  1.00  0.00     0.005 C 
ATOM      3  C   UNL     1       5.578  23.010  41.139  1.00  0.00     0.005 C 
ATOM      4  C   UNL     1       5.029  23.269  42.529  1.00  0.00    -0.001 C 
ATOM      5  C   UNL     1       6.217  23.082  43.497  1.00  0.00    -0.026 C 
ATOM      6  C   UNL     1       5.617  22.990  44.925  1.00  0.00     0.007 C 
ATOM      7  C   UNL     1       4.669  24.177  45.255  1.00  0.00     0.005 C 
ATOM      8  C   UNL     1       3.512  24.353  44.219  1.00  0.00     0.003 C 
ATOM      9  C   UNL     1       4.083  24.469  42.780  1.00  0.00     0.000 C 
ATOM     10  C   UNL     1       4.683  25.861  42.539  1.00  0.00     0.031 C 
ATOM     11  C   UNL     1       3.691  26.936  42.844  1.00  0.00    -0.027 C 
ATOM     12  C   UNL     1       2.772  26.833  43.828  1.00  0.00    -0.065 C 
ATOM     13  C   UNL     1       2.461  25.505  44.535  1.00  0.00    -0.008 C 
ATOM     14  C   UNL     1       1.065  25.051  44.001  1.00  0.00     0.014 C 
ATOM     15  C   UNL     1      -0.023  26.139  44.085  1.00  0.00     0.033 C 
ATOM     16  C   UNL     1       0.399  27.470  43.408  1.00  0.00     0.125 C 
ATOM     17  C   UNL     1       1.748  27.942  43.973  1.00  0.00     0.063 C 
ATOM     18  C   UNL     1       2.364  25.741  46.071  1.00  0.00     0.016 C 
ATOM     19  C   UNL     1       7.292  24.218  43.412  1.00  0.00     0.012 C 
ENDROOT
BRANCH   1  20
ATOM     20  C   UNL     1       8.218  21.251  43.340  1.00  0.00    -0.011 C 
ATOM     21  C   UNL     1       8.733  21.989  44.593  1.00  0.00     0.008 C 
BRANCH  20  22
ATOM     22  C   UNL     1       8.216  19.721  43.614  1.00  0.00     0.004 C 
BRANCH  22  23
ATOM     23  C   UNL     1       9.632  19.090  43.535  1.00  0.00     0.004 C 
BRANCH  23  24
ATOM     24  C   UNL     1      10.065  18.346  44.836  1.00  0.00    -0.009 C 
BRANCH  24  25
ATOM     25  C   UNL     1      10.161  19.368  46.009  1.00  0.00     0.000 C 
ATOM     26  C   UNL     1       8.963  19.322  46.962  1.00  0.00     0.004 C 
ENDBRANCH  24  25
BRANCH  24  27
ATOM     27  C   UNL     1      11.414  17.528  44.707  1.00  0.00    -0.014 C 
ATOM     28  C   UNL     1      11.275  15.996  44.616  1.00  0.00     0.007 C 
ATOM     29  C   UNL     1      12.374  17.871  45.860  1.00  0.00     0.007 C 
ENDBRANCH  24  27
ENDBRANCH  23  24
ENDBRANCH  22  23
ENDBRANCH  20  22
ENDBRANCH   1  20
BRANCH  16  30
ATOM     30  O   UNL     1       0.547  27.358  41.997  1.00  0.00    -0.346 OA
BRANCH  30  31
ATOM     31  C   UNL     1       1.105  28.492  41.335  1.00  0.00     0.282 C 
ATOM     32  C   UNL     1       0.644  28.716  39.863  1.00  0.00     0.202 C 
ATOM     33  O   UNL     1       0.813  29.660  42.093  1.00  0.00    -0.341 OA
ATOM     34  C   UNL     1      -0.861  29.032  39.800  1.00  0.00     0.179 C 
ATOM     35  C   UNL     1      -0.592  29.871  42.198  1.00  0.00     0.178 C 
ATOM     36  C   UNL     1      -1.240  30.142  40.813  1.00  0.00     0.177 C 
BRANCH  32  37
ATOM     37  O   UNL     1       1.351  29.802  39.316  1.00  0.00    -0.385 OA
ATOM     38  H   UNL     1       1.226  29.765  38.332  1.00  0.00     0.211 HD
ENDBRANCH  32  37
BRANCH  34  39
ATOM     39  O   UNL     1      -1.626  27.860  39.960  1.00  0.00    -0.387 OA
ATOM     40  H   UNL     1      -1.499  27.517  40.879  1.00  0.00     0.211 HD
ENDBRANCH  34  39
BRANCH  35  41
ATOM     41  C   UNL     1      -0.860  31.019  43.184  1.00  0.00     0.191 C 
BRANCH  41  42
ATOM     42  O   UNL     1      -2.019  31.721  42.830  1.00  0.00    -0.394 OA
ATOM     43  H   UNL     1      -2.155  32.402  43.542  1.00  0.00     0.210 HD
ENDBRANCH  41  42
ENDBRANCH  35  41
BRANCH  36  44
ATOM     44  O   UNL     1      -0.825  31.394  40.326  1.00  0.00    -0.387 OA
ATOM     45  H   UNL     1      -0.878  32.031  41.088  1.00  0.00     0.211 HD
ENDBRANCH  36  44
ENDBRANCH  30  31
ENDBRANCH  16  30
TORSDOF 13
ENDMDL
MODEL 5
REMARK VINA RESULT:    -3.561      7.982     14.224
REMARK INTER + INTRA:          -7.166
REMARK INTER:                  -8.061
REMARK INTRA:                   0.895
REMARK UNBOUND:                -1.315
REMARK SMILES CC[C@@H](CC[C@H](C)[C@@H]1CC[C@@H]2[C@@H]3CC=C4C[C@@H](O[C@@H]5O[C@@H](CO)[C@@H](O)[C@H](O)[C@H]5O)CC[C@@]4(C)[C@@H]3CC[C@]21C)C(C)C
REMARK SMILES IDX 8 1 9 2 10 3 11 4 37 5 36 6 35 7 34 8 12 9 13 10 14 11 15 12
REMARK SMILES IDX 32 13 31 14 30 15 17 16 16 17 33 18 38 19 6 20 7 21 5 22
REMARK SMILES IDX 4 23 3 24 2 25 1 26 39 27 40 28 41 29 18 30 19 31 28 32
REMARK SMILES IDX 20 33 26 34 21 35 24 36 29 37 27 39 22 41 23 42 25 44
REMARK H PARENT 29 38 27 40 23 43 25 45
REMARK Flexibility Score: inf
ROOT
ATOM      1  C   UNL     1       5.911  22.176  45.282  1.00  0.00    -0.002 C 
ATOM      2  C   UNL     1       5.796  21.781  46.784  1.00  0.00     0.005 C 
ATOM      3  C   UNL     1       6.907  20.755  47.077  1.00  0.00     0.005 C 
ATOM      4  C   UNL     1       7.504  20.485  45.709  1.00  0.00    -0.001 C 
ATOM      5  C   UNL     1       7.394  21.813  44.929  1.00  0.00    -0.026 C 
ATOM      6  C   UNL     1       7.663  21.476  43.438  1.00  0.00     0.007 C 
ATOM      7  C   UNL     1       8.986  20.687  43.230  1.00  0.00     0.005 C 
ATOM      8  C   UNL     1       9.068  19.377  44.079  1.00  0.00     0.003 C 
ATOM      9  C   UNL     1       8.824  19.686  45.580  1.00  0.00     0.000 C 
ATOM     10  C   UNL     1      10.064  20.327  46.217  1.00  0.00     0.031 C 
ATOM     11  C   UNL     1      11.278  19.484  46.001  1.00  0.00    -0.027 C 
ATOM     12  C   UNL     1      11.479  18.753  44.883  1.00  0.00    -0.065 C 
ATOM     13  C   UNL     1      10.365  18.484  43.860  1.00  0.00    -0.008 C 
ATOM     14  C   UNL     1       9.962  16.986  44.048  1.00  0.00     0.014 C 
ATOM     15  C   UNL     1      11.154  16.009  44.032  1.00  0.00     0.033 C 
ATOM     16  C   UNL     1      12.264  16.393  45.045  1.00  0.00     0.125 C 
ATOM     17  C   UNL     1      12.696  17.851  44.824  1.00  0.00     0.063 C 
ATOM     18  C   UNL     1      10.921  18.681  42.419  1.00  0.00     0.016 C 
ATOM     19  C   UNL     1       8.367  22.932  45.435  1.00  0.00     0.012 C 
ENDROOT
BRANCH   1  20
ATOM     20  C   UNL     1       5.368  23.621  44.997  1.00  0.00    -0.011 C 
ATOM     21  C   UNL     1       6.116  24.298  43.830  1.00  0.00     0.008 C 
BRANCH  20  22
ATOM     22  C   UNL     1       3.847  23.585  44.675  1.00  0.00     0.004 C 
BRANCH  22  23
ATOM     23  C   UNL     1       3.154  24.959  44.876  1.00  0.00     0.004 C 
BRANCH  23  24
ATOM     24  C   UNL     1       2.515  25.539  43.575  1.00  0.00    -0.009 C 
BRANCH  24  25
ATOM     25  C   UNL     1       3.643  25.894  42.559  1.00  0.00     0.000 C 
ATOM     26  C   UNL     1       3.671  24.982  41.330  1.00  0.00     0.004 C 
ENDBRANCH  24  25
BRANCH  24  27
ATOM     27  C   UNL     1       1.570  26.787  43.807  1.00  0.00    -0.014 C 
ATOM     28  C   UNL     1       0.061  26.543  43.613  1.00  0.00     0.007 C 
ATOM     29  C   UNL     1       2.000  27.970  42.921  1.00  0.00     0.007 C 
ENDBRANCH  24  27
ENDBRANCH  23  24
ENDBRANCH  22  23
ENDBRANCH  20  22
ENDBRANCH   1  20
BRANCH  16  30
ATOM     30  O   UNL     1      11.849  16.276  46.402  1.00  0.00    -0.346 OA
BRANCH  30  31
ATOM     31  C   UNL     1      12.789  16.711  47.382  1.00  0.00     0.282 C 
ATOM     32  C   UNL     1      12.802  15.906  48.718  1.00  0.00     0.202 C 
ATOM     33  O   UNL     1      14.094  16.686  46.817  1.00  0.00    -0.341 OA
ATOM     34  C   UNL     1      13.255  14.454  48.480  1.00  0.00     0.179 C 
ATOM     35  C   UNL     1      14.463  15.369  46.422  1.00  0.00     0.178 C 
ATOM     36  C   UNL     1      14.556  14.407  47.638  1.00  0.00     0.177 C 
BRANCH  32  37
ATOM     37  O   UNL     1      13.699  16.512  49.616  1.00  0.00    -0.385 OA
ATOM     38  H   UNL     1      13.502  16.144  50.517  1.00  0.00     0.211 HD
ENDBRANCH  32  37
BRANCH  34  39
ATOM     39  O   UNL     1      12.213  13.690  47.920  1.00  0.00    -0.387 OA
ATOM     40  H   UNL     1      11.768  13.177  48.640  1.00  0.00     0.211 HD
ENDBRANCH  34  39
BRANCH  35  41
ATOM     41  C   UNL     1      15.784  15.424  45.640  1.00  0.00     0.191 C 
BRANCH  41  42
ATOM     42  O   UNL     1      16.445  14.189  45.688  1.00  0.00    -0.394 OA
ATOM     43  H   UNL     1      16.646  14.023  46.648  1.00  0.00     0.210 HD
ENDBRANCH  41  42
ENDBRANCH  35  41
BRANCH  36  44
ATOM     44  O   UNL     1      15.656  14.756  48.442  1.00  0.00    -0.387 OA
ATOM     45  H   UNL     1      16.208  13.935  48.544  1.00  0.00     0.211 HD
ENDBRANCH  36  44
ENDBRANCH  30  31
ENDBRANCH  16  30
TORSDOF 13
ENDMDL
MODEL 6
REMARK VINA RESULT:    -3.442      8.115     14.538
REMARK INTER + INTRA:          -6.970
REMARK INTER:                  -7.932
REMARK INTRA:                   0.962
REMARK UNBOUND:                -1.315
REMARK SMILES CC[C@@H](CC[C@H](C)[C@@H]1CC[C@@H]2[C@@H]3CC=C4C[C@@H](O[C@@H]5O[C@@H](CO)[C@@H](O)[C@H](O)[C@H]5O)CC[C@@]4(C)[C@@H]3CC[C@]21C)C(C)C
REMARK SMILES IDX 8 1 9 2 10 3 11 4 37 5 36 6 35 7 34 8 12 9 13 10 14 11 15 12
REMARK SMILES IDX 32 13 31 14 30 15 17 16 16 17 33 18 38 19 6 20 7 21 5 22
REMARK SMILES IDX 4 23 3 24 2 25 1 26 39 27 40 28 41 29 18 30 19 31 28 32
REMARK SMILES IDX 20 33 26 34 21 35 24 36 29 37 27 39 22 41 23 42 25 44
REMARK H PARENT 29 38 27 40 23 43 25 45
REMARK Flexibility Score: inf
ROOT
ATOM      1  C   UNL     1       7.069  22.745  43.106  1.00  0.00    -0.002 C 
ATOM      2  C   UNL     1       7.779  22.576  41.730  1.00  0.00     0.005 C 
ATOM      3  C   UNL     1       8.869  21.501  41.903  1.00  0.00     0.005 C 
ATOM      4  C   UNL     1       8.848  21.218  43.393  1.00  0.00    -0.001 C 
ATOM      5  C   UNL     1       7.380  21.395  43.838  1.00  0.00    -0.026 C 
ATOM      6  C   UNL     1       7.391  21.462  45.389  1.00  0.00     0.007 C 
ATOM      7  C   UNL     1       8.145  20.267  46.036  1.00  0.00     0.005 C 
ATOM      8  C   UNL     1       9.610  20.102  45.516  1.00  0.00     0.003 C 
ATOM      9  C   UNL     1       9.629  20.011  43.967  1.00  0.00     0.000 C 
ATOM     10  C   UNL     1       9.171  18.625  43.493  1.00  0.00     0.031 C 
ATOM     11  C   UNL     1       9.974  17.542  44.136  1.00  0.00    -0.027 C 
ATOM     12  C   UNL     1      10.449  17.626  45.398  1.00  0.00    -0.065 C 
ATOM     13  C   UNL     1      10.464  18.943  46.190  1.00  0.00    -0.008 C 
ATOM     14  C   UNL     1      11.957  19.399  46.235  1.00  0.00     0.014 C 
ATOM     15  C   UNL     1      12.934  18.306  46.710  1.00  0.00     0.033 C 
ATOM     16  C   UNL     1      12.804  16.988  45.903  1.00  0.00     0.125 C 
ATOM     17  C   UNL     1      11.344  16.512  45.904  1.00  0.00     0.063 C 
ATOM     18  C   UNL     1       9.970  18.682  47.644  1.00  0.00     0.016 C 
ATOM     19  C   UNL     1       6.421  20.264  43.333  1.00  0.00     0.012 C 
ENDROOT
BRANCH   1  20
ATOM     20  C   UNL     1       5.585  23.235  42.961  1.00  0.00    -0.011 C 
ATOM     21  C   UNL     1       4.653  22.561  43.989  1.00  0.00     0.008 C 
BRANCH  20  22
ATOM     22  C   UNL     1       5.495  24.779  43.125  1.00  0.00     0.004 C 
BRANCH  22  23
ATOM     23  C   UNL     1       4.225  25.384  42.469  1.00  0.00     0.004 C 
BRANCH  23  24
ATOM     24  C   UNL     1       3.312  26.165  43.464  1.00  0.00    -0.009 C 
BRANCH  24  25
ATOM     25  C   UNL     1       2.806  25.193  44.573  1.00  0.00     0.000 C 
ATOM     26  C   UNL     1       3.540  25.348  45.907  1.00  0.00     0.004 C 
ENDBRANCH  24  25
BRANCH  24  27
ATOM     27  C   UNL     1       2.092  26.913  42.788  1.00  0.00    -0.014 C 
ATOM     28  C   UNL     1       2.199  28.447  42.699  1.00  0.00     0.007 C 
ATOM     29  C   UNL     1       0.771  26.547  43.488  1.00  0.00     0.007 C 
ENDBRANCH  24  27
ENDBRANCH  23  24
ENDBRANCH  22  23
ENDBRANCH  20  22
ENDBRANCH   1  20
BRANCH  16  30
ATOM     30  O   UNL     1      13.204  17.122  44.544  1.00  0.00    -0.346 OA
BRANCH  30  31
ATOM     31  C   UNL     1      13.006  15.977  43.718  1.00  0.00     0.282 C 
ATOM     32  C   UNL     1      14.056  15.762  42.586  1.00  0.00     0.202 C 
ATOM     33  O   UNL     1      12.969  14.815  44.538  1.00  0.00    -0.341 OA
ATOM     34  C   UNL     1      15.450  15.479  43.175  1.00  0.00     0.179 C 
ATOM     35  C   UNL     1      14.197  14.634  45.236  1.00  0.00     0.178 C 
ATOM     36  C   UNL     1      15.380  14.377  44.263  1.00  0.00     0.177 C 
BRANCH  32  37
ATOM     37  O   UNL     1      13.672  14.662  41.799  1.00  0.00    -0.385 OA
ATOM     38  H   UNL     1      13.963  14.853  40.869  1.00  0.00     0.211 HD
ENDBRANCH  32  37
BRANCH  34  39
ATOM     39  O   UNL     1      16.050  16.667  43.636  1.00  0.00    -0.387 OA
ATOM     40  H   UNL     1      15.345  17.270  43.979  1.00  0.00     0.211 HD
ENDBRANCH  34  39
BRANCH  35  41
ATOM     41  C   UNL     1      14.040  13.493  46.252  1.00  0.00     0.191 C 
BRANCH  41  42
ATOM     42  O   UNL     1      15.290  12.993  46.639  1.00  0.00    -0.394 OA
ATOM     43  H   UNL     1      15.915  13.214  45.897  1.00  0.00     0.210 HD
ENDBRANCH  41  42
ENDBRANCH  35  41
BRANCH  36  44
ATOM     44  O   UNL     1      15.238  13.117  43.657  1.00  0.00    -0.387 OA
ATOM     45  H   UNL     1      14.315  12.804  43.856  1.00  0.00     0.211 HD
ENDBRANCH  36  44
ENDBRANCH  30  31
ENDBRANCH  16  30
TORSDOF 13
ENDMDL
MODEL 7
REMARK VINA RESULT:    -3.420      8.342     14.593
REMARK INTER + INTRA:          -6.935
REMARK INTER:                  -5.794
REMARK INTRA:                  -1.140
REMARK UNBOUND:                -1.315
REMARK SMILES CC[C@@H](CC[C@H](C)[C@@H]1CC[C@@H]2[C@@H]3CC=C4C[C@@H](O[C@@H]5O[C@@H](CO)[C@@H](O)[C@H](O)[C@H]5O)CC[C@@]4(C)[C@@H]3CC[C@]21C)C(C)C
REMARK SMILES IDX 8 1 9 2 10 3 11 4 37 5 36 6 35 7 34 8 12 9 13 10 14 11 15 12
REMARK SMILES IDX 32 13 31 14 30 15 17 16 16 17 33 18 38 19 6 20 7 21 5 22
REMARK SMILES IDX 4 23 3 24 2 25 1 26 39 27 40 28 41 29 18 30 19 31 28 32
REMARK SMILES IDX 20 33 26 34 21 35 24 36 29 37 27 39 22 41 23 42 25 44
REMARK H PARENT 29 38 27 40 23 43 25 45
REMARK Flexibility Score: inf
ROOT
ATOM      1  C   UNL     1       5.882  20.883  45.196  1.00  0.00    -0.002 C 
ATOM      2  C   UNL     1       5.899  20.683  46.740  1.00  0.00     0.005 C 
ATOM      3  C   UNL     1       7.201  19.940  47.095  1.00  0.00     0.005 C 
ATOM      4  C   UNL     1       7.792  19.604  45.739  1.00  0.00    -0.001 C 
ATOM      5  C   UNL     1       7.394  20.766  44.803  1.00  0.00    -0.026 C 
ATOM      6  C   UNL     1       7.673  20.284  43.353  1.00  0.00     0.007 C 
ATOM      7  C   UNL     1       9.118  19.744  43.169  1.00  0.00     0.005 C 
ATOM      8  C   UNL     1       9.488  18.603  44.172  1.00  0.00     0.003 C 
ATOM      9  C   UNL     1       9.239  19.063  45.633  1.00  0.00     0.000 C 
ATOM     10  C   UNL     1      10.349  20.011  46.106  1.00  0.00     0.031 C 
ATOM     11  C   UNL     1      11.698  19.396  45.927  1.00  0.00    -0.027 C 
ATOM     12  C   UNL     1      12.001  18.570  44.902  1.00  0.00    -0.065 C 
ATOM     13  C   UNL     1      10.928  17.953  43.991  1.00  0.00    -0.008 C 
ATOM     14  C   UNL     1      10.837  16.447  44.393  1.00  0.00     0.014 C 
ATOM     15  C   UNL     1      12.198  15.724  44.431  1.00  0.00     0.033 C 
ATOM     16  C   UNL     1      13.243  16.450  45.317  1.00  0.00     0.125 C 
ATOM     17  C   UNL     1      13.370  17.919  44.885  1.00  0.00     0.063 C 
ATOM     18  C   UNL     1      11.384  18.054  42.505  1.00  0.00     0.016 C 
ATOM     19  C   UNL     1       8.143  22.109  45.101  1.00  0.00     0.012 C 
ENDROOT
BRANCH   1  20
ATOM     20  C   UNL     1       5.054  22.143  44.761  1.00  0.00    -0.011 C 
ATOM     21  C   UNL     1       3.610  21.775  44.364  1.00  0.00     0.008 C 
BRANCH  20  22
ATOM     22  C   UNL     1       5.016  23.198  45.903  1.00  0.00     0.004 C 
BRANCH  22  23
ATOM     23  C   UNL     1       5.100  24.658  45.381  1.00  0.00     0.004 C 
BRANCH  23  24
ATOM     24  C   UNL     1       5.305  24.764  43.838  1.00  0.00    -0.009 C 
BRANCH  24  25
ATOM     25  C   UNL     1       6.720  25.347  43.543  1.00  0.00     0.000 C 
ATOM     26  C   UNL     1       7.600  24.424  42.696  1.00  0.00     0.004 C 
ENDBRANCH  24  25
BRANCH  24  27
ATOM     27  C   UNL     1       4.195  25.605  43.085  1.00  0.00    -0.014 C 
ATOM     28  C   UNL     1       2.874  25.825  43.846  1.00  0.00     0.007 C 
ATOM     29  C   UNL     1       3.878  24.985  41.712  1.00  0.00     0.007 C 
ENDBRANCH  24  27
ENDBRANCH  23  24
ENDBRANCH  22  23
ENDBRANCH  20  22
ENDBRANCH   1  20
BRANCH  16  30
ATOM     30  O   UNL     1      12.907  16.442  46.700  1.00  0.00    -0.346 OA
BRANCH  30  31
ATOM     31  C   UNL     1      13.975  16.158  47.601  1.00  0.00     0.282 C 
ATOM     32  C   UNL     1      13.649  15.156  48.750  1.00  0.00     0.202 C 
ATOM     33  O   UNL     1      15.087  15.667  46.862  1.00  0.00    -0.341 OA
ATOM     34  C   UNL     1      13.341  13.756  48.187  1.00  0.00     0.179 C 
ATOM     35  C   UNL     1      14.764  14.458  46.184  1.00  0.00     0.178 C 
ATOM     36  C   UNL     1      14.429  13.311  47.176  1.00  0.00     0.177 C 
BRANCH  32  37
ATOM     37  O   UNL     1      14.758  15.057  49.609  1.00  0.00    -0.385 OA
ATOM     38  H   UNL     1      15.570  15.063  49.037  1.00  0.00     0.211 HD
ENDBRANCH  32  37
BRANCH  34  39
ATOM     39  O   UNL     1      12.041  13.708  47.648  1.00  0.00    -0.387 OA
ATOM     40  H   UNL     1      11.525  14.482  47.986  1.00  0.00     0.211 HD
ENDBRANCH  34  39
BRANCH  35  41
ATOM     41  C   UNL     1      15.921  14.077  45.247  1.00  0.00     0.191 C 
BRANCH  41  42
ATOM     42  O   UNL     1      16.619  15.217  44.826  1.00  0.00    -0.394 OA
ATOM     43  H   UNL     1      16.427  15.921  45.503  1.00  0.00     0.210 HD
ENDBRANCH  41  42
ENDBRANCH  35  41
BRANCH  36  44
ATOM     44  O   UNL     1      15.589  12.920  47.867  1.00  0.00    -0.387 OA
ATOM     45  H   UNL     1      15.331  12.165  48.460  1.00  0.00     0.211 HD
ENDBRANCH  36  44
ENDBRANCH  30  31
ENDBRANCH  16  30
TORSDOF 13
ENDMDL
MODEL 8
REMARK VINA RESULT:    -3.015      8.487     14.773
REMARK INTER + INTRA:          -6.270
REMARK INTER:                  -6.074
REMARK INTRA:                  -0.196
REMARK UNBOUND:                -1.315
REMARK SMILES CC[C@@H](CC[C@H](C)[C@@H]1CC[C@@H]2[C@@H]3CC=C4C[C@@H](O[C@@H]5O[C@@H](CO)[C@@H](O)[C@H](O)[C@H]5O)CC[C@@]4(C)[C@@H]3CC[C@]21C)C(C)C
REMARK SMILES IDX 8 1 9 2 10 3 11 4 37 5 36 6 35 7 34 8 12 9 13 10 14 11 15 12
REMARK SMILES IDX 32 13 31 14 30 15 17 16 16 17 33 18 38 19 6 20 7 21 5 22
REMARK SMILES IDX 4 23 3 24 2 25 1 26 39 27 40 28 41 29 18 30 19 31 28 32
REMARK SMILES IDX 20 33 26 34 21 35 24 36 29 37 27 39 22 41 23 42 25 44
REMARK H PARENT 29 38 27 40 23 43 25 45
REMARK Flexibility Score: inf
ROOT
ATOM      1  C   UNL     1       8.142  22.727  43.401  1.00  0.00    -0.002 C 
ATOM      2  C   UNL     1       8.689  22.397  41.981  1.00  0.00     0.005 C 
ATOM      3  C   UNL     1       9.560  21.132  42.104  1.00  0.00     0.005 C 
ATOM      4  C   UNL     1       9.608  20.885  43.599  1.00  0.00    -0.001 C 
ATOM      5  C   UNL     1       8.244  21.355  44.151  1.00  0.00    -0.026 C 
ATOM      6  C   UNL     1       8.396  21.446  45.694  1.00  0.00     0.007 C 
ATOM      7  C   UNL     1       8.955  20.137  46.319  1.00  0.00     0.005 C 
ATOM      8  C   UNL     1      10.311  19.679  45.693  1.00  0.00     0.003 C 
ATOM      9  C   UNL     1      10.184  19.558  44.150  1.00  0.00     0.000 C 
ATOM     10  C   UNL     1       9.427  18.282  43.761  1.00  0.00     0.031 C 
ATOM     11  C   UNL     1      10.054  17.073  44.375  1.00  0.00    -0.027 C 
ATOM     12  C   UNL     1      10.639  17.084  45.592  1.00  0.00    -0.065 C 
ATOM     13  C   UNL     1      10.976  18.385  46.336  1.00  0.00    -0.008 C 
ATOM     14  C   UNL     1      12.527  18.540  46.250  1.00  0.00     0.014 C 
ATOM     15  C   UNL     1      13.309  17.284  46.683  1.00  0.00     0.033 C 
ATOM     16  C   UNL     1      12.859  16.004  45.933  1.00  0.00     0.125 C 
ATOM     17  C   UNL     1      11.339  15.824  46.064  1.00  0.00     0.063 C 
ATOM     18  C   UNL     1      10.563  18.252  47.832  1.00  0.00     0.016 C 
ATOM     19  C   UNL     1       7.045  20.426  43.760  1.00  0.00     0.012 C 
ENDROOT
BRANCH   1  20
ATOM     20  C   UNL     1       6.775  23.496  43.356  1.00  0.00    -0.011 C 
ATOM     21  C   UNL     1       6.969  25.000  43.072  1.00  0.00     0.008 C 
BRANCH  20  22
ATOM     22  C   UNL     1       5.837  22.890  42.274  1.00  0.00     0.004 C 
BRANCH  22  23
ATOM     23  C   UNL     1       4.397  23.468  42.329  1.00  0.00     0.004 C 
BRANCH  23  24
ATOM     24  C   UNL     1       3.696  23.283  43.711  1.00  0.00    -0.009 C 
BRANCH  24  25
ATOM     25  C   UNL     1       2.884  24.568  44.056  1.00  0.00     0.000 C 
ATOM     26  C   UNL     1       3.269  25.783  43.207  1.00  0.00     0.004 C 
ENDBRANCH  24  25
BRANCH  24  27
ATOM     27  C   UNL     1       4.674  22.914  44.899  1.00  0.00    -0.014 C 
ATOM     28  C   UNL     1       4.375  21.599  45.644  1.00  0.00     0.007 C 
ATOM     29  C   UNL     1       4.744  24.060  45.926  1.00  0.00     0.007 C 
ENDBRANCH  24  27
ENDBRANCH  23  24
ENDBRANCH  22  23
ENDBRANCH  20  22
ENDBRANCH   1  20
BRANCH  16  30
ATOM     30  O   UNL     1      13.164  16.033  44.543  1.00  0.00    -0.346 OA
BRANCH  30  31
ATOM     31  C   UNL     1      13.675  14.822  43.990  1.00  0.00     0.282 C 
ATOM     32  C   UNL     1      14.761  14.984  42.883  1.00  0.00     0.202 C 
ATOM     33  O   UNL     1      14.203  14.020  45.040  1.00  0.00    -0.341 OA
ATOM     34  C   UNL     1      16.039  15.624  43.455  1.00  0.00     0.179 C 
ATOM     35  C   UNL     1      15.278  14.677  45.704  1.00  0.00     0.178 C 
ATOM     36  C   UNL     1      16.486  14.908  44.755  1.00  0.00     0.177 C 
BRANCH  32  37
ATOM     37  O   UNL     1      15.090  13.717  42.367  1.00  0.00    -0.385 OA
ATOM     38  H   UNL     1      14.361  13.459  41.744  1.00  0.00     0.211 HD
ENDBRANCH  32  37
BRANCH  34  39
ATOM     39  O   UNL     1      15.870  17.012  43.625  1.00  0.00    -0.387 OA
ATOM     40  H   UNL     1      14.988  17.180  44.041  1.00  0.00     0.211 HD
ENDBRANCH  34  39
BRANCH  35  41
ATOM     41  C   UNL     1      15.679  13.866  46.946  1.00  0.00     0.191 C 
BRANCH  41  42
ATOM     42  O   UNL     1      14.656  12.983  47.317  1.00  0.00    -0.394 OA
ATOM     43  H   UNL     1      14.360  12.539  46.478  1.00  0.00     0.210 HD
ENDBRANCH  41  42
ENDBRANCH  35  41
BRANCH  36  44
ATOM     44  O   UNL     1      17.089  13.678  44.438  1.00  0.00    -0.387 OA
ATOM     45  H   UNL     1      16.372  13.090  44.080  1.00  0.00     0.211 HD
ENDBRANCH  36  44
ENDBRANCH  30  31
ENDBRANCH  16  30
TORSDOF 13
ENDMDL
MODEL 9
REMARK VINA RESULT:    -2.997      2.210      4.573
REMARK INTER + INTRA:          -6.239
REMARK INTER:                  -6.481
REMARK INTRA:                   0.241
REMARK UNBOUND:                -1.315
REMARK SMILES CC[C@@H](CC[C@H](C)[C@@H]1CC[C@@H]2[C@@H]3CC=C4C[C@@H](O[C@@H]5O[C@@H](CO)[C@@H](O)[C@H](O)[C@H]5O)CC[C@@]4(C)[C@@H]3CC[C@]21C)C(C)C
REMARK SMILES IDX 8 1 9 2 10 3 11 4 37 5 36 6 35 7 34 8 12 9 13 10 14 11 15 12
REMARK SMILES IDX 32 13 31 14 30 15 17 16 16 17 33 18 38 19 6 20 7 21 5 22
REMARK SMILES IDX 4 23 3 24 2 25 1 26 39 27 40 28 41 29 18 30 19 31 28 32
REMARK SMILES IDX 20 33 26 34 21 35 24 36 29 37 27 39 22 41 23 42 25 44
REMARK H PARENT 29 38 27 40 23 43 25 45
REMARK Flexibility Score: inf
ROOT
ATOM      1  C   UNL     1       8.158  20.945  43.676  1.00  0.00    -0.002 C 
ATOM      2  C   UNL     1       8.234  21.189  42.140  1.00  0.00     0.005 C 
ATOM      3  C   UNL     1       7.194  22.271  41.793  1.00  0.00     0.005 C 
ATOM      4  C   UNL     1       6.460  22.483  43.104  1.00  0.00    -0.001 C 
ATOM      5  C   UNL     1       7.508  22.264  44.217  1.00  0.00    -0.026 C 
ATOM      6  C   UNL     1       6.720  22.125  45.547  1.00  0.00     0.007 C 
ATOM      7  C   UNL     1       5.730  23.299  45.784  1.00  0.00     0.005 C 
ATOM      8  C   UNL     1       4.723  23.510  44.608  1.00  0.00     0.003 C 
ATOM      9  C   UNL     1       5.484  23.674  43.264  1.00  0.00     0.000 C 
ATOM     10  C   UNL     1       6.104  25.073  43.152  1.00  0.00     0.031 C 
ATOM     11  C   UNL     1       5.075  26.137  43.356  1.00  0.00    -0.027 C 
ATOM     12  C   UNL     1       4.032  26.002  44.203  1.00  0.00    -0.065 C 
ATOM     13  C   UNL     1       3.635  24.650  44.816  1.00  0.00    -0.008 C 
ATOM     14  C   UNL     1       2.326  24.214  44.084  1.00  0.00     0.014 C 
ATOM     15  C   UNL     1       1.231  25.299  44.055  1.00  0.00     0.033 C 
ATOM     16  C   UNL     1       1.735  26.651  43.486  1.00  0.00     0.125 C 
ATOM     17  C   UNL     1       2.992  27.104  44.244  1.00  0.00     0.063 C 
ATOM     18  C   UNL     1       3.329  24.835  46.332  1.00  0.00     0.016 C 
ATOM     19  C   UNL     1       8.579  23.402  44.316  1.00  0.00     0.012 C 
ENDROOT
BRANCH   1  20
ATOM     20  C   UNL     1       9.520  20.440  44.273  1.00  0.00    -0.011 C 
ATOM     21  C   UNL     1       9.433  20.216  45.796  1.00  0.00     0.008 C 
BRANCH  20  22
ATOM     22  C   UNL     1       9.966  19.118  43.587  1.00  0.00     0.004 C 
BRANCH  22  23
ATOM     23  C   UNL     1      10.234  17.972  44.599  1.00  0.00     0.004 C 
BRANCH  23  24
ATOM     24  C   UNL     1      11.737  17.572  44.716  1.00  0.00    -0.009 C 
BRANCH  24  25
ATOM     25  C   UNL     1      11.968  16.208  43.996  1.00  0.00     0.000 C 
ATOM     26  C   UNL     1      13.301  16.127  43.248  1.00  0.00     0.004 C 
ENDBRANCH  24  25
BRANCH  24  27
ATOM     27  C   UNL     1      12.288  17.513  46.198  1.00  0.00    -0.014 C 
ATOM     28  C   UNL     1      13.743  17.976  46.403  1.00  0.00     0.007 C 
ATOM     29  C   UNL     1      12.131  16.098  46.783  1.00  0.00     0.007 C 
ENDBRANCH  24  27
ENDBRANCH  23  24
ENDBRANCH  22  23
ENDBRANCH  20  22
ENDBRANCH   1  20
BRANCH  16  30
ATOM     30  O   UNL     1       2.073  26.586  42.105  1.00  0.00    -0.346 OA
BRANCH  30  31
ATOM     31  C   UNL     1       2.030  27.821  41.393  1.00  0.00     0.282 C 
ATOM     32  C   UNL     1       1.159  27.833  40.101  1.00  0.00     0.202 C 
ATOM     33  O   UNL     1       1.571  28.845  42.268  1.00  0.00    -0.341 OA
ATOM     34  C   UNL     1      -0.328  27.621  40.438  1.00  0.00     0.179 C 
ATOM     35  C   UNL     1       0.254  28.574  42.737  1.00  0.00     0.178 C 
ATOM     36  C   UNL     1      -0.781  28.568  41.578  1.00  0.00     0.177 C 
BRANCH  32  37
ATOM     37  O   UNL     1       1.298  29.076  39.458  1.00  0.00    -0.385 OA
ATOM     38  H   UNL     1       0.448  29.251  38.976  1.00  0.00     0.211 HD
ENDBRANCH  32  37
BRANCH  34  39
ATOM     39  O   UNL     1      -0.590  26.265  40.716  1.00  0.00    -0.387 OA
ATOM     40  H   UNL     1      -0.223  25.711  39.983  1.00  0.00     0.211 HD
ENDBRANCH  34  39
BRANCH  35  41
ATOM     41  C   UNL     1      -0.117  29.593  43.825  1.00  0.00     0.191 C 
BRANCH  41  42
ATOM     42  O   UNL     1      -0.024  30.903  43.335  1.00  0.00    -0.394 OA
ATOM     43  H   UNL     1       0.278  31.460  44.101  1.00  0.00     0.210 HD
ENDBRANCH  41  42
ENDBRANCH  35  41
BRANCH  36  44
ATOM     44  O   UNL     1      -0.946  29.872  41.077  1.00  0.00    -0.387 OA
ATOM     45  H   UNL     1      -0.415  30.475  41.663  1.00  0.00     0.211 HD
ENDBRANCH  36  44
ENDBRANCH  30  31
ENDBRANCH  16  30
TORSDOF 13
ENDMDL
