MODEL 1
REMARK VINA RESULT:    -5.403      0.000      0.000
REMARK INTER + INTRA:          -6.462
REMARK INTER:                  -6.350
REMARK INTRA:                  -0.111
REMARK UNBOUND:                -0.111
REMARK SMILES O=C([O-])C=Cc1ccc(O)c(O)c1
REMARK SMILES IDX 6 1 13 2 7 3 11 4 8 5 9 6 5 7 4 8 2 9 1 10 3 11 12 12 10 14
REMARK H PARENT 12 13 10 15
REMARK Flexibility Score: inf
ROOT
ATOM      1  C   UNL     1      11.399   0.858  15.416  1.00  0.00    -0.022 A 
ATOM      2  C   UNL     1      12.144   1.483  16.430  1.00  0.00     0.058 A 
ATOM      3  C   UNL     1      11.128   1.558  14.232  1.00  0.00     0.012 A 
ATOM      4  C   UNL     1      12.658   2.771  16.243  1.00  0.00     0.157 A 
ATOM      5  C   UNL     1      11.640   2.844  14.040  1.00  0.00     0.051 A 
ATOM      6  C   UNL     1      12.410   3.454  15.040  1.00  0.00     0.157 A 
ENDROOT
BRANCH   1   7
ATOM      7  C   UNL     1      10.804  -0.480  15.616  1.00  0.00     0.010 C 
ATOM      8  C   UNL     1      11.140  -1.589  14.939  1.00  0.00     0.025 C 
BRANCH   8   9
ATOM      9  C   UNL     1      12.017  -1.635  13.755  1.00  0.00     0.064 C 
ATOM     10  O   UNL     1      11.501  -1.661  12.607  1.00  0.00    -0.545 OA
ATOM     11  O   UNL     1      13.401  -1.576  13.872  1.00  0.00    -0.545 OA
ENDBRANCH   8   9
ENDBRANCH   1   7
BRANCH   4  12
ATOM     12  O   UNL     1      13.408   3.355  17.263  1.00  0.00    -0.504 OA
ATOM     13  H   UNL     1      12.975   3.753  18.088  1.00  0.00     0.293 HD
ENDBRANCH   4  12
BRANCH   6  14
ATOM     14  O   UNL     1      12.922   4.736  14.846  1.00  0.00    -0.504 OA
ATOM     15  H   UNL     1      13.165   5.077  13.923  1.00  0.00     0.293 HD
ENDBRANCH   6  14
TORSDOF 4
ENDMDL
MODEL 2
REMARK VINA RESULT:    -5.355      1.939      2.649
REMARK INTER + INTRA:          -6.406
REMARK INTER:                  -6.383
REMARK INTRA:                  -0.022
REMARK UNBOUND:                -0.111
REMARK SMILES O=C([O-])C=Cc1ccc(O)c(O)c1
REMARK SMILES IDX 6 1 13 2 7 3 11 4 8 5 9 6 5 7 4 8 2 9 1 10 3 11 12 12 10 14
REMARK H PARENT 12 13 10 15
REMARK Flexibility Score: inf
ROOT
ATOM      1  C   UNL     1      11.848   1.803  14.707  1.00  0.00    -0.022 A 
ATOM      2  C   UNL     1      11.321   2.788  13.854  1.00  0.00     0.058 A 
ATOM      3  C   UNL     1      13.232   1.585  14.731  1.00  0.00     0.012 A 
ATOM      4  C   UNL     1      12.171   3.582  13.075  1.00  0.00     0.157 A 
ATOM      5  C   UNL     1      14.085   2.376  13.956  1.00  0.00     0.051 A 
ATOM      6  C   UNL     1      13.560   3.379  13.129  1.00  0.00     0.157 A 
ENDROOT
BRANCH   1   7
ATOM      7  C   UNL     1      10.963   0.921  15.495  1.00  0.00     0.010 C 
ATOM      8  C   UNL     1      10.922  -0.417  15.408  1.00  0.00     0.025 C 
BRANCH   8   9
ATOM      9  C   UNL     1      11.607  -1.228  14.384  1.00  0.00     0.064 C 
ATOM     10  O   UNL     1      12.429  -2.110  14.746  1.00  0.00    -0.545 OA
ATOM     11  O   UNL     1      11.313  -1.092  13.033  1.00  0.00    -0.545 OA
ENDBRANCH   8   9
ENDBRANCH   1   7
BRANCH   4  12
ATOM     12  O   UNL     1      11.616   4.561  12.251  1.00  0.00    -0.504 OA
ATOM     13  H   UNL     1      11.412   5.495  12.589  1.00  0.00     0.293 HD
ENDBRANCH   4  12
BRANCH   6  14
ATOM     14  O   UNL     1      14.413   4.168  12.358  1.00  0.00    -0.504 OA
ATOM     15  H   UNL     1      14.545   5.153  12.552  1.00  0.00     0.293 HD
ENDBRANCH   6  14
TORSDOF 4
ENDMDL
MODEL 3
REMARK VINA RESULT:    -5.267      1.382      5.010
REMARK INTER + INTRA:          -6.302
REMARK INTER:                  -6.018
REMARK INTRA:                  -0.283
REMARK UNBOUND:                -0.111
REMARK SMILES O=C([O-])C=Cc1ccc(O)c(O)c1
REMARK SMILES IDX 6 1 13 2 7 3 11 4 8 5 9 6 5 7 4 8 2 9 1 10 3 11 12 12 10 14
REMARK H PARENT 12 13 10 15
REMARK Flexibility Score: inf
ROOT
ATOM      1  C   UNL     1      11.455   1.109  14.272  1.00  0.00    -0.022 A 
ATOM      2  C   UNL     1      11.808   0.362  13.136  1.00  0.00     0.058 A 
ATOM      3  C   UNL     1      10.985   0.443  15.412  1.00  0.00     0.012 A 
ATOM      4  C   UNL     1      11.745  -1.036  13.156  1.00  0.00     0.157 A 
ATOM      5  C   UNL     1      10.920  -0.953  15.438  1.00  0.00     0.051 A 
ATOM      6  C   UNL     1      11.304  -1.698  14.314  1.00  0.00     0.157 A 
ENDROOT
BRANCH   1   7
ATOM      7  C   UNL     1      11.465   2.586  14.251  1.00  0.00     0.010 C 
ATOM      8  C   UNL     1      12.541   3.359  14.465  1.00  0.00     0.025 C 
BRANCH   8   9
ATOM      9  C   UNL     1      13.853   2.884  14.944  1.00  0.00     0.064 C 
ATOM     10  O   UNL     1      14.820   2.834  14.140  1.00  0.00    -0.545 OA
ATOM     11  O   UNL     1      14.065   2.559  16.278  1.00  0.00    -0.545 OA
ENDBRANCH   8   9
ENDBRANCH   1   7
BRANCH   4  12
ATOM     12  O   UNL     1      12.120  -1.748  12.017  1.00  0.00    -0.504 OA
ATOM     13  H   UNL     1      11.887  -2.726  11.893  1.00  0.00     0.293 HD
ENDBRANCH   4  12
BRANCH   6  14
ATOM     14  O   UNL     1      11.241  -3.091  14.343  1.00  0.00    -0.504 OA
ATOM     15  H   UNL     1      12.076  -3.661  14.293  1.00  0.00     0.293 HD
ENDBRANCH   6  14
TORSDOF 4
ENDMDL
MODEL 4
REMARK VINA RESULT:    -5.266      1.702      5.350
REMARK INTER + INTRA:          -6.301
REMARK INTER:                  -6.052
REMARK INTRA:                  -0.249
REMARK UNBOUND:                -0.111
REMARK SMILES O=C([O-])C=Cc1ccc(O)c(O)c1
REMARK SMILES IDX 6 1 13 2 7 3 11 4 8 5 9 6 5 7 4 8 2 9 1 10 3 11 12 12 10 14
REMARK H PARENT 12 13 10 15
REMARK Flexibility Score: inf
ROOT
ATOM      1  C   UNL     1      11.416  -0.799  15.130  1.00  0.00    -0.022 A 
ATOM      2  C   UNL     1      11.427  -0.953  13.733  1.00  0.00     0.058 A 
ATOM      3  C   UNL     1      11.726  -1.896  15.944  1.00  0.00     0.012 A 
ATOM      4  C   UNL     1      11.795  -2.174  13.156  1.00  0.00     0.157 A 
ATOM      5  C   UNL     1      12.095  -3.117  15.372  1.00  0.00     0.051 A 
ATOM      6  C   UNL     1      12.136  -3.260  13.978  1.00  0.00     0.157 A 
ENDROOT
BRANCH   1   7
ATOM      7  C   UNL     1      10.980   0.466  15.757  1.00  0.00     0.010 C 
ATOM      8  C   UNL     1      11.696   1.600  15.800  1.00  0.00     0.025 C 
BRANCH   8   9
ATOM      9  C   UNL     1      13.110   1.734  15.401  1.00  0.00     0.064 C 
ATOM     10  O   UNL     1      14.012   1.404  16.214  1.00  0.00    -0.545 OA
ATOM     11  O   UNL     1      13.468   2.146  14.123  1.00  0.00    -0.545 OA
ENDBRANCH   8   9
ENDBRANCH   1   7
BRANCH   4  12
ATOM     12  O   UNL     1      11.811  -2.287  11.766  1.00  0.00    -0.504 OA
ATOM     13  H   UNL     1      11.200  -2.928  11.272  1.00  0.00     0.293 HD
ENDBRANCH   4  12
BRANCH   6  14
ATOM     14  O   UNL     1      12.506  -4.479  13.410  1.00  0.00    -0.504 OA
ATOM     15  H   UNL     1      13.479  -4.740  13.301  1.00  0.00     0.293 HD
ENDBRANCH   6  14
TORSDOF 4
ENDMDL
MODEL 5
REMARK VINA RESULT:    -5.261      1.877      2.132
REMARK INTER + INTRA:          -6.296
REMARK INTER:                  -6.190
REMARK INTRA:                  -0.106
REMARK UNBOUND:                -0.111
REMARK SMILES O=C([O-])C=Cc1ccc(O)c(O)c1
REMARK SMILES IDX 6 1 13 2 7 3 11 4 8 5 9 6 5 7 4 8 2 9 1 10 3 11 12 12 10 14
REMARK H PARENT 12 13 10 15
REMARK Flexibility Score: inf
ROOT
ATOM      1  C   UNL     1      11.844   0.292  14.944  1.00  0.00    -0.022 A 
ATOM      2  C   UNL     1      13.203   0.374  14.599  1.00  0.00     0.058 A 
ATOM      3  C   UNL     1      10.990   1.357  14.628  1.00  0.00     0.012 A 
ATOM      4  C   UNL     1      13.693   1.483  13.899  1.00  0.00     0.157 A 
ATOM      5  C   UNL     1      11.474   2.467  13.929  1.00  0.00     0.051 A 
ATOM      6  C   UNL     1      12.824   2.533  13.558  1.00  0.00     0.157 A 
ENDROOT
BRANCH   1   7
ATOM      7  C   UNL     1      11.320  -0.845  15.728  1.00  0.00     0.010 C 
ATOM      8  C   UNL     1      11.375  -2.135  15.359  1.00  0.00     0.025 C 
BRANCH   8   9
ATOM      9  C   UNL     1      11.792  -2.627  14.032  1.00  0.00     0.064 C 
ATOM     10  O   UNL     1      12.862  -3.280  13.927  1.00  0.00    -0.545 OA
ATOM     11  O   UNL     1      10.994  -2.450  12.908  1.00  0.00    -0.545 OA
ENDBRANCH   8   9
ENDBRANCH   1   7
BRANCH   4  12
ATOM     12  O   UNL     1      15.045   1.525  13.558  1.00  0.00    -0.504 OA
ATOM     13  H   UNL     1      15.362   1.399  12.604  1.00  0.00     0.293 HD
ENDBRANCH   4  12
BRANCH   6  14
ATOM     14  O   UNL     1      13.305   3.639  12.859  1.00  0.00    -0.504 OA
ATOM     15  H   UNL     1      13.585   4.488  13.335  1.00  0.00     0.293 HD
ENDBRANCH   6  14
TORSDOF 4
ENDMDL
MODEL 6
REMARK VINA RESULT:    -5.152      1.944      5.120
REMARK INTER + INTRA:          -6.167
REMARK INTER:                  -6.019
REMARK INTRA:                  -0.148
REMARK UNBOUND:                -0.111
REMARK SMILES O=C([O-])C=Cc1ccc(O)c(O)c1
REMARK SMILES IDX 6 1 13 2 7 3 11 4 8 5 9 6 5 7 4 8 2 9 1 10 3 11 12 12 10 14
REMARK H PARENT 12 13 10 15
REMARK Flexibility Score: inf
ROOT
ATOM      1  C   UNL     1      11.365  -0.900  15.023  1.00  0.00    -0.022 A 
ATOM      2  C   UNL     1      11.652  -2.075  15.738  1.00  0.00     0.058 A 
ATOM      3  C   UNL     1      11.550  -0.879  13.634  1.00  0.00     0.012 A 
ATOM      4  C   UNL     1      12.066  -3.232  15.067  1.00  0.00     0.157 A 
ATOM      5  C   UNL     1      11.964  -2.032  12.960  1.00  0.00     0.051 A 
ATOM      6  C   UNL     1      12.219  -3.212  13.671  1.00  0.00     0.157 A 
ENDROOT
BRANCH   1   7
ATOM      7  C   UNL     1      10.978   0.344  15.719  1.00  0.00     0.010 C 
ATOM      8  C   UNL     1      11.717   1.463  15.779  1.00  0.00     0.025 C 
BRANCH   8   9
ATOM      9  C   UNL     1      13.116   1.589  15.330  1.00  0.00     0.064 C 
ATOM     10  O   UNL     1      13.365   2.195  14.255  1.00  0.00    -0.545 OA
ATOM     11  O   UNL     1      14.172   1.118  16.101  1.00  0.00    -0.545 OA
ENDBRANCH   8   9
ENDBRANCH   1   7
BRANCH   4  12
ATOM     12  O   UNL     1      12.326  -4.386  15.806  1.00  0.00    -0.504 OA
ATOM     13  H   UNL     1      12.869  -5.154  15.430  1.00  0.00     0.293 HD
ENDBRANCH   4  12
BRANCH   6  14
ATOM     14  O   UNL     1      12.628  -4.362  12.996  1.00  0.00    -0.504 OA
ATOM     15  H   UNL     1      13.275  -5.020  13.413  1.00  0.00     0.293 HD
ENDBRANCH   6  14
TORSDOF 4
ENDMDL
MODEL 7
REMARK VINA RESULT:    -4.990      2.825      5.958
REMARK INTER + INTRA:          -5.976
REMARK INTER:                  -5.813
REMARK INTRA:                  -0.163
REMARK UNBOUND:                -0.111
REMARK SMILES O=C([O-])C=Cc1ccc(O)c(O)c1
REMARK SMILES IDX 6 1 13 2 7 3 11 4 8 5 9 6 5 7 4 8 2 9 1 10 3 11 12 12 10 14
REMARK H PARENT 12 13 10 15
REMARK Flexibility Score: inf
ROOT
ATOM      1  C   UNL     1      12.071  -3.010  13.984  1.00  0.00    -0.022 A 
ATOM      2  C   UNL     1      10.993  -2.687  13.142  1.00  0.00     0.058 A 
ATOM      3  C   UNL     1      13.240  -3.545  13.427  1.00  0.00     0.012 A 
ATOM      4  C   UNL     1      11.101  -2.848  11.755  1.00  0.00     0.157 A 
ATOM      5  C   UNL     1      13.353  -3.707  12.044  1.00  0.00     0.051 A 
ATOM      6  C   UNL     1      12.289  -3.355  11.202  1.00  0.00     0.157 A 
ENDROOT
BRANCH   1   7
ATOM      7  C   UNL     1      11.955  -2.897  15.452  1.00  0.00     0.010 C 
ATOM      8  C   UNL     1      11.785  -1.753  16.133  1.00  0.00     0.025 C 
BRANCH   8   9
ATOM      9  C   UNL     1      11.873  -0.396  15.560  1.00  0.00     0.064 C 
ATOM     10  O   UNL     1      13.005   0.092  15.307  1.00  0.00    -0.545 OA
ATOM     11  O   UNL     1      10.734   0.326  15.226  1.00  0.00    -0.545 OA
ENDBRANCH   8   9
ENDBRANCH   1   7
BRANCH   4  12
ATOM     12  O   UNL     1      10.018  -2.502  10.947  1.00  0.00    -0.504 OA
ATOM     13  H   UNL     1       9.393  -1.741  11.183  1.00  0.00     0.293 HD
ENDBRANCH   4  12
BRANCH   6  14
ATOM     14  O   UNL     1      12.405  -3.514   9.822  1.00  0.00    -0.504 OA
ATOM     15  H   UNL     1      13.172  -4.031   9.409  1.00  0.00     0.293 HD
ENDBRANCH   6  14
TORSDOF 4
ENDMDL
MODEL 8
REMARK VINA RESULT:    -4.945      2.355      4.824
REMARK INTER + INTRA:          -5.924
REMARK INTER:                  -5.629
REMARK INTRA:                  -0.295
REMARK UNBOUND:                -0.111
REMARK SMILES O=C([O-])C=Cc1ccc(O)c(O)c1
REMARK SMILES IDX 6 1 13 2 7 3 11 4 8 5 9 6 5 7 4 8 2 9 1 10 3 11 12 12 10 14
REMARK H PARENT 12 13 10 15
REMARK Flexibility Score: inf
ROOT
ATOM      1  C   UNL     1      12.849   2.417  14.164  1.00  0.00    -0.022 A 
ATOM      2  C   UNL     1      12.571   1.364  13.277  1.00  0.00     0.058 A 
ATOM      3  C   UNL     1      12.232   2.436  15.422  1.00  0.00     0.012 A 
ATOM      4  C   UNL     1      11.731   0.313  13.663  1.00  0.00     0.157 A 
ATOM      5  C   UNL     1      11.392   1.389  15.812  1.00  0.00     0.051 A 
ATOM      6  C   UNL     1      11.142   0.322  14.938  1.00  0.00     0.157 A 
ENDROOT
BRANCH   1   7
ATOM      7  C   UNL     1      13.691   3.561  13.755  1.00  0.00     0.010 C 
ATOM      8  C   UNL     1      15.026   3.625  13.876  1.00  0.00     0.025 C 
BRANCH   8   9
ATOM      9  C   UNL     1      15.865   2.656  14.605  1.00  0.00     0.064 C 
ATOM     10  O   UNL     1      16.007   2.778  15.849  1.00  0.00    -0.545 OA
ATOM     11  O   UNL     1      16.445   1.569  13.962  1.00  0.00    -0.545 OA
ENDBRANCH   8   9
ENDBRANCH   1   7
BRANCH   4  12
ATOM     12  O   UNL     1      11.490  -0.726  12.764  1.00  0.00    -0.504 OA
ATOM     13  H   UNL     1      10.970  -0.585  11.906  1.00  0.00     0.293 HD
ENDBRANCH   4  12
BRANCH   6  14
ATOM     14  O   UNL     1      10.305  -0.723  15.330  1.00  0.00    -0.504 OA
ATOM     15  H   UNL     1      10.153  -1.531  14.739  1.00  0.00     0.293 HD
ENDBRANCH   6  14
TORSDOF 4
ENDMDL
MODEL 9
REMARK VINA RESULT:    -4.877     11.689     13.739
REMARK INTER + INTRA:          -5.844
REMARK INTER:                  -5.566
REMARK INTRA:                  -0.278
REMARK UNBOUND:                -0.111
REMARK SMILES O=C([O-])C=Cc1ccc(O)c(O)c1
REMARK SMILES IDX 6 1 13 2 7 3 11 4 8 5 9 6 5 7 4 8 2 9 1 10 3 11 12 12 10 14
REMARK H PARENT 12 13 10 15
REMARK Flexibility Score: inf
ROOT
ATOM      1  C   UNL     1       5.941  13.589  13.187  1.00  0.00    -0.022 A 
ATOM      2  C   UNL     1       6.619  13.213  12.016  1.00  0.00     0.058 A 
ATOM      3  C   UNL     1       6.431  13.166  14.430  1.00  0.00     0.012 A 
ATOM      4  C   UNL     1       7.803  12.469  12.087  1.00  0.00     0.157 A 
ATOM      5  C   UNL     1       7.613  12.423  14.507  1.00  0.00     0.051 A 
ATOM      6  C   UNL     1       8.306  12.076  13.339  1.00  0.00     0.157 A 
ENDROOT
BRANCH   1   7
ATOM      7  C   UNL     1       4.663  14.328  13.128  1.00  0.00     0.010 C 
ATOM      8  C   UNL     1       3.444  13.770  13.085  1.00  0.00     0.025 C 
BRANCH   8   9
ATOM      9  C   UNL     1       3.168  12.333  12.898  1.00  0.00     0.064 C 
ATOM     10  O   UNL     1       2.844  11.634  13.893  1.00  0.00    -0.545 OA
ATOM     11  O   UNL     1       3.185  11.748  11.638  1.00  0.00    -0.545 OA
ENDBRANCH   8   9
ENDBRANCH   1   7
BRANCH   4  12
ATOM     12  O   UNL     1       8.460  12.127  10.906  1.00  0.00    -0.504 OA
ATOM     13  H   UNL     1       9.189  11.424  10.880  1.00  0.00     0.293 HD
ENDBRANCH   4  12
BRANCH   6  14
ATOM     14  O   UNL     1       9.486  11.337  13.418  1.00  0.00    -0.504 OA
ATOM     15  H   UNL     1       9.636  10.652  14.149  1.00  0.00     0.293 HD
ENDBRANCH   6  14
TORSDOF 4
ENDMDL
