MODEL 1
REMARK VINA RESULT:    -4.398      0.000      0.000
REMARK INTER + INTRA:          -8.293
REMARK INTER:                  -6.969
REMARK INTRA:                  -1.323
REMARK UNBOUND:                -1.323
REMARK SMILES CCCCCCCCCCCC(=O)[O-]
REMARK SMILES IDX 7 1 8 2 9 3 10 4 11 5 12 6 13 7 14 8 6 9 5 10 4 11 3 12 2 13
REMARK SMILES IDX 1 14
REMARK H PARENT
REMARK Flexibility Score: inf
ROOT
ATOM      1  C   UNL     1     -23.683  58.320  29.629  1.00  0.00     0.000 C 
ENDROOT
BRANCH   1   2
ATOM      2  C   UNL     1     -24.456  58.485  30.944  1.00  0.00     0.000 C 
BRANCH   2   3
ATOM      3  C   UNL     1     -25.755  59.274  30.723  1.00  0.00     0.000 C 
BRANCH   3   4
ATOM      4  C   UNL     1     -26.480  59.600  32.038  1.00  0.00     0.006 C 
BRANCH   4   5
ATOM      5  C   UNL     1     -25.747  60.659  32.870  1.00  0.00     0.053 C 
BRANCH   5   6
ATOM      6  C   UNL     1     -26.233  60.640  34.285  1.00  0.00     0.041 C 
ATOM      7  O   UNL     1     -27.403  60.256  34.547  1.00  0.00    -0.550 OA
ATOM      8  O   UNL     1     -25.380  60.999  35.319  1.00  0.00    -0.550 OA
ENDBRANCH   5   6
ENDBRANCH   4   5
ENDBRANCH   3   4
ENDBRANCH   2   3
ENDBRANCH   1   2
BRANCH   1   9
ATOM      9  C   UNL     1     -24.305  59.174  28.514  1.00  0.00     0.000 C 
BRANCH   9  10
ATOM     10  C   UNL     1     -23.287  60.119  27.855  1.00  0.00    -0.000 C 
BRANCH  10  11
ATOM     11  C   UNL     1     -23.435  61.574  28.334  1.00  0.00    -0.000 C 
BRANCH  11  12
ATOM     12  C   UNL     1     -22.771  61.816  29.699  1.00  0.00    -0.000 C 
BRANCH  12  13
ATOM     13  C   UNL     1     -23.669  62.611  30.658  1.00  0.00    -0.003 C 
ATOM     14  C   UNL     1     -24.974  63.015  29.980  1.00  0.00     0.004 C 
ENDBRANCH  12  13
ENDBRANCH  11  12
ENDBRANCH  10  11
ENDBRANCH   9  10
ENDBRANCH   1   9
TORSDOF 10
ENDMDL
MODEL 2
REMARK VINA RESULT:    -4.355      1.776      2.758
REMARK INTER + INTRA:          -8.225
REMARK INTER:                  -7.015
REMARK INTRA:                  -1.209
REMARK UNBOUND:                -1.323
REMARK SMILES CCCCCCCCCCCC(=O)[O-]
REMARK SMILES IDX 7 1 8 2 9 3 10 4 11 5 12 6 13 7 14 8 6 9 5 10 4 11 3 12 2 13
REMARK SMILES IDX 1 14
REMARK H PARENT
REMARK Flexibility Score: inf
ROOT
ATOM      1  C   UNL     1     -24.102  61.459  29.046  1.00  0.00     0.000 C 
ENDROOT
BRANCH   1   2
ATOM      2  C   UNL     1     -24.476  62.810  29.670  1.00  0.00     0.000 C 
BRANCH   2   3
ATOM      3  C   UNL     1     -25.336  62.616  30.927  1.00  0.00     0.000 C 
BRANCH   3   4
ATOM      4  C   UNL     1     -25.582  61.135  31.254  1.00  0.00     0.006 C 
BRANCH   4   5
ATOM      5  C   UNL     1     -25.581  60.855  32.763  1.00  0.00     0.053 C 
BRANCH   5   6
ATOM      6  C   UNL     1     -26.982  60.715  33.267  1.00  0.00     0.041 C 
ATOM      7  O   UNL     1     -27.956  60.906  32.493  1.00  0.00    -0.550 OA
ATOM      8  O   UNL     1     -27.213  60.325  34.580  1.00  0.00    -0.550 OA
ENDBRANCH   5   6
ENDBRANCH   4   5
ENDBRANCH   3   4
ENDBRANCH   2   3
ENDBRANCH   1   2
BRANCH   1   9
ATOM      9  C   UNL     1     -23.013  61.630  27.977  1.00  0.00     0.000 C 
BRANCH   9  10
ATOM     10  C   UNL     1     -21.754  60.802  28.277  1.00  0.00    -0.000 C 
BRANCH  10  11
ATOM     11  C   UNL     1     -20.558  61.675  28.695  1.00  0.00    -0.000 C 
BRANCH  11  12
ATOM     12  C   UNL     1     -20.205  61.519  30.184  1.00  0.00    -0.000 C 
BRANCH  12  13
ATOM     13  C   UNL     1     -21.090  62.383  31.093  1.00  0.00    -0.003 C 
ATOM     14  C   UNL     1     -21.853  61.523  32.095  1.00  0.00     0.004 C 
ENDBRANCH  12  13
ENDBRANCH  11  12
ENDBRANCH  10  11
ENDBRANCH   9  10
ENDBRANCH   1   9
TORSDOF 10
ENDMDL
MODEL 3
REMARK VINA RESULT:    -4.343      1.176      1.576
REMARK INTER + INTRA:          -8.205
REMARK INTER:                  -6.588
REMARK INTRA:                  -1.617
REMARK UNBOUND:                -1.323
REMARK SMILES CCCCCCCCCCCC(=O)[O-]
REMARK SMILES IDX 7 1 8 2 9 3 10 4 11 5 12 6 13 7 14 8 6 9 5 10 4 11 3 12 2 13
REMARK SMILES IDX 1 14
REMARK H PARENT
REMARK Flexibility Score: inf
ROOT
ATOM      1  C   UNL     1     -24.363  58.695  30.473  1.00  0.00     0.000 C 
ENDROOT
BRANCH   1   2
ATOM      2  C   UNL     1     -25.247  59.001  31.689  1.00  0.00     0.000 C 
BRANCH   2   3
ATOM      3  C   UNL     1     -26.275  60.094  31.360  1.00  0.00     0.000 C 
BRANCH   3   4
ATOM      4  C   UNL     1     -26.304  61.215  32.410  1.00  0.00     0.006 C 
BRANCH   4   5
ATOM      5  C   UNL     1     -25.963  60.714  33.819  1.00  0.00     0.053 C 
BRANCH   5   6
ATOM      6  C   UNL     1     -27.097  60.983  34.757  1.00  0.00     0.041 C 
ATOM      7  O   UNL     1     -28.125  60.256  34.732  1.00  0.00    -0.550 OA
ATOM      8  O   UNL     1     -27.000  62.005  35.692  1.00  0.00    -0.550 OA
ENDBRANCH   5   6
ENDBRANCH   4   5
ENDBRANCH   3   4
ENDBRANCH   2   3
ENDBRANCH   1   2
BRANCH   1   9
ATOM      9  C   UNL     1     -24.777  59.545  29.263  1.00  0.00     0.000 C 
BRANCH   9  10
ATOM     10  C   UNL     1     -23.682  60.533  28.832  1.00  0.00    -0.000 C 
BRANCH  10  11
ATOM     11  C   UNL     1     -24.100  62.001  29.030  1.00  0.00    -0.000 C 
BRANCH  11  12
ATOM     12  C   UNL     1     -23.625  62.573  30.376  1.00  0.00    -0.000 C 
BRANCH  12  13
ATOM     13  C   UNL     1     -22.349  61.891  30.889  1.00  0.00    -0.003 C 
ATOM     14  C   UNL     1     -22.507  61.452  32.341  1.00  0.00     0.004 C 
ENDBRANCH  12  13
ENDBRANCH  11  12
ENDBRANCH  10  11
ENDBRANCH   9  10
ENDBRANCH   1   9
TORSDOF 10
ENDMDL
MODEL 4
REMARK VINA RESULT:    -4.274     18.418     20.499
REMARK INTER + INTRA:          -8.095
REMARK INTER:                  -6.994
REMARK INTRA:                  -1.101
REMARK UNBOUND:                -1.323
REMARK SMILES CCCCCCCCCCCC(=O)[O-]
REMARK SMILES IDX 7 1 8 2 9 3 10 4 11 5 12 6 13 7 14 8 6 9 5 10 4 11 3 12 2 13
REMARK SMILES IDX 1 14
REMARK H PARENT
REMARK Flexibility Score: inf
ROOT
ATOM      1  C   UNL     1     -14.790  43.895  23.579  1.00  0.00     0.000 C 
ENDROOT
BRANCH   1   2
ATOM      2  C   UNL     1     -14.311  45.331  23.336  1.00  0.00     0.000 C 
BRANCH   2   3
ATOM      3  C   UNL     1     -13.105  45.667  24.227  1.00  0.00     0.000 C 
BRANCH   3   4
ATOM      4  C   UNL     1     -13.519  46.229  25.596  1.00  0.00     0.006 C 
BRANCH   4   5
ATOM      5  C   UNL     1     -14.774  47.108  25.520  1.00  0.00     0.053 C 
BRANCH   5   6
ATOM      6  C   UNL     1     -14.395  48.554  25.460  1.00  0.00     0.041 C 
ATOM      7  O   UNL     1     -13.910  49.038  24.403  1.00  0.00    -0.550 OA
ATOM      8  O   UNL     1     -14.621  49.378  26.554  1.00  0.00    -0.550 OA
ENDBRANCH   5   6
ENDBRANCH   4   5
ENDBRANCH   3   4
ENDBRANCH   2   3
ENDBRANCH   1   2
BRANCH   1   9
ATOM      9  C   UNL     1     -14.610  43.034  22.319  1.00  0.00     0.000 C 
BRANCH   9  10
ATOM     10  C   UNL     1     -14.758  43.845  21.023  1.00  0.00    -0.000 C 
BRANCH  10  11
ATOM     11  C   UNL     1     -13.441  43.946  20.234  1.00  0.00    -0.000 C 
BRANCH  11  12
ATOM     12  C   UNL     1     -12.372  42.966  20.744  1.00  0.00    -0.000 C 
BRANCH  12  13
ATOM     13  C   UNL     1     -11.110  43.681  21.247  1.00  0.00    -0.003 C 
ATOM     14  C   UNL     1     -11.208  45.188  21.028  1.00  0.00     0.004 C 
ENDBRANCH  12  13
ENDBRANCH  11  12
ENDBRANCH  10  11
ENDBRANCH   9  10
ENDBRANCH   1   9
TORSDOF 10
ENDMDL
MODEL 5
REMARK VINA RESULT:    -4.269      1.500      3.033
REMARK INTER + INTRA:          -8.088
REMARK INTER:                  -6.806
REMARK INTRA:                  -1.282
REMARK UNBOUND:                -1.323
REMARK SMILES CCCCCCCCCCCC(=O)[O-]
REMARK SMILES IDX 7 1 8 2 9 3 10 4 11 5 12 6 13 7 14 8 6 9 5 10 4 11 3 12 2 13
REMARK SMILES IDX 1 14
REMARK H PARENT
REMARK Flexibility Score: inf
ROOT
ATOM      1  C   UNL     1     -25.201  61.949  30.014  1.00  0.00     0.000 C 
ENDROOT
BRANCH   1   2
ATOM      2  C   UNL     1     -24.961  60.868  28.952  1.00  0.00     0.000 C 
BRANCH   2   3
ATOM      3  C   UNL     1     -24.807  59.485  29.600  1.00  0.00     0.000 C 
BRANCH   3   4
ATOM      4  C   UNL     1     -25.896  59.196  30.645  1.00  0.00     0.006 C 
BRANCH   4   5
ATOM      5  C   UNL     1     -25.321  58.952  32.046  1.00  0.00     0.053 C 
BRANCH   5   6
ATOM      6  C   UNL     1     -25.990  59.840  33.047  1.00  0.00     0.041 C 
ATOM      7  O   UNL     1     -25.446  60.061  34.161  1.00  0.00    -0.550 OA
ATOM      8  O   UNL     1     -27.190  60.464  32.732  1.00  0.00    -0.550 OA
ENDBRANCH   5   6
ENDBRANCH   4   5
ENDBRANCH   3   4
ENDBRANCH   2   3
ENDBRANCH   1   2
BRANCH   1   9
ATOM      9  C   UNL     1     -23.900  62.697  30.342  1.00  0.00     0.000 C 
BRANCH   9  10
ATOM     10  C   UNL     1     -23.012  61.931  31.334  1.00  0.00    -0.000 C 
BRANCH  10  11
ATOM     11  C   UNL     1     -21.526  61.948  30.933  1.00  0.00    -0.000 C 
BRANCH  11  12
ATOM     12  C   UNL     1     -21.210  60.960  29.798  1.00  0.00    -0.000 C 
BRANCH  12  13
ATOM     13  C   UNL     1     -20.653  61.656  28.549  1.00  0.00    -0.003 C 
ATOM     14  C   UNL     1     -21.705  61.733  27.447  1.00  0.00     0.004 C 
ENDBRANCH  12  13
ENDBRANCH  11  12
ENDBRANCH  10  11
ENDBRANCH   9  10
ENDBRANCH   1   9
TORSDOF 10
ENDMDL
MODEL 6
REMARK VINA RESULT:    -4.221      1.719      3.086
REMARK INTER + INTRA:          -8.012
REMARK INTER:                  -7.087
REMARK INTRA:                  -0.925
REMARK UNBOUND:                -1.323
REMARK SMILES CCCCCCCCCCCC(=O)[O-]
REMARK SMILES IDX 7 1 8 2 9 3 10 4 11 5 12 6 13 7 14 8 6 9 5 10 4 11 3 12 2 13
REMARK SMILES IDX 1 14
REMARK H PARENT
REMARK Flexibility Score: inf
ROOT
ATOM      1  C   UNL     1     -23.939  62.805  30.359  1.00  0.00     0.000 C 
ENDROOT
BRANCH   1   2
ATOM      2  C   UNL     1     -25.421  62.614  30.708  1.00  0.00     0.000 C 
BRANCH   2   3
ATOM      3  C   UNL     1     -25.770  61.123  30.828  1.00  0.00     0.000 C 
BRANCH   3   4
ATOM      4  C   UNL     1     -26.910  60.860  31.824  1.00  0.00     0.006 C 
BRANCH   4   5
ATOM      5  C   UNL     1     -27.140  62.035  32.783  1.00  0.00     0.053 C 
BRANCH   5   6
ATOM      6  C   UNL     1     -27.299  61.539  34.185  1.00  0.00     0.041 C 
ATOM      7  O   UNL     1     -27.014  60.347  34.472  1.00  0.00    -0.550 OA
ATOM      8  O   UNL     1     -27.716  62.406  35.187  1.00  0.00    -0.550 OA
ENDBRANCH   5   6
ENDBRANCH   4   5
ENDBRANCH   3   4
ENDBRANCH   2   3
ENDBRANCH   1   2
BRANCH   1   9
ATOM      9  C   UNL     1     -23.053  61.862  31.185  1.00  0.00     0.000 C 
BRANCH   9  10
ATOM     10  C   UNL     1     -21.563  61.987  30.828  1.00  0.00    -0.000 C 
BRANCH  10  11
ATOM     11  C   UNL     1     -21.124  60.971  29.759  1.00  0.00    -0.000 C 
BRANCH  11  12
ATOM     12  C   UNL     1     -20.740  61.641  28.430  1.00  0.00    -0.000 C 
BRANCH  12  13
ATOM     13  C   UNL     1     -21.867  61.577  27.390  1.00  0.00    -0.003 C 
ATOM     14  C   UNL     1     -22.852  60.458  27.717  1.00  0.00     0.004 C 
ENDBRANCH  12  13
ENDBRANCH  11  12
ENDBRANCH  10  11
ENDBRANCH   9  10
ENDBRANCH   1   9
TORSDOF 10
ENDMDL
MODEL 7
REMARK VINA RESULT:    -4.214      1.184      3.101
REMARK INTER + INTRA:          -8.000
REMARK INTER:                  -6.949
REMARK INTRA:                  -1.051
REMARK UNBOUND:                -1.323
REMARK SMILES CCCCCCCCCCCC(=O)[O-]
REMARK SMILES IDX 7 1 8 2 9 3 10 4 11 5 12 6 13 7 14 8 6 9 5 10 4 11 3 12 2 13
REMARK SMILES IDX 1 14
REMARK H PARENT
REMARK Flexibility Score: inf
ROOT
ATOM      1  C   UNL     1     -23.375  62.389  30.734  1.00  0.00     0.000 C 
ENDROOT
BRANCH   1   2
ATOM      2  C   UNL     1     -24.658  62.954  30.111  1.00  0.00     0.000 C 
BRANCH   2   3
ATOM      3  C   UNL     1     -25.798  62.994  31.140  1.00  0.00     0.000 C 
BRANCH   3   4
ATOM      4  C   UNL     1     -25.888  61.706  31.973  1.00  0.00     0.006 C 
BRANCH   4   5
ATOM      5  C   UNL     1     -27.332  61.339  32.340  1.00  0.00     0.053 C 
BRANCH   5   6
ATOM      6  C   UNL     1     -27.575  61.572  33.797  1.00  0.00     0.041 C 
ATOM      7  O   UNL     1     -27.454  60.625  34.619  1.00  0.00    -0.550 OA
ATOM      8  O   UNL     1     -27.888  62.845  34.256  1.00  0.00    -0.550 OA
ENDBRANCH   5   6
ENDBRANCH   4   5
ENDBRANCH   3   4
ENDBRANCH   2   3
ENDBRANCH   1   2
BRANCH   1   9
ATOM      9  C   UNL     1     -22.506  61.698  29.673  1.00  0.00     0.000 C 
BRANCH   9  10
ATOM     10  C   UNL     1     -23.264  61.449  28.359  1.00  0.00    -0.000 C 
BRANCH  10  11
ATOM     11  C   UNL     1     -22.872  60.118  27.694  1.00  0.00    -0.000 C 
BRANCH  11  12
ATOM     12  C   UNL     1     -23.711  58.935  28.203  1.00  0.00    -0.000 C 
BRANCH  12  13
ATOM     13  C   UNL     1     -24.926  59.385  29.027  1.00  0.00    -0.003 C 
ATOM     14  C   UNL     1     -24.900  58.770  30.423  1.00  0.00     0.004 C 
ENDBRANCH  12  13
ENDBRANCH  11  12
ENDBRANCH  10  11
ENDBRANCH   9  10
ENDBRANCH   1   9
TORSDOF 10
ENDMDL
MODEL 8
REMARK VINA RESULT:    -4.189      3.616      5.040
REMARK INTER + INTRA:          -7.961
REMARK INTER:                  -6.618
REMARK INTRA:                  -1.342
REMARK UNBOUND:                -1.323
REMARK SMILES CCCCCCCCCCCC(=O)[O-]
REMARK SMILES IDX 7 1 8 2 9 3 10 4 11 5 12 6 13 7 14 8 6 9 5 10 4 11 3 12 2 13
REMARK SMILES IDX 1 14
REMARK H PARENT
REMARK Flexibility Score: inf
ROOT
ATOM      1  C   UNL     1     -26.195  60.116  31.792  1.00  0.00     0.000 C 
ENDROOT
BRANCH   1   2
ATOM      2  C   UNL     1     -25.787  59.345  30.530  1.00  0.00     0.000 C 
BRANCH   2   3
ATOM      3  C   UNL     1     -24.539  58.488  30.788  1.00  0.00     0.000 C 
BRANCH   3   4
ATOM      4  C   UNL     1     -23.537  58.535  29.624  1.00  0.00     0.006 C 
BRANCH   4   5
ATOM      5  C   UNL     1     -24.035  59.389  28.450  1.00  0.00     0.053 C 
BRANCH   5   6
ATOM      6  C   UNL     1     -22.900  59.734  27.538  1.00  0.00     0.041 C 
ATOM      7  O   UNL     1     -22.316  60.844  27.646  1.00  0.00    -0.550 OA
ATOM      8  O   UNL     1     -22.455  58.811  26.601  1.00  0.00    -0.550 OA
ENDBRANCH   5   6
ENDBRANCH   4   5
ENDBRANCH   3   4
ENDBRANCH   2   3
ENDBRANCH   1   2
BRANCH   1   9
ATOM      9  C   UNL     1     -25.213  61.261  32.080  1.00  0.00     0.000 C 
BRANCH   9  10
ATOM     10  C   UNL     1     -25.132  62.274  30.927  1.00  0.00    -0.000 C 
BRANCH  10  11
ATOM     11  C   UNL     1     -23.682  62.616  30.541  1.00  0.00    -0.000 C 
BRANCH  11  12
ATOM     12  C   UNL     1     -22.656  61.712  31.243  1.00  0.00    -0.000 C 
BRANCH  12  13
ATOM     13  C   UNL     1     -21.377  62.466  31.635  1.00  0.00    -0.003 C 
ATOM     14  C   UNL     1     -20.976  62.156  33.074  1.00  0.00     0.004 C 
ENDBRANCH  12  13
ENDBRANCH  11  12
ENDBRANCH  10  11
ENDBRANCH   9  10
ENDBRANCH   1   9
TORSDOF 10
ENDMDL
MODEL 9
REMARK VINA RESULT:    -4.165      1.410      2.972
REMARK INTER + INTRA:          -7.923
REMARK INTER:                  -6.351
REMARK INTRA:                  -1.572
REMARK UNBOUND:                -1.323
REMARK SMILES CCCCCCCCCCCC(=O)[O-]
REMARK SMILES IDX 7 1 8 2 9 3 10 4 11 5 12 6 13 7 14 8 6 9 5 10 4 11 3 12 2 13
REMARK SMILES IDX 1 14
REMARK H PARENT
REMARK Flexibility Score: inf
ROOT
ATOM      1  C   UNL     1     -22.271  61.452  32.156  1.00  0.00     0.000 C 
ENDROOT
BRANCH   1   2
ATOM      2  C   UNL     1     -23.545  60.887  32.796  1.00  0.00     0.000 C 
BRANCH   2   3
ATOM      3  C   UNL     1     -23.806  59.449  32.325  1.00  0.00     0.000 C 
BRANCH   3   4
ATOM      4  C   UNL     1     -25.250  58.993  32.587  1.00  0.00     0.006 C 
BRANCH   4   5
ATOM      5  C   UNL     1     -26.287  59.889  31.899  1.00  0.00     0.053 C 
BRANCH   5   6
ATOM      6  C   UNL     1     -27.191  60.516  32.913  1.00  0.00     0.041 C 
ATOM      7  O   UNL     1     -28.117  61.286  32.546  1.00  0.00    -0.550 OA
ATOM      8  O   UNL     1     -27.042  60.211  34.259  1.00  0.00    -0.550 OA
ENDBRANCH   5   6
ENDBRANCH   4   5
ENDBRANCH   3   4
ENDBRANCH   2   3
ENDBRANCH   1   2
BRANCH   1   9
ATOM      9  C   UNL     1     -22.567  62.044  30.770  1.00  0.00     0.000 C 
BRANCH   9  10
ATOM     10  C   UNL     1     -23.944  62.722  30.699  1.00  0.00    -0.000 C 
BRANCH  10  11
ATOM     11  C   UNL     1     -24.743  62.307  29.451  1.00  0.00    -0.000 C 
BRANCH  11  12
ATOM     12  C   UNL     1     -24.005  61.263  28.598  1.00  0.00    -0.000 C 
BRANCH  12  13
ATOM     13  C   UNL     1     -24.718  59.904  28.583  1.00  0.00    -0.003 C 
ATOM     14  C   UNL     1     -23.721  58.758  28.729  1.00  0.00     0.004 C 
ENDBRANCH  12  13
ENDBRANCH  11  12
ENDBRANCH  10  11
ENDBRANCH   9  10
ENDBRANCH   1   9
TORSDOF 10
ENDMDL
