MODEL 1
REMARK VINA RESULT:    -6.202      0.000      0.000
REMARK INTER + INTRA:         -20.080
REMARK INTER:                 -16.354
REMARK INTRA:                  -3.725
REMARK UNBOUND:                -3.725
REMARK SMILES CCCCCCCCCCCCCCCCCCCCCCCCCCCCCC(=O)[O-]
REMARK SMILES IDX 16 1 17 2 18 3 19 4 20 5 21 6 22 7 23 8 24 9 25 10 26 11
REMARK SMILES IDX 27 12 28 13 29 14 30 15 31 16 32 17 15 18 14 19 13 20 12 21
REMARK SMILES IDX 11 22 10 23 9 24 8 25 7 26 6 27 5 28 4 29 3 30 2 31 1 32
REMARK H PARENT
REMARK Flexibility Score: inf
ROOT
ATOM      1  C   UNL     1       5.730  16.016   4.383  1.00  0.00     0.000 C 
ENDROOT
BRANCH   1   2
ATOM      2  C   UNL     1       7.147  16.112   3.790  1.00  0.00     0.000 C 
BRANCH   2   3
ATOM      3  C   UNL     1       7.779  14.770   3.366  1.00  0.00     0.000 C 
BRANCH   3   4
ATOM      4  C   UNL     1       8.892  14.874   2.307  1.00  0.00     0.000 C 
BRANCH   4   5
ATOM      5  C   UNL     1       9.287  13.511   1.717  1.00  0.00     0.000 C 
BRANCH   5   6
ATOM      6  C   UNL     1       9.219  13.539   0.186  1.00  0.00     0.000 C 
BRANCH   6   7
ATOM      7  C   UNL     1       9.754  14.871  -0.367  1.00  0.00     0.000 C 
BRANCH   7   8
ATOM      8  C   UNL     1      11.250  14.808  -0.730  1.00  0.00     0.000 C 
BRANCH   8   9
ATOM      9  C   UNL     1      12.123  15.795   0.065  1.00  0.00     0.000 C 
BRANCH   9  10
ATOM     10  C   UNL     1      11.331  17.020   0.570  1.00  0.00     0.000 C 
BRANCH  10  11
ATOM     11  C   UNL     1      11.866  17.551   1.911  1.00  0.00     0.000 C 
BRANCH  11  12
ATOM     12  C   UNL     1      10.762  18.112   2.828  1.00  0.00     0.000 C 
BRANCH  12  13
ATOM     13  C   UNL     1      11.283  19.216   3.764  1.00  0.00     0.006 C 
BRANCH  13  14
ATOM     14  C   UNL     1      12.811  19.355   3.708  1.00  0.00     0.053 C 
BRANCH  14  15
ATOM     15  C   UNL     1      13.421  19.576   5.061  1.00  0.00     0.041 C 
ATOM     16  O   UNL     1      14.509  19.014   5.358  1.00  0.00    -0.550 OA
ATOM     17  O   UNL     1      12.836  20.458   5.962  1.00  0.00    -0.550 OA
ENDBRANCH  14  15
ENDBRANCH  13  14
ENDBRANCH  12  13
ENDBRANCH  11  12
ENDBRANCH  10  11
ENDBRANCH   9  10
ENDBRANCH   8   9
ENDBRANCH   7   8
ENDBRANCH   6   7
ENDBRANCH   5   6
ENDBRANCH   4   5
ENDBRANCH   3   4
ENDBRANCH   2   3
ENDBRANCH   1   2
BRANCH   1  18
ATOM     18  C   UNL     1       4.627  16.319   3.355  1.00  0.00     0.000 C 
BRANCH  18  19
ATOM     19  C   UNL     1       5.186  16.890   2.041  1.00  0.00     0.000 C 
BRANCH  19  20
ATOM     20  C   UNL     1       4.701  16.180   0.762  1.00  0.00     0.000 C 
BRANCH  20  21
ATOM     21  C   UNL     1       5.702  15.180   0.147  1.00  0.00     0.000 C 
BRANCH  21  22
ATOM     22  C   UNL     1       5.297  13.698   0.252  1.00  0.00     0.000 C 
BRANCH  22  23
ATOM     23  C   UNL     1       5.165  13.215   1.706  1.00  0.00     0.000 C 
BRANCH  23  24
ATOM     24  C   UNL     1       3.709  12.915   2.105  1.00  0.00    -0.000 C 
BRANCH  24  25
ATOM     25  C   UNL     1       2.642  13.698   1.319  1.00  0.00    -0.000 C 
BRANCH  25  26
ATOM     26  C   UNL     1       1.573  14.330   2.228  1.00  0.00    -0.000 C 
BRANCH  26  27
ATOM     27  C   UNL     1       0.214  13.622   2.125  1.00  0.00    -0.000 C 
BRANCH  27  28
ATOM     28  C   UNL     1      -0.878  14.315   2.960  1.00  0.00    -0.000 C 
BRANCH  28  29
ATOM     29  C   UNL     1      -0.862  13.878   4.432  1.00  0.00    -0.000 C 
BRANCH  29  30
ATOM     30  C   UNL     1      -1.694  14.801   5.335  1.00  0.00    -0.000 C 
BRANCH  30  31
ATOM     31  C   UNL     1      -1.027  14.975   6.704  1.00  0.00    -0.003 C 
ATOM     32  C   UNL     1       0.111  13.978   6.896  1.00  0.00     0.004 C 
ENDBRANCH  30  31
ENDBRANCH  29  30
ENDBRANCH  28  29
ENDBRANCH  27  28
ENDBRANCH  26  27
ENDBRANCH  25  26
ENDBRANCH  24  25
ENDBRANCH  23  24
ENDBRANCH  22  23
ENDBRANCH  21  22
ENDBRANCH  20  21
ENDBRANCH  19  20
ENDBRANCH  18  19
ENDBRANCH   1  18
TORSDOF 28
ENDMDL
MODEL 2
REMARK VINA RESULT:    -6.145      1.710      3.646
REMARK INTER + INTRA:         -19.929
REMARK INTER:                 -17.166
REMARK INTRA:                  -2.764
REMARK UNBOUND:                -3.725
REMARK SMILES CCCCCCCCCCCCCCCCCCCCCCCCCCCCCC(=O)[O-]
REMARK SMILES IDX 16 1 17 2 18 3 19 4 20 5 21 6 22 7 23 8 24 9 25 10 26 11
REMARK SMILES IDX 27 12 28 13 29 14 30 15 31 16 32 17 15 18 14 19 13 20 12 21
REMARK SMILES IDX 11 22 10 23 9 24 8 25 7 26 6 27 5 28 4 29 3 30 2 31 1 32
REMARK H PARENT
REMARK Flexibility Score: inf
ROOT
ATOM      1  C   UNL     1       7.728  14.208   0.611  1.00  0.00     0.000 C 
ENDROOT
BRANCH   1   2
ATOM      2  C   UNL     1       8.866  13.421  -0.065  1.00  0.00     0.000 C 
BRANCH   2   3
ATOM      3  C   UNL     1      10.092  14.259  -0.484  1.00  0.00     0.000 C 
BRANCH   3   4
ATOM      4  C   UNL     1      11.385  13.967   0.298  1.00  0.00     0.000 C 
BRANCH   4   5
ATOM      5  C   UNL     1      11.867  15.167   1.128  1.00  0.00     0.000 C 
BRANCH   5   6
ATOM      6  C   UNL     1      11.144  16.450   0.702  1.00  0.00     0.000 C 
BRANCH   6   7
ATOM      7  C   UNL     1      11.707  17.674   1.443  1.00  0.00     0.000 C 
BRANCH   7   8
ATOM      8  C   UNL     1      10.830  18.105   2.635  1.00  0.00     0.000 C 
BRANCH   8   9
ATOM      9  C   UNL     1      11.524  19.090   3.592  1.00  0.00     0.000 C 
BRANCH   9  10
ATOM     10  C   UNL     1      13.052  19.156   3.376  1.00  0.00     0.000 C 
BRANCH  10  11
ATOM     11  C   UNL     1      13.792  19.716   4.603  1.00  0.00     0.000 C 
BRANCH  11  12
ATOM     12  C   UNL     1      12.877  19.921   5.825  1.00  0.00     0.000 C 
BRANCH  12  13
ATOM     13  C   UNL     1      13.635  20.497   7.034  1.00  0.00     0.006 C 
BRANCH  13  14
ATOM     14  C   UNL     1      12.845  21.606   7.743  1.00  0.00     0.053 C 
BRANCH  14  15
ATOM     15  C   UNL     1      12.504  21.256   9.161  1.00  0.00     0.041 C 
ATOM     16  O   UNL     1      11.454  21.714   9.686  1.00  0.00    -0.550 OA
ATOM     17  O   UNL     1      13.295  20.366   9.877  1.00  0.00    -0.550 OA
ENDBRANCH  14  15
ENDBRANCH  13  14
ENDBRANCH  12  13
ENDBRANCH  11  12
ENDBRANCH  10  11
ENDBRANCH   9  10
ENDBRANCH   8   9
ENDBRANCH   7   8
ENDBRANCH   6   7
ENDBRANCH   5   6
ENDBRANCH   4   5
ENDBRANCH   3   4
ENDBRANCH   2   3
ENDBRANCH   1   2
BRANCH   1  18
ATOM     18  C   UNL     1       7.564  13.864   2.101  1.00  0.00     0.000 C 
BRANCH  18  19
ATOM     19  C   UNL     1       8.494  14.693   3.004  1.00  0.00     0.000 C 
BRANCH  19  20
ATOM     20  C   UNL     1       7.850  15.944   3.632  1.00  0.00     0.000 C 
BRANCH  20  21
ATOM     21  C   UNL     1       6.370  15.786   4.037  1.00  0.00     0.000 C 
BRANCH  21  22
ATOM     22  C   UNL     1       5.350  16.332   3.021  1.00  0.00     0.000 C 
BRANCH  22  23
ATOM     23  C   UNL     1       3.957  15.696   3.169  1.00  0.00     0.000 C 
BRANCH  23  24
ATOM     24  C   UNL     1       4.001  14.158   3.179  1.00  0.00    -0.000 C 
BRANCH  24  25
ATOM     25  C   UNL     1       3.383  13.480   1.943  1.00  0.00    -0.000 C 
BRANCH  25  26
ATOM     26  C   UNL     1       2.162  14.239   1.391  1.00  0.00    -0.000 C 
BRANCH  26  27
ATOM     27  C   UNL     1       0.834  13.540   1.719  1.00  0.00    -0.000 C 
BRANCH  27  28
ATOM     28  C   UNL     1      -0.117  14.434   2.535  1.00  0.00    -0.000 C 
BRANCH  28  29
ATOM     29  C   UNL     1       0.369  14.652   3.976  1.00  0.00    -0.000 C 
BRANCH  29  30
ATOM     30  C   UNL     1      -0.650  14.178   5.024  1.00  0.00    -0.000 C 
BRANCH  30  31
ATOM     31  C   UNL     1      -0.134  14.434   6.445  1.00  0.00    -0.003 C 
ATOM     32  C   UNL     1      -1.154  15.210   7.272  1.00  0.00     0.004 C 
ENDBRANCH  30  31
ENDBRANCH  29  30
ENDBRANCH  28  29
ENDBRANCH  27  28
ENDBRANCH  26  27
ENDBRANCH  25  26
ENDBRANCH  24  25
ENDBRANCH  23  24
ENDBRANCH  22  23
ENDBRANCH  21  22
ENDBRANCH  20  21
ENDBRANCH  19  20
ENDBRANCH  18  19
ENDBRANCH   1  18
TORSDOF 28
ENDMDL
MODEL 3
REMARK VINA RESULT:    -6.110      3.777     10.189
REMARK INTER + INTRA:         -19.838
REMARK INTER:                 -16.526
REMARK INTRA:                  -3.311
REMARK UNBOUND:                -3.725
REMARK SMILES CCCCCCCCCCCCCCCCCCCCCCCCCCCCCC(=O)[O-]
REMARK SMILES IDX 16 1 17 2 18 3 19 4 20 5 21 6 22 7 23 8 24 9 25 10 26 11
REMARK SMILES IDX 27 12 28 13 29 14 30 15 31 16 32 17 15 18 14 19 13 20 12 21
REMARK SMILES IDX 11 22 10 23 9 24 8 25 7 26 6 27 5 28 4 29 3 30 2 31 1 32
REMARK H PARENT
REMARK Flexibility Score: inf
ROOT
ATOM      1  C   UNL     1       6.083  15.300   3.678  1.00  0.00     0.000 C 
ENDROOT
BRANCH   1   2
ATOM      2  C   UNL     1       4.853  16.130   3.265  1.00  0.00     0.000 C 
BRANCH   2   3
ATOM      3  C   UNL     1       5.010  16.940   1.961  1.00  0.00     0.000 C 
BRANCH   3   4
ATOM      4  C   UNL     1       4.744  16.156   0.664  1.00  0.00     0.000 C 
BRANCH   4   5
ATOM      5  C   UNL     1       5.812  15.090   0.378  1.00  0.00     0.000 C 
BRANCH   5   6
ATOM      6  C   UNL     1       5.163  13.725   0.117  1.00  0.00     0.000 C 
BRANCH   6   7
ATOM      7  C   UNL     1       5.144  12.869   1.393  1.00  0.00     0.000 C 
BRANCH   7   8
ATOM      8  C   UNL     1       3.821  12.992   2.175  1.00  0.00     0.000 C 
BRANCH   8   9
ATOM      9  C   UNL     1       2.670  13.599   1.353  1.00  0.00     0.000 C 
BRANCH   9  10
ATOM     10  C   UNL     1       1.647  14.356   2.226  1.00  0.00     0.000 C 
BRANCH  10  11
ATOM     11  C   UNL     1       0.194  13.998   1.869  1.00  0.00     0.000 C 
BRANCH  11  12
ATOM     12  C   UNL     1      -0.683  13.714   3.104  1.00  0.00     0.000 C 
BRANCH  12  13
ATOM     13  C   UNL     1      -0.192  14.462   4.355  1.00  0.00     0.006 C 
BRANCH  13  14
ATOM     14  C   UNL     1      -1.248  14.491   5.470  1.00  0.00     0.053 C 
BRANCH  14  15
ATOM     15  C   UNL     1      -0.649  14.718   6.826  1.00  0.00     0.041 C 
ATOM     16  O   UNL     1       0.143  13.868   7.313  1.00  0.00    -0.550 OA
ATOM     17  O   UNL     1      -0.899  15.897   7.519  1.00  0.00    -0.550 OA
ENDBRANCH  14  15
ENDBRANCH  13  14
ENDBRANCH  12  13
ENDBRANCH  11  12
ENDBRANCH  10  11
ENDBRANCH   9  10
ENDBRANCH   8   9
ENDBRANCH   7   8
ENDBRANCH   6   7
ENDBRANCH   5   6
ENDBRANCH   4   5
ENDBRANCH   3   4
ENDBRANCH   2   3
ENDBRANCH   1   2
BRANCH   1  18
ATOM     18  C   UNL     1       7.310  16.167   4.006  1.00  0.00     0.000 C 
BRANCH  18  19
ATOM     19  C   UNL     1       8.616  15.578   3.446  1.00  0.00     0.000 C 
BRANCH  19  20
ATOM     20  C   UNL     1       8.475  14.195   2.781  1.00  0.00     0.000 C 
BRANCH  20  21
ATOM     21  C   UNL     1       9.608  13.818   1.804  1.00  0.00     0.000 C 
BRANCH  21  22
ATOM     22  C   UNL     1       9.321  14.115   0.321  1.00  0.00     0.000 C 
BRANCH  22  23
ATOM     23  C   UNL     1      10.460  14.887  -0.366  1.00  0.00     0.000 C 
BRANCH  23  24
ATOM     24  C   UNL     1      11.433  15.533   0.636  1.00  0.00    -0.000 C 
BRANCH  24  25
ATOM     25  C   UNL     1      11.359  17.069   0.721  1.00  0.00    -0.000 C 
BRANCH  25  26
ATOM     26  C   UNL     1      11.910  17.622   2.048  1.00  0.00    -0.000 C 
BRANCH  26  27
ATOM     27  C   UNL     1      11.071  18.784   2.599  1.00  0.00    -0.000 C 
BRANCH  27  28
ATOM     28  C   UNL     1      10.620  18.550   4.052  1.00  0.00    -0.000 C 
BRANCH  28  29
ATOM     29  C   UNL     1      11.715  18.897   5.073  1.00  0.00    -0.000 C 
BRANCH  29  30
ATOM     30  C   UNL     1      12.613  20.053   4.609  1.00  0.00    -0.000 C 
BRANCH  30  31
ATOM     31  C   UNL     1      14.040  19.562   4.335  1.00  0.00    -0.003 C 
ATOM     32  C   UNL     1      14.756  19.193   5.631  1.00  0.00     0.004 C 
ENDBRANCH  30  31
ENDBRANCH  29  30
ENDBRANCH  28  29
ENDBRANCH  27  28
ENDBRANCH  26  27
ENDBRANCH  25  26
ENDBRANCH  24  25
ENDBRANCH  23  24
ENDBRANCH  22  23
ENDBRANCH  21  22
ENDBRANCH  20  21
ENDBRANCH  19  20
ENDBRANCH  18  19
ENDBRANCH   1  18
TORSDOF 28
ENDMDL
MODEL 4
REMARK VINA RESULT:    -6.106      1.469      2.556
REMARK INTER + INTRA:         -19.826
REMARK INTER:                 -16.926
REMARK INTRA:                  -2.900
REMARK UNBOUND:                -3.725
REMARK SMILES CCCCCCCCCCCCCCCCCCCCCCCCCCCCCC(=O)[O-]
REMARK SMILES IDX 16 1 17 2 18 3 19 4 20 5 21 6 22 7 23 8 24 9 25 10 26 11
REMARK SMILES IDX 27 12 28 13 29 14 30 15 31 16 32 17 15 18 14 19 13 20 12 21
REMARK SMILES IDX 11 22 10 23 9 24 8 25 7 26 6 27 5 28 4 29 3 30 2 31 1 32
REMARK H PARENT
REMARK Flexibility Score: inf
ROOT
ATOM      1  C   UNL     1       7.420  15.907   3.694  1.00  0.00     0.000 C 
ENDROOT
BRANCH   1   2
ATOM      2  C   UNL     1       8.551  14.879   3.504  1.00  0.00     0.000 C 
BRANCH   2   3
ATOM      3  C   UNL     1       8.820  14.454   2.045  1.00  0.00     0.000 C 
BRANCH   3   4
ATOM      4  C   UNL     1      10.132  13.682   1.817  1.00  0.00     0.000 C 
BRANCH   4   5
ATOM      5  C   UNL     1      10.818  14.043   0.490  1.00  0.00     0.000 C 
BRANCH   5   6
ATOM      6  C   UNL     1      11.889  15.118   0.705  1.00  0.00     0.000 C 
BRANCH   6   7
ATOM      7  C   UNL     1      11.357  16.511   0.330  1.00  0.00     0.000 C 
BRANCH   7   8
ATOM      8  C   UNL     1      11.743  17.593   1.358  1.00  0.00     0.000 C 
BRANCH   8   9
ATOM      9  C   UNL     1      10.754  17.716   2.530  1.00  0.00     0.000 C 
BRANCH   9  10
ATOM     10  C   UNL     1      10.833  19.085   3.238  1.00  0.00     0.000 C 
BRANCH  10  11
ATOM     11  C   UNL     1      11.742  19.051   4.479  1.00  0.00     0.000 C 
BRANCH  11  12
ATOM     12  C   UNL     1      13.176  19.539   4.197  1.00  0.00     0.000 C 
BRANCH  12  13
ATOM     13  C   UNL     1      13.713  20.452   5.313  1.00  0.00     0.006 C 
BRANCH  13  14
ATOM     14  C   UNL     1      12.794  20.474   6.542  1.00  0.00     0.053 C 
BRANCH  14  15
ATOM     15  C   UNL     1      13.555  20.591   7.830  1.00  0.00     0.041 C 
ATOM     16  O   UNL     1      14.771  20.265   7.872  1.00  0.00    -0.550 OA
ATOM     17  O   UNL     1      12.950  21.130   8.959  1.00  0.00    -0.550 OA
ENDBRANCH  14  15
ENDBRANCH  13  14
ENDBRANCH  12  13
ENDBRANCH  11  12
ENDBRANCH  10  11
ENDBRANCH   9  10
ENDBRANCH   8   9
ENDBRANCH   7   8
ENDBRANCH   6   7
ENDBRANCH   5   6
ENDBRANCH   4   5
ENDBRANCH   3   4
ENDBRANCH   2   3
ENDBRANCH   1   2
BRANCH   1  18
ATOM     18  C   UNL     1       6.035  15.351   3.325  1.00  0.00     0.000 C 
BRANCH  18  19
ATOM     19  C   UNL     1       5.103  16.427   2.742  1.00  0.00     0.000 C 
BRANCH  19  20
ATOM     20  C   UNL     1       5.059  16.489   1.203  1.00  0.00     0.000 C 
BRANCH  20  21
ATOM     21  C   UNL     1       5.700  15.287   0.480  1.00  0.00     0.000 C 
BRANCH  21  22
ATOM     22  C   UNL     1       4.743  14.121   0.168  1.00  0.00     0.000 C 
BRANCH  22  23
ATOM     23  C   UNL     1       4.809  12.996   1.214  1.00  0.00     0.000 C 
BRANCH  23  24
ATOM     24  C   UNL     1       3.586  12.976   2.147  1.00  0.00    -0.000 C 
BRANCH  24  25
ATOM     25  C   UNL     1       2.424  13.891   1.721  1.00  0.00    -0.000 C 
BRANCH  25  26
ATOM     26  C   UNL     1       1.900  14.770   2.872  1.00  0.00    -0.000 C 
BRANCH  26  27
ATOM     27  C   UNL     1       0.407  14.547   3.154  1.00  0.00    -0.000 C 
BRANCH  27  28
ATOM     28  C   UNL     1      -0.312  13.831   1.997  1.00  0.00    -0.000 C 
BRANCH  28  29
ATOM     29  C   UNL     1      -1.841  13.862   2.143  1.00  0.00    -0.000 C 
BRANCH  29  30
ATOM     30  C   UNL     1      -2.294  14.197   3.572  1.00  0.00    -0.000 C 
BRANCH  30  31
ATOM     31  C   UNL     1      -3.545  15.084   3.558  1.00  0.00    -0.003 C 
ATOM     32  C   UNL     1      -4.602  14.531   2.607  1.00  0.00     0.004 C 
ENDBRANCH  30  31
ENDBRANCH  29  30
ENDBRANCH  28  29
ENDBRANCH  27  28
ENDBRANCH  26  27
ENDBRANCH  25  26
ENDBRANCH  24  25
ENDBRANCH  23  24
ENDBRANCH  22  23
ENDBRANCH  21  22
ENDBRANCH  20  21
ENDBRANCH  19  20
ENDBRANCH  18  19
ENDBRANCH   1  18
TORSDOF 28
ENDMDL
MODEL 5
REMARK VINA RESULT:    -6.007      1.152      4.302
REMARK INTER + INTRA:         -19.564
REMARK INTER:                 -16.353
REMARK INTRA:                  -3.212
REMARK UNBOUND:                -3.725
REMARK SMILES CCCCCCCCCCCCCCCCCCCCCCCCCCCCCC(=O)[O-]
REMARK SMILES IDX 16 1 17 2 18 3 19 4 20 5 21 6 22 7 23 8 24 9 25 10 26 11
REMARK SMILES IDX 27 12 28 13 29 14 30 15 31 16 32 17 15 18 14 19 13 20 12 21
REMARK SMILES IDX 11 22 10 23 9 24 8 25 7 26 6 27 5 28 4 29 3 30 2 31 1 32
REMARK H PARENT
REMARK Flexibility Score: inf
ROOT
ATOM      1  C   UNL     1       4.826  16.487   4.206  1.00  0.00     0.000 C 
ENDROOT
BRANCH   1   2
ATOM      2  C   UNL     1       5.906  15.420   3.945  1.00  0.00     0.000 C 
BRANCH   2   3
ATOM      3  C   UNL     1       7.322  15.966   3.666  1.00  0.00     0.000 C 
BRANCH   3   4
ATOM      4  C   UNL     1       8.361  14.912   3.244  1.00  0.00     0.000 C 
BRANCH   4   5
ATOM      5  C   UNL     1       8.461  14.746   1.719  1.00  0.00     0.000 C 
BRANCH   5   6
ATOM      6  C   UNL     1       9.348  13.549   1.359  1.00  0.00     0.000 C 
BRANCH   6   7
ATOM      7  C   UNL     1      10.469  13.962   0.391  1.00  0.00     0.000 C 
BRANCH   7   8
ATOM      8  C   UNL     1      10.607  15.492   0.258  1.00  0.00     0.000 C 
BRANCH   8   9
ATOM      9  C   UNL     1      11.894  16.054   0.888  1.00  0.00     0.000 C 
BRANCH   9  10
ATOM     10  C   UNL     1      11.742  17.520   1.349  1.00  0.00     0.000 C 
BRANCH  10  11
ATOM     11  C   UNL     1      10.717  17.673   2.485  1.00  0.00     0.000 C 
BRANCH  11  12
ATOM     12  C   UNL     1      10.862  18.997   3.261  1.00  0.00     0.000 C 
BRANCH  12  13
ATOM     13  C   UNL     1      10.930  18.779   4.783  1.00  0.00     0.006 C 
BRANCH  13  14
ATOM     14  C   UNL     1      12.319  19.092   5.355  1.00  0.00     0.053 C 
BRANCH  14  15
ATOM     15  C   UNL     1      13.208  19.786   4.365  1.00  0.00     0.041 C 
ATOM     16  O   UNL     1      13.301  21.043   4.380  1.00  0.00    -0.550 OA
ATOM     17  O   UNL     1      13.990  19.051   3.483  1.00  0.00    -0.550 OA
ENDBRANCH  14  15
ENDBRANCH  13  14
ENDBRANCH  12  13
ENDBRANCH  11  12
ENDBRANCH  10  11
ENDBRANCH   9  10
ENDBRANCH   8   9
ENDBRANCH   7   8
ENDBRANCH   6   7
ENDBRANCH   5   6
ENDBRANCH   4   5
ENDBRANCH   3   4
ENDBRANCH   2   3
ENDBRANCH   1   2
BRANCH   1  18
ATOM     18  C   UNL     1       4.008  16.214   5.479  1.00  0.00     0.000 C 
BRANCH  18  19
ATOM     19  C   UNL     1       3.149  14.942   5.367  1.00  0.00     0.000 C 
BRANCH  19  20
ATOM     20  C   UNL     1       1.627  15.181   5.359  1.00  0.00     0.000 C 
BRANCH  20  21
ATOM     21  C   UNL     1       0.805  14.206   6.227  1.00  0.00     0.000 C 
BRANCH  21  22
ATOM     22  C   UNL     1      -0.568  14.733   6.685  1.00  0.00     0.000 C 
BRANCH  22  23
ATOM     23  C   UNL     1      -1.575  14.865   5.530  1.00  0.00     0.000 C 
BRANCH  23  24
ATOM     24  C   UNL     1      -1.387  13.786   4.448  1.00  0.00    -0.000 C 
BRANCH  24  25
ATOM     25  C   UNL     1      -1.620  14.263   3.003  1.00  0.00    -0.000 C 
BRANCH  25  26
ATOM     26  C   UNL     1      -0.657  13.610   1.994  1.00  0.00    -0.000 C 
BRANCH  26  27
ATOM     27  C   UNL     1       0.814  13.732   2.416  1.00  0.00    -0.000 C 
BRANCH  27  28
ATOM     28  C   UNL     1       1.755  13.952   1.218  1.00  0.00    -0.000 C 
BRANCH  28  29
ATOM     29  C   UNL     1       3.173  14.359   1.648  1.00  0.00    -0.000 C 
BRANCH  29  30
ATOM     30  C   UNL     1       4.158  13.180   1.636  1.00  0.00    -0.000 C 
BRANCH  30  31
ATOM     31  C   UNL     1       5.320  13.447   0.671  1.00  0.00    -0.003 C 
ATOM     32  C   UNL     1       5.296  14.884   0.161  1.00  0.00     0.004 C 
ENDBRANCH  30  31
ENDBRANCH  29  30
ENDBRANCH  28  29
ENDBRANCH  27  28
ENDBRANCH  26  27
ENDBRANCH  25  26
ENDBRANCH  24  25
ENDBRANCH  23  24
ENDBRANCH  22  23
ENDBRANCH  21  22
ENDBRANCH  20  21
ENDBRANCH  19  20
ENDBRANCH  18  19
ENDBRANCH   1  18
TORSDOF 28
ENDMDL
MODEL 6
REMARK VINA RESULT:    -5.927      3.995     11.029
REMARK INTER + INTRA:         -19.355
REMARK INTER:                 -17.266
REMARK INTRA:                  -2.089
REMARK UNBOUND:                -3.725
REMARK SMILES CCCCCCCCCCCCCCCCCCCCCCCCCCCCCC(=O)[O-]
REMARK SMILES IDX 16 1 17 2 18 3 19 4 20 5 21 6 22 7 23 8 24 9 25 10 26 11
REMARK SMILES IDX 27 12 28 13 29 14 30 15 31 16 32 17 15 18 14 19 13 20 12 21
REMARK SMILES IDX 11 22 10 23 9 24 8 25 7 26 6 27 5 28 4 29 3 30 2 31 1 32
REMARK H PARENT
REMARK Flexibility Score: inf
ROOT
ATOM      1  C   UNL     1       7.425  13.975   1.739  1.00  0.00     0.000 C 
ENDROOT
BRANCH   1   2
ATOM      2  C   UNL     1       8.209  14.539   2.938  1.00  0.00     0.000 C 
BRANCH   2   3
ATOM      3  C   UNL     1       7.555  15.741   3.650  1.00  0.00     0.000 C 
BRANCH   3   4
ATOM      4  C   UNL     1       6.070  15.971   3.321  1.00  0.00     0.000 C 
BRANCH   4   5
ATOM      5  C   UNL     1       5.178  16.015   4.572  1.00  0.00     0.000 C 
BRANCH   5   6
ATOM      6  C   UNL     1       3.826  15.345   4.302  1.00  0.00     0.000 C 
BRANCH   6   7
ATOM      7  C   UNL     1       3.940  14.307   3.173  1.00  0.00     0.000 C 
BRANCH   7   8
ATOM      8  C   UNL     1       3.222  14.749   1.883  1.00  0.00     0.000 C 
BRANCH   8   9
ATOM      9  C   UNL     1       1.935  13.959   1.588  1.00  0.00     0.000 C 
BRANCH   9  10
ATOM     10  C   UNL     1       0.799  14.273   2.586  1.00  0.00     0.000 C 
BRANCH  10  11
ATOM     11  C   UNL     1      -0.569  13.772   2.092  1.00  0.00     0.000 C 
BRANCH  11  12
ATOM     12  C   UNL     1      -1.748  14.290   2.938  1.00  0.00     0.000 C 
BRANCH  12  13
ATOM     13  C   UNL     1      -1.715  13.751   4.379  1.00  0.00     0.006 C 
BRANCH  13  14
ATOM     14  C   UNL     1      -2.002  14.844   5.417  1.00  0.00     0.053 C 
BRANCH  14  15
ATOM     15  C   UNL     1      -0.984  14.877   6.518  1.00  0.00     0.041 C 
ATOM     16  O   UNL     1      -1.256  15.446   7.608  1.00  0.00    -0.550 OA
ATOM     17  O   UNL     1       0.230  14.216   6.375  1.00  0.00    -0.550 OA
ENDBRANCH  14  15
ENDBRANCH  13  14
ENDBRANCH  12  13
ENDBRANCH  11  12
ENDBRANCH  10  11
ENDBRANCH   9  10
ENDBRANCH   8   9
ENDBRANCH   7   8
ENDBRANCH   6   7
ENDBRANCH   5   6
ENDBRANCH   4   5
ENDBRANCH   3   4
ENDBRANCH   2   3
ENDBRANCH   1   2
BRANCH   1  18
ATOM     18  C   UNL     1       8.336  13.516   0.588  1.00  0.00     0.000 C 
BRANCH  18  19
ATOM     19  C   UNL     1       9.472  14.512   0.300  1.00  0.00     0.000 C 
BRANCH  19  20
ATOM     20  C   UNL     1      10.845  14.122   0.881  1.00  0.00     0.000 C 
BRANCH  20  21
ATOM     21  C   UNL     1      11.906  15.241   0.864  1.00  0.00     0.000 C 
BRANCH  21  22
ATOM     22  C   UNL     1      11.381  16.638   0.487  1.00  0.00     0.000 C 
BRANCH  22  23
ATOM     23  C   UNL     1      11.641  17.691   1.578  1.00  0.00     0.000 C 
BRANCH  23  24
ATOM     24  C   UNL     1      10.559  17.695   2.673  1.00  0.00    -0.000 C 
BRANCH  24  25
ATOM     25  C   UNL     1      10.750  18.752   3.775  1.00  0.00    -0.000 C 
BRANCH  25  26
ATOM     26  C   UNL     1      12.074  19.526   3.639  1.00  0.00    -0.000 C 
BRANCH  26  27
ATOM     27  C   UNL     1      13.124  19.089   4.672  1.00  0.00    -0.000 C 
BRANCH  27  28
ATOM     28  C   UNL     1      13.603  20.253   5.557  1.00  0.00    -0.000 C 
BRANCH  28  29
ATOM     29  C   UNL     1      12.739  20.431   6.815  1.00  0.00    -0.000 C 
BRANCH  29  30
ATOM     30  C   UNL     1      13.564  20.820   8.051  1.00  0.00    -0.000 C 
BRANCH  30  31
ATOM     31  C   UNL     1      12.655  21.063   9.262  1.00  0.00    -0.003 C 
ATOM     32  C   UNL     1      11.707  22.232   9.016  1.00  0.00     0.004 C 
ENDBRANCH  30  31
ENDBRANCH  29  30
ENDBRANCH  28  29
ENDBRANCH  27  28
ENDBRANCH  26  27
ENDBRANCH  25  26
ENDBRANCH  24  25
ENDBRANCH  23  24
ENDBRANCH  22  23
ENDBRANCH  21  22
ENDBRANCH  20  21
ENDBRANCH  19  20
ENDBRANCH  18  19
ENDBRANCH   1  18
TORSDOF 28
ENDMDL
MODEL 7
REMARK VINA RESULT:    -5.922      4.756     10.997
REMARK INTER + INTRA:         -19.341
REMARK INTER:                 -16.559
REMARK INTRA:                  -2.782
REMARK UNBOUND:                -3.725
REMARK SMILES CCCCCCCCCCCCCCCCCCCCCCCCCCCCCC(=O)[O-]
REMARK SMILES IDX 16 1 17 2 18 3 19 4 20 5 21 6 22 7 23 8 24 9 25 10 26 11
REMARK SMILES IDX 27 12 28 13 29 14 30 15 31 16 32 17 15 18 14 19 13 20 12 21
REMARK SMILES IDX 11 22 10 23 9 24 8 25 7 26 6 27 5 28 4 29 3 30 2 31 1 32
REMARK H PARENT
REMARK Flexibility Score: inf
ROOT
ATOM      1  C   UNL     1       8.894  14.960   2.828  1.00  0.00     0.000 C 
ENDROOT
BRANCH   1   2
ATOM      2  C   UNL     1       7.786  15.652   3.642  1.00  0.00     0.000 C 
BRANCH   2   3
ATOM      3  C   UNL     1       6.346  15.204   3.315  1.00  0.00     0.000 C 
BRANCH   3   4
ATOM      4  C   UNL     1       5.300  16.332   3.279  1.00  0.00     0.000 C 
BRANCH   4   5
ATOM      5  C   UNL     1       4.712  16.560   1.878  1.00  0.00     0.000 C 
BRANCH   5   6
ATOM      6  C   UNL     1       5.549  15.844   0.812  1.00  0.00     0.000 C 
BRANCH   6   7
ATOM      7  C   UNL     1       4.732  14.744   0.115  1.00  0.00     0.000 C 
BRANCH   7   8
ATOM      8  C   UNL     1       4.785  13.397   0.863  1.00  0.00     0.000 C 
BRANCH   8   9
ATOM      9  C   UNL     1       3.533  13.109   1.710  1.00  0.00     0.000 C 
BRANCH   9  10
ATOM     10  C   UNL     1       2.274  13.827   1.178  1.00  0.00     0.000 C 
BRANCH  10  11
ATOM     11  C   UNL     1       1.362  14.325   2.312  1.00  0.00     0.000 C 
BRANCH  11  12
ATOM     12  C   UNL     1       0.111  13.449   2.517  1.00  0.00     0.000 C 
BRANCH  12  13
ATOM     13  C   UNL     1      -0.973  14.160   3.346  1.00  0.00     0.006 C 
BRANCH  13  14
ATOM     14  C   UNL     1      -2.241  14.444   2.528  1.00  0.00     0.053 C 
BRANCH  14  15
ATOM     15  C   UNL     1      -3.490  14.371   3.356  1.00  0.00     0.041 C 
ATOM     16  O   UNL     1      -3.432  14.576   4.597  1.00  0.00    -0.550 OA
ATOM     17  O   UNL     1      -4.724  14.157   2.753  1.00  0.00    -0.550 OA
ENDBRANCH  14  15
ENDBRANCH  13  14
ENDBRANCH  12  13
ENDBRANCH  11  12
ENDBRANCH  10  11
ENDBRANCH   9  10
ENDBRANCH   8   9
ENDBRANCH   7   8
ENDBRANCH   6   7
ENDBRANCH   5   6
ENDBRANCH   4   5
ENDBRANCH   3   4
ENDBRANCH   2   3
ENDBRANCH   1   2
BRANCH   1  18
ATOM     18  C   UNL     1       8.375  14.322   1.528  1.00  0.00     0.000 C 
BRANCH  18  19
ATOM     19  C   UNL     1       9.513  13.860   0.602  1.00  0.00     0.000 C 
BRANCH  19  20
ATOM     20  C   UNL     1      10.916  13.863   1.240  1.00  0.00     0.000 C 
BRANCH  20  21
ATOM     21  C   UNL     1      11.928  14.832   0.594  1.00  0.00     0.000 C 
BRANCH  21  22
ATOM     22  C   UNL     1      11.308  15.988  -0.212  1.00  0.00     0.000 C 
BRANCH  22  23
ATOM     23  C   UNL     1      11.450  17.350   0.488  1.00  0.00     0.000 C 
BRANCH  23  24
ATOM     24  C   UNL     1      11.308  17.253   2.018  1.00  0.00    -0.000 C 
BRANCH  24  25
ATOM     25  C   UNL     1      10.980  18.579   2.728  1.00  0.00    -0.000 C 
BRANCH  25  26
ATOM     26  C   UNL     1      10.401  18.374   4.140  1.00  0.00    -0.000 C 
BRANCH  26  27
ATOM     27  C   UNL     1      11.328  18.909   5.243  1.00  0.00    -0.000 C 
BRANCH  27  28
ATOM     28  C   UNL     1      12.586  19.592   4.676  1.00  0.00    -0.000 C 
BRANCH  28  29
ATOM     29  C   UNL     1      13.644  19.868   5.755  1.00  0.00    -0.000 C 
BRANCH  29  30
ATOM     30  C   UNL     1      13.191  20.925   6.774  1.00  0.00    -0.000 C 
BRANCH  30  31
ATOM     31  C   UNL     1      13.516  20.482   8.205  1.00  0.00    -0.003 C 
ATOM     32  C   UNL     1      12.506  21.045   9.200  1.00  0.00     0.004 C 
ENDBRANCH  30  31
ENDBRANCH  29  30
ENDBRANCH  28  29
ENDBRANCH  27  28
ENDBRANCH  26  27
ENDBRANCH  25  26
ENDBRANCH  24  25
ENDBRANCH  23  24
ENDBRANCH  22  23
ENDBRANCH  21  22
ENDBRANCH  20  21
ENDBRANCH  19  20
ENDBRANCH  18  19
ENDBRANCH   1  18
TORSDOF 28
ENDMDL
MODEL 8
REMARK VINA RESULT:    -5.824      1.406      3.122
REMARK INTER + INTRA:         -19.081
REMARK INTER:                 -15.887
REMARK INTRA:                  -3.195
REMARK UNBOUND:                -3.725
REMARK SMILES CCCCCCCCCCCCCCCCCCCCCCCCCCCCCC(=O)[O-]
REMARK SMILES IDX 16 1 17 2 18 3 19 4 20 5 21 6 22 7 23 8 24 9 25 10 26 11
REMARK SMILES IDX 27 12 28 13 29 14 30 15 31 16 32 17 15 18 14 19 13 20 12 21
REMARK SMILES IDX 11 22 10 23 9 24 8 25 7 26 6 27 5 28 4 29 3 30 2 31 1 32
REMARK H PARENT
REMARK Flexibility Score: inf
ROOT
ATOM      1  C   UNL     1       8.146  14.133   2.491  1.00  0.00     0.000 C 
ENDROOT
BRANCH   1   2
ATOM      2  C   UNL     1       9.290  13.656   1.577  1.00  0.00     0.000 C 
BRANCH   2   3
ATOM      3  C   UNL     1       8.930  13.518   0.083  1.00  0.00     0.000 C 
BRANCH   3   4
ATOM      4  C   UNL     1      10.122  13.575  -0.888  1.00  0.00     0.000 C 
BRANCH   4   5
ATOM      5  C   UNL     1      11.481  13.507  -0.173  1.00  0.00     0.000 C 
BRANCH   5   6
ATOM      6  C   UNL     1      12.234  14.836  -0.306  1.00  0.00     0.000 C 
BRANCH   6   7
ATOM      7  C   UNL     1      12.154  15.649   0.997  1.00  0.00     0.000 C 
BRANCH   7   8
ATOM      8  C   UNL     1      11.083  16.756   0.945  1.00  0.00     0.000 C 
BRANCH   8   9
ATOM      9  C   UNL     1      11.462  18.023   1.732  1.00  0.00     0.000 C 
BRANCH   9  10
ATOM     10  C   UNL     1      10.649  18.182   3.035  1.00  0.00     0.000 C 
BRANCH  10  11
ATOM     11  C   UNL     1      11.317  19.149   4.027  1.00  0.00     0.000 C 
BRANCH  11  12
ATOM     12  C   UNL     1      12.831  19.312   3.792  1.00  0.00     0.000 C 
BRANCH  12  13
ATOM     13  C   UNL     1      13.529  20.037   4.956  1.00  0.00     0.006 C 
BRANCH  13  14
ATOM     14  C   UNL     1      12.634  20.143   6.199  1.00  0.00     0.053 C 
BRANCH  14  15
ATOM     15  C   UNL     1      13.329  20.793   7.358  1.00  0.00     0.041 C 
ATOM     16  O   UNL     1      14.409  20.311   7.792  1.00  0.00    -0.550 OA
ATOM     17  O   UNL     1      12.834  21.969   7.908  1.00  0.00    -0.550 OA
ENDBRANCH  14  15
ENDBRANCH  13  14
ENDBRANCH  12  13
ENDBRANCH  11  12
ENDBRANCH  10  11
ENDBRANCH   9  10
ENDBRANCH   8   9
ENDBRANCH   7   8
ENDBRANCH   6   7
ENDBRANCH   5   6
ENDBRANCH   4   5
ENDBRANCH   3   4
ENDBRANCH   2   3
ENDBRANCH   1   2
BRANCH   1  18
ATOM     18  C   UNL     1       8.583  15.227   3.479  1.00  0.00     0.000 C 
BRANCH  18  19
ATOM     19  C   UNL     1       7.411  16.116   3.932  1.00  0.00     0.000 C 
BRANCH  19  20
ATOM     20  C   UNL     1       6.011  15.511   3.711  1.00  0.00     0.000 C 
BRANCH  20  21
ATOM     21  C   UNL     1       4.964  16.478   3.121  1.00  0.00     0.000 C 
BRANCH  21  22
ATOM     22  C   UNL     1       4.943  16.562   1.583  1.00  0.00     0.000 C 
BRANCH  22  23
ATOM     23  C   UNL     1       5.829  15.500   0.913  1.00  0.00     0.000 C 
BRANCH  23  24
ATOM     24  C   UNL     1       5.022  14.485   0.084  1.00  0.00    -0.000 C 
BRANCH  24  25
ATOM     25  C   UNL     1       4.853  13.099   0.732  1.00  0.00    -0.000 C 
BRANCH  25  26
ATOM     26  C   UNL     1       3.936  13.124   1.968  1.00  0.00    -0.000 C 
BRANCH  26  27
ATOM     27  C   UNL     1       2.543  13.692   1.660  1.00  0.00    -0.000 C 
BRANCH  27  28
ATOM     28  C   UNL     1       1.950  14.476   2.844  1.00  0.00    -0.000 C 
BRANCH  28  29
ATOM     29  C   UNL     1       0.532  14.993   2.559  1.00  0.00    -0.000 C 
BRANCH  29  30
ATOM     30  C   UNL     1      -0.557  14.144   3.233  1.00  0.00    -0.000 C 
BRANCH  30  31
ATOM     31  C   UNL     1      -1.767  13.968   2.307  1.00  0.00    -0.003 C 
ATOM     32  C   UNL     1      -3.074  14.209   3.055  1.00  0.00     0.004 C 
ENDBRANCH  30  31
ENDBRANCH  29  30
ENDBRANCH  28  29
ENDBRANCH  27  28
ENDBRANCH  26  27
ENDBRANCH  25  26
ENDBRANCH  24  25
ENDBRANCH  23  24
ENDBRANCH  22  23
ENDBRANCH  21  22
ENDBRANCH  20  21
ENDBRANCH  19  20
ENDBRANCH  18  19
ENDBRANCH   1  18
TORSDOF 28
ENDMDL
MODEL 9
REMARK VINA RESULT:    -5.818      1.798      4.454
REMARK INTER + INTRA:         -19.068
REMARK INTER:                 -16.358
REMARK INTRA:                  -2.710
REMARK UNBOUND:                -3.725
REMARK SMILES CCCCCCCCCCCCCCCCCCCCCCCCCCCCCC(=O)[O-]
REMARK SMILES IDX 16 1 17 2 18 3 19 4 20 5 21 6 22 7 23 8 24 9 25 10 26 11
REMARK SMILES IDX 27 12 28 13 29 14 30 15 31 16 32 17 15 18 14 19 13 20 12 21
REMARK SMILES IDX 11 22 10 23 9 24 8 25 7 26 6 27 5 28 4 29 3 30 2 31 1 32
REMARK H PARENT
REMARK Flexibility Score: inf
ROOT
ATOM      1  C   UNL     1      11.972  13.590   0.605  1.00  0.00     0.000 C 
ENDROOT
BRANCH   1   2
ATOM      2  C   UNL     1      11.771  13.520  -0.920  1.00  0.00     0.000 C 
BRANCH   2   3
ATOM      3  C   UNL     1      12.834  14.256  -1.762  1.00  0.00     0.000 C 
BRANCH   3   4
ATOM      4  C   UNL     1      12.359  15.563  -2.422  1.00  0.00     0.000 C 
BRANCH   4   5
ATOM      5  C   UNL     1      11.176  16.211  -1.687  1.00  0.00     0.000 C 
BRANCH   5   6
ATOM      6  C   UNL     1      11.662  17.303  -0.727  1.00  0.00     0.000 C 
BRANCH   6   7
ATOM      7  C   UNL     1      11.291  16.967   0.727  1.00  0.00     0.000 C 
BRANCH   7   8
ATOM      8  C   UNL     1      11.870  17.974   1.739  1.00  0.00     0.000 C 
BRANCH   8   9
ATOM      9  C   UNL     1      10.901  18.335   2.879  1.00  0.00     0.000 C 
BRANCH   9  10
ATOM     10  C   UNL     1      11.520  19.311   3.903  1.00  0.00     0.000 C 
BRANCH  10  11
ATOM     11  C   UNL     1      13.047  19.425   3.754  1.00  0.00     0.000 C 
BRANCH  11  12
ATOM     12  C   UNL     1      13.769  19.700   5.087  1.00  0.00     0.000 C 
BRANCH  12  13
ATOM     13  C   UNL     1      12.827  20.284   6.154  1.00  0.00     0.006 C 
BRANCH  13  14
ATOM     14  C   UNL     1      13.565  20.636   7.453  1.00  0.00     0.053 C 
BRANCH  14  15
ATOM     15  C   UNL     1      12.735  21.477   8.378  1.00  0.00     0.041 C 
ATOM     16  O   UNL     1      12.265  20.972   9.433  1.00  0.00    -0.550 OA
ATOM     17  O   UNL     1      12.543  22.829   8.121  1.00  0.00    -0.550 OA
ENDBRANCH  14  15
ENDBRANCH  13  14
ENDBRANCH  12  13
ENDBRANCH  11  12
ENDBRANCH  10  11
ENDBRANCH   9  10
ENDBRANCH   8   9
ENDBRANCH   7   8
ENDBRANCH   6   7
ENDBRANCH   5   6
ENDBRANCH   4   5
ENDBRANCH   3   4
ENDBRANCH   2   3
ENDBRANCH   1   2
BRANCH   1  18
ATOM     18  C   UNL     1      10.655  13.465   1.390  1.00  0.00     0.000 C 
BRANCH  18  19
ATOM     19  C   UNL     1       9.427  13.849   0.548  1.00  0.00     0.000 C 
BRANCH  19  20
ATOM     20  C   UNL     1       8.339  14.639   1.302  1.00  0.00     0.000 C 
BRANCH  20  21
ATOM     21  C   UNL     1       8.784  15.246   2.648  1.00  0.00     0.000 C 
BRANCH  21  22
ATOM     22  C   UNL     1       7.684  15.342   3.720  1.00  0.00     0.000 C 
BRANCH  22  23
ATOM     23  C   UNL     1       6.310  15.714   3.137  1.00  0.00     0.000 C 
BRANCH  23  24
ATOM     24  C   UNL     1       5.153  15.451   4.118  1.00  0.00    -0.000 C 
BRANCH  24  25
ATOM     25  C   UNL     1       4.276  14.232   3.780  1.00  0.00    -0.000 C 
BRANCH  25  26
ATOM     26  C   UNL     1       4.513  13.700   2.355  1.00  0.00    -0.000 C 
BRANCH  26  27
ATOM     27  C   UNL     1       3.208  13.537   1.560  1.00  0.00    -0.000 C 
BRANCH  27  28
ATOM     28  C   UNL     1       2.041  14.331   2.172  1.00  0.00    -0.000 C 
BRANCH  28  29
ATOM     29  C   UNL     1       0.679  13.923   1.589  1.00  0.00    -0.000 C 
BRANCH  29  30
ATOM     30  C   UNL     1      -0.224  13.230   2.621  1.00  0.00    -0.000 C 
BRANCH  30  31
ATOM     31  C   UNL     1      -0.746  14.235   3.655  1.00  0.00    -0.003 C 
ATOM     32  C   UNL     1      -2.271  14.241   3.698  1.00  0.00     0.004 C 
ENDBRANCH  30  31
ENDBRANCH  29  30
ENDBRANCH  28  29
ENDBRANCH  27  28
ENDBRANCH  26  27
ENDBRANCH  25  26
ENDBRANCH  24  25
ENDBRANCH  23  24
ENDBRANCH  22  23
ENDBRANCH  21  22
ENDBRANCH  20  21
ENDBRANCH  19  20
ENDBRANCH  18  19
ENDBRANCH   1  18
TORSDOF 28
ENDMDL
