MODEL 1
REMARK VINA RESULT:    -6.576      0.000      0.000
REMARK INTER + INTRA:         -10.595
REMARK INTER:                  -8.690
REMARK INTRA:                  -1.905
REMARK UNBOUND:                -1.905
REMARK SMILES CC[C@H](C=C[C@@H](C)[C@H]1CC[C@@H]2C3=CC[C@H]4C[C@@H](O)CC[C@@]4(C)[C@@H]3CC[C@@]21C)C(C)C
REMARK SMILES IDX 6 1 7 2 5 3 4 4 3 5 2 6 1 7 28 8 29 9 30 10 8 11 9 12 26 13
REMARK SMILES IDX 10 14 11 15 25 16 27 17 12 18 24 19 23 20 13 21 21 22 14 23
REMARK SMILES IDX 15 24 20 25 22 26 16 27 19 28 17 29 18 30
REMARK H PARENT 18 31
REMARK Flexibility Score: inf
ROOT
ATOM      1  C   UNL     1      56.481 -39.330 -26.807  1.00  0.00     0.012 C 
ATOM      2  C   UNL     1      57.519 -38.217 -27.067  1.00  0.00     0.012 C 
ENDROOT
BRANCH   1   3
ATOM      3  C   UNL     1      55.724 -39.707 -28.073  1.00  0.00    -0.028 C 
ATOM      4  C   UNL     1      55.594 -40.951 -28.573  1.00  0.00    -0.027 C 
BRANCH   4   5
ATOM      5  C   UNL     1      56.226 -42.212 -28.008  1.00  0.00     0.014 C 
BRANCH   5   6
ATOM      6  C   UNL     1      55.237 -42.908 -27.038  1.00  0.00     0.004 C 
ATOM      7  C   UNL     1      55.932 -43.950 -26.162  1.00  0.00     0.004 C 
ENDBRANCH   5   6
BRANCH   5   8
ATOM      8  C   UNL     1      56.697 -43.136 -29.176  1.00  0.00    -0.011 C 
ATOM      9  C   UNL     1      57.960 -42.628 -29.891  1.00  0.00     0.008 C 
ATOM     10  C   UNL     1      55.574 -43.398 -30.194  1.00  0.00     0.008 C 
ENDBRANCH   5   8
ENDBRANCH   4   5
ENDBRANCH   1   3
BRANCH   1  11
ATOM     11  C   UNL     1      55.509 -39.075 -25.596  1.00  0.00     0.002 C 
ATOM     12  C   UNL     1      54.041 -39.316 -25.980  1.00  0.00     0.005 C 
ATOM     13  C   UNL     1      55.725 -39.781 -24.191  1.00  0.00    -0.023 C 
ATOM     14  C   UNL     1      53.553 -40.471 -25.131  1.00  0.00     0.009 C 
ATOM     15  C   UNL     1      54.329 -40.397 -23.816  1.00  0.00     0.021 C 
ATOM     16  C   UNL     1      56.225 -38.764 -23.122  1.00  0.00     0.008 C 
ATOM     17  C   UNL     1      56.758 -40.937 -24.229  1.00  0.00     0.012 C 
ATOM     18  C   UNL     1      53.501 -39.685 -22.738  1.00  0.00    -0.067 C 
ATOM     19  C   UNL     1      55.148 -37.763 -22.702  1.00  0.00     0.009 C 
ATOM     20  C   UNL     1      54.000 -38.468 -21.966  1.00  0.00     0.021 C 
ATOM     21  C   UNL     1      52.387 -40.306 -22.291  1.00  0.00    -0.027 C 
ATOM     22  C   UNL     1      52.845 -37.487 -21.435  1.00  0.00    -0.023 C 
ATOM     23  C   UNL     1      51.547 -39.692 -21.212  1.00  0.00     0.031 C 
ATOM     24  C   UNL     1      51.433 -38.186 -21.494  1.00  0.00     0.002 C 
ATOM     25  C   UNL     1      53.197 -37.100 -19.960  1.00  0.00     0.010 C 
ATOM     26  C   UNL     1      52.756 -36.187 -22.288  1.00  0.00     0.012 C 
ATOM     27  C   UNL     1      50.338 -37.510 -20.630  1.00  0.00     0.036 C 
ATOM     28  C   UNL     1      52.078 -36.362 -19.214  1.00  0.00     0.032 C 
ATOM     29  C   UNL     1      50.786 -37.182 -19.198  1.00  0.00     0.114 C 
BRANCH  29  30
ATOM     30  O   UNL     1      50.966 -38.355 -18.448  1.00  0.00    -0.393 OA
ATOM     31  H   UNL     1      51.828 -38.751 -18.740  1.00  0.00     0.210 HD
ENDBRANCH  29  30
ENDBRANCH   1  11
TORSDOF 6
ENDMDL
MODEL 2
REMARK VINA RESULT:    -6.392      2.203      3.944
REMARK INTER + INTRA:         -10.352
REMARK INTER:                  -9.048
REMARK INTRA:                  -1.305
REMARK UNBOUND:                -1.905
REMARK SMILES CC[C@H](C=C[C@@H](C)[C@H]1CC[C@@H]2C3=CC[C@H]4C[C@@H](O)CC[C@@]4(C)[C@@H]3CC[C@@]21C)C(C)C
REMARK SMILES IDX 6 1 7 2 5 3 4 4 3 5 2 6 1 7 28 8 29 9 30 10 8 11 9 12 26 13
REMARK SMILES IDX 10 14 11 15 25 16 27 17 12 18 24 19 23 20 13 21 21 22 14 23
REMARK SMILES IDX 15 24 20 25 22 26 16 27 19 28 17 29 18 30
REMARK H PARENT 18 31
REMARK Flexibility Score: inf
ROOT
ATOM      1  C   UNL     1      53.870 -42.646 -28.635  1.00  0.00     0.012 C 
ATOM      2  C   UNL     1      53.144 -43.969 -28.306  1.00  0.00     0.012 C 
ENDROOT
BRANCH   1   3
ATOM      3  C   UNL     1      55.213 -42.890 -29.309  1.00  0.00    -0.028 C 
ATOM      4  C   UNL     1      55.814 -42.068 -30.191  1.00  0.00    -0.027 C 
BRANCH   4   5
ATOM      5  C   UNL     1      55.244 -40.767 -30.732  1.00  0.00     0.014 C 
BRANCH   5   6
ATOM      6  C   UNL     1      56.387 -39.744 -30.957  1.00  0.00     0.004 C 
ATOM      7  C   UNL     1      57.035 -39.311 -29.642  1.00  0.00     0.004 C 
ENDBRANCH   5   6
BRANCH   5   8
ATOM      8  C   UNL     1      54.408 -41.052 -32.020  1.00  0.00    -0.011 C 
ATOM      9  C   UNL     1      54.734 -40.103 -33.186  1.00  0.00     0.008 C 
ATOM     10  C   UNL     1      52.896 -41.053 -31.739  1.00  0.00     0.008 C 
ENDBRANCH   5   8
ENDBRANCH   4   5
ENDBRANCH   1   3
BRANCH   1  11
ATOM     11  C   UNL     1      53.987 -41.627 -27.442  1.00  0.00     0.002 C 
ATOM     12  C   UNL     1      52.628 -41.368 -26.774  1.00  0.00     0.005 C 
ATOM     13  C   UNL     1      55.031 -41.839 -26.265  1.00  0.00    -0.023 C 
ATOM     14  C   UNL     1      52.741 -41.865 -25.349  1.00  0.00     0.009 C 
ATOM     15  C   UNL     1      54.201 -41.671 -24.940  1.00  0.00     0.021 C 
ATOM     16  C   UNL     1      56.201 -40.816 -26.360  1.00  0.00     0.008 C 
ATOM     17  C   UNL     1      55.669 -43.253 -26.248  1.00  0.00     0.012 C 
ATOM     18  C   UNL     1      54.374 -40.367 -24.151  1.00  0.00    -0.067 C 
ATOM     19  C   UNL     1      55.773 -39.387 -26.020  1.00  0.00     0.009 C 
ATOM     20  C   UNL     1      55.362 -39.273 -24.545  1.00  0.00     0.021 C 
ATOM     21  C   UNL     1      53.802 -40.292 -22.929  1.00  0.00    -0.027 C 
ATOM     22  C   UNL     1      54.949 -37.793 -24.080  1.00  0.00    -0.023 C 
ATOM     23  C   UNL     1      53.958 -39.066 -22.082  1.00  0.00     0.031 C 
ATOM     24  C   UNL     1      53.811 -37.836 -22.990  1.00  0.00     0.002 C 
ATOM     25  C   UNL     1      56.230 -37.108 -23.498  1.00  0.00     0.010 C 
ATOM     26  C   UNL     1      54.420 -36.941 -25.271  1.00  0.00     0.012 C 
ATOM     27  C   UNL     1      53.640 -36.526 -22.178  1.00  0.00     0.036 C 
ATOM     28  C   UNL     1      55.969 -35.776 -22.784  1.00  0.00     0.032 C 
ATOM     29  C   UNL     1      54.959 -35.944 -21.647  1.00  0.00     0.114 C 
BRANCH  29  30
ATOM     30  O   UNL     1      55.497 -36.760 -20.638  1.00  0.00    -0.393 OA
ATOM     31  H   UNL     1      54.851 -37.500 -20.496  1.00  0.00     0.210 HD
ENDBRANCH  29  30
ENDBRANCH   1  11
TORSDOF 6
ENDMDL
MODEL 3
REMARK VINA RESULT:    -6.202     13.254     16.438
REMARK INTER + INTRA:         -10.102
REMARK INTER:                  -8.338
REMARK INTRA:                  -1.764
REMARK UNBOUND:                -1.905
REMARK SMILES CC[C@H](C=C[C@@H](C)[C@H]1CC[C@@H]2C3=CC[C@H]4C[C@@H](O)CC[C@@]4(C)[C@@H]3CC[C@@]21C)C(C)C
REMARK SMILES IDX 6 1 7 2 5 3 4 4 3 5 2 6 1 7 28 8 29 9 30 10 8 11 9 12 26 13
REMARK SMILES IDX 10 14 11 15 25 16 27 17 12 18 24 19 23 20 13 21 21 22 14 23
REMARK SMILES IDX 15 24 20 25 22 26 16 27 19 28 17 29 18 30
REMARK H PARENT 18 31
REMARK Flexibility Score: inf
ROOT
ATOM      1  C   UNL     1      44.672 -29.324 -27.963  1.00  0.00     0.012 C 
ATOM      2  C   UNL     1      44.766 -29.549 -26.439  1.00  0.00     0.012 C 
ENDROOT
BRANCH   1   3
ATOM      3  C   UNL     1      43.805 -30.379 -28.639  1.00  0.00    -0.028 C 
ATOM      4  C   UNL     1      42.808 -30.139 -29.511  1.00  0.00    -0.027 C 
BRANCH   4   5
ATOM      5  C   UNL     1      42.310 -28.771 -29.947  1.00  0.00     0.014 C 
BRANCH   5   6
ATOM      6  C   UNL     1      42.861 -28.434 -31.357  1.00  0.00     0.004 C 
ATOM      7  C   UNL     1      41.885 -28.831 -32.464  1.00  0.00     0.004 C 
ENDBRANCH   5   6
BRANCH   5   8
ATOM      8  C   UNL     1      40.752 -28.725 -29.867  1.00  0.00    -0.011 C 
ATOM      9  C   UNL     1      40.203 -27.398 -29.317  1.00  0.00     0.008 C 
ATOM     10  C   UNL     1      40.179 -29.910 -29.072  1.00  0.00     0.008 C 
ENDBRANCH   5   8
ENDBRANCH   4   5
ENDBRANCH   1   3
BRANCH   1  11
ATOM     11  C   UNL     1      46.047 -29.133 -28.703  1.00  0.00     0.002 C 
ATOM     12  C   UNL     1      46.186 -30.078 -29.907  1.00  0.00     0.005 C 
ATOM     13  C   UNL     1      46.536 -27.706 -29.197  1.00  0.00    -0.023 C 
ATOM     14  C   UNL     1      46.279 -29.204 -31.139  1.00  0.00     0.009 C 
ATOM     15  C   UNL     1      46.959 -27.908 -30.697  1.00  0.00     0.021 C 
ATOM     16  C   UNL     1      47.710 -27.180 -28.319  1.00  0.00     0.008 C 
ATOM     17  C   UNL     1      45.427 -26.622 -29.160  1.00  0.00     0.012 C 
ATOM     18  C   UNL     1      48.460 -27.948 -31.015  1.00  0.00    -0.067 C 
ATOM     19  C   UNL     1      49.013 -27.948 -28.544  1.00  0.00     0.009 C 
ATOM     20  C   UNL     1      49.545 -27.723 -29.966  1.00  0.00     0.021 C 
ATOM     21  C   UNL     1      48.826 -27.945 -32.315  1.00  0.00    -0.027 C 
ATOM     22  C   UNL     1      50.944 -28.448 -30.278  1.00  0.00    -0.023 C 
ATOM     23  C   UNL     1      50.273 -27.945 -32.706  1.00  0.00     0.031 C 
ATOM     24  C   UNL     1      51.017 -28.919 -31.782  1.00  0.00     0.002 C 
ATOM     25  C   UNL     1      52.085 -27.420 -29.977  1.00  0.00     0.010 C 
ATOM     26  C   UNL     1      51.152 -29.707 -29.386  1.00  0.00     0.012 C 
ATOM     27  C   UNL     1      52.446 -29.236 -32.293  1.00  0.00     0.036 C 
ATOM     28  C   UNL     1      53.476 -27.860 -30.449  1.00  0.00     0.032 C 
ATOM     29  C   UNL     1      53.485 -28.157 -31.950  1.00  0.00     0.114 C 
BRANCH  29  30
ATOM     30  O   UNL     1      53.246 -26.981 -32.678  1.00  0.00    -0.393 OA
ATOM     31  H   UNL     1      54.007 -26.874 -33.306  1.00  0.00     0.210 HD
ENDBRANCH  29  30
ENDBRANCH   1  11
TORSDOF 6
ENDMDL
MODEL 4
REMARK VINA RESULT:    -6.148      3.050      8.176
REMARK INTER + INTRA:         -10.030
REMARK INTER:                  -8.576
REMARK INTRA:                  -1.454
REMARK UNBOUND:                -1.905
REMARK SMILES CC[C@H](C=C[C@@H](C)[C@H]1CC[C@@H]2C3=CC[C@H]4C[C@@H](O)CC[C@@]4(C)[C@@H]3CC[C@@]21C)C(C)C
REMARK SMILES IDX 6 1 7 2 5 3 4 4 3 5 2 6 1 7 28 8 29 9 30 10 8 11 9 12 26 13
REMARK SMILES IDX 10 14 11 15 25 16 27 17 12 18 24 19 23 20 13 21 21 22 14 23
REMARK SMILES IDX 15 24 20 25 22 26 16 27 19 28 17 29 18 30
REMARK H PARENT 18 31
REMARK Flexibility Score: inf
ROOT
ATOM      1  C   UNL     1      55.212 -35.911 -23.252  1.00  0.00     0.012 C 
ATOM      2  C   UNL     1      55.944 -34.569 -23.464  1.00  0.00     0.012 C 
ENDROOT
BRANCH   1   3
ATOM      3  C   UNL     1      55.511 -36.511 -21.884  1.00  0.00    -0.028 C 
ATOM      4  C   UNL     1      54.792 -37.468 -21.268  1.00  0.00    -0.027 C 
BRANCH   4   5
ATOM      5  C   UNL     1      53.509 -38.096 -21.787  1.00  0.00     0.014 C 
BRANCH   5   6
ATOM      6  C   UNL     1      53.794 -39.532 -22.299  1.00  0.00     0.004 C 
ATOM      7  C   UNL     1      52.946 -39.883 -23.521  1.00  0.00     0.004 C 
ENDBRANCH   5   6
BRANCH   5   8
ATOM      8  C   UNL     1      52.409 -38.044 -20.680  1.00  0.00    -0.011 C 
ATOM      9  C   UNL     1      51.104 -37.373 -21.142  1.00  0.00     0.008 C 
ATOM     10  C   UNL     1      52.921 -37.383 -19.389  1.00  0.00     0.008 C 
ENDBRANCH   5   8
ENDBRANCH   4   5
ENDBRANCH   1   3
BRANCH   1  11
ATOM     11  C   UNL     1      55.390 -36.966 -24.407  1.00  0.00     0.002 C 
ATOM     12  C   UNL     1      54.694 -36.519 -25.702  1.00  0.00     0.005 C 
ATOM     13  C   UNL     1      56.822 -37.503 -24.831  1.00  0.00    -0.023 C 
ATOM     14  C   UNL     1      55.780 -36.342 -26.741  1.00  0.00     0.009 C 
ATOM     15  C   UNL     1      56.876 -37.350 -26.394  1.00  0.00     0.021 C 
ATOM     16  C   UNL     1      57.025 -38.979 -24.376  1.00  0.00     0.008 C 
ATOM     17  C   UNL     1      57.995 -36.683 -24.234  1.00  0.00     0.012 C 
ATOM     18  C   UNL     1      56.730 -38.622 -27.240  1.00  0.00    -0.067 C 
ATOM     19  C   UNL     1      56.174 -39.971 -25.170  1.00  0.00     0.009 C 
ATOM     20  C   UNL     1      56.616 -40.020 -26.640  1.00  0.00     0.021 C 
ATOM     21  C   UNL     1      56.951 -38.520 -28.569  1.00  0.00    -0.027 C 
ATOM     22  C   UNL     1      55.814 -41.078 -27.543  1.00  0.00    -0.023 C 
ATOM     23  C   UNL     1      56.864 -39.725 -29.456  1.00  0.00     0.031 C 
ATOM     24  C   UNL     1      55.647 -40.553 -29.020  1.00  0.00     0.002 C 
ATOM     25  C   UNL     1      56.625 -42.417 -27.533  1.00  0.00     0.010 C 
ATOM     26  C   UNL     1      54.387 -41.350 -26.982  1.00  0.00     0.012 C 
ATOM     27  C   UNL     1      55.279 -41.644 -30.059  1.00  0.00     0.036 C 
ATOM     28  C   UNL     1      56.133 -43.464 -28.538  1.00  0.00     0.032 C 
ATOM     29  C   UNL     1      56.142 -42.912 -29.965  1.00  0.00     0.114 C 
BRANCH  29  30
ATOM     30  O   UNL     1      57.459 -42.652 -30.376  1.00  0.00    -0.393 OA
ATOM     31  H   UNL     1      57.406 -42.315 -31.308  1.00  0.00     0.210 HD
ENDBRANCH  29  30
ENDBRANCH   1  11
TORSDOF 6
ENDMDL
MODEL 5
REMARK VINA RESULT:    -6.136      2.801      8.431
REMARK INTER + INTRA:         -10.014
REMARK INTER:                  -7.980
REMARK INTRA:                  -2.034
REMARK UNBOUND:                -1.905
REMARK SMILES CC[C@H](C=C[C@@H](C)[C@H]1CC[C@@H]2C3=CC[C@H]4C[C@@H](O)CC[C@@]4(C)[C@@H]3CC[C@@]21C)C(C)C
REMARK SMILES IDX 6 1 7 2 5 3 4 4 3 5 2 6 1 7 28 8 29 9 30 10 8 11 9 12 26 13
REMARK SMILES IDX 10 14 11 15 25 16 27 17 12 18 24 19 23 20 13 21 21 22 14 23
REMARK SMILES IDX 15 24 20 25 22 26 16 27 19 28 17 29 18 30
REMARK H PARENT 18 31
REMARK Flexibility Score: inf
ROOT
ATOM      1  C   UNL     1      55.024 -36.420 -22.449  1.00  0.00     0.012 C 
ATOM      2  C   UNL     1      55.852 -35.122 -22.561  1.00  0.00     0.012 C 
ENDROOT
BRANCH   1   3
ATOM      3  C   UNL     1      55.142 -37.050 -21.067  1.00  0.00    -0.028 C 
ATOM      4  C   UNL     1      54.116 -37.434 -20.285  1.00  0.00    -0.027 C 
BRANCH   4   5
ATOM      5  C   UNL     1      52.639 -37.260 -20.598  1.00  0.00     0.014 C 
BRANCH   5   6
ATOM      6  C   UNL     1      51.857 -38.530 -20.176  1.00  0.00     0.004 C 
ATOM      7  C   UNL     1      51.861 -39.596 -21.271  1.00  0.00     0.004 C 
ENDBRANCH   5   6
BRANCH   5   8
ATOM      8  C   UNL     1      52.106 -35.955 -19.926  1.00  0.00    -0.011 C 
ATOM      9  C   UNL     1      50.660 -36.074 -19.414  1.00  0.00     0.008 C 
ATOM     10  C   UNL     1      52.247 -34.732 -20.847  1.00  0.00     0.008 C 
ENDBRANCH   5   8
ENDBRANCH   4   5
ENDBRANCH   1   3
BRANCH   1  11
ATOM     11  C   UNL     1      55.260 -37.471 -23.595  1.00  0.00     0.002 C 
ATOM     12  C   UNL     1      55.913 -38.758 -23.066  1.00  0.00     0.005 C 
ATOM     13  C   UNL     1      54.087 -37.930 -24.560  1.00  0.00    -0.023 C 
ATOM     14  C   UNL     1      54.920 -39.877 -23.298  1.00  0.00     0.009 C 
ATOM     15  C   UNL     1      54.132 -39.500 -24.553  1.00  0.00     0.021 C 
ATOM     16  C   UNL     1      54.275 -37.342 -25.991  1.00  0.00     0.008 C 
ATOM     17  C   UNL     1      52.679 -37.494 -24.076  1.00  0.00     0.012 C 
ATOM     18  C   UNL     1      54.712 -40.203 -25.788  1.00  0.00    -0.067 C 
ATOM     19  C   UNL     1      55.442 -37.977 -26.748  1.00  0.00     0.009 C 
ATOM     20  C   UNL     1      55.167 -39.459 -27.039  1.00  0.00     0.021 C 
ATOM     21  C   UNL     1      54.592 -41.547 -25.859  1.00  0.00    -0.027 C 
ATOM     22  C   UNL     1      56.316 -40.198 -27.882  1.00  0.00    -0.023 C 
ATOM     23  C   UNL     1      55.099 -42.301 -27.050  1.00  0.00     0.031 C 
ATOM     24  C   UNL     1      56.458 -41.707 -27.448  1.00  0.00     0.002 C 
ATOM     25  C   UNL     1      55.925 -40.104 -29.395  1.00  0.00     0.010 C 
ATOM     26  C   UNL     1      57.704 -39.523 -27.679  1.00  0.00     0.012 C 
ATOM     27  C   UNL     1      57.216 -42.605 -28.461  1.00  0.00     0.036 C 
ATOM     28  C   UNL     1      56.785 -40.966 -30.327  1.00  0.00     0.032 C 
ATOM     29  C   UNL     1      56.747 -42.439 -29.914  1.00  0.00     0.114 C 
BRANCH  29  30
ATOM     30  O   UNL     1      55.453 -42.957 -30.085  1.00  0.00    -0.393 OA
ATOM     31  H   UNL     1      54.838 -42.179 -30.123  1.00  0.00     0.210 HD
ENDBRANCH  29  30
ENDBRANCH   1  11
TORSDOF 6
ENDMDL
MODEL 6
REMARK VINA RESULT:    -6.031      2.860      8.027
REMARK INTER + INTRA:          -9.876
REMARK INTER:                  -8.509
REMARK INTRA:                  -1.366
REMARK UNBOUND:                -1.905
REMARK SMILES CC[C@H](C=C[C@@H](C)[C@H]1CC[C@@H]2C3=CC[C@H]4C[C@@H](O)CC[C@@]4(C)[C@@H]3CC[C@@]21C)C(C)C
REMARK SMILES IDX 6 1 7 2 5 3 4 4 3 5 2 6 1 7 28 8 29 9 30 10 8 11 9 12 26 13
REMARK SMILES IDX 10 14 11 15 25 16 27 17 12 18 24 19 23 20 13 21 21 22 14 23
REMARK SMILES IDX 15 24 20 25 22 26 16 27 19 28 17 29 18 30
REMARK H PARENT 18 31
REMARK Flexibility Score: inf
ROOT
ATOM      1  C   UNL     1      54.783 -36.447 -22.848  1.00  0.00     0.012 C 
ATOM      2  C   UNL     1      55.448 -36.781 -21.495  1.00  0.00     0.012 C 
ENDROOT
BRANCH   1   3
ATOM      3  C   UNL     1      53.330 -36.024 -22.676  1.00  0.00    -0.028 C 
ATOM      4  C   UNL     1      52.415 -36.640 -21.904  1.00  0.00    -0.027 C 
BRANCH   4   5
ATOM      5  C   UNL     1      52.633 -37.912 -21.101  1.00  0.00     0.014 C 
BRANCH   5   6
ATOM      6  C   UNL     1      51.998 -37.763 -19.694  1.00  0.00     0.004 C 
ATOM      7  C   UNL     1      53.015 -37.297 -18.652  1.00  0.00     0.004 C 
ENDBRANCH   5   6
BRANCH   5   8
ATOM      8  C   UNL     1      52.090 -39.140 -21.896  1.00  0.00    -0.011 C 
ATOM      9  C   UNL     1      51.012 -39.935 -21.140  1.00  0.00     0.008 C 
ATOM     10  C   UNL     1      53.220 -40.077 -22.357  1.00  0.00     0.008 C 
ENDBRANCH   5   8
ENDBRANCH   4   5
ENDBRANCH   1   3
BRANCH   1  11
ATOM     11  C   UNL     1      54.947 -37.539 -23.968  1.00  0.00     0.002 C 
ATOM     12  C   UNL     1      54.006 -37.286 -25.157  1.00  0.00     0.005 C 
ATOM     13  C   UNL     1      56.366 -37.890 -24.588  1.00  0.00    -0.023 C 
ATOM     14  C   UNL     1      54.886 -37.024 -26.361  1.00  0.00     0.009 C 
ATOM     15  C   UNL     1      56.163 -37.837 -26.145  1.00  0.00     0.021 C 
ATOM     16  C   UNL     1      56.858 -39.287 -24.106  1.00  0.00     0.008 C 
ATOM     17  C   UNL     1      57.474 -36.870 -24.219  1.00  0.00     0.012 C 
ATOM     18  C   UNL     1      56.090 -39.171 -26.901  1.00  0.00    -0.067 C 
ATOM     19  C   UNL     1      56.061 -40.443 -24.712  1.00  0.00     0.009 C 
ATOM     20  C   UNL     1      56.283 -40.527 -26.229  1.00  0.00     0.021 C 
ATOM     21  C   UNL     1      56.093 -39.127 -28.252  1.00  0.00    -0.027 C 
ATOM     22  C   UNL     1      55.528 -41.748 -26.948  1.00  0.00    -0.023 C 
ATOM     23  C   UNL     1      56.062 -40.389 -29.060  1.00  0.00     0.031 C 
ATOM     24  C   UNL     1      55.065 -41.353 -28.402  1.00  0.00     0.002 C 
ATOM     25  C   UNL     1      56.527 -42.951 -27.005  1.00  0.00     0.010 C 
ATOM     26  C   UNL     1      54.260 -42.185 -26.158  1.00  0.00     0.012 C 
ATOM     27  C   UNL     1      54.719 -42.554 -29.321  1.00  0.00     0.036 C 
ATOM     28  C   UNL     1      56.059 -44.124 -27.874  1.00  0.00     0.032 C 
ATOM     29  C   UNL     1      55.771 -43.674 -29.308  1.00  0.00     0.114 C 
BRANCH  29  30
ATOM     30  O   UNL     1      56.957 -43.254 -29.931  1.00  0.00    -0.393 OA
ATOM     31  H   UNL     1      57.503 -42.807 -29.233  1.00  0.00     0.210 HD
ENDBRANCH  29  30
ENDBRANCH   1  11
TORSDOF 6
ENDMDL
MODEL 7
REMARK VINA RESULT:    -5.873     13.089     15.482
REMARK INTER + INTRA:          -9.666
REMARK INTER:                  -7.594
REMARK INTRA:                  -2.072
REMARK UNBOUND:                -1.905
REMARK SMILES CC[C@H](C=C[C@@H](C)[C@H]1CC[C@@H]2C3=CC[C@H]4C[C@@H](O)CC[C@@]4(C)[C@@H]3CC[C@@]21C)C(C)C
REMARK SMILES IDX 6 1 7 2 5 3 4 4 3 5 2 6 1 7 28 8 29 9 30 10 8 11 9 12 26 13
REMARK SMILES IDX 10 14 11 15 25 16 27 17 12 18 24 19 23 20 13 21 21 22 14 23
REMARK SMILES IDX 15 24 20 25 22 26 16 27 19 28 17 29 18 30
REMARK H PARENT 18 31
REMARK Flexibility Score: inf
ROOT
ATOM      1  C   UNL     1      47.953 -28.814 -27.864  1.00  0.00     0.012 C 
ATOM      2  C   UNL     1      48.459 -28.959 -26.413  1.00  0.00     0.012 C 
ENDROOT
BRANCH   1   3
ATOM      3  C   UNL     1      48.476 -27.544 -28.523  1.00  0.00    -0.028 C 
ATOM      4  C   UNL     1      49.130 -27.477 -29.699  1.00  0.00    -0.027 C 
BRANCH   4   5
ATOM      5  C   UNL     1      49.527 -28.658 -30.569  1.00  0.00     0.014 C 
BRANCH   5   6
ATOM      6  C   UNL     1      49.196 -28.353 -32.053  1.00  0.00     0.004 C 
ATOM      7  C   UNL     1      47.759 -28.733 -32.409  1.00  0.00     0.004 C 
ENDBRANCH   5   6
BRANCH   5   8
ATOM      8  C   UNL     1      51.030 -29.007 -30.332  1.00  0.00    -0.011 C 
ATOM      9  C   UNL     1      51.831 -29.192 -31.632  1.00  0.00     0.008 C 
ATOM     10  C   UNL     1      51.201 -30.235 -29.422  1.00  0.00     0.008 C 
ENDBRANCH   5   8
ENDBRANCH   4   5
ENDBRANCH   1   3
BRANCH   1  11
ATOM     11  C   UNL     1      46.400 -28.978 -28.057  1.00  0.00     0.002 C 
ATOM     12  C   UNL     1      45.760 -27.713 -28.648  1.00  0.00     0.005 C 
ATOM     13  C   UNL     1      45.784 -30.205 -28.853  1.00  0.00    -0.023 C 
ATOM     14  C   UNL     1      45.190 -28.102 -29.996  1.00  0.00     0.009 C 
ATOM     15  C   UNL     1      44.780 -29.570 -29.881  1.00  0.00     0.021 C 
ATOM     16  C   UNL     1      45.083 -31.206 -27.887  1.00  0.00     0.008 C 
ATOM     17  C   UNL     1      46.835 -31.015 -29.656  1.00  0.00     0.012 C 
ATOM     18  C   UNL     1      43.279 -29.691 -29.581  1.00  0.00    -0.067 C 
ATOM     19  C   UNL     1      43.786 -30.655 -27.294  1.00  0.00     0.009 C 
ATOM     20  C   UNL     1      42.723 -30.459 -28.385  1.00  0.00     0.021 C 
ATOM     21  C   UNL     1      42.414 -29.305 -30.543  1.00  0.00    -0.027 C 
ATOM     22  C   UNL     1      41.304 -29.934 -27.849  1.00  0.00    -0.023 C 
ATOM     23  C   UNL     1      40.934 -29.428 -30.339  1.00  0.00     0.031 C 
ATOM     24  C   UNL     1      40.612 -28.988 -28.903  1.00  0.00     0.002 C 
ATOM     25  C   UNL     1      40.409 -31.190 -27.578  1.00  0.00     0.010 C 
ATOM     26  C   UNL     1      41.451 -29.127 -26.526  1.00  0.00     0.012 C 
ATOM     27  C   UNL     1      39.092 -28.775 -28.684  1.00  0.00     0.036 C 
ATOM     28  C   UNL     1      38.938 -30.870 -27.291  1.00  0.00     0.032 C 
ATOM     29  C   UNL     1      38.308 -30.073 -28.435  1.00  0.00     0.114 C 
BRANCH  29  30
ATOM     30  O   UNL     1      38.255 -30.857 -29.599  1.00  0.00    -0.393 OA
ATOM     31  H   UNL     1      38.910 -30.467 -30.235  1.00  0.00     0.210 HD
ENDBRANCH  29  30
ENDBRANCH   1  11
TORSDOF 6
ENDMDL
MODEL 8
REMARK VINA RESULT:    -5.821      3.888      5.754
REMARK INTER + INTRA:          -9.598
REMARK INTER:                  -8.405
REMARK INTRA:                  -1.192
REMARK UNBOUND:                -1.905
REMARK SMILES CC[C@H](C=C[C@@H](C)[C@H]1CC[C@@H]2C3=CC[C@H]4C[C@@H](O)CC[C@@]4(C)[C@@H]3CC[C@@]21C)C(C)C
REMARK SMILES IDX 6 1 7 2 5 3 4 4 3 5 2 6 1 7 28 8 29 9 30 10 8 11 9 12 26 13
REMARK SMILES IDX 10 14 11 15 25 16 27 17 12 18 24 19 23 20 13 21 21 22 14 23
REMARK SMILES IDX 15 24 20 25 22 26 16 27 19 28 17 29 18 30
REMARK H PARENT 18 31
REMARK Flexibility Score: inf
ROOT
ATOM      1  C   UNL     1      54.139 -42.946 -27.042  1.00  0.00     0.012 C 
ATOM      2  C   UNL     1      54.832 -44.125 -26.326  1.00  0.00     0.012 C 
ENDROOT
BRANCH   1   3
ATOM      3  C   UNL     1      54.153 -43.114 -28.556  1.00  0.00    -0.028 C 
ATOM      4  C   UNL     1      53.295 -42.540 -29.421  1.00  0.00    -0.027 C 
BRANCH   4   5
ATOM      5  C   UNL     1      52.110 -41.662 -29.056  1.00  0.00     0.014 C 
BRANCH   5   6
ATOM      6  C   UNL     1      51.975 -40.506 -30.080  1.00  0.00     0.004 C 
ATOM      7  C   UNL     1      52.687 -40.819 -31.395  1.00  0.00     0.004 C 
ENDBRANCH   5   6
BRANCH   5   8
ATOM      8  C   UNL     1      50.821 -42.536 -28.939  1.00  0.00    -0.011 C 
ATOM      9  C   UNL     1      50.746 -43.665 -29.981  1.00  0.00     0.008 C 
ATOM     10  C   UNL     1      49.541 -41.684 -28.982  1.00  0.00     0.008 C 
ENDBRANCH   5   8
ENDBRANCH   4   5
ENDBRANCH   1   3
BRANCH   1  11
ATOM     11  C   UNL     1      54.623 -41.513 -26.606  1.00  0.00     0.002 C 
ATOM     12  C   UNL     1      54.675 -41.368 -25.077  1.00  0.00     0.005 C 
ATOM     13  C   UNL     1      55.970 -40.884 -27.162  1.00  0.00    -0.023 C 
ATOM     14  C   UNL     1      56.124 -41.126 -24.712  1.00  0.00     0.009 C 
ATOM     15  C   UNL     1      56.746 -40.378 -25.893  1.00  0.00     0.021 C 
ATOM     16  C   UNL     1      55.677 -39.733 -28.170  1.00  0.00     0.008 C 
ATOM     17  C   UNL     1      56.877 -41.906 -27.896  1.00  0.00     0.012 C 
ATOM     18  C   UNL     1      56.769 -38.867 -25.625  1.00  0.00    -0.067 C 
ATOM     19  C   UNL     1      55.110 -38.481 -27.499  1.00  0.00     0.009 C 
ATOM     20  C   UNL     1      56.148 -37.840 -26.567  1.00  0.00     0.021 C 
ATOM     21  C   UNL     1      57.577 -38.416 -24.641  1.00  0.00    -0.027 C 
ATOM     22  C   UNL     1      55.660 -36.484 -25.858  1.00  0.00    -0.023 C 
ATOM     23  C   UNL     1      57.682 -36.951 -24.345  1.00  0.00     0.031 C 
ATOM     24  C   UNL     1      56.272 -36.348 -24.411  1.00  0.00     0.002 C 
ATOM     25  C   UNL     1      56.124 -35.290 -26.757  1.00  0.00     0.010 C 
ATOM     26  C   UNL     1      54.111 -36.434 -25.715  1.00  0.00     0.012 C 
ATOM     27  C   UNL     1      56.219 -34.916 -23.817  1.00  0.00     0.036 C 
ATOM     28  C   UNL     1      55.956 -33.909 -26.112  1.00  0.00     0.032 C 
ATOM     29  C   UNL     1      56.704 -33.822 -24.780  1.00  0.00     0.114 C 
BRANCH  29  30
ATOM     30  O   UNL     1      58.088 -33.921 -24.994  1.00  0.00    -0.393 OA
ATOM     31  H   UNL     1      58.213 -34.511 -25.783  1.00  0.00     0.210 HD
ENDBRANCH  29  30
ENDBRANCH   1  11
TORSDOF 6
ENDMDL
MODEL 9
REMARK VINA RESULT:    -5.809      3.674      8.446
REMARK INTER + INTRA:          -9.581
REMARK INTER:                  -7.560
REMARK INTRA:                  -2.022
REMARK UNBOUND:                -1.905
REMARK SMILES CC[C@H](C=C[C@@H](C)[C@H]1CC[C@@H]2C3=CC[C@H]4C[C@@H](O)CC[C@@]4(C)[C@@H]3CC[C@@]21C)C(C)C
REMARK SMILES IDX 6 1 7 2 5 3 4 4 3 5 2 6 1 7 28 8 29 9 30 10 8 11 9 12 26 13
REMARK SMILES IDX 10 14 11 15 25 16 27 17 12 18 24 19 23 20 13 21 21 22 14 23
REMARK SMILES IDX 15 24 20 25 22 26 16 27 19 28 17 29 18 30
REMARK H PARENT 18 31
REMARK Flexibility Score: inf
ROOT
ATOM      1  C   UNL     1      55.334 -36.799 -22.490  1.00  0.00     0.012 C 
ATOM      2  C   UNL     1      55.091 -37.419 -21.098  1.00  0.00     0.012 C 
ENDROOT
BRANCH   1   3
ATOM      3  C   UNL     1      54.428 -35.601 -22.743  1.00  0.00    -0.028 C 
ATOM      4  C   UNL     1      54.819 -34.403 -23.220  1.00  0.00    -0.027 C 
BRANCH   4   5
ATOM      5  C   UNL     1      56.245 -33.992 -23.543  1.00  0.00     0.014 C 
BRANCH   5   6
ATOM      6  C   UNL     1      56.406 -33.804 -25.074  1.00  0.00     0.004 C 
ATOM      7  C   UNL     1      55.077 -33.473 -25.753  1.00  0.00     0.004 C 
ENDBRANCH   5   6
BRANCH   5   8
ATOM      8  C   UNL     1      56.628 -32.720 -22.722  1.00  0.00    -0.011 C 
ATOM      9  C   UNL     1      55.436 -31.791 -22.436  1.00  0.00     0.008 C 
ATOM     10  C   UNL     1      57.774 -31.931 -23.379  1.00  0.00     0.008 C 
ENDBRANCH   5   8
ENDBRANCH   4   5
ENDBRANCH   1   3
BRANCH   1  11
ATOM     11  C   UNL     1      55.315 -37.813 -23.693  1.00  0.00     0.002 C 
ATOM     12  C   UNL     1      54.220 -37.468 -24.715  1.00  0.00     0.005 C 
ATOM     13  C   UNL     1      56.623 -38.137 -24.531  1.00  0.00    -0.023 C 
ATOM     14  C   UNL     1      54.926 -37.133 -26.012  1.00  0.00     0.009 C 
ATOM     15  C   UNL     1      56.203 -37.974 -26.036  1.00  0.00     0.021 C 
ATOM     16  C   UNL     1      57.149 -39.570 -24.219  1.00  0.00     0.008 C 
ATOM     17  C   UNL     1      57.794 -37.158 -24.257  1.00  0.00     0.012 C 
ATOM     18  C   UNL     1      55.995 -39.251 -26.862  1.00  0.00    -0.067 C 
ATOM     19  C   UNL     1      56.250 -40.671 -24.781  1.00  0.00     0.009 C 
ATOM     20  C   UNL     1      56.252 -40.652 -26.316  1.00  0.00     0.021 C 
ATOM     21  C   UNL     1      55.808 -39.114 -28.192  1.00  0.00    -0.027 C 
ATOM     22  C   UNL     1      55.377 -41.812 -26.999  1.00  0.00    -0.023 C 
ATOM     23  C   UNL     1      55.636 -40.316 -29.071  1.00  0.00     0.031 C 
ATOM     24  C   UNL     1      54.721 -41.312 -28.343  1.00  0.00     0.002 C 
ATOM     25  C   UNL     1      56.332 -43.020 -27.279  1.00  0.00     0.010 C 
ATOM     26  C   UNL     1      54.224 -42.288 -26.067  1.00  0.00     0.012 C 
ATOM     27  C   UNL     1      54.223 -42.442 -29.281  1.00  0.00     0.036 C 
ATOM     28  C   UNL     1      55.720 -44.125 -28.149  1.00  0.00     0.032 C 
ATOM     29  C   UNL     1      55.241 -43.573 -29.493  1.00  0.00     0.114 C 
BRANCH  29  30
ATOM     30  O   UNL     1      56.336 -43.124 -30.250  1.00  0.00    -0.393 OA
ATOM     31  H   UNL     1      57.084 -43.751 -30.068  1.00  0.00     0.210 HD
ENDBRANCH  29  30
ENDBRANCH   1  11
TORSDOF 6
ENDMDL
