MODEL 1
REMARK VINA RESULT:    -4.171      0.000      0.000
REMARK INTER + INTRA:          -7.906
REMARK INTER:                  -6.610
REMARK INTRA:                  -1.296
REMARK UNBOUND:                -1.296
REMARK SMILES CCCCCCCCCCCC(=O)[O-]
REMARK SMILES IDX 7 1 8 2 9 3 10 4 11 5 12 6 13 7 14 8 6 9 5 10 4 11 3 12 2 13
REMARK SMILES IDX 1 14
REMARK H PARENT
REMARK Flexibility Score: inf
ROOT
ATOM      1  C   UNL     1      -0.244  43.119  23.515  1.00  0.00     0.000 C 
ENDROOT
BRANCH   1   2
ATOM      2  C   UNL     1      -0.454  43.308  22.004  1.00  0.00     0.000 C 
BRANCH   2   3
ATOM      3  C   UNL     1      -1.522  44.368  21.687  1.00  0.00     0.000 C 
BRANCH   3   4
ATOM      4  C   UNL     1      -2.260  44.091  20.365  1.00  0.00     0.006 C 
BRANCH   4   5
ATOM      5  C   UNL     1      -3.375  45.112  20.100  1.00  0.00     0.053 C 
BRANCH   5   6
ATOM      6  C   UNL     1      -4.595  44.462  19.523  1.00  0.00     0.041 C 
ATOM      7  O   UNL     1      -4.866  44.593  18.301  1.00  0.00    -0.550 OA
ATOM      8  O   UNL     1      -5.451  43.740  20.345  1.00  0.00    -0.550 OA
ENDBRANCH   5   6
ENDBRANCH   4   5
ENDBRANCH   3   4
ENDBRANCH   2   3
ENDBRANCH   1   2
BRANCH   1   9
ATOM      9  C   UNL     1      -1.058  44.115  24.364  1.00  0.00     0.000 C 
BRANCH   9  10
ATOM     10  C   UNL     1      -2.187  43.486  25.201  1.00  0.00    -0.000 C 
BRANCH  10  11
ATOM     11  C   UNL     1      -3.470  44.334  25.205  1.00  0.00    -0.000 C 
BRANCH  11  12
ATOM     12  C   UNL     1      -4.266  44.210  23.896  1.00  0.00    -0.000 C 
BRANCH  12  13
ATOM     13  C   UNL     1      -4.812  45.560  23.408  1.00  0.00    -0.003 C 
ATOM     14  C   UNL     1      -3.771  46.664  23.567  1.00  0.00     0.004 C 
ENDBRANCH  12  13
ENDBRANCH  11  12
ENDBRANCH  10  11
ENDBRANCH   9  10
ENDBRANCH   1   9
TORSDOF 10
ENDMDL
MODEL 2
REMARK VINA RESULT:    -3.979      2.667      5.779
REMARK INTER + INTRA:          -7.601
REMARK INTER:                  -6.514
REMARK INTRA:                  -1.087
REMARK UNBOUND:                -1.296
REMARK SMILES CCCCCCCCCCCC(=O)[O-]
REMARK SMILES IDX 7 1 8 2 9 3 10 4 11 5 12 6 13 7 14 8 6 9 5 10 4 11 3 12 2 13
REMARK SMILES IDX 1 14
REMARK H PARENT
REMARK Flexibility Score: inf
ROOT
ATOM      1  C   UNL     1      -5.112  43.818  19.917  1.00  0.00     0.000 C 
ENDROOT
BRANCH   1   2
ATOM      2  C   UNL     1      -4.835  44.201  21.381  1.00  0.00     0.000 C 
BRANCH   2   3
ATOM      3  C   UNL     1      -3.770  45.302  21.508  1.00  0.00     0.000 C 
BRANCH   3   4
ATOM      4  C   UNL     1      -3.103  45.326  22.896  1.00  0.00     0.006 C 
BRANCH   4   5
ATOM      5  C   UNL     1      -4.004  45.968  23.960  1.00  0.00     0.053 C 
BRANCH   5   6
ATOM      6  C   UNL     1      -4.375  44.991  25.033  1.00  0.00     0.041 C 
ATOM      7  O   UNL     1      -4.710  43.816  24.733  1.00  0.00    -0.550 OA
ATOM      8  O   UNL     1      -4.382  45.391  26.363  1.00  0.00    -0.550 OA
ENDBRANCH   5   6
ENDBRANCH   4   5
ENDBRANCH   3   4
ENDBRANCH   2   3
ENDBRANCH   1   2
BRANCH   1   9
ATOM      9  C   UNL     1      -4.344  44.696  18.911  1.00  0.00     0.000 C 
BRANCH   9  10
ATOM     10  C   UNL     1      -4.060  44.031  17.552  1.00  0.00    -0.000 C 
BRANCH  10  11
ATOM     11  C   UNL     1      -2.591  43.605  17.390  1.00  0.00    -0.000 C 
BRANCH  11  12
ATOM     12  C   UNL     1      -1.691  44.152  18.509  1.00  0.00    -0.000 C 
BRANCH  12  13
ATOM     13  C   UNL     1      -1.000  43.036  19.308  1.00  0.00    -0.003 C 
ATOM     14  C   UNL     1      -0.683  43.494  20.728  1.00  0.00     0.004 C 
ENDBRANCH  12  13
ENDBRANCH  11  12
ENDBRANCH  10  11
ENDBRANCH   9  10
ENDBRANCH   1   9
TORSDOF 10
ENDMDL
MODEL 3
REMARK VINA RESULT:    -3.958      3.048      5.320
REMARK INTER + INTRA:          -7.569
REMARK INTER:                  -6.635
REMARK INTRA:                  -0.933
REMARK UNBOUND:                -1.296
REMARK SMILES CCCCCCCCCCCC(=O)[O-]
REMARK SMILES IDX 7 1 8 2 9 3 10 4 11 5 12 6 13 7 14 8 6 9 5 10 4 11 3 12 2 13
REMARK SMILES IDX 1 14
REMARK H PARENT
REMARK Flexibility Score: inf
ROOT
ATOM      1  C   UNL     1      -2.360  44.353  20.326  1.00  0.00     0.000 C 
ENDROOT
BRANCH   1   2
ATOM      2  C   UNL     1      -2.191  44.672  21.820  1.00  0.00     0.000 C 
BRANCH   2   3
ATOM      3  C   UNL     1      -1.034  43.889  22.461  1.00  0.00     0.000 C 
BRANCH   3   4
ATOM      4  C   UNL     1      -0.789  44.286  23.929  1.00  0.00     0.006 C 
BRANCH   4   5
ATOM      5  C   UNL     1      -0.683  43.062  24.848  1.00  0.00     0.053 C 
BRANCH   5   6
ATOM      6  C   UNL     1      -1.865  42.953  25.763  1.00  0.00     0.041 C 
ATOM      7  O   UNL     1      -2.826  43.759  25.656  1.00  0.00    -0.550 OA
ATOM      8  O   UNL     1      -1.888  41.980  26.754  1.00  0.00    -0.550 OA
ENDBRANCH   5   6
ENDBRANCH   4   5
ENDBRANCH   3   4
ENDBRANCH   2   3
ENDBRANCH   1   2
BRANCH   1   9
ATOM      9  C   UNL     1      -3.542  45.102  19.682  1.00  0.00     0.000 C 
BRANCH   9  10
ATOM     10  C   UNL     1      -4.715  44.209  19.239  1.00  0.00    -0.000 C 
BRANCH  10  11
ATOM     11  C   UNL     1      -5.470  43.582  20.424  1.00  0.00    -0.000 C 
BRANCH  11  12
ATOM     12  C   UNL     1      -5.422  42.046  20.409  1.00  0.00    -0.000 C 
BRANCH  12  13
ATOM     13  C   UNL     1      -5.490  41.440  21.819  1.00  0.00    -0.003 C 
ATOM     14  C   UNL     1      -4.320  41.913  22.676  1.00  0.00     0.004 C 
ENDBRANCH  12  13
ENDBRANCH  11  12
ENDBRANCH  10  11
ENDBRANCH   9  10
ENDBRANCH   1   9
TORSDOF 10
ENDMDL
MODEL 4
REMARK VINA RESULT:    -3.957      2.770      5.218
REMARK INTER + INTRA:          -7.567
REMARK INTER:                  -6.044
REMARK INTRA:                  -1.523
REMARK UNBOUND:                -1.296
REMARK SMILES CCCCCCCCCCCC(=O)[O-]
REMARK SMILES IDX 7 1 8 2 9 3 10 4 11 5 12 6 13 7 14 8 6 9 5 10 4 11 3 12 2 13
REMARK SMILES IDX 1 14
REMARK H PARENT
REMARK Flexibility Score: inf
ROOT
ATOM      1  C   UNL     1      -5.287  42.089  20.499  1.00  0.00     0.000 C 
ENDROOT
BRANCH   1   2
ATOM      2  C   UNL     1      -5.146  41.624  21.958  1.00  0.00     0.000 C 
BRANCH   2   3
ATOM      3  C   UNL     1      -3.699  41.249  22.318  1.00  0.00     0.000 C 
BRANCH   3   4
ATOM      4  C   UNL     1      -3.246  41.851  23.661  1.00  0.00     0.006 C 
BRANCH   4   5
ATOM      5  C   UNL     1      -4.268  42.850  24.221  1.00  0.00     0.053 C 
BRANCH   5   6
ATOM      6  C   UNL     1      -3.604  43.943  25.000  1.00  0.00     0.041 C 
ATOM      7  O   UNL     1      -3.975  45.138  24.859  1.00  0.00    -0.550 OA
ATOM      8  O   UNL     1      -2.553  43.645  25.858  1.00  0.00    -0.550 OA
ENDBRANCH   5   6
ENDBRANCH   4   5
ENDBRANCH   3   4
ENDBRANCH   2   3
ENDBRANCH   1   2
BRANCH   1   9
ATOM      9  C   UNL     1      -5.505  43.608  20.372  1.00  0.00     0.000 C 
BRANCH   9  10
ATOM     10  C   UNL     1      -4.733  44.282  19.222  1.00  0.00    -0.000 C 
BRANCH  10  11
ATOM     11  C   UNL     1      -3.543  45.124  19.714  1.00  0.00    -0.000 C 
BRANCH  11  12
ATOM     12  C   UNL     1      -3.420  45.135  21.246  1.00  0.00    -0.000 C 
BRANCH  12  13
ATOM     13  C   UNL     1      -2.063  44.604  21.733  1.00  0.00    -0.003 C 
ATOM     14  C   UNL     1      -1.366  43.798  20.641  1.00  0.00     0.004 C 
ENDBRANCH  12  13
ENDBRANCH  11  12
ENDBRANCH  10  11
ENDBRANCH   9  10
ENDBRANCH   1   9
TORSDOF 10
ENDMDL
MODEL 5
REMARK VINA RESULT:    -3.945      2.504      4.681
REMARK INTER + INTRA:          -7.547
REMARK INTER:                  -6.334
REMARK INTRA:                  -1.214
REMARK UNBOUND:                -1.296
REMARK SMILES CCCCCCCCCCCC(=O)[O-]
REMARK SMILES IDX 7 1 8 2 9 3 10 4 11 5 12 6 13 7 14 8 6 9 5 10 4 11 3 12 2 13
REMARK SMILES IDX 1 14
REMARK H PARENT
REMARK Flexibility Score: inf
ROOT
ATOM      1  C   UNL     1      -0.997  43.532  20.019  1.00  0.00     0.000 C 
ENDROOT
BRANCH   1   2
ATOM      2  C   UNL     1      -1.731  43.435  21.366  1.00  0.00     0.000 C 
BRANCH   2   3
ATOM      3  C   UNL     1      -0.852  43.875  22.548  1.00  0.00     0.000 C 
BRANCH   3   4
ATOM      4  C   UNL     1      -1.627  44.705  23.588  1.00  0.00     0.006 C 
BRANCH   4   5
ATOM      5  C   UNL     1      -3.044  45.052  23.111  1.00  0.00     0.053 C 
BRANCH   5   6
ATOM      6  C   UNL     1      -3.767  45.910  24.103  1.00  0.00     0.041 C 
ATOM      7  O   UNL     1      -4.312  45.391  25.113  1.00  0.00    -0.550 OA
ATOM      8  O   UNL     1      -3.867  47.279  23.894  1.00  0.00    -0.550 OA
ENDBRANCH   5   6
ENDBRANCH   4   5
ENDBRANCH   3   4
ENDBRANCH   2   3
ENDBRANCH   1   2
BRANCH   1   9
ATOM      9  C   UNL     1      -1.827  44.239  18.932  1.00  0.00     0.000 C 
BRANCH   9  10
ATOM     10  C   UNL     1      -3.058  45.006  19.449  1.00  0.00    -0.000 C 
BRANCH  10  11
ATOM     11  C   UNL     1      -4.346  44.654  18.685  1.00  0.00    -0.000 C 
BRANCH  11  12
ATOM     12  C   UNL     1      -5.022  43.382  19.222  1.00  0.00    -0.000 C 
BRANCH  12  13
ATOM     13  C   UNL     1      -5.409  43.501  20.703  1.00  0.00    -0.003 C 
ATOM     14  C   UNL     1      -5.171  42.186  21.440  1.00  0.00     0.004 C 
ENDBRANCH  12  13
ENDBRANCH  11  12
ENDBRANCH  10  11
ENDBRANCH   9  10
ENDBRANCH   1   9
TORSDOF 10
ENDMDL
MODEL 6
REMARK VINA RESULT:    -3.919      0.977      3.187
REMARK INTER + INTRA:          -7.507
REMARK INTER:                  -6.339
REMARK INTRA:                  -1.167
REMARK UNBOUND:                -1.296
REMARK SMILES CCCCCCCCCCCC(=O)[O-]
REMARK SMILES IDX 7 1 8 2 9 3 10 4 11 5 12 6 13 7 14 8 6 9 5 10 4 11 3 12 2 13
REMARK SMILES IDX 1 14
REMARK H PARENT
REMARK Flexibility Score: inf
ROOT
ATOM      1  C   UNL     1      -4.583  43.718  23.080  1.00  0.00     0.000 C 
ENDROOT
BRANCH   1   2
ATOM      2  C   UNL     1      -4.744  45.238  22.912  1.00  0.00     0.000 C 
BRANCH   2   3
ATOM      3  C   UNL     1      -3.688  45.841  21.972  1.00  0.00     0.000 C 
BRANCH   3   4
ATOM      4  C   UNL     1      -3.115  44.809  20.983  1.00  0.00     0.006 C 
BRANCH   4   5
ATOM      5  C   UNL     1      -3.376  45.200  19.523  1.00  0.00     0.053 C 
BRANCH   5   6
ATOM      6  C   UNL     1      -4.480  44.386  18.920  1.00  0.00     0.041 C 
ATOM      7  O   UNL     1      -4.587  44.290  17.670  1.00  0.00    -0.550 OA
ATOM      8  O   UNL     1      -5.408  43.760  19.742  1.00  0.00    -0.550 OA
ENDBRANCH   5   6
ENDBRANCH   4   5
ENDBRANCH   3   4
ENDBRANCH   2   3
ENDBRANCH   1   2
BRANCH   1   9
ATOM      9  C   UNL     1      -4.359  43.297  24.544  1.00  0.00     0.000 C 
BRANCH   9  10
ATOM     10  C   UNL     1      -3.157  43.964  25.237  1.00  0.00    -0.000 C 
BRANCH  10  11
ATOM     11  C   UNL     1      -1.811  43.342  24.828  1.00  0.00    -0.000 C 
BRANCH  11  12
ATOM     12  C   UNL     1      -0.948  44.299  23.990  1.00  0.00    -0.000 C 
BRANCH  12  13
ATOM     13  C   UNL     1      -0.159  43.571  22.891  1.00  0.00    -0.003 C 
ATOM     14  C   UNL     1       1.326  43.500  23.237  1.00  0.00     0.004 C 
ENDBRANCH  12  13
ENDBRANCH  11  12
ENDBRANCH  10  11
ENDBRANCH   9  10
ENDBRANCH   1   9
TORSDOF 10
ENDMDL
MODEL 7
REMARK VINA RESULT:    -3.905      2.746      4.950
REMARK INTER + INTRA:          -7.485
REMARK INTER:                  -5.943
REMARK INTRA:                  -1.541
REMARK UNBOUND:                -1.296
REMARK SMILES CCCCCCCCCCCC(=O)[O-]
REMARK SMILES IDX 7 1 8 2 9 3 10 4 11 5 12 6 13 7 14 8 6 9 5 10 4 11 3 12 2 13
REMARK SMILES IDX 1 14
REMARK H PARENT
REMARK Flexibility Score: inf
ROOT
ATOM      1  C   UNL     1      -3.472  44.713  19.232  1.00  0.00     0.000 C 
ENDROOT
BRANCH   1   2
ATOM      2  C   UNL     1      -3.176  45.086  20.694  1.00  0.00     0.000 C 
BRANCH   2   3
ATOM      3  C   UNL     1      -1.884  44.436  21.217  1.00  0.00     0.000 C 
BRANCH   3   4
ATOM      4  C   UNL     1      -1.790  44.455  22.753  1.00  0.00     0.006 C 
BRANCH   4   5
ATOM      5  C   UNL     1      -2.934  45.252  23.394  1.00  0.00     0.053 C 
BRANCH   5   6
ATOM      6  C   UNL     1      -3.498  44.549  24.590  1.00  0.00     0.041 C 
ATOM      7  O   UNL     1      -2.751  43.854  25.328  1.00  0.00    -0.550 OA
ATOM      8  O   UNL     1      -4.855  44.635  24.870  1.00  0.00    -0.550 OA
ENDBRANCH   5   6
ENDBRANCH   4   5
ENDBRANCH   3   4
ENDBRANCH   2   3
ENDBRANCH   1   2
BRANCH   1   9
ATOM      9  C   UNL     1      -4.626  43.703  19.091  1.00  0.00     0.000 C 
BRANCH   9  10
ATOM     10  C   UNL     1      -5.528  43.568  20.332  1.00  0.00    -0.000 C 
BRANCH  10  11
ATOM     11  C   UNL     1      -5.600  42.127  20.865  1.00  0.00    -0.000 C 
BRANCH  11  12
ATOM     12  C   UNL     1      -4.887  41.960  22.216  1.00  0.00    -0.000 C 
BRANCH  12  13
ATOM     13  C   UNL     1      -3.513  41.287  22.077  1.00  0.00    -0.003 C 
ATOM     14  C   UNL     1      -3.385  40.570  20.736  1.00  0.00     0.004 C 
ENDBRANCH  12  13
ENDBRANCH  11  12
ENDBRANCH  10  11
ENDBRANCH   9  10
ENDBRANCH   1   9
TORSDOF 10
ENDMDL
MODEL 8
REMARK VINA RESULT:    -3.895      2.518      4.829
REMARK INTER + INTRA:          -7.469
REMARK INTER:                  -6.093
REMARK INTRA:                  -1.376
REMARK UNBOUND:                -1.296
REMARK SMILES CCCCCCCCCCCC(=O)[O-]
REMARK SMILES IDX 7 1 8 2 9 3 10 4 11 5 12 6 13 7 14 8 6 9 5 10 4 11 3 12 2 13
REMARK SMILES IDX 1 14
REMARK H PARENT
REMARK Flexibility Score: inf
ROOT
ATOM      1  C   UNL     1      -4.667  44.258  19.340  1.00  0.00     0.000 C 
ENDROOT
BRANCH   1   2
ATOM      2  C   UNL     1      -5.468  43.461  20.383  1.00  0.00     0.000 C 
BRANCH   2   3
ATOM      3  C   UNL     1      -5.081  41.974  20.412  1.00  0.00     0.000 C 
BRANCH   3   4
ATOM      4  C   UNL     1      -4.241  41.602  21.647  1.00  0.00     0.006 C 
BRANCH   4   5
ATOM      5  C   UNL     1      -5.075  41.609  22.936  1.00  0.00     0.053 C 
BRANCH   5   6
ATOM      6  C   UNL     1      -4.367  42.319  24.049  1.00  0.00     0.041 C 
ATOM      7  O   UNL     1      -4.855  43.369  24.544  1.00  0.00    -0.550 OA
ATOM      8  O   UNL     1      -3.151  41.838  24.517  1.00  0.00    -0.550 OA
ENDBRANCH   5   6
ENDBRANCH   4   5
ENDBRANCH   3   4
ENDBRANCH   2   3
ENDBRANCH   1   2
BRANCH   1   9
ATOM      9  C   UNL     1      -3.538  45.099  19.965  1.00  0.00     0.000 C 
BRANCH   9  10
ATOM     10  C   UNL     1      -3.707  45.404  21.465  1.00  0.00    -0.000 C 
BRANCH  10  11
ATOM     11  C   UNL     1      -2.536  44.886  22.317  1.00  0.00    -0.000 C 
BRANCH  11  12
ATOM     12  C   UNL     1      -1.466  44.170  21.477  1.00  0.00    -0.000 C 
BRANCH  12  13
ATOM     13  C   UNL     1      -0.523  43.311  22.332  1.00  0.00    -0.003 C 
ATOM     14  C   UNL     1      -0.383  43.884  23.740  1.00  0.00     0.004 C 
ENDBRANCH  12  13
ENDBRANCH  11  12
ENDBRANCH  10  11
ENDBRANCH   9  10
ENDBRANCH   1   9
TORSDOF 10
ENDMDL
MODEL 9
REMARK VINA RESULT:    -3.879      2.326      5.020
REMARK INTER + INTRA:          -7.443
REMARK INTER:                  -6.504
REMARK INTRA:                  -0.938
REMARK UNBOUND:                -1.296
REMARK SMILES CCCCCCCCCCCC(=O)[O-]
REMARK SMILES IDX 7 1 8 2 9 3 10 4 11 5 12 6 13 7 14 8 6 9 5 10 4 11 3 12 2 13
REMARK SMILES IDX 1 14
REMARK H PARENT
REMARK Flexibility Score: inf
ROOT
ATOM      1  C   UNL     1      -1.951  44.178  20.953  1.00  0.00     0.000 C 
ENDROOT
BRANCH   1   2
ATOM      2  C   UNL     1      -1.041  43.978  22.176  1.00  0.00     0.000 C 
BRANCH   2   3
ATOM      3  C   UNL     1      -1.607  44.640  23.443  1.00  0.00     0.000 C 
BRANCH   3   4
ATOM      4  C   UNL     1      -1.669  43.674  24.641  1.00  0.00     0.006 C 
BRANCH   4   5
ATOM      5  C   UNL     1      -2.960  43.843  25.454  1.00  0.00     0.053 C 
BRANCH   5   6
ATOM      6  C   UNL     1      -4.178  43.705  24.594  1.00  0.00     0.041 C 
ATOM      7  O   UNL     1      -4.420  42.618  24.006  1.00  0.00    -0.550 OA
ATOM      8  O   UNL     1      -5.029  44.788  24.416  1.00  0.00    -0.550 OA
ENDBRANCH   5   6
ENDBRANCH   4   5
ENDBRANCH   3   4
ENDBRANCH   2   3
ENDBRANCH   1   2
BRANCH   1   9
ATOM      9  C   UNL     1      -3.210  45.007  21.269  1.00  0.00     0.000 C 
BRANCH   9  10
ATOM     10  C   UNL     1      -4.542  44.344  20.873  1.00  0.00    -0.000 C 
BRANCH  10  11
ATOM     11  C   UNL     1      -4.472  43.629  19.513  1.00  0.00    -0.000 C 
BRANCH  11  12
ATOM     12  C   UNL     1      -4.351  44.609  18.335  1.00  0.00    -0.000 C 
BRANCH  12  13
ATOM     13  C   UNL     1      -4.219  43.892  16.983  1.00  0.00    -0.003 C 
ATOM     14  C   UNL     1      -3.694  42.470  17.164  1.00  0.00     0.004 C 
ENDBRANCH  12  13
ENDBRANCH  11  12
ENDBRANCH  10  11
ENDBRANCH   9  10
ENDBRANCH   1   9
TORSDOF 10
ENDMDL
