MODEL 1
REMARK VINA RESULT:     1.165      0.000      0.000
REMARK INTER + INTRA:           1.720
REMARK INTER:                   1.607
REMARK INTRA:                   0.112
REMARK UNBOUND:                 0.112
REMARK SMILES CC[C@@H](CC[C@@H](C)[C@H]1CC[C@@H]2[C@H]3CC=C4C[C@H](O)CC[C@]4(C)[C@H]3CC[C@@]21C)C(C)C
REMARK SMILES IDX 5 1 4 2 3 3 2 4 1 5 28 6 29 7 30 8 6 9 7 10 8 11 9 12 26 13
REMARK SMILES IDX 10 14 11 15 25 16 27 17 12 18 24 19 23 20 13 21 21 22 14 23
REMARK SMILES IDX 15 24 20 25 22 26 16 27 19 28 17 29 18 30
REMARK H PARENT 18 31
REMARK Flexibility Score: inf
ROOT
ATOM      1  C   UNL     1       0.673  42.102  12.514  1.00  0.00     0.004 C 
ENDROOT
BRANCH   1   2
ATOM      2  C   UNL     1      -0.148  42.341  13.808  1.00  0.00     0.004 C 
BRANCH   2   3
ATOM      3  C   UNL     1      -0.125  41.112  14.763  1.00  0.00    -0.009 C 
BRANCH   3   4
ATOM      4  C   UNL     1      -0.562  39.831  13.999  1.00  0.00     0.000 C 
ATOM      5  C   UNL     1       0.617  38.981  13.514  1.00  0.00     0.004 C 
ENDBRANCH   3   4
BRANCH   3   6
ATOM      6  C   UNL     1      -0.970  41.318  16.063  1.00  0.00    -0.014 C 
ATOM      7  C   UNL     1      -1.124  40.000  16.827  1.00  0.00     0.007 C 
ATOM      8  C   UNL     1      -0.418  42.421  16.976  1.00  0.00     0.007 C 
ENDBRANCH   3   6
ENDBRANCH   2   3
ENDBRANCH   1   2
BRANCH   1   9
ATOM      9  C   UNL     1       2.184  42.473  12.586  1.00  0.00    -0.011 C 
ATOM     10  C   UNL     1       3.013  41.599  11.622  1.00  0.00     0.008 C 
BRANCH   9  11
ATOM     11  C   UNL     1       2.399  43.989  12.230  1.00  0.00    -0.002 C 
ATOM     12  C   UNL     1       3.781  44.542  12.605  1.00  0.00     0.005 C 
ATOM     13  C   UNL     1       2.148  44.475  10.741  1.00  0.00    -0.026 C 
ATOM     14  C   UNL     1       3.944  45.790  11.778  1.00  0.00     0.005 C 
ATOM     15  C   UNL     1       3.378  45.392  10.427  1.00  0.00    -0.001 C 
ATOM     16  C   UNL     1       0.798  45.257  10.688  1.00  0.00     0.007 C 
ATOM     17  C   UNL     1       2.134  43.324   9.697  1.00  0.00     0.012 C 
ATOM     18  C   UNL     1       3.186  46.613   9.474  1.00  0.00     0.000 C 
ATOM     19  C   UNL     1       0.687  46.210   9.503  1.00  0.00     0.005 C 
ATOM     20  C   UNL     1       1.795  47.288   9.557  1.00  0.00     0.003 C 
ATOM     21  C   UNL     1       3.515  46.291   8.009  1.00  0.00     0.031 C 
ATOM     22  C   UNL     1       1.643  48.505   8.510  1.00  0.00    -0.008 C 
ATOM     23  C   UNL     1       3.633  47.575   7.256  1.00  0.00    -0.027 C 
ATOM     24  C   UNL     1       2.832  48.618   7.522  1.00  0.00    -0.065 C 
ATOM     25  C   UNL     1       1.577  49.827   9.344  1.00  0.00     0.014 C 
ATOM     26  C   UNL     1       0.347  48.393   7.656  1.00  0.00     0.016 C 
ATOM     27  C   UNL     1       3.029  49.904   6.742  1.00  0.00     0.063 C 
ATOM     28  C   UNL     1       1.688  51.114   8.506  1.00  0.00     0.033 C 
ATOM     29  C   UNL     1       2.969  51.125   7.666  1.00  0.00     0.118 C 
BRANCH  29  30
ATOM     30  O   UNL     1       4.099  51.125   8.512  1.00  0.00    -0.393 OA
ATOM     31  H   UNL     1       3.768  51.098   9.449  1.00  0.00     0.210 HD
ENDBRANCH  29  30
ENDBRANCH   9  11
ENDBRANCH   1   9
TORSDOF 7
ENDMDL
MODEL 2
REMARK VINA RESULT:     4.068      2.588      8.728
REMARK INTER + INTRA:           5.726
REMARK INTER:                   5.956
REMARK INTRA:                  -0.230
REMARK UNBOUND:                 0.112
REMARK SMILES CC[C@@H](CC[C@@H](C)[C@H]1CC[C@@H]2[C@H]3CC=C4C[C@H](O)CC[C@]4(C)[C@H]3CC[C@@]21C)C(C)C
REMARK SMILES IDX 5 1 4 2 3 3 2 4 1 5 28 6 29 7 30 8 6 9 7 10 8 11 9 12 26 13
REMARK SMILES IDX 10 14 11 15 25 16 27 17 12 18 24 19 23 20 13 21 21 22 14 23
REMARK SMILES IDX 15 24 20 25 22 26 16 27 19 28 17 29 18 30
REMARK H PARENT 18 31
REMARK Flexibility Score: inf
ROOT
ATOM      1  C   UNL     1       3.385  46.842   8.113  1.00  0.00     0.004 C 
ENDROOT
BRANCH   1   2
ATOM      2  C   UNL     1       3.373  48.378   7.901  1.00  0.00     0.004 C 
BRANCH   2   3
ATOM      3  C   UNL     1       2.047  49.036   8.384  1.00  0.00    -0.009 C 
BRANCH   3   4
ATOM      4  C   UNL     1       0.831  48.365   7.686  1.00  0.00     0.000 C 
ATOM      5  C   UNL     1      -0.099  47.631   8.658  1.00  0.00     0.004 C 
ENDBRANCH   3   4
BRANCH   3   6
ATOM      6  C   UNL     1       2.022  50.589   8.206  1.00  0.00    -0.014 C 
ATOM      7  C   UNL     1       3.352  51.094   7.639  1.00  0.00     0.007 C 
ATOM      8  C   UNL     1       0.841  51.083   7.360  1.00  0.00     0.007 C 
ENDBRANCH   3   6
ENDBRANCH   2   3
ENDBRANCH   1   2
BRANCH   1   9
ATOM      9  C   UNL     1       4.637  46.262   8.836  1.00  0.00    -0.011 C 
ATOM     10  C   UNL     1       5.688  47.363   9.088  1.00  0.00     0.008 C 
BRANCH   9  11
ATOM     11  C   UNL     1       4.231  45.608  10.207  1.00  0.00    -0.002 C 
ATOM     12  C   UNL     1       4.099  46.598  11.372  1.00  0.00     0.005 C 
ATOM     13  C   UNL     1       2.924  44.711  10.275  1.00  0.00    -0.026 C 
ATOM     14  C   UNL     1       3.269  45.883  12.406  1.00  0.00     0.005 C 
ATOM     15  C   UNL     1       2.201  45.190  11.580  1.00  0.00    -0.001 C 
ATOM     16  C   UNL     1       3.347  43.210  10.352  1.00  0.00     0.007 C 
ATOM     17  C   UNL     1       1.949  44.926   9.084  1.00  0.00     0.012 C 
ATOM     18  C   UNL     1       1.376  44.157  12.410  1.00  0.00     0.000 C 
ATOM     19  C   UNL     1       2.277  42.300  10.944  1.00  0.00     0.005 C 
ATOM     20  C   UNL     1       1.942  42.715  12.396  1.00  0.00     0.003 C 
ATOM     21  C   UNL     1      -0.112  44.130  12.031  1.00  0.00     0.031 C 
ATOM     22  C   UNL     1       1.015  41.688  13.224  1.00  0.00    -0.008 C 
ATOM     23  C   UNL     1      -0.857  43.385  13.088  1.00  0.00    -0.027 C 
ATOM     24  C   UNL     1      -0.326  42.310  13.692  1.00  0.00    -0.065 C 
ATOM     25  C   UNL     1       1.822  41.261  14.496  1.00  0.00     0.014 C 
ATOM     26  C   UNL     1       0.668  40.411  12.406  1.00  0.00     0.016 C 
ATOM     27  C   UNL     1      -1.124  41.619  14.782  1.00  0.00     0.063 C 
ATOM     28  C   UNL     1       0.999  40.482  15.538  1.00  0.00     0.033 C 
ATOM     29  C   UNL     1      -0.236  41.274  15.981  1.00  0.00     0.118 C 
BRANCH  29  30
ATOM     30  O   UNL     1       0.162  42.464  16.626  1.00  0.00    -0.393 OA
ATOM     31  H   UNL     1      -0.660  42.912  16.959  1.00  0.00     0.210 HD
ENDBRANCH  29  30
ENDBRANCH   9  11
ENDBRANCH   1   9
TORSDOF 7
ENDMDL
