MODEL 1
REMARK VINA RESULT:    -3.890      0.000      0.000
REMARK INTER + INTRA:         -10.595
REMARK INTER:                  -7.528
REMARK INTRA:                  -3.067
REMARK UNBOUND:                -3.067
REMARK SMILES CCCCCCCCCCCCCCCCCC(=O)[O-]
REMARK SMILES IDX 10 1 11 2 12 3 13 4 14 5 15 6 16 7 17 8 18 9 19 10 20 11
REMARK SMILES IDX 9 12 8 13 7 14 6 15 5 16 4 17 3 18 2 19 1 20
REMARK H PARENT
REMARK Flexibility Score: inf
ROOT
ATOM      1  C   UNL     1      23.551   5.568  16.570  1.00  0.00     0.000 C 
ENDROOT
BRANCH   1   2
ATOM      2  C   UNL     1      23.440   4.035  16.517  1.00  0.00     0.000 C 
BRANCH   2   3
ATOM      3  C   UNL     1      24.744   3.340  16.073  1.00  0.00     0.000 C 
BRANCH   3   4
ATOM      4  C   UNL     1      24.471   2.046  15.285  1.00  0.00     0.000 C 
BRANCH   4   5
ATOM      5  C   UNL     1      22.999   1.610  15.352  1.00  0.00     0.000 C 
BRANCH   5   6
ATOM      6  C   UNL     1      22.712   0.360  14.507  1.00  0.00     0.000 C 
BRANCH   6   7
ATOM      7  C   UNL     1      21.674   0.662  13.416  1.00  0.00     0.006 C 
BRANCH   7   8
ATOM      8  C   UNL     1      21.415  -0.548  12.509  1.00  0.00     0.053 C 
BRANCH   8   9
ATOM      9  C   UNL     1      20.092  -1.188  12.799  1.00  0.00     0.041 C 
ATOM     10  O   UNL     1      19.245  -1.340  11.880  1.00  0.00    -0.550 OA
ATOM     11  O   UNL     1      19.782  -1.585  14.094  1.00  0.00    -0.550 OA
ENDBRANCH   8   9
ENDBRANCH   7   8
ENDBRANCH   6   7
ENDBRANCH   5   6
ENDBRANCH   4   5
ENDBRANCH   3   4
ENDBRANCH   2   3
ENDBRANCH   1   2
BRANCH   1  12
ATOM     12  C   UNL     1      22.259   6.277  16.134  1.00  0.00     0.000 C 
BRANCH  12  13
ATOM     13  C   UNL     1      21.282   5.328  15.405  1.00  0.00    -0.000 C 
BRANCH  13  14
ATOM     14  C   UNL     1      21.278   5.501  13.874  1.00  0.00    -0.000 C 
BRANCH  14  15
ATOM     15  C   UNL     1      21.631   4.233  13.073  1.00  0.00    -0.000 C 
BRANCH  15  16
ATOM     16  C   UNL     1      23.084   4.168  12.568  1.00  0.00    -0.000 C 
BRANCH  16  17
ATOM     17  C   UNL     1      23.781   5.536  12.572  1.00  0.00    -0.000 C 
BRANCH  17  18
ATOM     18  C   UNL     1      25.208   5.425  13.122  1.00  0.00    -0.000 C 
BRANCH  18  19
ATOM     19  C   UNL     1      25.646   6.734  13.789  1.00  0.00    -0.003 C 
ATOM     20  C   UNL     1      24.584   7.817  13.627  1.00  0.00     0.004 C 
ENDBRANCH  18  19
ENDBRANCH  17  18
ENDBRANCH  16  17
ENDBRANCH  15  16
ENDBRANCH  14  15
ENDBRANCH  13  14
ENDBRANCH  12  13
ENDBRANCH   1  12
TORSDOF 16
ENDMDL
MODEL 2
REMARK VINA RESULT:    -3.708      4.220      8.051
REMARK INTER + INTRA:         -10.244
REMARK INTER:                  -6.883
REMARK INTRA:                  -3.361
REMARK UNBOUND:                -3.067
REMARK SMILES CCCCCCCCCCCCCCCCCC(=O)[O-]
REMARK SMILES IDX 10 1 11 2 12 3 13 4 14 5 15 6 16 7 17 8 18 9 19 10 20 11
REMARK SMILES IDX 9 12 8 13 7 14 6 15 5 16 4 17 3 18 2 19 1 20
REMARK H PARENT
REMARK Flexibility Score: inf
ROOT
ATOM      1  C   UNL     1      20.116  -1.754  14.865  1.00  0.00     0.000 C 
ENDROOT
BRANCH   1   2
ATOM      2  C   UNL     1      20.057  -0.874  16.125  1.00  0.00     0.000 C 
BRANCH   2   3
ATOM      3  C   UNL     1      20.766  -1.501  17.344  1.00  0.00     0.000 C 
BRANCH   3   4
ATOM      4  C   UNL     1      21.728  -0.512  18.026  1.00  0.00     0.000 C 
BRANCH   4   5
ATOM      5  C   UNL     1      22.082   0.685  17.129  1.00  0.00     0.000 C 
BRANCH   5   6
ATOM      6  C   UNL     1      23.576   0.741  16.777  1.00  0.00     0.000 C 
BRANCH   6   7
ATOM      7  C   UNL     1      23.782   0.736  15.255  1.00  0.00     0.006 C 
BRANCH   7   8
ATOM      8  C   UNL     1      22.508   1.126  14.495  1.00  0.00     0.053 C 
BRANCH   8   9
ATOM      9  C   UNL     1      22.672   2.422  13.762  1.00  0.00     0.041 C 
ATOM     10  O   UNL     1      21.857   2.749  12.860  1.00  0.00    -0.550 OA
ATOM     11  O   UNL     1      23.746   3.253  14.054  1.00  0.00    -0.550 OA
ENDBRANCH   8   9
ENDBRANCH   7   8
ENDBRANCH   6   7
ENDBRANCH   5   6
ENDBRANCH   4   5
ENDBRANCH   3   4
ENDBRANCH   2   3
ENDBRANCH   1   2
BRANCH   1  12
ATOM     12  C   UNL     1      21.178  -2.862  14.959  1.00  0.00     0.000 C 
BRANCH  12  13
ATOM     13  C   UNL     1      22.421  -2.564  14.092  1.00  0.00    -0.000 C 
BRANCH  13  14
ATOM     14  C   UNL     1      23.755  -2.901  14.785  1.00  0.00    -0.000 C 
BRANCH  14  15
ATOM     15  C   UNL     1      23.626  -3.683  16.106  1.00  0.00    -0.000 C 
BRANCH  15  16
ATOM     16  C   UNL     1      24.261  -2.999  17.330  1.00  0.00    -0.000 C 
BRANCH  16  17
ATOM     17  C   UNL     1      23.780  -3.591  18.663  1.00  0.00    -0.000 C 
BRANCH  17  18
ATOM     18  C   UNL     1      23.026  -4.908  18.440  1.00  0.00    -0.000 C 
BRANCH  18  19
ATOM     19  C   UNL     1      21.559  -4.783  18.865  1.00  0.00    -0.003 C 
ATOM     20  C   UNL     1      20.621  -5.252  17.758  1.00  0.00     0.004 C 
ENDBRANCH  18  19
ENDBRANCH  17  18
ENDBRANCH  16  17
ENDBRANCH  15  16
ENDBRANCH  14  15
ENDBRANCH  13  14
ENDBRANCH  12  13
ENDBRANCH   1  12
TORSDOF 16
ENDMDL
MODEL 3
REMARK VINA RESULT:    -3.682      4.000      7.197
REMARK INTER + INTRA:         -10.193
REMARK INTER:                  -7.783
REMARK INTRA:                  -2.409
REMARK UNBOUND:                -3.067
REMARK SMILES CCCCCCCCCCCCCCCCCC(=O)[O-]
REMARK SMILES IDX 10 1 11 2 12 3 13 4 14 5 15 6 16 7 17 8 18 9 19 10 20 11
REMARK SMILES IDX 9 12 8 13 7 14 6 15 5 16 4 17 3 18 2 19 1 20
REMARK H PARENT
REMARK Flexibility Score: inf
ROOT
ATOM      1  C   UNL     1      23.108  -0.179  17.481  1.00  0.00     0.000 C 
ENDROOT
BRANCH   1   2
ATOM      2  C   UNL     1      23.425   1.182  16.838  1.00  0.00     0.000 C 
BRANCH   2   3
ATOM      3  C   UNL     1      23.960   1.068  15.395  1.00  0.00     0.000 C 
BRANCH   3   4
ATOM      4  C   UNL     1      22.917   1.512  14.353  1.00  0.00     0.000 C 
BRANCH   4   5
ATOM      5  C   UNL     1      23.223   2.896  13.759  1.00  0.00     0.000 C 
BRANCH   5   6
ATOM      6  C   UNL     1      24.429   3.574  14.427  1.00  0.00     0.000 C 
BRANCH   6   7
ATOM      7  C   UNL     1      24.853   4.829  13.650  1.00  0.00     0.006 C 
BRANCH   7   8
ATOM      8  C   UNL     1      23.822   5.230  12.587  1.00  0.00     0.053 C 
BRANCH   8   9
ATOM      9  C   UNL     1      23.378   6.651  12.752  1.00  0.00     0.041 C 
ATOM     10  O   UNL     1      24.109   7.479  13.357  1.00  0.00    -0.550 OA
ATOM     11  O   UNL     1      22.140   7.053  12.265  1.00  0.00    -0.550 OA
ENDBRANCH   8   9
ENDBRANCH   7   8
ENDBRANCH   6   7
ENDBRANCH   5   6
ENDBRANCH   4   5
ENDBRANCH   3   4
ENDBRANCH   2   3
ENDBRANCH   1   2
BRANCH   1  12
ATOM     12  C   UNL     1      21.696  -0.238  18.088  1.00  0.00     0.000 C 
BRANCH  12  13
ATOM     13  C   UNL     1      20.763  -1.200  17.319  1.00  0.00    -0.000 C 
BRANCH  13  14
ATOM     14  C   UNL     1      20.150  -0.585  16.047  1.00  0.00    -0.000 C 
BRANCH  14  15
ATOM     15  C   UNL     1      20.567  -1.263  14.727  1.00  0.00    -0.000 C 
BRANCH  15  16
ATOM     16  C   UNL     1      21.415  -2.537  14.892  1.00  0.00    -0.000 C 
BRANCH  16  17
ATOM     17  C   UNL     1      22.814  -2.409  14.271  1.00  0.00    -0.000 C 
BRANCH  17  18
ATOM     18  C   UNL     1      23.874  -3.067  15.163  1.00  0.00    -0.000 C 
BRANCH  18  19
ATOM     19  C   UNL     1      23.229  -3.750  16.374  1.00  0.00    -0.003 C 
ATOM     20  C   UNL     1      24.171  -3.746  17.575  1.00  0.00     0.004 C 
ENDBRANCH  18  19
ENDBRANCH  17  18
ENDBRANCH  16  17
ENDBRANCH  15  16
ENDBRANCH  14  15
ENDBRANCH  13  14
ENDBRANCH  12  13
ENDBRANCH   1  12
TORSDOF 16
ENDMDL
MODEL 4
REMARK VINA RESULT:    -3.644      2.073      3.827
REMARK INTER + INTRA:         -10.120
REMARK INTER:                  -7.668
REMARK INTRA:                  -2.451
REMARK UNBOUND:                -3.067
REMARK SMILES CCCCCCCCCCCCCCCCCC(=O)[O-]
REMARK SMILES IDX 10 1 11 2 12 3 13 4 14 5 15 6 16 7 17 8 18 9 19 10 20 11
REMARK SMILES IDX 9 12 8 13 7 14 6 15 5 16 4 17 3 18 2 19 1 20
REMARK H PARENT
REMARK Flexibility Score: inf
ROOT
ATOM      1  C   UNL     1      21.280  -0.433  17.296  1.00  0.00     0.000 C 
ENDROOT
BRANCH   1   2
ATOM      2  C   UNL     1      22.668  -0.933  17.733  1.00  0.00     0.000 C 
BRANCH   2   3
ATOM      3  C   UNL     1      23.025  -2.325  17.168  1.00  0.00     0.000 C 
BRANCH   3   4
ATOM      4  C   UNL     1      23.917  -2.231  15.918  1.00  0.00     0.000 C 
BRANCH   4   5
ATOM      5  C   UNL     1      23.380  -3.060  14.741  1.00  0.00     0.000 C 
BRANCH   5   6
ATOM      6  C   UNL     1      22.453  -2.251  13.820  1.00  0.00     0.000 C 
BRANCH   6   7
ATOM      7  C   UNL     1      20.986  -2.654  14.028  1.00  0.00     0.006 C 
BRANCH   7   8
ATOM      8  C   UNL     1      20.020  -1.497  13.738  1.00  0.00     0.053 C 
BRANCH   8   9
ATOM      9  C   UNL     1      19.410  -1.611  12.375  1.00  0.00     0.041 C 
ATOM     10  O   UNL     1      18.193  -1.907  12.245  1.00  0.00    -0.550 OA
ATOM     11  O   UNL     1      20.196  -1.422  11.244  1.00  0.00    -0.550 OA
ENDBRANCH   8   9
ENDBRANCH   7   8
ENDBRANCH   6   7
ENDBRANCH   5   6
ENDBRANCH   4   5
ENDBRANCH   3   4
ENDBRANCH   2   3
ENDBRANCH   1   2
BRANCH   1  12
ATOM     12  C   UNL     1      21.353   0.762  16.332  1.00  0.00     0.000 C 
BRANCH  12  13
ATOM     13  C   UNL     1      22.793   1.289  16.150  1.00  0.00    -0.000 C 
BRANCH  13  14
ATOM     14  C   UNL     1      23.234   1.394  14.678  1.00  0.00    -0.000 C 
BRANCH  14  15
ATOM     15  C   UNL     1      22.089   1.346  13.648  1.00  0.00    -0.000 C 
BRANCH  15  16
ATOM     16  C   UNL     1      21.880   2.646  12.849  1.00  0.00    -0.000 C 
BRANCH  16  17
ATOM     17  C   UNL     1      22.395   3.891  13.587  1.00  0.00    -0.000 C 
BRANCH  17  18
ATOM     18  C   UNL     1      22.549   5.076  12.625  1.00  0.00    -0.000 C 
BRANCH  18  19
ATOM     19  C   UNL     1      24.025   5.436  12.425  1.00  0.00    -0.003 C 
ATOM     20  C   UNL     1      24.891   4.849  13.536  1.00  0.00     0.004 C 
ENDBRANCH  18  19
ENDBRANCH  17  18
ENDBRANCH  16  17
ENDBRANCH  15  16
ENDBRANCH  14  15
ENDBRANCH  13  14
ENDBRANCH  12  13
ENDBRANCH   1  12
TORSDOF 16
ENDMDL
MODEL 5
REMARK VINA RESULT:    -3.638      3.769      6.802
REMARK INTER + INTRA:         -10.108
REMARK INTER:                  -7.433
REMARK INTRA:                  -2.675
REMARK UNBOUND:                -3.067
REMARK SMILES CCCCCCCCCCCCCCCCCC(=O)[O-]
REMARK SMILES IDX 10 1 11 2 12 3 13 4 14 5 15 6 16 7 17 8 18 9 19 10 20 11
REMARK SMILES IDX 9 12 8 13 7 14 6 15 5 16 4 17 3 18 2 19 1 20
REMARK H PARENT
REMARK Flexibility Score: inf
ROOT
ATOM      1  C   UNL     1      21.076   0.723  17.326  1.00  0.00     0.000 C 
ENDROOT
BRANCH   1   2
ATOM      2  C   UNL     1      22.102  -0.212  17.988  1.00  0.00     0.000 C 
BRANCH   2   3
ATOM      3  C   UNL     1      23.566   0.177  17.691  1.00  0.00     0.000 C 
BRANCH   3   4
ATOM      4  C   UNL     1      23.669   1.521  16.948  1.00  0.00     0.000 C 
BRANCH   4   5
ATOM      5  C   UNL     1      24.242   1.372  15.530  1.00  0.00     0.000 C 
BRANCH   5   6
ATOM      6  C   UNL     1      23.756   2.474  14.576  1.00  0.00     0.000 C 
BRANCH   6   7
ATOM      7  C   UNL     1      22.334   2.180  14.076  1.00  0.00     0.006 C 
BRANCH   7   8
ATOM      8  C   UNL     1      21.983   2.984  12.817  1.00  0.00     0.053 C 
BRANCH   8   9
ATOM      9  C   UNL     1      22.126   4.458  13.042  1.00  0.00     0.041 C 
ATOM     10  O   UNL     1      22.960   5.125  12.375  1.00  0.00    -0.550 OA
ATOM     11  O   UNL     1      21.359   5.090  14.013  1.00  0.00    -0.550 OA
ENDBRANCH   8   9
ENDBRANCH   7   8
ENDBRANCH   6   7
ENDBRANCH   5   6
ENDBRANCH   4   5
ENDBRANCH   3   4
ENDBRANCH   2   3
ENDBRANCH   1   2
BRANCH   1  12
ATOM     12  C   UNL     1      20.030  -0.034  16.490  1.00  0.00     0.000 C 
BRANCH  12  13
ATOM     13  C   UNL     1      20.597  -1.328  15.867  1.00  0.00    -0.000 C 
BRANCH  13  14
ATOM     14  C   UNL     1      20.976  -1.186  14.380  1.00  0.00    -0.000 C 
BRANCH  14  15
ATOM     15  C   UNL     1      22.454  -1.473  14.052  1.00  0.00    -0.000 C 
BRANCH  15  16
ATOM     16  C   UNL     1      22.945  -2.878  14.446  1.00  0.00    -0.000 C 
BRANCH  16  17
ATOM     17  C   UNL     1      23.880  -2.865  15.664  1.00  0.00    -0.000 C 
BRANCH  17  18
ATOM     18  C   UNL     1      23.426  -3.884  16.717  1.00  0.00    -0.000 C 
BRANCH  18  19
ATOM     19  C   UNL     1      24.517  -4.113  17.769  1.00  0.00    -0.003 C 
ATOM     20  C   UNL     1      24.238  -3.310  19.036  1.00  0.00     0.004 C 
ENDBRANCH  18  19
ENDBRANCH  17  18
ENDBRANCH  16  17
ENDBRANCH  15  16
ENDBRANCH  14  15
ENDBRANCH  13  14
ENDBRANCH  12  13
ENDBRANCH   1  12
TORSDOF 16
ENDMDL
MODEL 6
REMARK VINA RESULT:    -3.597      2.981      6.910
REMARK INTER + INTRA:         -10.028
REMARK INTER:                  -7.627
REMARK INTRA:                  -2.401
REMARK UNBOUND:                -3.067
REMARK SMILES CCCCCCCCCCCCCCCCCC(=O)[O-]
REMARK SMILES IDX 10 1 11 2 12 3 13 4 14 5 15 6 16 7 17 8 18 9 19 10 20 11
REMARK SMILES IDX 9 12 8 13 7 14 6 15 5 16 4 17 3 18 2 19 1 20
REMARK H PARENT
REMARK Flexibility Score: inf
ROOT
ATOM      1  C   UNL     1      21.664  -1.406  17.561  1.00  0.00     0.000 C 
ENDROOT
BRANCH   1   2
ATOM      2  C   UNL     1      20.744  -0.541  16.683  1.00  0.00     0.000 C 
BRANCH   2   3
ATOM      3  C   UNL     1      21.421   0.746  16.167  1.00  0.00     0.000 C 
BRANCH   3   4
ATOM      4  C   UNL     1      22.909   0.813  16.555  1.00  0.00     0.000 C 
BRANCH   4   5
ATOM      5  C   UNL     1      23.833   0.971  15.338  1.00  0.00     0.000 C 
BRANCH   5   6
ATOM      6  C   UNL     1      24.710   2.229  15.418  1.00  0.00     0.000 C 
BRANCH   6   7
ATOM      7  C   UNL     1      23.898   3.487  15.076  1.00  0.00     0.006 C 
BRANCH   7   8
ATOM      8  C   UNL     1      23.639   3.619  13.570  1.00  0.00     0.053 C 
BRANCH   8   9
ATOM      9  C   UNL     1      22.183   3.484  13.244  1.00  0.00     0.041 C 
ATOM     10  O   UNL     1      21.396   4.448  13.436  1.00  0.00    -0.550 OA
ATOM     11  O   UNL     1      21.689   2.280  12.757  1.00  0.00    -0.550 OA
ENDBRANCH   8   9
ENDBRANCH   7   8
ENDBRANCH   6   7
ENDBRANCH   5   6
ENDBRANCH   4   5
ENDBRANCH   3   4
ENDBRANCH   2   3
ENDBRANCH   1   2
BRANCH   1  12
ATOM     12  C   UNL     1      21.218  -2.876  17.627  1.00  0.00     0.000 C 
BRANCH  12  13
ATOM     13  C   UNL     1      21.786  -3.719  16.465  1.00  0.00    -0.000 C 
BRANCH  13  14
ATOM     14  C   UNL     1      23.212  -3.313  16.044  1.00  0.00    -0.000 C 
BRANCH  14  15
ATOM     15  C   UNL     1      23.351  -2.826  14.589  1.00  0.00    -0.000 C 
BRANCH  15  16
ATOM     16  C   UNL     1      22.018  -2.603  13.850  1.00  0.00    -0.000 C 
BRANCH  16  17
ATOM     17  C   UNL     1      21.943  -1.238  13.151  1.00  0.00    -0.000 C 
BRANCH  17  18
ATOM     18  C   UNL     1      20.839  -1.226  12.086  1.00  0.00    -0.000 C 
BRANCH  18  19
ATOM     19  C   UNL     1      19.483  -1.605  12.693  1.00  0.00    -0.003 C 
ATOM     20  C   UNL     1      18.388  -1.619  11.630  1.00  0.00     0.004 C 
ENDBRANCH  18  19
ENDBRANCH  17  18
ENDBRANCH  16  17
ENDBRANCH  15  16
ENDBRANCH  14  15
ENDBRANCH  13  14
ENDBRANCH  12  13
ENDBRANCH   1  12
TORSDOF 16
ENDMDL
MODEL 7
REMARK VINA RESULT:    -3.597      3.883      7.782
REMARK INTER + INTRA:         -10.028
REMARK INTER:                  -7.542
REMARK INTRA:                  -2.486
REMARK UNBOUND:                -3.067
REMARK SMILES CCCCCCCCCCCCCCCCCC(=O)[O-]
REMARK SMILES IDX 10 1 11 2 12 3 13 4 14 5 15 6 16 7 17 8 18 9 19 10 20 11
REMARK SMILES IDX 9 12 8 13 7 14 6 15 5 16 4 17 3 18 2 19 1 20
REMARK H PARENT
REMARK Flexibility Score: inf
ROOT
ATOM      1  C   UNL     1      23.619  -2.541  16.827  1.00  0.00     0.000 C 
ENDROOT
BRANCH   1   2
ATOM      2  C   UNL     1      22.500  -2.683  17.872  1.00  0.00     0.000 C 
BRANCH   2   3
ATOM      3  C   UNL     1      21.683  -1.389  18.075  1.00  0.00     0.000 C 
BRANCH   3   4
ATOM      4  C   UNL     1      20.323  -1.443  17.356  1.00  0.00     0.000 C 
BRANCH   4   5
ATOM      5  C   UNL     1      20.182  -0.365  16.271  1.00  0.00     0.000 C 
BRANCH   5   6
ATOM      6  C   UNL     1      21.270   0.715  16.363  1.00  0.00     0.000 C 
BRANCH   6   7
ATOM      7  C   UNL     1      21.966   0.910  15.008  1.00  0.00     0.006 C 
BRANCH   7   8
ATOM      8  C   UNL     1      23.486   0.725  15.104  1.00  0.00     0.053 C 
BRANCH   8   9
ATOM      9  C   UNL     1      24.208   2.038  15.078  1.00  0.00     0.041 C 
ATOM     10  O   UNL     1      23.787   2.981  14.358  1.00  0.00    -0.550 OA
ATOM     11  O   UNL     1      25.367   2.207  15.826  1.00  0.00    -0.550 OA
ENDBRANCH   8   9
ENDBRANCH   7   8
ENDBRANCH   6   7
ENDBRANCH   5   6
ENDBRANCH   4   5
ENDBRANCH   3   4
ENDBRANCH   2   3
ENDBRANCH   1   2
BRANCH   1  12
ATOM     12  C   UNL     1      23.438  -3.485  15.627  1.00  0.00     0.000 C 
BRANCH  12  13
ATOM     13  C   UNL     1      23.206  -2.721  14.305  1.00  0.00    -0.000 C 
BRANCH  13  14
ATOM     14  C   UNL     1      21.732  -2.697  13.854  1.00  0.00    -0.000 C 
BRANCH  14  15
ATOM     15  C   UNL     1      21.430  -1.770  12.661  1.00  0.00    -0.000 C 
BRANCH  15  16
ATOM     16  C   UNL     1      19.976  -1.267  12.583  1.00  0.00    -0.000 C 
BRANCH  16  17
ATOM     17  C   UNL     1      18.977  -2.219  13.257  1.00  0.00    -0.000 C 
BRANCH  17  18
ATOM     18  C   UNL     1      17.993  -2.798  12.233  1.00  0.00    -0.000 C 
BRANCH  18  19
ATOM     19  C   UNL     1      16.553  -2.378  12.553  1.00  0.00    -0.003 C 
ATOM     20  C   UNL     1      15.702  -2.321  11.288  1.00  0.00     0.004 C 
ENDBRANCH  18  19
ENDBRANCH  17  18
ENDBRANCH  16  17
ENDBRANCH  15  16
ENDBRANCH  14  15
ENDBRANCH  13  14
ENDBRANCH  12  13
ENDBRANCH   1  12
TORSDOF 16
ENDMDL
MODEL 8
REMARK VINA RESULT:    -3.550      4.083      6.674
REMARK INTER + INTRA:          -9.938
REMARK INTER:                  -6.876
REMARK INTRA:                  -3.062
REMARK UNBOUND:                -3.067
REMARK SMILES CCCCCCCCCCCCCCCCCC(=O)[O-]
REMARK SMILES IDX 10 1 11 2 12 3 13 4 14 5 15 6 16 7 17 8 18 9 19 10 20 11
REMARK SMILES IDX 9 12 8 13 7 14 6 15 5 16 4 17 3 18 2 19 1 20
REMARK H PARENT
REMARK Flexibility Score: inf
ROOT
ATOM      1  C   UNL     1      21.353   1.022  16.664  1.00  0.00     0.000 C 
ENDROOT
BRANCH   1   2
ATOM      2  C   UNL     1      22.773   0.433  16.661  1.00  0.00     0.000 C 
BRANCH   2   3
ATOM      3  C   UNL     1      23.437   0.439  15.267  1.00  0.00     0.000 C 
BRANCH   3   4
ATOM      4  C   UNL     1      22.427   0.742  14.146  1.00  0.00     0.000 C 
BRANCH   4   5
ATOM      5  C   UNL     1      22.041  -0.509  13.341  1.00  0.00     0.000 C 
BRANCH   5   6
ATOM      6  C   UNL     1      20.524  -0.748  13.307  1.00  0.00     0.000 C 
BRANCH   6   7
ATOM      7  C   UNL     1      20.205  -2.188  12.880  1.00  0.00     0.006 C 
BRANCH   7   8
ATOM      8  C   UNL     1      18.743  -2.565  13.152  1.00  0.00     0.053 C 
BRANCH   8   9
ATOM      9  C   UNL     1      17.917  -2.523  11.904  1.00  0.00     0.041 C 
ATOM     10  O   UNL     1      17.864  -1.472  11.212  1.00  0.00    -0.550 OA
ATOM     11  O   UNL     1      17.178  -3.636  11.522  1.00  0.00    -0.550 OA
ENDBRANCH   8   9
ENDBRANCH   7   8
ENDBRANCH   6   7
ENDBRANCH   5   6
ENDBRANCH   4   5
ENDBRANCH   3   4
ENDBRANCH   2   3
ENDBRANCH   1   2
BRANCH   1  12
ATOM     12  C   UNL     1      20.280  -0.007  17.056  1.00  0.00     0.000 C 
BRANCH  12  13
ATOM     13  C   UNL     1      20.888  -1.362  17.479  1.00  0.00    -0.000 C 
BRANCH  13  14
ATOM     14  C   UNL     1      20.533  -2.524  16.531  1.00  0.00    -0.000 C 
BRANCH  14  15
ATOM     15  C   UNL     1      21.611  -3.619  16.407  1.00  0.00    -0.000 C 
BRANCH  15  16
ATOM     16  C   UNL     1      22.856  -3.214  15.598  1.00  0.00    -0.000 C 
BRANCH  16  17
ATOM     17  C   UNL     1      24.112  -3.060  16.469  1.00  0.00    -0.000 C 
BRANCH  17  18
ATOM     18  C   UNL     1      24.221  -4.206  17.483  1.00  0.00    -0.000 C 
BRANCH  18  19
ATOM     19  C   UNL     1      24.367  -3.667  18.910  1.00  0.00    -0.003 C 
ATOM     20  C   UNL     1      24.288  -2.144  18.935  1.00  0.00     0.004 C 
ENDBRANCH  18  19
ENDBRANCH  17  18
ENDBRANCH  16  17
ENDBRANCH  15  16
ENDBRANCH  14  15
ENDBRANCH  13  14
ENDBRANCH  12  13
ENDBRANCH   1  12
TORSDOF 16
ENDMDL
MODEL 9
REMARK VINA RESULT:    -3.469      3.539      7.067
REMARK INTER + INTRA:          -9.781
REMARK INTER:                  -6.786
REMARK INTRA:                  -2.995
REMARK UNBOUND:                -3.067
REMARK SMILES CCCCCCCCCCCCCCCCCC(=O)[O-]
REMARK SMILES IDX 10 1 11 2 12 3 13 4 14 5 15 6 16 7 17 8 18 9 19 10 20 11
REMARK SMILES IDX 9 12 8 13 7 14 6 15 5 16 4 17 3 18 2 19 1 20
REMARK H PARENT
REMARK Flexibility Score: inf
ROOT
ATOM      1  C   UNL     1      22.112   0.838  16.769  1.00  0.00     0.000 C 
ENDROOT
BRANCH   1   2
ATOM      2  C   UNL     1      23.498   0.747  16.108  1.00  0.00     0.000 C 
BRANCH   2   3
ATOM      3  C   UNL     1      23.509   1.220  14.638  1.00  0.00     0.000 C 
BRANCH   3   4
ATOM      4  C   UNL     1      22.141   1.772  14.197  1.00  0.00     0.000 C 
BRANCH   4   5
ATOM      5  C   UNL     1      22.264   3.001  13.284  1.00  0.00     0.000 C 
BRANCH   5   6
ATOM      6  C   UNL     1      23.577   3.770  13.497  1.00  0.00     0.000 C 
BRANCH   6   7
ATOM      7  C   UNL     1      23.382   4.924  14.491  1.00  0.00     0.006 C 
BRANCH   7   8
ATOM      8  C   UNL     1      24.102   4.672  15.822  1.00  0.00     0.053 C 
BRANCH   8   9
ATOM      9  C   UNL     1      23.134   4.432  16.940  1.00  0.00     0.041 C 
ATOM     10  O   UNL     1      23.550   4.278  18.118  1.00  0.00    -0.550 OA
ATOM     11  O   UNL     1      21.773   4.345  16.673  1.00  0.00    -0.550 OA
ENDBRANCH   8   9
ENDBRANCH   7   8
ENDBRANCH   6   7
ENDBRANCH   5   6
ENDBRANCH   4   5
ENDBRANCH   3   4
ENDBRANCH   2   3
ENDBRANCH   1   2
BRANCH   1  12
ATOM     12  C   UNL     1      21.802  -0.365  17.675  1.00  0.00     0.000 C 
BRANCH  12  13
ATOM     13  C   UNL     1      20.674  -1.255  17.110  1.00  0.00    -0.000 C 
BRANCH  13  14
ATOM     14  C   UNL     1      20.099  -0.752  15.772  1.00  0.00    -0.000 C 
BRANCH  14  15
ATOM     15  C   UNL     1      20.521  -1.565  14.533  1.00  0.00    -0.000 C 
BRANCH  15  16
ATOM     16  C   UNL     1      21.427  -2.775  14.828  1.00  0.00    -0.000 C 
BRANCH  16  17
ATOM     17  C   UNL     1      22.871  -2.572  14.348  1.00  0.00    -0.000 C 
BRANCH  17  18
ATOM     18  C   UNL     1      23.874  -2.949  15.446  1.00  0.00    -0.000 C 
BRANCH  18  19
ATOM     19  C   UNL     1      23.202  -3.782  16.543  1.00  0.00    -0.003 C 
ATOM     20  C   UNL     1      24.238  -4.513  17.392  1.00  0.00     0.004 C 
ENDBRANCH  18  19
ENDBRANCH  17  18
ENDBRANCH  16  17
ENDBRANCH  15  16
ENDBRANCH  14  15
ENDBRANCH  13  14
ENDBRANCH  12  13
ENDBRANCH   1  12
TORSDOF 16
ENDMDL
