MODEL 1
REMARK VINA RESULT:    -4.267      0.000      0.000
REMARK INTER + INTRA:         -16.320
REMARK INTER:                 -11.252
REMARK INTRA:                  -5.068
REMARK UNBOUND:                -5.068
REMARK SMILES CCCCCCCCCCCCCCCCCCCCCCCCCCCCCC(=O)[O-]
REMARK SMILES IDX 16 1 17 2 18 3 19 4 20 5 21 6 22 7 23 8 24 9 25 10 26 11
REMARK SMILES IDX 27 12 28 13 29 14 30 15 31 16 32 17 15 18 14 19 13 20 12 21
REMARK SMILES IDX 11 22 10 23 9 24 8 25 7 26 6 27 5 28 4 29 3 30 2 31 1 32
REMARK H PARENT
REMARK Flexibility Score: inf
ROOT
ATOM      1  C   UNL     1      27.585  30.495 -13.474  1.00  0.00     0.000 C 
ENDROOT
BRANCH   1   2
ATOM      2  C   UNL     1      27.267  30.305 -14.969  1.00  0.00     0.000 C 
BRANCH   2   3
ATOM      3  C   UNL     1      26.339  29.107 -15.236  1.00  0.00     0.000 C 
BRANCH   3   4
ATOM      4  C   UNL     1      25.133  29.066 -14.284  1.00  0.00     0.000 C 
BRANCH   4   5
ATOM      5  C   UNL     1      23.831  28.654 -14.989  1.00  0.00     0.000 C 
BRANCH   5   6
ATOM      6  C   UNL     1      22.826  29.813 -15.007  1.00  0.00     0.000 C 
BRANCH   6   7
ATOM      7  C   UNL     1      23.426  31.052 -15.689  1.00  0.00     0.000 C 
BRANCH   7   8
ATOM      8  C   UNL     1      23.320  32.324 -14.827  1.00  0.00     0.000 C 
BRANCH   8   9
ATOM      9  C   UNL     1      24.563  32.643 -13.976  1.00  0.00     0.000 C 
BRANCH   9  10
ATOM     10  C   UNL     1      24.238  32.815 -12.484  1.00  0.00     0.000 C 
BRANCH  10  11
ATOM     11  C   UNL     1      24.553  31.558 -11.651  1.00  0.00     0.000 C 
BRANCH  11  12
ATOM     12  C   UNL     1      23.349  30.644 -11.363  1.00  0.00     0.000 C 
BRANCH  12  13
ATOM     13  C   UNL     1      22.006  31.390 -11.386  1.00  0.00     0.006 C 
BRANCH  13  14
ATOM     14  C   UNL     1      21.310  31.309 -10.023  1.00  0.00     0.053 C 
BRANCH  14  15
ATOM     15  C   UNL     1      21.711  32.449  -9.136  1.00  0.00     0.041 C 
ATOM     16  O   UNL     1      21.631  33.633  -9.558  1.00  0.00    -0.550 OA
ATOM     17  O   UNL     1      22.236  32.207  -7.872  1.00  0.00    -0.550 OA
ENDBRANCH  14  15
ENDBRANCH  13  14
ENDBRANCH  12  13
ENDBRANCH  11  12
ENDBRANCH  10  11
ENDBRANCH   9  10
ENDBRANCH   8   9
ENDBRANCH   7   8
ENDBRANCH   6   7
ENDBRANCH   5   6
ENDBRANCH   4   5
ENDBRANCH   3   4
ENDBRANCH   2   3
ENDBRANCH   1   2
BRANCH   1  18
ATOM     18  C   UNL     1      29.029  30.155 -13.060  1.00  0.00     0.000 C 
BRANCH  18  19
ATOM     19  C   UNL     1      29.200  30.011 -11.539  1.00  0.00     0.000 C 
BRANCH  19  20
ATOM     20  C   UNL     1      27.896  30.284 -10.773  1.00  0.00     0.000 C 
BRANCH  20  21
ATOM     21  C   UNL     1      27.385  29.048 -10.009  1.00  0.00     0.000 C 
BRANCH  21  22
ATOM     22  C   UNL     1      26.229  28.335 -10.732  1.00  0.00     0.000 C 
BRANCH  22  23
ATOM     23  C   UNL     1      26.563  26.931 -11.281  1.00  0.00     0.000 C 
BRANCH  23  24
ATOM     24  C   UNL     1      27.032  26.890 -12.749  1.00  0.00    -0.000 C 
BRANCH  24  25
ATOM     25  C   UNL     1      27.278  25.467 -13.300  1.00  0.00    -0.000 C 
BRANCH  25  26
ATOM     26  C   UNL     1      26.180  24.983 -14.268  1.00  0.00    -0.000 C 
BRANCH  26  27
ATOM     27  C   UNL     1      26.167  23.464 -14.517  1.00  0.00    -0.000 C 
BRANCH  27  28
ATOM     28  C   UNL     1      25.215  22.659 -13.608  1.00  0.00    -0.000 C 
BRANCH  28  29
ATOM     29  C   UNL     1      25.891  21.571 -12.754  1.00  0.00    -0.000 C 
BRANCH  29  30
ATOM     30  C   UNL     1      27.232  22.025 -12.162  1.00  0.00    -0.000 C 
BRANCH  30  31
ATOM     31  C   UNL     1      27.111  22.265 -10.652  1.00  0.00    -0.003 C 
ATOM     32  C   UNL     1      26.146  23.407 -10.350  1.00  0.00     0.004 C 
ENDBRANCH  30  31
ENDBRANCH  29  30
ENDBRANCH  28  29
ENDBRANCH  27  28
ENDBRANCH  26  27
ENDBRANCH  25  26
ENDBRANCH  24  25
ENDBRANCH  23  24
ENDBRANCH  22  23
ENDBRANCH  21  22
ENDBRANCH  20  21
ENDBRANCH  19  20
ENDBRANCH  18  19
ENDBRANCH   1  18
TORSDOF 28
ENDMDL
MODEL 2
REMARK VINA RESULT:    -4.247      2.283      2.922
REMARK INTER + INTRA:         -16.267
REMARK INTER:                 -10.583
REMARK INTRA:                  -5.685
REMARK UNBOUND:                -5.068
REMARK SMILES CCCCCCCCCCCCCCCCCCCCCCCCCCCCCC(=O)[O-]
REMARK SMILES IDX 16 1 17 2 18 3 19 4 20 5 21 6 22 7 23 8 24 9 25 10 26 11
REMARK SMILES IDX 27 12 28 13 29 14 30 15 31 16 32 17 15 18 14 19 13 20 12 21
REMARK SMILES IDX 11 22 10 23 9 24 8 25 7 26 6 27 5 28 4 29 3 30 2 31 1 32
REMARK H PARENT
REMARK Flexibility Score: inf
ROOT
ATOM      1  C   UNL     1      28.889  30.138 -12.969  1.00  0.00     0.000 C 
ENDROOT
BRANCH   1   2
ATOM      2  C   UNL     1      27.425  30.504 -13.276  1.00  0.00     0.000 C 
BRANCH   2   3
ATOM      3  C   UNL     1      27.001  30.129 -14.707  1.00  0.00     0.000 C 
BRANCH   3   4
ATOM      4  C   UNL     1      25.615  29.464 -14.760  1.00  0.00     0.000 C 
BRANCH   4   5
ATOM      5  C   UNL     1      24.879  29.726 -16.083  1.00  0.00     0.000 C 
BRANCH   5   6
ATOM      6  C   UNL     1      23.592  30.526 -15.847  1.00  0.00     0.000 C 
BRANCH   6   7
ATOM      7  C   UNL     1      23.911  31.961 -15.398  1.00  0.00     0.000 C 
BRANCH   7   8
ATOM      8  C   UNL     1      23.357  32.292 -14.000  1.00  0.00     0.000 C 
BRANCH   8   9
ATOM      9  C   UNL     1      24.418  32.673 -12.950  1.00  0.00     0.000 C 
BRANCH   9  10
ATOM     10  C   UNL     1      24.448  31.708 -11.754  1.00  0.00     0.000 C 
BRANCH  10  11
ATOM     11  C   UNL     1      23.070  31.528 -11.091  1.00  0.00     0.000 C 
BRANCH  11  12
ATOM     12  C   UNL     1      22.561  30.077 -11.020  1.00  0.00     0.000 C 
BRANCH  12  13
ATOM     13  C   UNL     1      23.121  29.186 -12.139  1.00  0.00     0.006 C 
BRANCH  13  14
ATOM     14  C   UNL     1      21.988  28.527 -12.934  1.00  0.00     0.053 C 
BRANCH  14  15
ATOM     15  C   UNL     1      22.424  27.221 -13.527  1.00  0.00     0.041 C 
ATOM     16  O   UNL     1      22.474  26.189 -12.807  1.00  0.00    -0.550 OA
ATOM     17  O   UNL     1      22.840  27.152 -14.852  1.00  0.00    -0.550 OA
ENDBRANCH  14  15
ENDBRANCH  13  14
ENDBRANCH  12  13
ENDBRANCH  11  12
ENDBRANCH  10  11
ENDBRANCH   9  10
ENDBRANCH   8   9
ENDBRANCH   7   8
ENDBRANCH   6   7
ENDBRANCH   5   6
ENDBRANCH   4   5
ENDBRANCH   3   4
ENDBRANCH   2   3
ENDBRANCH   1   2
BRANCH   1  18
ATOM     18  C   UNL     1      29.253  30.081 -11.473  1.00  0.00     0.000 C 
BRANCH  18  19
ATOM     19  C   UNL     1      28.092  30.502 -10.556  1.00  0.00     0.000 C 
BRANCH  19  20
ATOM     20  C   UNL     1      27.583  29.343  -9.685  1.00  0.00     0.000 C 
BRANCH  20  21
ATOM     21  C   UNL     1      26.110  28.990  -9.966  1.00  0.00     0.000 C 
BRANCH  21  22
ATOM     22  C   UNL     1      25.749  27.556  -9.541  1.00  0.00     0.000 C 
BRANCH  22  23
ATOM     23  C   UNL     1      25.903  26.485 -10.642  1.00  0.00     0.000 C 
BRANCH  23  24
ATOM     24  C   UNL     1      25.858  27.015 -12.089  1.00  0.00    -0.000 C 
BRANCH  24  25
ATOM     25  C   UNL     1      27.196  26.893 -12.854  1.00  0.00    -0.000 C 
BRANCH  25  26
ATOM     26  C   UNL     1      27.251  25.685 -13.810  1.00  0.00    -0.000 C 
BRANCH  26  27
ATOM     27  C   UNL     1      25.953  25.427 -14.594  1.00  0.00    -0.000 C 
BRANCH  27  28
ATOM     28  C   UNL     1      25.281  24.066 -14.320  1.00  0.00    -0.000 C 
BRANCH  28  29
ATOM     29  C   UNL     1      26.232  22.855 -14.320  1.00  0.00    -0.000 C 
BRANCH  29  30
ATOM     30  C   UNL     1      26.291  22.142 -12.962  1.00  0.00    -0.000 C 
BRANCH  30  31
ATOM     31  C   UNL     1      27.499  22.618 -12.146  1.00  0.00    -0.003 C 
ATOM     32  C   UNL     1      28.019  21.513 -11.232  1.00  0.00     0.004 C 
ENDBRANCH  30  31
ENDBRANCH  29  30
ENDBRANCH  28  29
ENDBRANCH  27  28
ENDBRANCH  26  27
ENDBRANCH  25  26
ENDBRANCH  24  25
ENDBRANCH  23  24
ENDBRANCH  22  23
ENDBRANCH  21  22
ENDBRANCH  20  21
ENDBRANCH  19  20
ENDBRANCH  18  19
ENDBRANCH   1  18
TORSDOF 28
ENDMDL
MODEL 3
REMARK VINA RESULT:    -4.192      3.861      8.153
REMARK INTER + INTRA:         -16.121
REMARK INTER:                 -10.442
REMARK INTRA:                  -5.679
REMARK UNBOUND:                -5.068
REMARK SMILES CCCCCCCCCCCCCCCCCCCCCCCCCCCCCC(=O)[O-]
REMARK SMILES IDX 16 1 17 2 18 3 19 4 20 5 21 6 22 7 23 8 24 9 25 10 26 11
REMARK SMILES IDX 27 12 28 13 29 14 30 15 31 16 32 17 15 18 14 19 13 20 12 21
REMARK SMILES IDX 11 22 10 23 9 24 8 25 7 26 6 27 5 28 4 29 3 30 2 31 1 32
REMARK H PARENT
REMARK Flexibility Score: inf
ROOT
ATOM      1  C   UNL     1      26.388  26.855 -11.363  1.00  0.00     0.000 C 
ENDROOT
BRANCH   1   2
ATOM      2  C   UNL     1      27.139  27.025 -12.697  1.00  0.00     0.000 C 
BRANCH   2   3
ATOM      3  C   UNL     1      26.763  25.955 -13.737  1.00  0.00     0.000 C 
BRANCH   3   4
ATOM      4  C   UNL     1      27.345  24.572 -13.401  1.00  0.00     0.000 C 
BRANCH   4   5
ATOM      5  C   UNL     1      26.694  23.439 -14.211  1.00  0.00     0.000 C 
BRANCH   5   6
ATOM      6  C   UNL     1      25.426  23.930 -14.921  1.00  0.00     0.000 C 
BRANCH   6   7
ATOM      7  C   UNL     1      24.250  22.972 -14.671  1.00  0.00     0.000 C 
BRANCH   7   8
ATOM      8  C   UNL     1      23.939  22.778 -13.175  1.00  0.00     0.000 C 
BRANCH   8   9
ATOM      9  C   UNL     1      23.797  24.078 -12.363  1.00  0.00     0.000 C 
BRANCH   9  10
ATOM     10  C   UNL     1      24.375  23.963 -10.944  1.00  0.00     0.000 C 
BRANCH  10  11
ATOM     11  C   UNL     1      25.067  22.612 -10.683  1.00  0.00     0.000 C 
BRANCH  11  12
ATOM     12  C   UNL     1      26.581  22.691 -10.419  1.00  0.00     0.000 C 
BRANCH  12  13
ATOM     13  C   UNL     1      27.320  21.386 -10.754  1.00  0.00     0.006 C 
BRANCH  13  14
ATOM     14  C   UNL     1      26.715  20.716 -11.994  1.00  0.00     0.053 C 
BRANCH  14  15
ATOM     15  C   UNL     1      26.320  19.298 -11.711  1.00  0.00     0.041 C 
ATOM     16  O   UNL     1      26.955  18.350 -12.244  1.00  0.00    -0.550 OA
ATOM     17  O   UNL     1      25.216  19.020 -10.914  1.00  0.00    -0.550 OA
ENDBRANCH  14  15
ENDBRANCH  13  14
ENDBRANCH  12  13
ENDBRANCH  11  12
ENDBRANCH  10  11
ENDBRANCH   9  10
ENDBRANCH   8   9
ENDBRANCH   7   8
ENDBRANCH   6   7
ENDBRANCH   5   6
ENDBRANCH   4   5
ENDBRANCH   3   4
ENDBRANCH   2   3
ENDBRANCH   1   2
BRANCH   1  18
ATOM     18  C   UNL     1      26.083  28.163 -10.609  1.00  0.00     0.000 C 
BRANCH  18  19
ATOM     19  C   UNL     1      27.343  28.831 -10.032  1.00  0.00     0.000 C 
BRANCH  19  20
ATOM     20  C   UNL     1      27.701  30.136 -10.760  1.00  0.00     0.000 C 
BRANCH  20  21
ATOM     21  C   UNL     1      28.995  30.021 -11.586  1.00  0.00     0.000 C 
BRANCH  21  22
ATOM     22  C   UNL     1      28.781  30.334 -13.078  1.00  0.00     0.000 C 
BRANCH  22  23
ATOM     23  C   UNL     1      27.319  30.620 -13.487  1.00  0.00     0.000 C 
BRANCH  23  24
ATOM     24  C   UNL     1      26.924  30.145 -14.898  1.00  0.00    -0.000 C 
BRANCH  24  25
ATOM     25  C   UNL     1      25.399  30.073 -15.143  1.00  0.00    -0.000 C 
BRANCH  25  26
ATOM     26  C   UNL     1      24.889  28.650 -15.442  1.00  0.00    -0.000 C 
BRANCH  26  27
ATOM     27  C   UNL     1      23.875  28.104 -14.421  1.00  0.00    -0.000 C 
BRANCH  27  28
ATOM     28  C   UNL     1      23.698  28.961 -13.150  1.00  0.00    -0.000 C 
BRANCH  28  29
ATOM     29  C   UNL     1      22.347  29.689 -13.035  1.00  0.00    -0.000 C 
BRANCH  29  30
ATOM     30  C   UNL     1      22.475  31.093 -12.428  1.00  0.00    -0.000 C 
BRANCH  30  31
ATOM     31  C   UNL     1      23.896  31.335 -11.904  1.00  0.00    -0.003 C 
ATOM     32  C   UNL     1      24.447  32.669 -12.397  1.00  0.00     0.004 C 
ENDBRANCH  30  31
ENDBRANCH  29  30
ENDBRANCH  28  29
ENDBRANCH  27  28
ENDBRANCH  26  27
ENDBRANCH  25  26
ENDBRANCH  24  25
ENDBRANCH  23  24
ENDBRANCH  22  23
ENDBRANCH  21  22
ENDBRANCH  20  21
ENDBRANCH  19  20
ENDBRANCH  18  19
ENDBRANCH   1  18
TORSDOF 28
ENDMDL
MODEL 4
REMARK VINA RESULT:    -4.143      3.115      8.200
REMARK INTER + INTRA:         -15.994
REMARK INTER:                 -10.718
REMARK INTRA:                  -5.276
REMARK UNBOUND:                -5.068
REMARK SMILES CCCCCCCCCCCCCCCCCCCCCCCCCCCCCC(=O)[O-]
REMARK SMILES IDX 16 1 17 2 18 3 19 4 20 5 21 6 22 7 23 8 24 9 25 10 26 11
REMARK SMILES IDX 27 12 28 13 29 14 30 15 31 16 32 17 15 18 14 19 13 20 12 21
REMARK SMILES IDX 11 22 10 23 9 24 8 25 7 26 6 27 5 28 4 29 3 30 2 31 1 32
REMARK H PARENT
REMARK Flexibility Score: inf
ROOT
ATOM      1  C   UNL     1      27.881  30.167 -10.767  1.00  0.00     0.000 C 
ENDROOT
BRANCH   1   2
ATOM      2  C   UNL     1      27.074  28.946 -10.288  1.00  0.00     0.000 C 
BRANCH   2   3
ATOM      3  C   UNL     1      27.070  27.792 -11.306  1.00  0.00     0.000 C 
BRANCH   3   4
ATOM      4  C   UNL     1      26.010  26.725 -10.989  1.00  0.00     0.000 C 
BRANCH   4   5
ATOM      5  C   UNL     1      25.691  25.826 -12.194  1.00  0.00     0.000 C 
BRANCH   5   6
ATOM      6  C   UNL     1      26.933  25.620 -13.070  1.00  0.00     0.000 C 
BRANCH   6   7
ATOM      7  C   UNL     1      27.485  24.194 -12.916  1.00  0.00     0.000 C 
BRANCH   7   8
ATOM      8  C   UNL     1      26.850  23.193 -13.899  1.00  0.00     0.000 C 
BRANCH   8   9
ATOM      9  C   UNL     1      26.340  21.887 -13.263  1.00  0.00     0.000 C 
BRANCH   9  10
ATOM     10  C   UNL     1      24.996  22.060 -12.536  1.00  0.00     0.000 C 
BRANCH  10  11
ATOM     11  C   UNL     1      25.081  21.744 -11.031  1.00  0.00     0.000 C 
BRANCH  11  12
ATOM     12  C   UNL     1      25.297  22.963 -10.116  1.00  0.00     0.000 C 
BRANCH  12  13
ATOM     13  C   UNL     1      26.689  22.990  -9.467  1.00  0.00     0.006 C 
BRANCH  13  14
ATOM     14  C   UNL     1      27.096  21.594  -8.982  1.00  0.00     0.053 C 
BRANCH  14  15
ATOM     15  C   UNL     1      27.109  21.518  -7.485  1.00  0.00     0.041 C 
ATOM     16  O   UNL     1      27.863  20.694  -6.904  1.00  0.00    -0.550 OA
ATOM     17  O   UNL     1      26.247  22.307  -6.732  1.00  0.00    -0.550 OA
ENDBRANCH  14  15
ENDBRANCH  13  14
ENDBRANCH  12  13
ENDBRANCH  11  12
ENDBRANCH  10  11
ENDBRANCH   9  10
ENDBRANCH   8   9
ENDBRANCH   7   8
ENDBRANCH   6   7
ENDBRANCH   5   6
ENDBRANCH   4   5
ENDBRANCH   3   4
ENDBRANCH   2   3
ENDBRANCH   1   2
BRANCH   1  18
ATOM     18  C   UNL     1      29.139  29.842 -11.594  1.00  0.00     0.000 C 
BRANCH  18  19
ATOM     19  C   UNL     1      29.015  30.264 -13.068  1.00  0.00     0.000 C 
BRANCH  19  20
ATOM     20  C   UNL     1      27.570  30.611 -13.460  1.00  0.00     0.000 C 
BRANCH  20  21
ATOM     21  C   UNL     1      27.216  30.157 -14.888  1.00  0.00     0.000 C 
BRANCH  21  22
ATOM     22  C   UNL     1      26.375  28.868 -14.913  1.00  0.00     0.000 C 
BRANCH  22  23
ATOM     23  C   UNL     1      25.097  28.900 -14.046  1.00  0.00     0.000 C 
BRANCH  23  24
ATOM     24  C   UNL     1      23.778  28.654 -14.805  1.00  0.00    -0.000 C 
BRANCH  24  25
ATOM     25  C   UNL     1      22.897  29.913 -14.976  1.00  0.00    -0.000 C 
BRANCH  25  26
ATOM     26  C   UNL     1      23.531  30.992 -15.875  1.00  0.00    -0.000 C 
BRANCH  26  27
ATOM     27  C   UNL     1      23.568  32.401 -15.258  1.00  0.00    -0.000 C 
BRANCH  27  28
ATOM     28  C   UNL     1      24.660  32.621 -14.190  1.00  0.00    -0.000 C 
BRANCH  28  29
ATOM     29  C   UNL     1      24.142  32.786 -12.750  1.00  0.00    -0.000 C 
BRANCH  29  30
ATOM     30  C   UNL     1      24.699  31.726 -11.790  1.00  0.00    -0.000 C 
BRANCH  30  31
ATOM     31  C   UNL     1      23.572  30.853 -11.225  1.00  0.00    -0.003 C 
ATOM     32  C   UNL     1      22.203  31.374 -11.653  1.00  0.00     0.004 C 
ENDBRANCH  30  31
ENDBRANCH  29  30
ENDBRANCH  28  29
ENDBRANCH  27  28
ENDBRANCH  26  27
ENDBRANCH  25  26
ENDBRANCH  24  25
ENDBRANCH  23  24
ENDBRANCH  22  23
ENDBRANCH  21  22
ENDBRANCH  20  21
ENDBRANCH  19  20
ENDBRANCH  18  19
ENDBRANCH   1  18
TORSDOF 28
ENDMDL
MODEL 5
REMARK VINA RESULT:    -4.132      2.898      7.598
REMARK INTER + INTRA:         -15.965
REMARK INTER:                 -10.285
REMARK INTRA:                  -5.680
REMARK UNBOUND:                -5.068
REMARK SMILES CCCCCCCCCCCCCCCCCCCCCCCCCCCCCC(=O)[O-]
REMARK SMILES IDX 16 1 17 2 18 3 19 4 20 5 21 6 22 7 23 8 24 9 25 10 26 11
REMARK SMILES IDX 27 12 28 13 29 14 30 15 31 16 32 17 15 18 14 19 13 20 12 21
REMARK SMILES IDX 11 22 10 23 9 24 8 25 7 26 6 27 5 28 4 29 3 30 2 31 1 32
REMARK H PARENT
REMARK Flexibility Score: inf
ROOT
ATOM      1  C   UNL     1      27.742  29.380  -9.549  1.00  0.00     0.000 C 
ENDROOT
BRANCH   1   2
ATOM      2  C   UNL     1      26.295  28.875  -9.696  1.00  0.00     0.000 C 
BRANCH   2   3
ATOM      3  C   UNL     1      26.199  27.542 -10.458  1.00  0.00     0.000 C 
BRANCH   3   4
ATOM      4  C   UNL     1      26.030  27.737 -11.974  1.00  0.00     0.000 C 
BRANCH   4   5
ATOM      5  C   UNL     1      27.039  26.919 -12.795  1.00  0.00     0.000 C 
BRANCH   5   6
ATOM      6  C   UNL     1      26.331  26.116 -13.893  1.00  0.00     0.000 C 
BRANCH   6   7
ATOM      7  C   UNL     1      24.829  26.437 -13.929  1.00  0.00     0.000 C 
BRANCH   7   8
ATOM      8  C   UNL     1      23.947  25.234 -13.547  1.00  0.00     0.000 C 
BRANCH   8   9
ATOM      9  C   UNL     1      23.411  24.414 -14.735  1.00  0.00     0.000 C 
BRANCH   9  10
ATOM     10  C   UNL     1      24.163  23.088 -14.934  1.00  0.00     0.000 C 
BRANCH  10  11
ATOM     11  C   UNL     1      24.151  22.195 -13.679  1.00  0.00     0.000 C 
BRANCH  11  12
ATOM     12  C   UNL     1      25.534  21.722 -13.197  1.00  0.00     0.000 C 
BRANCH  12  13
ATOM     13  C   UNL     1      26.663  22.701 -13.552  1.00  0.00     0.006 C 
BRANCH  13  14
ATOM     14  C   UNL     1      27.663  22.827 -12.397  1.00  0.00     0.053 C 
BRANCH  14  15
ATOM     15  C   UNL     1      26.963  23.038 -11.089  1.00  0.00     0.041 C 
ATOM     16  O   UNL     1      27.094  22.196 -10.162  1.00  0.00    -0.550 OA
ATOM     17  O   UNL     1      26.115  24.125 -10.910  1.00  0.00    -0.550 OA
ENDBRANCH  14  15
ENDBRANCH  13  14
ENDBRANCH  12  13
ENDBRANCH  11  12
ENDBRANCH  10  11
ENDBRANCH   9  10
ENDBRANCH   8   9
ENDBRANCH   7   8
ENDBRANCH   6   7
ENDBRANCH   5   6
ENDBRANCH   4   5
ENDBRANCH   3   4
ENDBRANCH   2   3
ENDBRANCH   1   2
BRANCH   1  18
ATOM     18  C   UNL     1      28.142  30.519 -10.505  1.00  0.00     0.000 C 
BRANCH  18  19
ATOM     19  C   UNL     1      29.309  30.142 -11.434  1.00  0.00     0.000 C 
BRANCH  19  20
ATOM     20  C   UNL     1      28.914  30.182 -12.918  1.00  0.00     0.000 C 
BRANCH  20  21
ATOM     21  C   UNL     1      27.443  30.584 -13.132  1.00  0.00     0.000 C 
BRANCH  21  22
ATOM     22  C   UNL     1      27.066  30.699 -14.620  1.00  0.00     0.000 C 
BRANCH  22  23
ATOM     23  C   UNL     1      25.978  29.715 -15.102  1.00  0.00     0.000 C 
BRANCH  23  24
ATOM     24  C   UNL     1      24.569  30.318 -15.265  1.00  0.00    -0.000 C 
BRANCH  24  25
ATOM     25  C   UNL     1      24.521  31.860 -15.170  1.00  0.00    -0.000 C 
BRANCH  25  26
ATOM     26  C   UNL     1      23.700  32.379 -13.973  1.00  0.00    -0.000 C 
BRANCH  26  27
ATOM     27  C   UNL     1      24.513  32.605 -12.686  1.00  0.00    -0.000 C 
BRANCH  27  28
ATOM     28  C   UNL     1      24.191  31.636 -11.529  1.00  0.00    -0.000 C 
BRANCH  28  29
ATOM     29  C   UNL     1      22.810  30.960 -11.609  1.00  0.00    -0.000 C 
BRANCH  29  30
ATOM     30  C   UNL     1      22.898  29.427 -11.644  1.00  0.00    -0.000 C 
BRANCH  30  31
ATOM     31  C   UNL     1      22.255  28.871 -12.921  1.00  0.00    -0.003 C 
ATOM     32  C   UNL     1      21.127  29.774 -13.410  1.00  0.00     0.004 C 
ENDBRANCH  30  31
ENDBRANCH  29  30
ENDBRANCH  28  29
ENDBRANCH  27  28
ENDBRANCH  26  27
ENDBRANCH  25  26
ENDBRANCH  24  25
ENDBRANCH  23  24
ENDBRANCH  22  23
ENDBRANCH  21  22
ENDBRANCH  20  21
ENDBRANCH  19  20
ENDBRANCH  18  19
ENDBRANCH   1  18
TORSDOF 28
ENDMDL
MODEL 6
REMARK VINA RESULT:    -4.083      1.055      3.210
REMARK INTER + INTRA:         -15.834
REMARK INTER:                 -10.259
REMARK INTRA:                  -5.575
REMARK UNBOUND:                -5.068
REMARK SMILES CCCCCCCCCCCCCCCCCCCCCCCCCCCCCC(=O)[O-]
REMARK SMILES IDX 16 1 17 2 18 3 19 4 20 5 21 6 22 7 23 8 24 9 25 10 26 11
REMARK SMILES IDX 27 12 28 13 29 14 30 15 31 16 32 17 15 18 14 19 13 20 12 21
REMARK SMILES IDX 11 22 10 23 9 24 8 25 7 26 6 27 5 28 4 29 3 30 2 31 1 32
REMARK H PARENT
REMARK Flexibility Score: inf
ROOT
ATOM      1  C   UNL     1      27.345  29.372  -9.704  1.00  0.00     0.000 C 
ENDROOT
BRANCH   1   2
ATOM      2  C   UNL     1      27.567  30.347 -10.875  1.00  0.00     0.000 C 
BRANCH   2   3
ATOM      3  C   UNL     1      28.920  30.141 -11.578  1.00  0.00     0.000 C 
BRANCH   3   4
ATOM      4  C   UNL     1      28.840  30.367 -13.096  1.00  0.00     0.000 C 
BRANCH   4   5
ATOM      5  C   UNL     1      27.394  30.452 -13.610  1.00  0.00     0.000 C 
BRANCH   5   6
ATOM      6  C   UNL     1      27.319  30.095 -15.100  1.00  0.00     0.000 C 
BRANCH   6   7
ATOM      7  C   UNL     1      25.998  29.383 -15.429  1.00  0.00     0.000 C 
BRANCH   7   8
ATOM      8  C   UNL     1      24.815  29.884 -14.579  1.00  0.00     0.000 C 
BRANCH   8   9
ATOM      9  C   UNL     1      23.978  31.006 -15.221  1.00  0.00     0.000 C 
BRANCH   9  10
ATOM     10  C   UNL     1      23.260  31.885 -14.184  1.00  0.00     0.000 C 
BRANCH  10  11
ATOM     11  C   UNL     1      24.232  32.690 -13.302  1.00  0.00     0.000 C 
BRANCH  11  12
ATOM     12  C   UNL     1      24.486  32.103 -11.902  1.00  0.00     0.000 C 
BRANCH  12  13
ATOM     13  C   UNL     1      23.289  31.312 -11.353  1.00  0.00     0.006 C 
BRANCH  13  14
ATOM     14  C   UNL     1      22.548  32.114 -10.278  1.00  0.00     0.053 C 
BRANCH  14  15
ATOM     15  C   UNL     1      22.311  31.290  -9.048  1.00  0.00     0.041 C 
ATOM     16  O   UNL     1      21.766  31.809  -8.038  1.00  0.00    -0.550 OA
ATOM     17  O   UNL     1      22.748  29.972  -8.988  1.00  0.00    -0.550 OA
ENDBRANCH  14  15
ENDBRANCH  13  14
ENDBRANCH  12  13
ENDBRANCH  11  12
ENDBRANCH  10  11
ENDBRANCH   9  10
ENDBRANCH   8   9
ENDBRANCH   7   8
ENDBRANCH   6   7
ENDBRANCH   5   6
ENDBRANCH   4   5
ENDBRANCH   3   4
ENDBRANCH   2   3
ENDBRANCH   1   2
BRANCH   1  18
ATOM     18  C   UNL     1      26.514  28.119 -10.040  1.00  0.00     0.000 C 
BRANCH  18  19
ATOM     19  C   UNL     1      25.466  28.371 -11.138  1.00  0.00     0.000 C 
BRANCH  19  20
ATOM     20  C   UNL     1      25.541  27.333 -12.269  1.00  0.00     0.000 C 
BRANCH  20  21
ATOM     21  C   UNL     1      26.988  26.966 -12.646  1.00  0.00     0.000 C 
BRANCH  21  22
ATOM     22  C   UNL     1      27.064  25.933 -13.784  1.00  0.00     0.000 C 
BRANCH  22  23
ATOM     23  C   UNL     1      25.755  25.728 -14.576  1.00  0.00     0.000 C 
BRANCH  23  24
ATOM     24  C   UNL     1      25.459  24.276 -14.997  1.00  0.00    -0.000 C 
BRANCH  24  25
ATOM     25  C   UNL     1      24.316  23.602 -14.202  1.00  0.00    -0.000 C 
BRANCH  25  26
ATOM     26  C   UNL     1      24.801  22.506 -13.234  1.00  0.00    -0.000 C 
BRANCH  26  27
ATOM     27  C   UNL     1      26.276  22.100 -13.411  1.00  0.00    -0.000 C 
BRANCH  27  28
ATOM     28  C   UNL     1      27.208  22.494 -12.246  1.00  0.00    -0.000 C 
BRANCH  28  29
ATOM     29  C   UNL     1      26.507  22.712 -10.893  1.00  0.00    -0.000 C 
BRANCH  29  30
ATOM     30  C   UNL     1      26.266  24.195 -10.578  1.00  0.00    -0.000 C 
BRANCH  30  31
ATOM     31  C   UNL     1      24.987  24.379  -9.751  1.00  0.00    -0.003 C 
ATOM     32  C   UNL     1      25.299  24.951  -8.371  1.00  0.00     0.004 C 
ENDBRANCH  30  31
ENDBRANCH  29  30
ENDBRANCH  28  29
ENDBRANCH  27  28
ENDBRANCH  26  27
ENDBRANCH  25  26
ENDBRANCH  24  25
ENDBRANCH  23  24
ENDBRANCH  22  23
ENDBRANCH  21  22
ENDBRANCH  20  21
ENDBRANCH  19  20
ENDBRANCH  18  19
ENDBRANCH   1  18
TORSDOF 28
ENDMDL
MODEL 7
REMARK VINA RESULT:    -4.057      3.640      7.806
REMARK INTER + INTRA:         -15.765
REMARK INTER:                 -10.037
REMARK INTRA:                  -5.729
REMARK UNBOUND:                -5.068
REMARK SMILES CCCCCCCCCCCCCCCCCCCCCCCCCCCCCC(=O)[O-]
REMARK SMILES IDX 16 1 17 2 18 3 19 4 20 5 21 6 22 7 23 8 24 9 25 10 26 11
REMARK SMILES IDX 27 12 28 13 29 14 30 15 31 16 32 17 15 18 14 19 13 20 12 21
REMARK SMILES IDX 11 22 10 23 9 24 8 25 7 26 6 27 5 28 4 29 3 30 2 31 1 32
REMARK H PARENT
REMARK Flexibility Score: inf
ROOT
ATOM      1  C   UNL     1      26.608  27.908 -10.399  1.00  0.00     0.000 C 
ENDROOT
BRANCH   1   2
ATOM      2  C   UNL     1      25.421  28.413 -11.239  1.00  0.00     0.000 C 
BRANCH   2   3
ATOM      3  C   UNL     1      25.337  27.744 -12.623  1.00  0.00     0.000 C 
BRANCH   3   4
ATOM      4  C   UNL     1      26.675  27.129 -13.066  1.00  0.00     0.000 C 
BRANCH   4   5
ATOM      5  C   UNL     1      26.587  26.434 -14.433  1.00  0.00     0.000 C 
BRANCH   5   6
ATOM      6  C   UNL     1      25.298  26.825 -15.167  1.00  0.00     0.000 C 
BRANCH   6   7
ATOM      7  C   UNL     1      24.417  25.594 -15.427  1.00  0.00     0.000 C 
BRANCH   7   8
ATOM      8  C   UNL     1      25.134  24.265 -15.123  1.00  0.00     0.000 C 
BRANCH   8   9
ATOM      9  C   UNL     1      24.258  23.186 -14.460  1.00  0.00     0.000 C 
BRANCH   9  10
ATOM     10  C   UNL     1      24.839  22.678 -13.131  1.00  0.00     0.000 C 
BRANCH  10  11
ATOM     11  C   UNL     1      25.115  23.810 -12.124  1.00  0.00     0.000 C 
BRANCH  11  12
ATOM     12  C   UNL     1      26.569  23.906 -11.627  1.00  0.00     0.000 C 
BRANCH  12  13
ATOM     13  C   UNL     1      27.571  23.211 -12.560  1.00  0.00     0.006 C 
BRANCH  13  14
ATOM     14  C   UNL     1      28.466  22.241 -11.780  1.00  0.00     0.053 C 
BRANCH  14  15
ATOM     15  C   UNL     1      27.655  21.199 -11.071  1.00  0.00     0.041 C 
ATOM     16  O   UNL     1      27.655  21.150  -9.812  1.00  0.00    -0.550 OA
ATOM     17  O   UNL     1      26.951  20.242 -11.793  1.00  0.00    -0.550 OA
ENDBRANCH  14  15
ENDBRANCH  13  14
ENDBRANCH  12  13
ENDBRANCH  11  12
ENDBRANCH  10  11
ENDBRANCH   9  10
ENDBRANCH   8   9
ENDBRANCH   7   8
ENDBRANCH   6   7
ENDBRANCH   5   6
ENDBRANCH   4   5
ENDBRANCH   3   4
ENDBRANCH   2   3
ENDBRANCH   1   2
BRANCH   1  18
ATOM     18  C   UNL     1      27.370  28.994  -9.617  1.00  0.00     0.000 C 
BRANCH  18  19
ATOM     19  C   UNL     1      27.813  30.172 -10.501  1.00  0.00     0.000 C 
BRANCH  19  20
ATOM     20  C   UNL     1      29.081  29.854 -11.309  1.00  0.00     0.000 C 
BRANCH  20  21
ATOM     21  C   UNL     1      28.920  30.156 -12.811  1.00  0.00     0.000 C 
BRANCH  21  22
ATOM     22  C   UNL     1      27.538  30.736 -13.158  1.00  0.00     0.000 C 
BRANCH  22  23
ATOM     23  C   UNL     1      27.052  30.461 -14.598  1.00  0.00     0.000 C 
BRANCH  23  24
ATOM     24  C   UNL     1      25.547  30.689 -14.841  1.00  0.00    -0.000 C 
BRANCH  24  25
ATOM     25  C   UNL     1      25.077  32.144 -14.609  1.00  0.00    -0.000 C 
BRANCH  25  26
ATOM     26  C   UNL     1      24.344  32.349 -13.269  1.00  0.00    -0.000 C 
BRANCH  26  27
ATOM     27  C   UNL     1      23.421  31.188 -12.858  1.00  0.00    -0.000 C 
BRANCH  27  28
ATOM     28  C   UNL     1      21.985  31.262 -13.417  1.00  0.00    -0.000 C 
BRANCH  28  29
ATOM     29  C   UNL     1      21.726  30.402 -14.667  1.00  0.00    -0.000 C 
BRANCH  29  30
ATOM     30  C   UNL     1      22.436  29.041 -14.613  1.00  0.00    -0.000 C 
BRANCH  30  31
ATOM     31  C   UNL     1      21.432  27.910 -14.361  1.00  0.00    -0.003 C 
ATOM     32  C   UNL     1      20.756  27.473 -15.657  1.00  0.00     0.004 C 
ENDBRANCH  30  31
ENDBRANCH  29  30
ENDBRANCH  28  29
ENDBRANCH  27  28
ENDBRANCH  26  27
ENDBRANCH  25  26
ENDBRANCH  24  25
ENDBRANCH  23  24
ENDBRANCH  22  23
ENDBRANCH  21  22
ENDBRANCH  20  21
ENDBRANCH  19  20
ENDBRANCH  18  19
ENDBRANCH   1  18
TORSDOF 28
ENDMDL
MODEL 8
REMARK VINA RESULT:    -3.972      2.285      4.455
REMARK INTER + INTRA:         -15.542
REMARK INTER:                 -10.492
REMARK INTRA:                  -5.050
REMARK UNBOUND:                -5.068
REMARK SMILES CCCCCCCCCCCCCCCCCCCCCCCCCCCCCC(=O)[O-]
REMARK SMILES IDX 16 1 17 2 18 3 19 4 20 5 21 6 22 7 23 8 24 9 25 10 26 11
REMARK SMILES IDX 27 12 28 13 29 14 30 15 31 16 32 17 15 18 14 19 13 20 12 21
REMARK SMILES IDX 11 22 10 23 9 24 8 25 7 26 6 27 5 28 4 29 3 30 2 31 1 32
REMARK H PARENT
REMARK Flexibility Score: inf
ROOT
ATOM      1  C   UNL     1      23.220  30.098 -12.048  1.00  0.00     0.000 C 
ENDROOT
BRANCH   1   2
ATOM      2  C   UNL     1      24.107  31.087 -11.268  1.00  0.00     0.000 C 
BRANCH   2   3
ATOM      3  C   UNL     1      24.485  32.331 -12.090  1.00  0.00     0.000 C 
BRANCH   3   4
ATOM      4  C   UNL     1      23.860  32.326 -13.495  1.00  0.00     0.000 C 
BRANCH   4   5
ATOM      5  C   UNL     1      24.911  32.267 -14.614  1.00  0.00     0.000 C 
BRANCH   5   6
ATOM      6  C   UNL     1      25.487  30.853 -14.754  1.00  0.00     0.000 C 
BRANCH   6   7
ATOM      7  C   UNL     1      26.998  30.844 -14.475  1.00  0.00     0.000 C 
BRANCH   7   8
ATOM      8  C   UNL     1      27.346  30.355 -13.057  1.00  0.00     0.000 C 
BRANCH   8   9
ATOM      9  C   UNL     1      28.839  30.071 -12.812  1.00  0.00     0.000 C 
BRANCH   9  10
ATOM     10  C   UNL     1      29.210  30.064 -11.319  1.00  0.00     0.000 C 
BRANCH  10  11
ATOM     11  C   UNL     1      28.080  30.593 -10.417  1.00  0.00     0.000 C 
BRANCH  11  12
ATOM     12  C   UNL     1      27.665  29.657  -9.267  1.00  0.00     0.000 C 
BRANCH  12  13
ATOM     13  C   UNL     1      26.766  28.500  -9.727  1.00  0.00     0.006 C 
BRANCH  13  14
ATOM     14  C   UNL     1      25.424  28.520  -8.986  1.00  0.00     0.053 C 
BRANCH  14  15
ATOM     15  C   UNL     1      25.197  27.245  -8.232  1.00  0.00     0.041 C 
ATOM     16  O   UNL     1      26.115  26.766  -7.514  1.00  0.00    -0.550 OA
ATOM     17  O   UNL     1      24.002  26.548  -8.369  1.00  0.00    -0.550 OA
ENDBRANCH  14  15
ENDBRANCH  13  14
ENDBRANCH  12  13
ENDBRANCH  11  12
ENDBRANCH  10  11
ENDBRANCH   9  10
ENDBRANCH   8   9
ENDBRANCH   7   8
ENDBRANCH   6   7
ENDBRANCH   5   6
ENDBRANCH   4   5
ENDBRANCH   3   4
ENDBRANCH   2   3
ENDBRANCH   1   2
BRANCH   1  18
ATOM     18  C   UNL     1      23.799  28.680 -12.208  1.00  0.00     0.000 C 
BRANCH  18  19
ATOM     19  C   UNL     1      23.680  28.142 -13.644  1.00  0.00     0.000 C 
BRANCH  19  20
ATOM     20  C   UNL     1      24.841  27.208 -14.019  1.00  0.00     0.000 C 
BRANCH  20  21
ATOM     21  C   UNL     1      25.851  27.024 -12.871  1.00  0.00     0.000 C 
BRANCH  21  22
ATOM     22  C   UNL     1      27.068  26.175 -13.278  1.00  0.00     0.000 C 
BRANCH  22  23
ATOM     23  C   UNL     1      27.050  24.715 -12.775  1.00  0.00     0.000 C 
BRANCH  23  24
ATOM     24  C   UNL     1      27.010  23.638 -13.877  1.00  0.00    -0.000 C 
BRANCH  24  25
ATOM     25  C   UNL     1      25.674  23.568 -14.652  1.00  0.00    -0.000 C 
BRANCH  25  26
ATOM     26  C   UNL     1      24.434  23.502 -13.739  1.00  0.00    -0.000 C 
BRANCH  26  27
ATOM     27  C   UNL     1      23.556  22.255 -13.939  1.00  0.00    -0.000 C 
BRANCH  27  28
ATOM     28  C   UNL     1      23.849  21.085 -12.976  1.00  0.00    -0.000 C 
BRANCH  28  29
ATOM     29  C   UNL     1      24.829  21.410 -11.834  1.00  0.00    -0.000 C 
BRANCH  29  30
ATOM     30  C   UNL     1      26.103  20.554 -11.879  1.00  0.00    -0.000 C 
BRANCH  30  31
ATOM     31  C   UNL     1      27.035  20.898 -10.711  1.00  0.00    -0.003 C 
ATOM     32  C   UNL     1      28.370  21.440 -11.210  1.00  0.00     0.004 C 
ENDBRANCH  30  31
ENDBRANCH  29  30
ENDBRANCH  28  29
ENDBRANCH  27  28
ENDBRANCH  26  27
ENDBRANCH  25  26
ENDBRANCH  24  25
ENDBRANCH  23  24
ENDBRANCH  22  23
ENDBRANCH  21  22
ENDBRANCH  20  21
ENDBRANCH  19  20
ENDBRANCH  18  19
ENDBRANCH   1  18
TORSDOF 28
ENDMDL
MODEL 9
REMARK VINA RESULT:    -3.943      1.975      6.712
REMARK INTER + INTRA:         -15.465
REMARK INTER:                  -9.739
REMARK INTRA:                  -5.727
REMARK UNBOUND:                -5.068
REMARK SMILES CCCCCCCCCCCCCCCCCCCCCCCCCCCCCC(=O)[O-]
REMARK SMILES IDX 16 1 17 2 18 3 19 4 20 5 21 6 22 7 23 8 24 9 25 10 26 11
REMARK SMILES IDX 27 12 28 13 29 14 30 15 31 16 32 17 15 18 14 19 13 20 12 21
REMARK SMILES IDX 11 22 10 23 9 24 8 25 7 26 6 27 5 28 4 29 3 30 2 31 1 32
REMARK H PARENT
REMARK Flexibility Score: inf
ROOT
ATOM      1  C   UNL     1      27.353  28.873 -10.246  1.00  0.00     0.000 C 
ENDROOT
BRANCH   1   2
ATOM      2  C   UNL     1      26.262  28.175 -11.079  1.00  0.00     0.000 C 
BRANCH   2   3
ATOM      3  C   UNL     1      26.832  27.159 -12.085  1.00  0.00     0.000 C 
BRANCH   3   4
ATOM      4  C   UNL     1      25.750  26.551 -12.992  1.00  0.00     0.000 C 
BRANCH   4   5
ATOM      5  C   UNL     1      26.293  25.442 -13.906  1.00  0.00     0.000 C 
BRANCH   5   6
ATOM      6  C   UNL     1      27.397  24.642 -13.202  1.00  0.00     0.000 C 
BRANCH   6   7
ATOM      7  C   UNL     1      27.126  23.133 -13.292  1.00  0.00     0.000 C 
BRANCH   7   8
ATOM      8  C   UNL     1      26.663  22.523 -11.955  1.00  0.00     0.000 C 
BRANCH   8   9
ATOM      9  C   UNL     1      26.644  23.500 -10.765  1.00  0.00     0.000 C 
BRANCH   9  10
ATOM     10  C   UNL     1      25.297  23.512 -10.023  1.00  0.00     0.000 C 
BRANCH  10  11
ATOM     11  C   UNL     1      24.705  24.925  -9.874  1.00  0.00     0.000 C 
BRANCH  11  12
ATOM     12  C   UNL     1      25.203  25.720  -8.654  1.00  0.00     0.000 C 
BRANCH  12  13
ATOM     13  C   UNL     1      24.175  26.739  -8.138  1.00  0.00     0.006 C 
BRANCH  13  14
ATOM     14  C   UNL     1      24.858  28.053  -7.741  1.00  0.00     0.053 C 
BRANCH  14  15
ATOM     15  C   UNL     1      24.479  28.468  -6.352  1.00  0.00     0.041 C 
ATOM     16  O   UNL     1      24.835  29.593  -5.912  1.00  0.00    -0.550 OA
ATOM     17  O   UNL     1      23.792  27.594  -5.518  1.00  0.00    -0.550 OA
ENDBRANCH  14  15
ENDBRANCH  13  14
ENDBRANCH  12  13
ENDBRANCH  11  12
ENDBRANCH  10  11
ENDBRANCH   9  10
ENDBRANCH   8   9
ENDBRANCH   7   8
ENDBRANCH   6   7
ENDBRANCH   5   6
ENDBRANCH   4   5
ENDBRANCH   3   4
ENDBRANCH   2   3
ENDBRANCH   1   2
BRANCH   1  18
ATOM     18  C   UNL     1      27.828  30.233 -10.791  1.00  0.00     0.000 C 
BRANCH  18  19
ATOM     19  C   UNL     1      29.132  30.133 -11.601  1.00  0.00     0.000 C 
BRANCH  19  20
ATOM     20  C   UNL     1      28.885  30.171 -13.117  1.00  0.00     0.000 C 
BRANCH  20  21
ATOM     21  C   UNL     1      27.437  30.556 -13.475  1.00  0.00     0.000 C 
BRANCH  21  22
ATOM     22  C   UNL     1      27.119  30.358 -14.968  1.00  0.00     0.000 C 
BRANCH  22  23
ATOM     23  C   UNL     1      26.132  29.213 -15.284  1.00  0.00     0.000 C 
BRANCH  23  24
ATOM     24  C   UNL     1      24.646  29.534 -15.026  1.00  0.00    -0.000 C 
BRANCH  24  25
ATOM     25  C   UNL     1      24.169  30.873 -15.634  1.00  0.00    -0.000 C 
BRANCH  25  26
ATOM     26  C   UNL     1      23.438  31.782 -14.626  1.00  0.00    -0.000 C 
BRANCH  26  27
ATOM     27  C   UNL     1      24.356  32.730 -13.834  1.00  0.00    -0.000 C 
BRANCH  27  28
ATOM     28  C   UNL     1      24.375  32.502 -12.309  1.00  0.00    -0.000 C 
BRANCH  28  29
ATOM     29  C   UNL     1      24.206  31.038 -11.865  1.00  0.00    -0.000 C 
BRANCH  29  30
ATOM     30  C   UNL     1      23.425  30.899 -10.550  1.00  0.00    -0.000 C 
BRANCH  30  31
ATOM     31  C   UNL     1      22.769  29.517 -10.446  1.00  0.00    -0.003 C 
ATOM     32  C   UNL     1      22.775  28.800 -11.793  1.00  0.00     0.004 C 
ENDBRANCH  30  31
ENDBRANCH  29  30
ENDBRANCH  28  29
ENDBRANCH  27  28
ENDBRANCH  26  27
ENDBRANCH  25  26
ENDBRANCH  24  25
ENDBRANCH  23  24
ENDBRANCH  22  23
ENDBRANCH  21  22
ENDBRANCH  20  21
ENDBRANCH  19  20
ENDBRANCH  18  19
ENDBRANCH   1  18
TORSDOF 28
ENDMDL
