MODEL 1
REMARK VINA RESULT:    -4.645      0.000      0.000
REMARK INTER + INTRA:          -8.382
REMARK INTER:                  -7.361
REMARK INTRA:                  -1.021
REMARK UNBOUND:                -1.021
REMARK SMILES CCCCCCCCCCCC(=O)[O-]
REMARK SMILES IDX 7 1 8 2 9 3 10 4 11 5 12 6 13 7 14 8 6 9 5 10 4 11 3 12 2 13
REMARK SMILES IDX 1 14
REMARK H PARENT
REMARK Flexibility Score: inf
ROOT
ATOM      1  C   UNL     1     120.711 177.916 124.169  1.00  0.00     0.000 C 
ENDROOT
BRANCH   1   2
ATOM      2  C   UNL     1     120.311 179.292 124.716  1.00  0.00     0.000 C 
BRANCH   2   3
ATOM      3  C   UNL     1     118.919 179.244 125.362  1.00  0.00     0.000 C 
BRANCH   3   4
ATOM      4  C   UNL     1     118.168 177.938 125.054  1.00  0.00     0.006 C 
BRANCH   4   5
ATOM      5  C   UNL     1     116.655 178.060 125.280  1.00  0.00     0.053 C 
BRANCH   5   6
ATOM      6  C   UNL     1     115.993 178.640 124.070  1.00  0.00     0.041 C 
ATOM      7  O   UNL     1     114.893 179.244 124.179  1.00  0.00    -0.550 OA
ATOM      8  O   UNL     1     116.613 178.557 122.831  1.00  0.00    -0.550 OA
ENDBRANCH   5   6
ENDBRANCH   4   5
ENDBRANCH   3   4
ENDBRANCH   2   3
ENDBRANCH   1   2
BRANCH   1   9
ATOM      9  C   UNL     1     122.229 177.703 124.269  1.00  0.00     0.000 C 
BRANCH   9  10
ATOM     10  C   UNL     1     122.686 177.350 125.693  1.00  0.00    -0.000 C 
BRANCH  10  11
ATOM     11  C   UNL     1     123.715 178.346 126.249  1.00  0.00    -0.000 C 
BRANCH  11  12
ATOM     12  C   UNL     1     123.076 179.273 127.290  1.00  0.00    -0.000 C 
BRANCH  12  13
ATOM     13  C   UNL     1     122.415 178.465 128.413  1.00  0.00    -0.003 C 
ATOM     14  C   UNL     1     120.912 178.727 128.470  1.00  0.00     0.004 C 
ENDBRANCH  12  13
ENDBRANCH  11  12
ENDBRANCH  10  11
ENDBRANCH   9  10
ENDBRANCH   1   9
TORSDOF 10
ENDMDL
MODEL 2
REMARK VINA RESULT:    -4.563      1.750      3.136
REMARK INTER + INTRA:          -8.252
REMARK INTER:                  -6.705
REMARK INTRA:                  -1.546
REMARK UNBOUND:                -1.021
REMARK SMILES CCCCCCCCCCCC(=O)[O-]
REMARK SMILES IDX 7 1 8 2 9 3 10 4 11 5 12 6 13 7 14 8 6 9 5 10 4 11 3 12 2 13
REMARK SMILES IDX 1 14
REMARK H PARENT
REMARK Flexibility Score: inf
ROOT
ATOM      1  C   UNL     1     121.419 179.137 126.722  1.00  0.00     0.000 C 
ENDROOT
BRANCH   1   2
ATOM      2  C   UNL     1     120.412 179.772 125.755  1.00  0.00     0.000 C 
BRANCH   2   3
ATOM      3  C   UNL     1     120.422 179.051 124.399  1.00  0.00     0.000 C 
BRANCH   3   4
ATOM      4  C   UNL     1     119.083 178.366 124.082  1.00  0.00     0.006 C 
BRANCH   4   5
ATOM      5  C   UNL     1     117.933 178.887 124.954  1.00  0.00     0.053 C 
BRANCH   5   6
ATOM      6  C   UNL     1     116.617 178.619 124.295  1.00  0.00     0.041 C 
ATOM      7  O   UNL     1     115.575 178.492 124.992  1.00  0.00    -0.550 OA
ATOM      8  O   UNL     1     116.532 178.560 122.911  1.00  0.00    -0.550 OA
ENDBRANCH   5   6
ENDBRANCH   4   5
ENDBRANCH   3   4
ENDBRANCH   2   3
ENDBRANCH   1   2
BRANCH   1   9
ATOM      9  C   UNL     1     120.753 178.796 128.064  1.00  0.00     0.000 C 
BRANCH   9  10
ATOM     10  C   UNL     1     120.548 177.285 128.258  1.00  0.00    -0.000 C 
BRANCH  10  11
ATOM     11  C   UNL     1     119.306 176.757 127.525  1.00  0.00    -0.000 C 
BRANCH  11  12
ATOM     12  C   UNL     1     119.639 175.496 126.719  1.00  0.00    -0.000 C 
BRANCH  12  13
ATOM     13  C   UNL     1     121.119 175.473 126.320  1.00  0.00    -0.003 C 
ATOM     14  C   UNL     1     121.281 175.477 124.802  1.00  0.00     0.004 C 
ENDBRANCH  12  13
ENDBRANCH  11  12
ENDBRANCH  10  11
ENDBRANCH   9  10
ENDBRANCH   1   9
TORSDOF 10
ENDMDL
MODEL 3
REMARK VINA RESULT:    -4.520      1.606      3.111
REMARK INTER + INTRA:          -8.184
REMARK INTER:                  -6.917
REMARK INTRA:                  -1.267
REMARK UNBOUND:                -1.021
REMARK SMILES CCCCCCCCCCCC(=O)[O-]
REMARK SMILES IDX 7 1 8 2 9 3 10 4 11 5 12 6 13 7 14 8 6 9 5 10 4 11 3 12 2 13
REMARK SMILES IDX 1 14
REMARK H PARENT
REMARK Flexibility Score: inf
ROOT
ATOM      1  C   UNL     1     121.992 177.948 127.356  1.00  0.00     0.000 C 
ENDROOT
BRANCH   1   2
ATOM      2  C   UNL     1     120.781 178.887 127.412  1.00  0.00     0.000 C 
BRANCH   2   3
ATOM      3  C   UNL     1     120.656 179.701 126.115  1.00  0.00     0.000 C 
BRANCH   3   4
ATOM      4  C   UNL     1     119.243 179.639 125.512  1.00  0.00     0.006 C 
BRANCH   4   5
ATOM      5  C   UNL     1     118.756 178.200 125.296  1.00  0.00     0.053 C 
BRANCH   5   6
ATOM      6  C   UNL     1     117.331 178.196 124.839  1.00  0.00     0.041 C 
ATOM      7  O   UNL     1     117.043 178.539 123.662  1.00  0.00    -0.550 OA
ATOM      8  O   UNL     1     116.328 177.765 125.697  1.00  0.00    -0.550 OA
ENDBRANCH   5   6
ENDBRANCH   4   5
ENDBRANCH   3   4
ENDBRANCH   2   3
ENDBRANCH   1   2
BRANCH   1   9
ATOM      9  C   UNL     1     123.046 178.466 126.365  1.00  0.00     0.000 C 
BRANCH   9  10
ATOM     10  C   UNL     1     123.467 177.403 125.338  1.00  0.00    -0.000 C 
BRANCH  10  11
ATOM     11  C   UNL     1     122.617 177.447 124.059  1.00  0.00    -0.000 C 
BRANCH  11  12
ATOM     12  C   UNL     1     121.632 176.272 124.015  1.00  0.00    -0.000 C 
BRANCH  12  13
ATOM     13  C   UNL     1     122.052 175.165 124.989  1.00  0.00    -0.003 C 
ATOM     14  C   UNL     1     120.856 174.309 125.400  1.00  0.00     0.004 C 
ENDBRANCH  12  13
ENDBRANCH  11  12
ENDBRANCH  10  11
ENDBRANCH   9  10
ENDBRANCH   1   9
TORSDOF 10
ENDMDL
MODEL 4
REMARK VINA RESULT:    -4.498      1.585      2.770
REMARK INTER + INTRA:          -8.149
REMARK INTER:                  -6.921
REMARK INTRA:                  -1.228
REMARK UNBOUND:                -1.021
REMARK SMILES CCCCCCCCCCCC(=O)[O-]
REMARK SMILES IDX 7 1 8 2 9 3 10 4 11 5 12 6 13 7 14 8 6 9 5 10 4 11 3 12 2 13
REMARK SMILES IDX 1 14
REMARK H PARENT
REMARK Flexibility Score: inf
ROOT
ATOM      1  C   UNL     1     120.056 179.251 124.859  1.00  0.00     0.000 C 
ENDROOT
BRANCH   1   2
ATOM      2  C   UNL     1     118.845 178.351 124.585  1.00  0.00     0.000 C 
BRANCH   2   3
ATOM      3  C   UNL     1     118.468 177.541 125.834  1.00  0.00     0.000 C 
BRANCH   3   4
ATOM      4  C   UNL     1     116.976 177.657 126.186  1.00  0.00     0.006 C 
BRANCH   4   5
ATOM      5  C   UNL     1     116.126 178.141 125.003  1.00  0.00     0.053 C 
BRANCH   5   6
ATOM      6  C   UNL     1     115.333 179.349 125.392  1.00  0.00     0.041 C 
ATOM      7  O   UNL     1     115.867 180.489 125.376  1.00  0.00    -0.550 OA
ATOM      8  O   UNL     1     113.990 179.221 125.724  1.00  0.00    -0.550 OA
ENDBRANCH   5   6
ENDBRANCH   4   5
ENDBRANCH   3   4
ENDBRANCH   2   3
ENDBRANCH   1   2
BRANCH   1   9
ATOM      9  C   UNL     1     120.420 179.245 126.351  1.00  0.00     0.000 C 
BRANCH   9  10
ATOM     10  C   UNL     1     121.914 178.977 126.596  1.00  0.00    -0.000 C 
BRANCH  10  11
ATOM     11  C   UNL     1     122.519 178.013 125.564  1.00  0.00    -0.000 C 
BRANCH  11  12
ATOM     12  C   UNL     1     122.335 176.555 126.001  1.00  0.00    -0.000 C 
BRANCH  12  13
ATOM     13  C   UNL     1     121.821 175.693 124.841  1.00  0.00    -0.003 C 
ATOM     14  C   UNL     1     120.817 174.653 125.330  1.00  0.00     0.004 C 
ENDBRANCH  12  13
ENDBRANCH  11  12
ENDBRANCH  10  11
ENDBRANCH   9  10
ENDBRANCH   1   9
TORSDOF 10
ENDMDL
MODEL 5
REMARK VINA RESULT:    -4.491      1.592      3.122
REMARK INTER + INTRA:          -8.138
REMARK INTER:                  -6.785
REMARK INTRA:                  -1.353
REMARK UNBOUND:                -1.021
REMARK SMILES CCCCCCCCCCCC(=O)[O-]
REMARK SMILES IDX 7 1 8 2 9 3 10 4 11 5 12 6 13 7 14 8 6 9 5 10 4 11 3 12 2 13
REMARK SMILES IDX 1 14
REMARK H PARENT
REMARK Flexibility Score: inf
ROOT
ATOM      1  C   UNL     1     120.767 178.634 128.041  1.00  0.00     0.000 C 
ENDROOT
BRANCH   1   2
ATOM      2  C   UNL     1     120.310 177.175 127.920  1.00  0.00     0.000 C 
BRANCH   2   3
ATOM      3  C   UNL     1     118.791 177.090 127.716  1.00  0.00     0.000 C 
BRANCH   3   4
ATOM      4  C   UNL     1     118.405 176.790 126.258  1.00  0.00     0.006 C 
BRANCH   4   5
ATOM      5  C   UNL     1     117.090 177.465 125.845  1.00  0.00     0.053 C 
BRANCH   5   6
ATOM      6  C   UNL     1     117.329 178.429 124.725  1.00  0.00     0.041 C 
ATOM      7  O   UNL     1     118.400 178.379 124.065  1.00  0.00    -0.550 OA
ATOM      8  O   UNL     1     116.347 179.348 124.378  1.00  0.00    -0.550 OA
ENDBRANCH   5   6
ENDBRANCH   4   5
ENDBRANCH   3   4
ENDBRANCH   2   3
ENDBRANCH   1   2
BRANCH   1   9
ATOM      9  C   UNL     1     121.446 179.109 126.747  1.00  0.00     0.000 C 
BRANCH   9  10
ATOM     10  C   UNL     1     122.885 178.588 126.607  1.00  0.00    -0.000 C 
BRANCH  10  11
ATOM     11  C   UNL     1     123.056 177.635 125.414  1.00  0.00    -0.000 C 
BRANCH  11  12
ATOM     12  C   UNL     1     121.817 177.659 124.512  1.00  0.00    -0.000 C 
BRANCH  12  13
ATOM     13  C   UNL     1     121.449 176.245 124.045  1.00  0.00    -0.003 C 
ATOM     14  C   UNL     1     121.753 175.211 125.126  1.00  0.00     0.004 C 
ENDBRANCH  12  13
ENDBRANCH  11  12
ENDBRANCH  10  11
ENDBRANCH   9  10
ENDBRANCH   1   9
TORSDOF 10
ENDMDL
MODEL 6
REMARK VINA RESULT:    -4.488      6.797      9.403
REMARK INTER + INTRA:          -8.132
REMARK INTER:                  -6.630
REMARK INTRA:                  -1.502
REMARK UNBOUND:                -1.021
REMARK SMILES CCCCCCCCCCCC(=O)[O-]
REMARK SMILES IDX 7 1 8 2 9 3 10 4 11 5 12 6 13 7 14 8 6 9 5 10 4 11 3 12 2 13
REMARK SMILES IDX 1 14
REMARK H PARENT
REMARK Flexibility Score: inf
ROOT
ATOM      1  C   UNL     1     125.477 177.399 124.328  1.00  0.00     0.000 C 
ENDROOT
BRANCH   1   2
ATOM      2  C   UNL     1     126.939 177.430 123.866  1.00  0.00     0.000 C 
BRANCH   2   3
ATOM      3  C   UNL     1     127.139 178.459 122.744  1.00  0.00     0.000 C 
BRANCH   3   4
ATOM      4  C   UNL     1     127.917 177.888 121.548  1.00  0.00     0.006 C 
BRANCH   4   5
ATOM      5  C   UNL     1     127.877 176.355 121.496  1.00  0.00     0.053 C 
BRANCH   5   6
ATOM      6  C   UNL     1     128.311 175.867 120.149  1.00  0.00     0.041 C 
ATOM      7  O   UNL     1     128.992 174.813 120.047  1.00  0.00    -0.550 OA
ATOM      8  O   UNL     1     127.922 176.550 119.005  1.00  0.00    -0.550 OA
ENDBRANCH   5   6
ENDBRANCH   4   5
ENDBRANCH   3   4
ENDBRANCH   2   3
ENDBRANCH   1   2
BRANCH   1   9
ATOM      9  C   UNL     1     124.603 176.612 123.340  1.00  0.00     0.000 C 
BRANCH   9  10
ATOM     10  C   UNL     1     123.346 177.386 122.913  1.00  0.00    -0.000 C 
BRANCH  10  11
ATOM     11  C   UNL     1     123.409 177.856 121.451  1.00  0.00    -0.000 C 
BRANCH  11  12
ATOM     12  C   UNL     1     124.352 176.969 120.630  1.00  0.00    -0.000 C 
BRANCH  12  13
ATOM     13  C   UNL     1     124.549 177.535 119.218  1.00  0.00    -0.003 C 
ATOM     14  C   UNL     1     125.264 178.883 119.259  1.00  0.00     0.004 C 
ENDBRANCH  12  13
ENDBRANCH  11  12
ENDBRANCH  10  11
ENDBRANCH   9  10
ENDBRANCH   1   9
TORSDOF 10
ENDMDL
MODEL 7
REMARK VINA RESULT:    -4.451      7.092      8.966
REMARK INTER + INTRA:          -8.075
REMARK INTER:                  -6.774
REMARK INTRA:                  -1.301
REMARK UNBOUND:                -1.021
REMARK SMILES CCCCCCCCCCCC(=O)[O-]
REMARK SMILES IDX 7 1 8 2 9 3 10 4 11 5 12 6 13 7 14 8 6 9 5 10 4 11 3 12 2 13
REMARK SMILES IDX 1 14
REMARK H PARENT
REMARK Flexibility Score: inf
ROOT
ATOM      1  C   UNL     1     123.368 177.990 121.348  1.00  0.00     0.000 C 
ENDROOT
BRANCH   1   2
ATOM      2  C   UNL     1     124.377 177.411 120.348  1.00  0.00     0.000 C 
BRANCH   2   3
ATOM      3  C   UNL     1     125.209 178.526 119.698  1.00  0.00     0.000 C 
BRANCH   3   4
ATOM      4  C   UNL     1     126.684 178.133 119.514  1.00  0.00     0.006 C 
BRANCH   4   5
ATOM      5  C   UNL     1     126.934 176.642 119.772  1.00  0.00     0.053 C 
BRANCH   5   6
ATOM      6  C   UNL     1     128.366 176.409 120.136  1.00  0.00     0.041 C 
ATOM      7  O   UNL     1     128.669 175.522 120.977  1.00  0.00    -0.550 OA
ATOM      8  O   UNL     1     129.370 177.138 119.511  1.00  0.00    -0.550 OA
ENDBRANCH   5   6
ENDBRANCH   4   5
ENDBRANCH   3   4
ENDBRANCH   2   3
ENDBRANCH   1   2
BRANCH   1   9
ATOM      9  C   UNL     1     123.567 177.382 122.745  1.00  0.00     0.000 C 
BRANCH   9  10
ATOM     10  C   UNL     1     124.946 176.725 122.916  1.00  0.00    -0.000 C 
BRANCH  10  11
ATOM     11  C   UNL     1     125.846 177.487 123.900  1.00  0.00    -0.000 C 
BRANCH  11  12
ATOM     12  C   UNL     1     126.987 178.198 123.162  1.00  0.00    -0.000 C 
BRANCH  12  13
ATOM     13  C   UNL     1     128.334 177.933 123.845  1.00  0.00    -0.003 C 
ATOM     14  C   UNL     1     128.382 176.529 124.443  1.00  0.00     0.004 C 
ENDBRANCH  12  13
ENDBRANCH  11  12
ENDBRANCH  10  11
ENDBRANCH   9  10
ENDBRANCH   1   9
TORSDOF 10
ENDMDL
MODEL 8
REMARK VINA RESULT:    -4.451      2.220      4.090
REMARK INTER + INTRA:          -8.074
REMARK INTER:                  -7.064
REMARK INTRA:                  -1.009
REMARK UNBOUND:                -1.021
REMARK SMILES CCCCCCCCCCCC(=O)[O-]
REMARK SMILES IDX 7 1 8 2 9 3 10 4 11 5 12 6 13 7 14 8 6 9 5 10 4 11 3 12 2 13
REMARK SMILES IDX 1 14
REMARK H PARENT
REMARK Flexibility Score: inf
ROOT
ATOM      1  C   UNL     1     123.023 178.730 126.588  1.00  0.00     0.000 C 
ENDROOT
BRANCH   1   2
ATOM      2  C   UNL     1     121.585 178.220 126.737  1.00  0.00     0.000 C 
BRANCH   2   3
ATOM      3  C   UNL     1     120.573 179.352 126.506  1.00  0.00     0.000 C 
BRANCH   3   4
ATOM      4  C   UNL     1     120.319 179.624 125.014  1.00  0.00     0.006 C 
BRANCH   4   5
ATOM      5  C   UNL     1     119.536 178.493 124.334  1.00  0.00     0.053 C 
BRANCH   5   6
ATOM      6  C   UNL     1     118.224 178.281 125.022  1.00  0.00     0.041 C 
ATOM      7  O   UNL     1     117.327 179.164 124.960  1.00  0.00    -0.550 OA
ATOM      8  O   UNL     1     117.973 177.089 125.688  1.00  0.00    -0.550 OA
ENDBRANCH   5   6
ENDBRANCH   4   5
ENDBRANCH   3   4
ENDBRANCH   2   3
ENDBRANCH   1   2
BRANCH   1   9
ATOM      9  C   UNL     1     123.835 177.823 125.651  1.00  0.00     0.000 C 
BRANCH   9  10
ATOM     10  C   UNL     1     122.944 176.948 124.754  1.00  0.00    -0.000 C 
BRANCH  10  11
ATOM     11  C   UNL     1     123.132 177.249 123.260  1.00  0.00    -0.000 C 
BRANCH  11  12
ATOM     12  C   UNL     1     124.565 176.937 122.813  1.00  0.00    -0.000 C 
BRANCH  12  13
ATOM     13  C   UNL     1     124.894 177.637 121.489  1.00  0.00    -0.003 C 
ATOM     14  C   UNL     1     123.680 177.664 120.563  1.00  0.00     0.004 C 
ENDBRANCH  12  13
ENDBRANCH  11  12
ENDBRANCH  10  11
ENDBRANCH   9  10
ENDBRANCH   1   9
TORSDOF 10
ENDMDL
MODEL 9
REMARK VINA RESULT:    -4.359      2.296      4.206
REMARK INTER + INTRA:          -7.928
REMARK INTER:                  -6.255
REMARK INTRA:                  -1.673
REMARK UNBOUND:                -1.021
REMARK SMILES CCCCCCCCCCCC(=O)[O-]
REMARK SMILES IDX 7 1 8 2 9 3 10 4 11 5 12 6 13 7 14 8 6 9 5 10 4 11 3 12 2 13
REMARK SMILES IDX 1 14
REMARK H PARENT
REMARK Flexibility Score: inf
ROOT
ATOM      1  C   UNL     1     121.583 177.506 128.660  1.00  0.00     0.000 C 
ENDROOT
BRANCH   1   2
ATOM      2  C   UNL     1     122.709 178.106 127.809  1.00  0.00     0.000 C 
BRANCH   2   3
ATOM      3  C   UNL     1     122.140 178.932 126.647  1.00  0.00     0.000 C 
BRANCH   3   4
ATOM      4  C   UNL     1     120.639 179.221 126.805  1.00  0.00     0.006 C 
BRANCH   4   5
ATOM      5  C   UNL     1     120.011 179.796 125.528  1.00  0.00     0.053 C 
BRANCH   5   6
ATOM      6  C   UNL     1     119.033 178.825 124.945  1.00  0.00     0.041 C 
ATOM      7  O   UNL     1     119.183 178.407 123.766  1.00  0.00    -0.550 OA
ATOM      8  O   UNL     1     117.985 178.345 125.719  1.00  0.00    -0.550 OA
ENDBRANCH   5   6
ENDBRANCH   4   5
ENDBRANCH   3   4
ENDBRANCH   2   3
ENDBRANCH   1   2
BRANCH   1   9
ATOM      9  C   UNL     1     121.867 176.033 128.990  1.00  0.00     0.000 C 
BRANCH   9  10
ATOM     10  C   UNL     1     121.386 175.075 127.889  1.00  0.00    -0.000 C 
BRANCH  10  11
ATOM     11  C   UNL     1     120.072 175.533 127.239  1.00  0.00    -0.000 C 
BRANCH  11  12
ATOM     12  C   UNL     1     120.130 175.375 125.715  1.00  0.00    -0.000 C 
BRANCH  12  13
ATOM     13  C   UNL     1     121.580 175.285 125.225  1.00  0.00    -0.003 C 
ATOM     14  C   UNL     1     121.825 176.229 124.051  1.00  0.00     0.004 C 
ENDBRANCH  12  13
ENDBRANCH  11  12
ENDBRANCH  10  11
ENDBRANCH   9  10
ENDBRANCH   1   9
TORSDOF 10
ENDMDL
