MODEL 1
REMARK VINA RESULT:    22.895      0.000      0.000
REMARK INTER + INTRA:          26.679
REMARK INTER:                  26.910
REMARK INTRA:                  -0.231
REMARK UNBOUND:                -0.231
REMARK SMILES O=c1c(O)c(-c2ccc(O)cc2)oc2cc(O)cc(O)c12
REMARK SMILES IDX 5 1 3 2 2 3 1 4 21 5 19 6 18 7 16 8 15 9 14 10 13 11 6 12
REMARK SMILES IDX 7 13 8 14 9 15 12 16 11 17 10 18 4 20 20 22 17 24
REMARK H PARENT 10 19 4 21 20 23 17 25
REMARK Flexibility Score: inf
ROOT
ATOM      1  C   UNL     1      -6.101  -7.459  16.366  1.00  0.00     0.180 A 
ATOM      2  C   UNL     1      -5.723  -8.370  17.368  1.00  0.00     0.208 A 
ATOM      3  C   UNL     1      -6.033  -9.729  17.206  1.00  0.00     0.238 A 
ATOM      4  O   UNL     1      -5.741 -10.531  18.130  1.00  0.00    -0.285 OA
ATOM      5  C   UNL     1      -6.705 -10.163  16.038  1.00  0.00     0.111 A 
ATOM      6  C   UNL     1      -7.035 -11.522  15.751  1.00  0.00     0.134 A 
ATOM      7  C   UNL     1      -7.816 -11.820  14.626  1.00  0.00     0.093 A 
ATOM      8  C   UNL     1      -8.223 -10.815  13.745  1.00  0.00     0.123 A 
ATOM      9  C   UNL     1      -7.856  -9.494  13.986  1.00  0.00     0.094 A 
ATOM     10  C   UNL     1      -7.108  -9.160  15.117  1.00  0.00     0.146 A 
ATOM     11  O   UNL     1      -6.788  -7.888  15.314  1.00  0.00    -0.452 OA
ENDROOT
BRANCH   1  12
ATOM     12  C   UNL     1      -5.786  -6.014  16.455  1.00  0.00     0.021 A 
ATOM     13  C   UNL     1      -4.470  -5.579  16.227  1.00  0.00     0.016 A 
ATOM     14  C   UNL     1      -4.145  -4.223  16.329  1.00  0.00     0.047 A 
ATOM     15  C   UNL     1      -5.125  -3.288  16.673  1.00  0.00     0.115 A 
ATOM     16  C   UNL     1      -6.763  -5.072  16.821  1.00  0.00     0.016 A 
ATOM     17  C   UNL     1      -6.435  -3.716  16.922  1.00  0.00     0.047 A 
BRANCH  15  18
ATOM     18  O   UNL     1      -4.788  -1.940  16.770  1.00  0.00    -0.508 OA
ATOM     19  H   UNL     1      -3.947  -1.573  16.341  1.00  0.00     0.293 HD
ENDBRANCH  15  18
ENDBRANCH   1  12
BRANCH   2  20
ATOM     20  O   UNL     1      -5.079  -7.917  18.523  1.00  0.00    -0.502 OA
ATOM     21  H   UNL     1      -5.060  -8.454  19.381  1.00  0.00     0.293 HD
ENDBRANCH   2  20
BRANCH   6  22
ATOM     22  O   UNL     1      -6.602 -12.609  16.515  1.00  0.00    -0.507 OA
ATOM     23  H   UNL     1      -6.503 -12.601  17.519  1.00  0.00     0.293 HD
ENDBRANCH   6  22
BRANCH   8  24
ATOM     24  O   UNL     1      -8.987 -11.123  12.622  1.00  0.00    -0.508 OA
ATOM     25  H   UNL     1      -8.865 -10.629  11.746  1.00  0.00     0.293 HD
ENDBRANCH   8  24
TORSDOF 5
ENDMDL
MODEL 2
REMARK VINA RESULT:    24.438      1.226      3.058
REMARK INTER + INTRA:          28.493
REMARK INTER:                  28.625
REMARK INTRA:                  -0.131
REMARK UNBOUND:                -0.231
REMARK SMILES O=c1c(O)c(-c2ccc(O)cc2)oc2cc(O)cc(O)c12
REMARK SMILES IDX 5 1 3 2 2 3 1 4 21 5 19 6 18 7 16 8 15 9 14 10 13 11 6 12
REMARK SMILES IDX 7 13 8 14 9 15 12 16 11 17 10 18 4 20 20 22 17 24
REMARK H PARENT 10 19 4 21 20 23 17 25
REMARK Flexibility Score: inf
ROOT
ATOM      1  C   UNL     1      -6.367  -7.503  15.811  1.00  0.00     0.180 A 
ATOM      2  C   UNL     1      -7.280  -7.707  14.761  1.00  0.00     0.208 A 
ATOM      3  C   UNL     1      -7.708  -9.012  14.474  1.00  0.00     0.238 A 
ATOM      4  O   UNL     1      -8.482  -9.194  13.498  1.00  0.00    -0.285 OA
ATOM      5  C   UNL     1      -7.230 -10.097  15.248  1.00  0.00     0.111 A 
ATOM      6  C   UNL     1      -7.627 -11.457  15.071  1.00  0.00     0.134 A 
ATOM      7  C   UNL     1      -6.991 -12.463  15.808  1.00  0.00     0.093 A 
ATOM      8  C   UNL     1      -6.019 -12.152  16.763  1.00  0.00     0.123 A 
ATOM      9  C   UNL     1      -5.668 -10.823  16.985  1.00  0.00     0.094 A 
ATOM     10  C   UNL     1      -6.259  -9.800  16.240  1.00  0.00     0.146 A 
ATOM     11  O   UNL     1      -5.888  -8.547  16.476  1.00  0.00    -0.452 OA
ENDROOT
BRANCH   1  12
ATOM     12  C   UNL     1      -5.890  -6.153  16.190  1.00  0.00     0.021 A 
ATOM     13  C   UNL     1      -6.806  -5.210  16.684  1.00  0.00     0.016 A 
ATOM     14  C   UNL     1      -6.382  -3.922  17.026  1.00  0.00     0.047 A 
ATOM     15  C   UNL     1      -5.043  -3.556  16.863  1.00  0.00     0.115 A 
ATOM     16  C   UNL     1      -4.548  -5.773  16.009  1.00  0.00     0.016 A 
ATOM     17  C   UNL     1      -4.127  -4.484  16.351  1.00  0.00     0.047 A 
BRANCH  15  18
ATOM     18  O   UNL     1      -4.634  -2.270  17.208  1.00  0.00    -0.508 OA
ATOM     19  H   UNL     1      -4.181  -2.079  18.094  1.00  0.00     0.293 HD
ENDBRANCH  15  18
ENDBRANCH   1  12
BRANCH   2  20
ATOM     20  O   UNL     1      -7.722  -6.625  13.995  1.00  0.00    -0.502 OA
ATOM     21  H   UNL     1      -8.585  -6.650  13.466  1.00  0.00     0.293 HD
ENDBRANCH   2  20
BRANCH   6  22
ATOM     22  O   UNL     1      -8.650 -11.865  14.210  1.00  0.00    -0.507 OA
ATOM     23  H   UNL     1      -9.635 -11.796  14.417  1.00  0.00     0.293 HD
ENDBRANCH   6  22
BRANCH   8  24
ATOM     24  O   UNL     1      -5.403 -13.159  17.503  1.00  0.00    -0.508 OA
ATOM     25  H   UNL     1      -4.840 -12.949  18.318  1.00  0.00     0.293 HD
ENDBRANCH   8  24
TORSDOF 5
ENDMDL
MODEL 3
REMARK VINA RESULT:    25.852     10.379     11.108
REMARK INTER + INTRA:          30.155
REMARK INTER:                  29.759
REMARK INTRA:                   0.396
REMARK UNBOUND:                -0.231
REMARK SMILES O=c1c(O)c(-c2ccc(O)cc2)oc2cc(O)cc(O)c12
REMARK SMILES IDX 5 1 3 2 2 3 1 4 21 5 19 6 18 7 16 8 15 9 14 10 13 11 6 12
REMARK SMILES IDX 7 13 8 14 9 15 12 16 11 17 10 18 4 20 20 22 17 24
REMARK H PARENT 10 19 4 21 20 23 17 25
REMARK Flexibility Score: inf
ROOT
ATOM      1  C   UNL     1      -5.705 -17.471  12.789  1.00  0.00     0.180 A 
ATOM      2  C   UNL     1      -6.487 -16.964  11.736  1.00  0.00     0.208 A 
ATOM      3  C   UNL     1      -7.883 -16.933  11.878  1.00  0.00     0.238 A 
ATOM      4  O   UNL     1      -8.580 -16.529  10.911  1.00  0.00    -0.285 OA
ATOM      5  C   UNL     1      -8.480 -17.395  13.076  1.00  0.00     0.111 A 
ATOM      6  C   UNL     1      -9.882 -17.373  13.343  1.00  0.00     0.134 A 
ATOM      7  C   UNL     1     -10.371 -17.976  14.509  1.00  0.00     0.093 A 
ATOM      8  C   UNL     1      -9.504 -18.541  15.447  1.00  0.00     0.123 A 
ATOM      9  C   UNL     1      -8.130 -18.514  15.222  1.00  0.00     0.094 A 
ATOM     10  C   UNL     1      -7.614 -17.952  14.052  1.00  0.00     0.146 A 
ATOM     11  O   UNL     1      -6.298 -17.957  13.873  1.00  0.00    -0.452 OA
ENDROOT
BRANCH   1  12
ATOM     12  C   UNL     1      -4.226 -17.512  12.723  1.00  0.00     0.021 A 
ATOM     13  C   UNL     1      -3.517 -18.321  13.626  1.00  0.00     0.016 A 
ATOM     14  C   UNL     1      -2.119 -18.357  13.597  1.00  0.00     0.047 A 
ATOM     15  C   UNL     1      -1.413 -17.575  12.678  1.00  0.00     0.115 A 
ATOM     16  C   UNL     1      -3.510 -16.712  11.815  1.00  0.00     0.016 A 
ATOM     17  C   UNL     1      -2.113 -16.750  11.788  1.00  0.00     0.047 A 
BRANCH  15  18
ATOM     18  O   UNL     1      -0.022 -17.622  12.659  1.00  0.00    -0.508 OA
ATOM     19  H   UNL     1       0.519 -17.042  12.029  1.00  0.00     0.293 HD
ENDBRANCH  15  18
ENDBRANCH   1  12
BRANCH   2  20
ATOM     20  O   UNL     1      -5.879 -16.533  10.554  1.00  0.00    -0.502 OA
ATOM     21  H   UNL     1      -4.880 -16.599  10.401  1.00  0.00     0.293 HD
ENDBRANCH   2  20
BRANCH   6  22
ATOM     22  O   UNL     1     -10.825 -16.754  12.517  1.00  0.00    -0.507 OA
ATOM     23  H   UNL     1     -11.789 -17.039  12.432  1.00  0.00     0.293 HD
ENDBRANCH   6  22
BRANCH   8  24
ATOM     24  O   UNL     1      -9.999 -19.125  16.610  1.00  0.00    -0.508 OA
ATOM     25  H   UNL     1      -9.556 -18.976  17.509  1.00  0.00     0.293 HD
ENDBRANCH   8  24
TORSDOF 5
ENDMDL
