MODEL 1
REMARK VINA RESULT:    -6.520      0.000      0.000
REMARK INTER + INTRA:          -8.321
REMARK INTER:                  -8.045
REMARK INTRA:                  -0.276
REMARK UNBOUND:                -0.276
REMARK SMILES Oc1cc(O)c2cc(O)c(-c3cc(O)c(O)c(O)c3)[o+]c2c1
REMARK SMILES IDX 10 1 20 2 21 3 22 4 2 5 3 6 4 7 6 8 7 9 8 10 11 11 12 12
REMARK SMILES IDX 13 13 19 14 15 15 17 16 14 17 16 19 18 21 9 23 1 25 5 27
REMARK H PARENT 14 18 16 20 18 22 9 24 1 26 5 28
REMARK Flexibility Score: inf
ROOT
ATOM      1  C   UNL     1       1.844 -11.695 -32.576  1.00  0.00     0.402 A 
ATOM      2  O   UNL     1       2.326 -12.265 -31.474  1.00  0.00    -0.202 OA
ATOM      3  C   UNL     1       1.705 -12.224 -30.300  1.00  0.00     0.368 A 
ATOM      4  C   UNL     1       2.290 -12.855 -29.199  1.00  0.00     0.162 A 
ATOM      5  C   UNL     1       1.659 -12.832 -27.956  1.00  0.00     0.128 A 
ATOM      6  C   UNL     1       0.434 -12.175 -27.808  1.00  0.00     0.093 A 
ATOM      7  C   UNL     1      -0.174 -11.535 -28.896  1.00  0.00     0.136 A 
ATOM      8  C   UNL     1       0.466 -11.554 -30.162  1.00  0.00     0.125 A 
ATOM      9  C   UNL     1      -0.062 -10.929 -31.304  1.00  0.00     0.078 A 
ATOM     10  C   UNL     1       0.630 -10.987 -32.517  1.00  0.00     0.223 A 
ENDROOT
BRANCH   1  11
ATOM     11  C   UNL     1       2.625 -11.817 -33.828  1.00  0.00     0.091 A 
ATOM     12  C   UNL     1       3.901 -11.238 -33.904  1.00  0.00     0.068 A 
ATOM     13  C   UNL     1       4.670 -11.355 -35.066  1.00  0.00     0.162 A 
ATOM     14  C   UNL     1       2.141 -12.550 -34.924  1.00  0.00     0.068 A 
ATOM     15  C   UNL     1       4.173 -12.071 -36.169  1.00  0.00     0.200 A 
ATOM     16  C   UNL     1       2.905 -12.674 -36.093  1.00  0.00     0.162 A 
BRANCH  13  17
ATOM     17  O   UNL     1       5.927 -10.752 -35.107  1.00  0.00    -0.504 OA
ATOM     18  H   UNL     1       6.740 -11.169 -34.671  1.00  0.00     0.293 HD
ENDBRANCH  13  17
BRANCH  15  19
ATOM     19  O   UNL     1       4.944 -12.179 -37.326  1.00  0.00    -0.502 OA
ATOM     20  H   UNL     1       4.878 -12.978 -37.946  1.00  0.00     0.293 HD
ENDBRANCH  15  19
BRANCH  16  21
ATOM     21  O   UNL     1       2.412 -13.397 -37.178  1.00  0.00    -0.504 OA
ATOM     22  H   UNL     1       1.904 -12.946 -37.930  1.00  0.00     0.293 HD
ENDBRANCH  16  21
ENDBRANCH   1  11
BRANCH  10  23
ATOM     23  O   UNL     1       0.130 -10.323 -33.639  1.00  0.00    -0.500 OA
ATOM     24  H   UNL     1      -0.030 -10.804 -34.516  1.00  0.00     0.294 HD
ENDBRANCH  10  23
BRANCH   5  25
ATOM     25  O   UNL     1       2.259 -13.468 -26.871  1.00  0.00    -0.507 OA
ATOM     26  H   UNL     1       1.732 -14.079 -26.257  1.00  0.00     0.293 HD
ENDBRANCH   5  25
BRANCH   7  27
ATOM     27  O   UNL     1      -1.400 -10.903 -28.668  1.00  0.00    -0.507 OA
ATOM     28  H   UNL     1      -1.873 -10.317 -29.340  1.00  0.00     0.293 HD
ENDBRANCH   7  27
TORSDOF 7
ENDMDL
MODEL 2
REMARK VINA RESULT:    -6.381      1.099      7.247
REMARK INTER + INTRA:          -8.150
REMARK INTER:                  -7.885
REMARK INTRA:                  -0.265
REMARK UNBOUND:                -0.276
REMARK SMILES Oc1cc(O)c2cc(O)c(-c3cc(O)c(O)c(O)c3)[o+]c2c1
REMARK SMILES IDX 10 1 20 2 21 3 22 4 2 5 3 6 4 7 6 8 7 9 8 10 11 11 12 12
REMARK SMILES IDX 13 13 19 14 15 15 17 16 14 17 16 19 18 21 9 23 1 25 5 27
REMARK H PARENT 14 18 16 20 18 22 9 24 1 26 5 28
REMARK Flexibility Score: inf
ROOT
ATOM      1  C   UNL     1       2.614 -11.858 -31.729  1.00  0.00     0.402 A 
ATOM      2  O   UNL     1       2.133 -12.371 -32.859  1.00  0.00    -0.202 OA
ATOM      3  C   UNL     1       2.774 -12.305 -34.021  1.00  0.00     0.368 A 
ATOM      4  C   UNL     1       2.188 -12.875 -35.154  1.00  0.00     0.162 A 
ATOM      5  C   UNL     1       2.839 -12.825 -36.386  1.00  0.00     0.128 A 
ATOM      6  C   UNL     1       4.087 -12.201 -36.490  1.00  0.00     0.093 A 
ATOM      7  C   UNL     1       4.695 -11.621 -35.369  1.00  0.00     0.136 A 
ATOM      8  C   UNL     1       4.035 -11.669 -34.114  1.00  0.00     0.125 A 
ATOM      9  C   UNL     1       4.563 -11.104 -32.942  1.00  0.00     0.078 A 
ATOM     10  C   UNL     1       3.850 -11.186 -31.742  1.00  0.00     0.223 A 
ENDROOT
BRANCH   1  11
ATOM     11  C   UNL     1       1.810 -12.003 -30.495  1.00  0.00     0.091 A 
ATOM     12  C   UNL     1       2.287 -12.810 -29.450  1.00  0.00     0.068 A 
ATOM     13  C   UNL     1       1.559 -12.950 -28.266  1.00  0.00     0.162 A 
ATOM     14  C   UNL     1       0.603 -11.305 -30.321  1.00  0.00     0.068 A 
ATOM     15  C   UNL     1       0.341 -12.267 -28.104  1.00  0.00     0.200 A 
ATOM     16  C   UNL     1      -0.134 -11.439 -29.136  1.00  0.00     0.162 A 
BRANCH  13  17
ATOM     17  O   UNL     1       2.061 -13.773 -27.258  1.00  0.00    -0.504 OA
ATOM     18  H   UNL     1       1.671 -13.781 -26.323  1.00  0.00     0.293 HD
ENDBRANCH  13  17
BRANCH  15  19
ATOM     19  O   UNL     1      -0.382 -12.415 -26.920  1.00  0.00    -0.502 OA
ATOM     20  H   UNL     1      -0.263 -13.217 -26.312  1.00  0.00     0.293 HD
ENDBRANCH  15  19
BRANCH  16  21
ATOM     21  O   UNL     1      -1.334 -10.747 -28.977  1.00  0.00    -0.504 OA
ATOM     22  H   UNL     1      -2.048 -11.064 -28.331  1.00  0.00     0.293 HD
ENDBRANCH  16  21
ENDBRANCH   1  11
BRANCH  10  23
ATOM     23  O   UNL     1       4.352 -10.582 -30.588  1.00  0.00    -0.500 OA
ATOM     24  H   UNL     1       5.257 -10.828 -30.207  1.00  0.00     0.294 HD
ENDBRANCH  10  23
BRANCH   5  25
ATOM     25  O   UNL     1       2.238 -13.400 -37.504  1.00  0.00    -0.507 OA
ATOM     26  H   UNL     1       2.672 -14.169 -38.001  1.00  0.00     0.293 HD
ENDBRANCH   5  25
BRANCH   7  27
ATOM     27  O   UNL     1       5.944 -11.019 -35.554  1.00  0.00    -0.507 OA
ATOM     28  H   UNL     1       6.796 -11.523 -35.751  1.00  0.00     0.293 HD
ENDBRANCH   7  27
TORSDOF 7
ENDMDL
MODEL 3
REMARK VINA RESULT:    -6.378      1.143      7.315
REMARK INTER + INTRA:          -8.146
REMARK INTER:                  -7.837
REMARK INTRA:                  -0.309
REMARK UNBOUND:                -0.276
REMARK SMILES Oc1cc(O)c2cc(O)c(-c3cc(O)c(O)c(O)c3)[o+]c2c1
REMARK SMILES IDX 10 1 20 2 21 3 22 4 2 5 3 6 4 7 6 8 7 9 8 10 11 11 12 12
REMARK SMILES IDX 13 13 19 14 15 15 17 16 14 17 16 19 18 21 9 23 1 25 5 27
REMARK H PARENT 14 18 16 20 18 22 9 24 1 26 5 28
REMARK Flexibility Score: inf
ROOT
ATOM      1  C   UNL     1       2.828 -11.722 -31.777  1.00  0.00     0.402 A 
ATOM      2  O   UNL     1       2.355 -12.239 -32.908  1.00  0.00    -0.202 OA
ATOM      3  C   UNL     1       2.989 -12.150 -34.073  1.00  0.00     0.368 A 
ATOM      4  C   UNL     1       2.411 -12.728 -35.206  1.00  0.00     0.162 A 
ATOM      5  C   UNL     1       3.056 -12.654 -36.441  1.00  0.00     0.128 A 
ATOM      6  C   UNL     1       4.287 -11.999 -36.546  1.00  0.00     0.093 A 
ATOM      7  C   UNL     1       4.886 -11.412 -35.425  1.00  0.00     0.136 A 
ATOM      8  C   UNL     1       4.233 -11.483 -34.167  1.00  0.00     0.125 A 
ATOM      9  C   UNL     1       4.752 -10.912 -32.994  1.00  0.00     0.078 A 
ATOM     10  C   UNL     1       4.048 -11.020 -31.791  1.00  0.00     0.223 A 
ENDROOT
BRANCH   1  11
ATOM     11  C   UNL     1       2.033 -11.895 -30.540  1.00  0.00     0.091 A 
ATOM     12  C   UNL     1       0.794 -11.247 -30.420  1.00  0.00     0.068 A 
ATOM     13  C   UNL     1       0.012 -11.407 -29.273  1.00  0.00     0.162 A 
ATOM     14  C   UNL     1       2.465 -12.740 -29.505  1.00  0.00     0.068 A 
ATOM     15  C   UNL     1       0.457 -12.237 -28.230  1.00  0.00     0.200 A 
ATOM     16  C   UNL     1       1.687 -12.909 -28.351  1.00  0.00     0.162 A 
BRANCH  13  17
ATOM     17  O   UNL     1      -1.206 -10.734 -29.186  1.00  0.00    -0.504 OA
ATOM     18  H   UNL     1      -1.882 -10.933 -28.458  1.00  0.00     0.293 HD
ENDBRANCH  13  17
BRANCH  15  19
ATOM     19  O   UNL     1      -0.327 -12.389 -27.086  1.00  0.00    -0.502 OA
ATOM     20  H   UNL     1      -0.719 -11.597 -26.591  1.00  0.00     0.293 HD
ENDBRANCH  15  19
BRANCH  16  21
ATOM     21  O   UNL     1       2.128 -13.745 -27.326  1.00  0.00    -0.504 OA
ATOM     22  H   UNL     1       2.399 -14.706 -27.504  1.00  0.00     0.293 HD
ENDBRANCH  16  21
ENDBRANCH   1  11
BRANCH  10  23
ATOM     23  O   UNL     1       4.539 -10.410 -30.636  1.00  0.00    -0.500 OA
ATOM     24  H   UNL     1       4.005 -10.388 -29.776  1.00  0.00     0.294 HD
ENDBRANCH  10  23
BRANCH   5  25
ATOM     25  O   UNL     1       2.464 -13.237 -37.560  1.00  0.00    -0.507 OA
ATOM     26  H   UNL     1       2.704 -14.176 -37.857  1.00  0.00     0.293 HD
ENDBRANCH   5  25
BRANCH   7  27
ATOM     27  O   UNL     1       6.119 -10.778 -35.611  1.00  0.00    -0.507 OA
ATOM     28  H   UNL     1       6.384 -10.281 -36.449  1.00  0.00     0.293 HD
ENDBRANCH   7  27
TORSDOF 7
ENDMDL
MODEL 4
REMARK VINA RESULT:    -6.077      1.160      2.608
REMARK INTER + INTRA:          -7.775
REMARK INTER:                  -7.504
REMARK INTRA:                  -0.271
REMARK UNBOUND:                -0.276
REMARK SMILES Oc1cc(O)c2cc(O)c(-c3cc(O)c(O)c(O)c3)[o+]c2c1
REMARK SMILES IDX 10 1 20 2 21 3 22 4 2 5 3 6 4 7 6 8 7 9 8 10 11 11 12 12
REMARK SMILES IDX 13 13 19 14 15 15 17 16 14 17 16 19 18 21 9 23 1 25 5 27
REMARK H PARENT 14 18 16 20 18 22 9 24 1 26 5 28
REMARK Flexibility Score: inf
ROOT
ATOM      1  C   UNL     1       2.805 -11.940 -32.682  1.00  0.00     0.402 A 
ATOM      2  O   UNL     1       1.660 -11.321 -32.405  1.00  0.00    -0.202 OA
ATOM      3  C   UNL     1       1.088 -11.346 -31.206  1.00  0.00     0.368 A 
ATOM      4  C   UNL     1      -0.115 -10.663 -31.012  1.00  0.00     0.162 A 
ATOM      5  C   UNL     1      -0.736 -10.668 -29.763  1.00  0.00     0.128 A 
ATOM      6  C   UNL     1      -0.151 -11.360 -28.697  1.00  0.00     0.093 A 
ATOM      7  C   UNL     1       1.054 -12.053 -28.866  1.00  0.00     0.136 A 
ATOM      8  C   UNL     1       1.688 -12.052 -30.136  1.00  0.00     0.125 A 
ATOM      9  C   UNL     1       2.890 -12.729 -30.400  1.00  0.00     0.078 A 
ATOM     10  C   UNL     1       3.452 -12.686 -31.679  1.00  0.00     0.223 A 
ENDROOT
BRANCH   1  11
ATOM     11  C   UNL     1       3.347 -11.831 -34.055  1.00  0.00     0.091 A 
ATOM     12  C   UNL     1       4.539 -11.123 -34.273  1.00  0.00     0.068 A 
ATOM     13  C   UNL     1       5.084 -11.020 -35.555  1.00  0.00     0.162 A 
ATOM     14  C   UNL     1       2.724 -12.470 -35.141  1.00  0.00     0.068 A 
ATOM     15  C   UNL     1       4.447 -11.642 -36.642  1.00  0.00     0.200 A 
ATOM     16  C   UNL     1       3.265 -12.373 -36.430  1.00  0.00     0.162 A 
BRANCH  13  17
ATOM     17  O   UNL     1       6.262 -10.294 -35.732  1.00  0.00    -0.504 OA
ATOM     18  H   UNL     1       6.272  -9.376 -36.160  1.00  0.00     0.293 HD
ENDBRANCH  13  17
BRANCH  15  19
ATOM     19  O   UNL     1       4.996 -11.531 -37.920  1.00  0.00    -0.502 OA
ATOM     20  H   UNL     1       5.907 -11.118 -38.082  1.00  0.00     0.293 HD
ENDBRANCH  15  19
BRANCH  16  21
ATOM     21  O   UNL     1       2.635 -13.005 -37.502  1.00  0.00    -0.504 OA
ATOM     22  H   UNL     1       2.237 -12.476 -38.270  1.00  0.00     0.293 HD
ENDBRANCH  16  21
ENDBRANCH   1  11
BRANCH  10  23
ATOM     23  O   UNL     1       4.619 -13.399 -31.954  1.00  0.00    -0.500 OA
ATOM     24  H   UNL     1       4.988 -13.477 -32.894  1.00  0.00     0.294 HD
ENDBRANCH  10  23
BRANCH   5  25
ATOM     25  O   UNL     1      -1.935  -9.981 -29.590  1.00  0.00    -0.507 OA
ATOM     26  H   UNL     1      -1.957  -9.042 -29.206  1.00  0.00     0.293 HD
ENDBRANCH   5  25
BRANCH   7  27
ATOM     27  O   UNL     1       1.576 -12.718 -27.751  1.00  0.00    -0.507 OA
ATOM     28  H   UNL     1       1.681 -12.304 -26.838  1.00  0.00     0.293 HD
ENDBRANCH   7  27
TORSDOF 7
ENDMDL
MODEL 5
REMARK VINA RESULT:    -6.057      2.112      3.258
REMARK INTER + INTRA:          -7.749
REMARK INTER:                  -7.846
REMARK INTRA:                   0.097
REMARK UNBOUND:                -0.276
REMARK SMILES Oc1cc(O)c2cc(O)c(-c3cc(O)c(O)c(O)c3)[o+]c2c1
REMARK SMILES IDX 10 1 20 2 21 3 22 4 2 5 3 6 4 7 6 8 7 9 8 10 11 11 12 12
REMARK SMILES IDX 13 13 19 14 15 15 17 16 14 17 16 19 18 21 9 23 1 25 5 27
REMARK H PARENT 14 18 16 20 18 22 9 24 1 26 5 28
REMARK Flexibility Score: inf
ROOT
ATOM      1  C   UNL     1       3.091 -11.946 -31.625  1.00  0.00     0.402 A 
ATOM      2  O   UNL     1       3.376 -10.810 -30.991  1.00  0.00    -0.202 OA
ATOM      3  C   UNL     1       3.163 -10.627 -29.692  1.00  0.00     0.368 A 
ATOM      4  C   UNL     1       3.496  -9.399 -29.116  1.00  0.00     0.162 A 
ATOM      5  C   UNL     1       3.288  -9.179 -27.754  1.00  0.00     0.128 A 
ATOM      6  C   UNL     1       2.743 -10.194 -26.960  1.00  0.00     0.093 A 
ATOM      7  C   UNL     1       2.400 -11.434 -27.514  1.00  0.00     0.136 A 
ATOM      8  C   UNL     1       2.609 -11.660 -28.899  1.00  0.00     0.125 A 
ATOM      9  C   UNL     1       2.284 -12.866 -29.542  1.00  0.00     0.078 A 
ATOM     10  C   UNL     1       2.514 -13.013 -30.913  1.00  0.00     0.223 A 
ENDROOT
BRANCH   1  11
ATOM     11  C   UNL     1       3.383 -12.031 -33.074  1.00  0.00     0.091 A 
ATOM     12  C   UNL     1       2.446 -12.626 -33.933  1.00  0.00     0.068 A 
ATOM     13  C   UNL     1       2.685 -12.704 -35.308  1.00  0.00     0.162 A 
ATOM     14  C   UNL     1       4.553 -11.477 -33.619  1.00  0.00     0.068 A 
ATOM     15  C   UNL     1       3.867 -12.168 -35.846  1.00  0.00     0.200 A 
ATOM     16  C   UNL     1       4.801 -11.549 -34.997  1.00  0.00     0.162 A 
BRANCH  13  17
ATOM     17  O   UNL     1       1.736 -13.317 -36.125  1.00  0.00    -0.504 OA
ATOM     18  H   UNL     1       1.129 -12.787 -36.740  1.00  0.00     0.293 HD
ENDBRANCH  13  17
BRANCH  15  19
ATOM     19  O   UNL     1       4.100 -12.252 -37.219  1.00  0.00    -0.502 OA
ATOM     20  H   UNL     1       4.909 -11.826 -37.657  1.00  0.00     0.293 HD
ENDBRANCH  15  19
BRANCH  16  21
ATOM     21  O   UNL     1       5.970 -11.003 -35.527  1.00  0.00    -0.504 OA
ATOM     22  H   UNL     1       6.428 -11.411 -36.334  1.00  0.00     0.293 HD
ENDBRANCH  16  21
ENDBRANCH   1  11
BRANCH  10  23
ATOM     23  O   UNL     1       2.144 -14.193 -31.561  1.00  0.00    -0.500 OA
ATOM     24  H   UNL     1       1.315 -14.709 -31.296  1.00  0.00     0.294 HD
ENDBRANCH  10  23
BRANCH   5  25
ATOM     25  O   UNL     1       3.627  -7.948 -27.199  1.00  0.00    -0.507 OA
ATOM     26  H   UNL     1       4.501  -7.813 -26.702  1.00  0.00     0.293 HD
ENDBRANCH   5  25
BRANCH   7  27
ATOM     27  O   UNL     1       1.864 -12.397 -26.654  1.00  0.00    -0.507 OA
ATOM     28  H   UNL     1       1.830 -12.309 -25.649  1.00  0.00     0.293 HD
ENDBRANCH   7  27
TORSDOF 7
ENDMDL
MODEL 6
REMARK VINA RESULT:    -6.021      1.747      7.168
REMARK INTER + INTRA:          -7.706
REMARK INTER:                  -7.524
REMARK INTRA:                  -0.182
REMARK UNBOUND:                -0.276
REMARK SMILES Oc1cc(O)c2cc(O)c(-c3cc(O)c(O)c(O)c3)[o+]c2c1
REMARK SMILES IDX 10 1 20 2 21 3 22 4 2 5 3 6 4 7 6 8 7 9 8 10 11 11 12 12
REMARK SMILES IDX 13 13 19 14 15 15 17 16 14 17 16 19 18 21 9 23 1 25 5 27
REMARK H PARENT 14 18 16 20 18 22 9 24 1 26 5 28
REMARK Flexibility Score: inf
ROOT
ATOM      1  C   UNL     1       2.598 -11.850 -32.079  1.00  0.00     0.402 A 
ATOM      2  O   UNL     1       3.699 -11.333 -32.619  1.00  0.00    -0.202 OA
ATOM      3  C   UNL     1       4.007 -11.456 -33.906  1.00  0.00     0.368 A 
ATOM      4  C   UNL     1       5.185 -10.875 -34.381  1.00  0.00     0.162 A 
ATOM      5  C   UNL     1       5.532 -10.984 -35.728  1.00  0.00     0.128 A 
ATOM      6  C   UNL     1       4.695 -11.677 -36.609  1.00  0.00     0.093 A 
ATOM      7  C   UNL     1       3.509 -12.268 -36.157  1.00  0.00     0.136 A 
ATOM      8  C   UNL     1       3.154 -12.162 -34.787  1.00  0.00     0.125 A 
ATOM      9  C   UNL     1       1.991 -12.733 -34.244  1.00  0.00     0.078 A 
ATOM     10  C   UNL     1       1.711 -12.589 -32.882  1.00  0.00     0.223 A 
ENDROOT
BRANCH   1  11
ATOM     11  C   UNL     1       2.361 -11.638 -30.633  1.00  0.00     0.091 A 
ATOM     12  C   UNL     1       2.329 -12.743 -29.768  1.00  0.00     0.068 A 
ATOM     13  C   UNL     1       2.127 -12.572 -28.396  1.00  0.00     0.162 A 
ATOM     14  C   UNL     1       2.224 -10.347 -30.095  1.00  0.00     0.068 A 
ATOM     15  C   UNL     1       1.969 -11.280 -27.865  1.00  0.00     0.200 A 
ATOM     16  C   UNL     1       2.023 -10.165 -28.720  1.00  0.00     0.162 A 
BRANCH  13  17
ATOM     17  O   UNL     1       2.086 -13.698 -27.574  1.00  0.00    -0.504 OA
ATOM     18  H   UNL     1       2.926 -14.185 -27.284  1.00  0.00     0.293 HD
ENDBRANCH  13  17
BRANCH  15  19
ATOM     19  O   UNL     1       1.764 -11.117 -26.495  1.00  0.00    -0.502 OA
ATOM     20  H   UNL     1       2.473 -11.355 -25.811  1.00  0.00     0.293 HD
ENDBRANCH  15  19
BRANCH  16  21
ATOM     21  O   UNL     1       1.881  -8.880 -28.198  1.00  0.00    -0.504 OA
ATOM     22  H   UNL     1       1.678  -8.084 -28.793  1.00  0.00     0.293 HD
ENDBRANCH  16  21
ENDBRANCH   1  11
BRANCH  10  23
ATOM     23  O   UNL     1       0.582 -13.199 -32.333  1.00  0.00    -0.500 OA
ATOM     24  H   UNL     1       0.423 -13.225 -31.333  1.00  0.00     0.294 HD
ENDBRANCH  10  23
BRANCH   5  25
ATOM     25  O   UNL     1       6.711 -10.398 -36.182  1.00  0.00    -0.507 OA
ATOM     26  H   UNL     1       7.619 -10.777 -35.938  1.00  0.00     0.293 HD
ENDBRANCH   5  25
BRANCH   7  27
ATOM     27  O   UNL     1       2.725 -12.942 -37.100  1.00  0.00    -0.507 OA
ATOM     28  H   UNL     1       1.890 -13.464 -36.879  1.00  0.00     0.293 HD
ENDBRANCH   7  27
TORSDOF 7
ENDMDL
MODEL 7
REMARK VINA RESULT:    -6.021      2.157      2.803
REMARK INTER + INTRA:          -7.705
REMARK INTER:                  -7.762
REMARK INTRA:                   0.056
REMARK UNBOUND:                -0.276
REMARK SMILES Oc1cc(O)c2cc(O)c(-c3cc(O)c(O)c(O)c3)[o+]c2c1
REMARK SMILES IDX 10 1 20 2 21 3 22 4 2 5 3 6 4 7 6 8 7 9 8 10 11 11 12 12
REMARK SMILES IDX 13 13 19 14 15 15 17 16 14 17 16 19 18 21 9 23 1 25 5 27
REMARK H PARENT 14 18 16 20 18 22 9 24 1 26 5 28
REMARK Flexibility Score: inf
ROOT
ATOM      1  C   UNL     1       3.027 -11.878 -31.594  1.00  0.00     0.402 A 
ATOM      2  O   UNL     1       3.295 -10.725 -30.987  1.00  0.00    -0.202 OA
ATOM      3  C   UNL     1       3.123 -10.530 -29.684  1.00  0.00     0.368 A 
ATOM      4  C   UNL     1       3.436  -9.283 -29.136  1.00  0.00     0.162 A 
ATOM      5  C   UNL     1       3.270  -9.050 -27.771  1.00  0.00     0.128 A 
ATOM      6  C   UNL     1       2.787 -10.070 -26.945  1.00  0.00     0.093 A 
ATOM      7  C   UNL     1       2.467 -11.329 -27.469  1.00  0.00     0.136 A 
ATOM      8  C   UNL     1       2.633 -11.569 -28.857  1.00  0.00     0.125 A 
ATOM      9  C   UNL     1       2.325 -12.794 -29.472  1.00  0.00     0.078 A 
ATOM     10  C   UNL     1       2.511 -12.953 -30.848  1.00  0.00     0.223 A 
ENDROOT
BRANCH   1  11
ATOM     11  C   UNL     1       3.269 -11.976 -33.052  1.00  0.00     0.091 A 
ATOM     12  C   UNL     1       4.463 -11.470 -33.589  1.00  0.00     0.068 A 
ATOM     13  C   UNL     1       4.728 -11.565 -34.958  1.00  0.00     0.162 A 
ATOM     14  C   UNL     1       2.354 -12.616 -33.905  1.00  0.00     0.068 A 
ATOM     15  C   UNL     1       3.800 -12.188 -35.811  1.00  0.00     0.200 A 
ATOM     16  C   UNL     1       2.612 -12.718 -35.279  1.00  0.00     0.162 A 
BRANCH  13  17
ATOM     17  O   UNL     1       5.919 -11.036 -35.454  1.00  0.00    -0.504 OA
ATOM     18  H   UNL     1       5.961 -10.526 -36.328  1.00  0.00     0.293 HD
ENDBRANCH  13  17
BRANCH  15  19
ATOM     19  O   UNL     1       4.070 -12.276 -37.177  1.00  0.00    -0.502 OA
ATOM     20  H   UNL     1       3.919 -11.498 -37.808  1.00  0.00     0.293 HD
ENDBRANCH  15  19
BRANCH  16  21
ATOM     21  O   UNL     1       1.694 -13.349 -36.118  1.00  0.00    -0.504 OA
ATOM     22  H   UNL     1       0.834 -13.749 -35.758  1.00  0.00     0.293 HD
ENDBRANCH  16  21
ENDBRANCH   1  11
BRANCH  10  23
ATOM     23  O   UNL     1       2.158 -14.154 -31.466  1.00  0.00    -0.500 OA
ATOM     24  H   UNL     1       1.308 -14.649 -31.223  1.00  0.00     0.294 HD
ENDBRANCH  10  23
BRANCH   5  25
ATOM     25  O   UNL     1       3.587  -7.800 -27.245  1.00  0.00    -0.507 OA
ATOM     26  H   UNL     1       3.950  -7.056 -27.830  1.00  0.00     0.293 HD
ENDBRANCH   5  25
BRANCH   7  27
ATOM     27  O   UNL     1       1.993 -12.296 -26.577  1.00  0.00    -0.507 OA
ATOM     28  H   UNL     1       2.458 -12.557 -25.720  1.00  0.00     0.293 HD
ENDBRANCH   7  27
TORSDOF 7
ENDMDL
MODEL 8
REMARK VINA RESULT:    -5.962      1.219      3.151
REMARK INTER + INTRA:          -7.633
REMARK INTER:                  -7.255
REMARK INTRA:                  -0.378
REMARK UNBOUND:                -0.276
REMARK SMILES Oc1cc(O)c2cc(O)c(-c3cc(O)c(O)c(O)c3)[o+]c2c1
REMARK SMILES IDX 10 1 20 2 21 3 22 4 2 5 3 6 4 7 6 8 7 9 8 10 11 11 12 12
REMARK SMILES IDX 13 13 19 14 15 15 17 16 14 17 16 19 18 21 9 23 1 25 5 27
REMARK H PARENT 14 18 16 20 18 22 9 24 1 26 5 28
REMARK Flexibility Score: inf
ROOT
ATOM      1  C   UNL     1       2.048 -12.069 -32.258  1.00  0.00     0.402 A 
ATOM      2  O   UNL     1       1.256 -11.029 -32.007  1.00  0.00    -0.202 OA
ATOM      3  C   UNL     1       0.562 -10.896 -30.881  1.00  0.00     0.368 A 
ATOM      4  C   UNL     1      -0.242  -9.766 -30.708  1.00  0.00     0.162 A 
ATOM      5  C   UNL     1      -0.979  -9.598 -29.535  1.00  0.00     0.128 A 
ATOM      6  C   UNL     1      -0.912 -10.564 -28.526  1.00  0.00     0.093 A 
ATOM      7  C   UNL     1      -0.114 -11.705 -28.675  1.00  0.00     0.136 A 
ATOM      8  C   UNL     1       0.635 -11.881 -29.868  1.00  0.00     0.125 A 
ATOM      9  C   UNL     1       1.451 -12.999 -30.109  1.00  0.00     0.078 A 
ATOM     10  C   UNL     1       2.156 -13.105 -31.312  1.00  0.00     0.223 A 
ENDROOT
BRANCH   1  11
ATOM     11  C   UNL     1       2.777 -12.099 -33.546  1.00  0.00     0.091 A 
ATOM     12  C   UNL     1       2.187 -12.718 -34.659  1.00  0.00     0.068 A 
ATOM     13  C   UNL     1       2.843 -12.744 -35.893  1.00  0.00     0.162 A 
ATOM     14  C   UNL     1       4.025 -11.470 -33.695  1.00  0.00     0.068 A 
ATOM     15  C   UNL     1       4.101 -12.133 -36.033  1.00  0.00     0.200 A 
ATOM     16  C   UNL     1       4.690 -11.490 -34.929  1.00  0.00     0.162 A 
BRANCH  13  17
ATOM     17  O   UNL     1       2.230 -13.383 -36.970  1.00  0.00    -0.504 OA
ATOM     18  H   UNL     1       1.896 -12.874 -37.780  1.00  0.00     0.293 HD
ENDBRANCH  13  17
BRANCH  15  19
ATOM     19  O   UNL     1       4.752 -12.167 -37.267  1.00  0.00    -0.502 OA
ATOM     20  H   UNL     1       4.457 -12.784 -38.015  1.00  0.00     0.293 HD
ENDBRANCH  15  19
BRANCH  16  21
ATOM     21  O   UNL     1       5.931 -10.870 -35.065  1.00  0.00    -0.504 OA
ATOM     22  H   UNL     1       6.121  -9.965 -34.648  1.00  0.00     0.293 HD
ENDBRANCH  16  21
ENDBRANCH   1  11
BRANCH  10  23
ATOM     23  O   UNL     1       2.926 -14.239 -31.573  1.00  0.00    -0.500 OA
ATOM     24  H   UNL     1       3.210 -14.486 -32.513  1.00  0.00     0.294 HD
ENDBRANCH  10  23
BRANCH   5  25
ATOM     25  O   UNL     1      -1.774  -8.465 -29.382  1.00  0.00    -0.507 OA
ATOM     26  H   UNL     1      -2.589  -8.467 -28.779  1.00  0.00     0.293 HD
ENDBRANCH   5  25
BRANCH   7  27
ATOM     27  O   UNL     1      -0.099 -12.623 -27.620  1.00  0.00    -0.507 OA
ATOM     28  H   UNL     1       0.717 -13.137 -27.324  1.00  0.00     0.293 HD
ENDBRANCH   7  27
TORSDOF 7
ENDMDL
MODEL 9
REMARK VINA RESULT:    -5.815      1.819      3.658
REMARK INTER + INTRA:          -7.451
REMARK INTER:                  -7.067
REMARK INTRA:                  -0.384
REMARK UNBOUND:                -0.276
REMARK SMILES Oc1cc(O)c2cc(O)c(-c3cc(O)c(O)c(O)c3)[o+]c2c1
REMARK SMILES IDX 10 1 20 2 21 3 22 4 2 5 3 6 4 7 6 8 7 9 8 10 11 11 12 12
REMARK SMILES IDX 13 13 19 14 15 15 17 16 14 17 16 19 18 21 9 23 1 25 5 27
REMARK H PARENT 14 18 16 20 18 22 9 24 1 26 5 28
REMARK Flexibility Score: inf
ROOT
ATOM      1  C   UNL     1       3.674 -11.129 -32.774  1.00  0.00     0.402 A 
ATOM      2  O   UNL     1       2.486 -10.630 -32.441  1.00  0.00    -0.202 OA
ATOM      3  C   UNL     1       1.797 -11.033 -31.378  1.00  0.00     0.368 A 
ATOM      4  C   UNL     1       0.558 -10.446 -31.109  1.00  0.00     0.162 A 
ATOM      5  C   UNL     1      -0.185 -10.846 -29.998  1.00  0.00     0.128 A 
ATOM      6  C   UNL     1       0.313 -11.839 -29.148  1.00  0.00     0.093 A 
ATOM      7  C   UNL     1       1.552 -12.442 -29.396  1.00  0.00     0.136 A 
ATOM      8  C   UNL     1       2.310 -12.040 -30.526  1.00  0.00     0.125 A 
ATOM      9  C   UNL     1       3.555 -12.597 -30.859  1.00  0.00     0.078 A 
ATOM     10  C   UNL     1       4.241 -12.152 -31.993  1.00  0.00     0.223 A 
ENDROOT
BRANCH   1  11
ATOM     11  C   UNL     1       4.347 -10.591 -33.978  1.00  0.00     0.091 A 
ATOM     12  C   UNL     1       4.015 -11.103 -35.242  1.00  0.00     0.068 A 
ATOM     13  C   UNL     1       4.620 -10.602 -36.397  1.00  0.00     0.162 A 
ATOM     14  C   UNL     1       5.272  -9.537 -33.890  1.00  0.00     0.068 A 
ATOM     15  C   UNL     1       5.561  -9.562 -36.303  1.00  0.00     0.200 A 
ATOM     16  C   UNL     1       5.883  -9.026 -35.043  1.00  0.00     0.162 A 
BRANCH  13  17
ATOM     17  O   UNL     1       4.274 -11.149 -37.633  1.00  0.00    -0.504 OA
ATOM     18  H   UNL     1       3.452 -10.850 -38.144  1.00  0.00     0.293 HD
ENDBRANCH  13  17
BRANCH  15  19
ATOM     19  O   UNL     1       6.163  -9.069 -37.461  1.00  0.00    -0.502 OA
ATOM     20  H   UNL     1       6.469  -9.677 -38.211  1.00  0.00     0.293 HD
ENDBRANCH  15  19
BRANCH  16  21
ATOM     21  O   UNL     1       6.805  -7.985 -34.944  1.00  0.00    -0.504 OA
ATOM     22  H   UNL     1       7.761  -8.149 -34.648  1.00  0.00     0.293 HD
ENDBRANCH  16  21
ENDBRANCH   1  11
BRANCH  10  23
ATOM     23  O   UNL     1       5.454 -12.742 -32.352  1.00  0.00    -0.500 OA
ATOM     24  H   UNL     1       5.644 -13.721 -32.178  1.00  0.00     0.294 HD
ENDBRANCH  10  23
BRANCH   5  25
ATOM     25  O   UNL     1      -1.418 -10.249 -29.747  1.00  0.00    -0.507 OA
ATOM     26  H   UNL     1      -2.191 -10.338 -30.397  1.00  0.00     0.293 HD
ENDBRANCH   5  25
BRANCH   7  27
ATOM     27  O   UNL     1       1.982 -13.424 -28.497  1.00  0.00    -0.507 OA
ATOM     28  H   UNL     1       2.168 -13.260 -27.519  1.00  0.00     0.293 HD
ENDBRANCH   7  27
TORSDOF 7
ENDMDL
