MODEL 1
REMARK VINA RESULT:    -5.585      0.000      0.000
REMARK INTER + INTRA:         -12.117
REMARK INTER:                 -10.156
REMARK INTRA:                  -1.961
REMARK UNBOUND:                -1.961
REMARK SMILES CCCCCCCCCCCCCCCC(=O)[O-]
REMARK SMILES IDX 9 1 10 2 11 3 12 4 13 5 14 6 15 7 16 8 17 9 18 10 8 11 7 12
REMARK SMILES IDX 6 13 5 14 4 15 3 16 2 17 1 18
REMARK H PARENT
REMARK Flexibility Score: inf
ROOT
ATOM      1  C   UNL     1     -11.851  -8.878  11.121  1.00  0.00     0.000 C 
ENDROOT
BRANCH   1   2
ATOM      2  C   UNL     1     -12.698  -8.759   9.842  1.00  0.00     0.000 C 
BRANCH   2   3
ATOM      3  C   UNL     1     -12.026  -7.895   8.761  1.00  0.00     0.000 C 
BRANCH   3   4
ATOM      4  C   UNL     1     -11.498  -8.671   7.538  1.00  0.00     0.000 C 
BRANCH   4   5
ATOM      5  C   UNL     1     -11.395 -10.193   7.764  1.00  0.00     0.000 C 
BRANCH   5   6
ATOM      6  C   UNL     1      -9.948 -10.701   7.644  1.00  0.00     0.006 C 
BRANCH   6   7
ATOM      7  C   UNL     1      -8.950  -9.777   8.354  1.00  0.00     0.053 C 
BRANCH   7   8
ATOM      8  C   UNL     1      -7.843  -9.354   7.436  1.00  0.00     0.041 C 
ATOM      9  O   UNL     1      -6.994 -10.194   7.037  1.00  0.00    -0.550 OA
ATOM     10  O   UNL     1      -7.766  -8.037   7.001  1.00  0.00    -0.550 OA
ENDBRANCH   7   8
ENDBRANCH   6   7
ENDBRANCH   5   6
ENDBRANCH   4   5
ENDBRANCH   3   4
ENDBRANCH   2   3
ENDBRANCH   1   2
BRANCH   1  11
ATOM     11  C   UNL     1     -11.729 -10.329  11.624  1.00  0.00     0.000 C 
BRANCH  11  12
ATOM     12  C   UNL     1     -12.654 -11.341  10.925  1.00  0.00    -0.000 C 
BRANCH  12  13
ATOM     13  C   UNL     1     -11.904 -12.575  10.400  1.00  0.00    -0.000 C 
BRANCH  13  14
ATOM     14  C   UNL     1     -12.720 -13.295   9.320  1.00  0.00    -0.000 C 
BRANCH  14  15
ATOM     15  C   UNL     1     -11.800 -14.032   8.335  1.00  0.00    -0.000 C 
BRANCH  15  16
ATOM     16  C   UNL     1     -10.397 -14.298   8.910  1.00  0.00    -0.000 C 
BRANCH  16  17
ATOM     17  C   UNL     1     -10.071 -15.781   9.162  1.00  0.00    -0.003 C 
ATOM     18  C   UNL     1     -11.282 -16.697   8.988  1.00  0.00     0.004 C 
ENDBRANCH  16  17
ENDBRANCH  15  16
ENDBRANCH  14  15
ENDBRANCH  13  14
ENDBRANCH  12  13
ENDBRANCH  11  12
ENDBRANCH   1  11
TORSDOF 14
ENDMDL
MODEL 2
REMARK VINA RESULT:    -5.579      2.643      5.419
REMARK INTER + INTRA:         -12.107
REMARK INTER:                 -10.119
REMARK INTRA:                  -1.988
REMARK UNBOUND:                -1.961
REMARK SMILES CCCCCCCCCCCCCCCC(=O)[O-]
REMARK SMILES IDX 9 1 10 2 11 3 12 4 13 5 14 6 15 7 16 8 17 9 18 10 8 11 7 12
REMARK SMILES IDX 6 13 5 14 4 15 3 16 2 17 1 18
REMARK H PARENT
REMARK Flexibility Score: inf
ROOT
ATOM      1  C   UNL     1     -13.075  -9.034  10.375  1.00  0.00     0.000 C 
ENDROOT
BRANCH   1   2
ATOM      2  C   UNL     1     -13.336 -10.492  10.791  1.00  0.00     0.000 C 
BRANCH   2   3
ATOM      3  C   UNL     1     -12.069 -11.204  11.295  1.00  0.00     0.000 C 
BRANCH   3   4
ATOM      4  C   UNL     1     -11.750 -12.543  10.600  1.00  0.00     0.000 C 
BRANCH   4   5
ATOM      5  C   UNL     1     -12.678 -12.862   9.409  1.00  0.00     0.000 C 
BRANCH   5   6
ATOM      6  C   UNL     1     -11.966 -13.688   8.324  1.00  0.00     0.006 C 
BRANCH   6   7
ATOM      7  C   UNL     1     -12.298 -15.182   8.422  1.00  0.00     0.053 C 
BRANCH   7   8
ATOM      8  C   UNL     1     -11.101 -15.987   8.825  1.00  0.00     0.041 C 
ATOM      9  O   UNL     1      -9.966 -15.444   8.895  1.00  0.00    -0.550 OA
ATOM     10  O   UNL     1     -11.242 -17.330   9.151  1.00  0.00    -0.550 OA
ENDBRANCH   7   8
ENDBRANCH   6   7
ENDBRANCH   5   6
ENDBRANCH   4   5
ENDBRANCH   3   4
ENDBRANCH   2   3
ENDBRANCH   1   2
BRANCH   1  11
ATOM     11  C   UNL     1     -11.631  -8.581  10.661  1.00  0.00     0.000 C 
BRANCH  11  12
ATOM     12  C   UNL     1     -10.781  -8.284   9.413  1.00  0.00    -0.000 C 
BRANCH  12  13
ATOM     13  C   UNL     1     -11.418  -8.806   8.116  1.00  0.00    -0.000 C 
BRANCH  13  14
ATOM     14  C   UNL     1     -10.898 -10.208   7.773  1.00  0.00    -0.000 C 
BRANCH  14  15
ATOM     15  C   UNL     1      -9.542 -10.470   8.444  1.00  0.00    -0.000 C 
BRANCH  15  16
ATOM     16  C   UNL     1      -8.476 -10.985   7.460  1.00  0.00    -0.000 C 
BRANCH  16  17
ATOM     17  C   UNL     1      -7.341  -9.990   7.156  1.00  0.00    -0.003 C 
ATOM     18  C   UNL     1      -7.811  -8.536   7.138  1.00  0.00     0.004 C 
ENDBRANCH  16  17
ENDBRANCH  15  16
ENDBRANCH  14  15
ENDBRANCH  13  14
ENDBRANCH  12  13
ENDBRANCH  11  12
ENDBRANCH   1  11
TORSDOF 14
ENDMDL
MODEL 3
REMARK VINA RESULT:    -5.498      3.075      5.702
REMARK INTER + INTRA:         -11.958
REMARK INTER:                  -9.944
REMARK INTRA:                  -2.014
REMARK UNBOUND:                -1.961
REMARK SMILES CCCCCCCCCCCCCCCC(=O)[O-]
REMARK SMILES IDX 9 1 10 2 11 3 12 4 13 5 14 6 15 7 16 8 17 9 18 10 8 11 7 12
REMARK SMILES IDX 6 13 5 14 4 15 3 16 2 17 1 18
REMARK H PARENT
REMARK Flexibility Score: inf
ROOT
ATOM      1  C   UNL     1     -11.827 -10.573  11.311  1.00  0.00     0.000 C 
ENDROOT
BRANCH   1   2
ATOM      2  C   UNL     1     -12.895 -11.121  10.348  1.00  0.00     0.000 C 
BRANCH   2   3
ATOM      3  C   UNL     1     -12.588 -12.550   9.869  1.00  0.00     0.000 C 
BRANCH   3   4
ATOM      4  C   UNL     1     -11.791 -12.641   8.552  1.00  0.00     0.000 C 
BRANCH   4   5
ATOM      5  C   UNL     1     -10.410 -13.310   8.706  1.00  0.00     0.000 C 
BRANCH   5   6
ATOM      6  C   UNL     1     -10.435 -14.467   9.719  1.00  0.00     0.006 C 
BRANCH   6   7
ATOM      7  C   UNL     1     -10.148 -15.822   9.059  1.00  0.00     0.053 C 
BRANCH   7   8
ATOM      8  C   UNL     1     -11.383 -16.665   8.972  1.00  0.00     0.041 C 
ATOM      9  O   UNL     1     -12.449 -16.182   8.506  1.00  0.00    -0.550 OA
ATOM     10  O   UNL     1     -11.350 -17.992   9.381  1.00  0.00    -0.550 OA
ENDBRANCH   7   8
ENDBRANCH   6   7
ENDBRANCH   5   6
ENDBRANCH   4   5
ENDBRANCH   3   4
ENDBRANCH   2   3
ENDBRANCH   1   2
BRANCH   1  11
ATOM     11  C   UNL     1     -11.615  -9.054  11.164  1.00  0.00     0.000 C 
BRANCH  11  12
ATOM     12  C   UNL     1     -12.724  -8.312  10.399  1.00  0.00    -0.000 C 
BRANCH  12  13
ATOM     13  C   UNL     1     -12.181  -7.425   9.268  1.00  0.00    -0.000 C 
BRANCH  13  14
ATOM     14  C   UNL     1     -12.404  -8.080   7.900  1.00  0.00    -0.000 C 
BRANCH  14  15
ATOM     15  C   UNL     1     -11.319  -9.127   7.608  1.00  0.00    -0.000 C 
BRANCH  15  16
ATOM     16  C   UNL     1      -9.901  -8.633   7.950  1.00  0.00    -0.000 C 
BRANCH  16  17
ATOM     17  C   UNL     1      -8.957  -9.713   8.509  1.00  0.00    -0.003 C 
ATOM     18  C   UNL     1      -8.323 -10.574   7.418  1.00  0.00     0.004 C 
ENDBRANCH  16  17
ENDBRANCH  15  16
ENDBRANCH  14  15
ENDBRANCH  13  14
ENDBRANCH  12  13
ENDBRANCH  11  12
ENDBRANCH   1  11
TORSDOF 14
ENDMDL
MODEL 4
REMARK VINA RESULT:    -5.426      1.241      1.587
REMARK INTER + INTRA:         -11.828
REMARK INTER:                 -10.230
REMARK INTRA:                  -1.598
REMARK UNBOUND:                -1.961
REMARK SMILES CCCCCCCCCCCCCCCC(=O)[O-]
REMARK SMILES IDX 9 1 10 2 11 3 12 4 13 5 14 6 15 7 16 8 17 9 18 10 8 11 7 12
REMARK SMILES IDX 6 13 5 14 4 15 3 16 2 17 1 18
REMARK H PARENT
REMARK Flexibility Score: inf
ROOT
ATOM      1  C   UNL     1     -13.524  -9.734  10.311  1.00  0.00     0.000 C 
ENDROOT
BRANCH   1   2
ATOM      2  C   UNL     1     -13.226  -8.254  10.013  1.00  0.00     0.000 C 
BRANCH   2   3
ATOM      3  C   UNL     1     -12.846  -8.007   8.543  1.00  0.00     0.000 C 
BRANCH   3   4
ATOM      4  C   UNL     1     -11.351  -8.187   8.214  1.00  0.00     0.000 C 
BRANCH   4   5
ATOM      5  C   UNL     1     -10.448  -8.292   9.461  1.00  0.00     0.000 C 
BRANCH   5   6
ATOM      6  C   UNL     1      -9.140  -9.047   9.167  1.00  0.00     0.006 C 
BRANCH   6   7
ATOM      7  C   UNL     1      -9.373 -10.548   8.951  1.00  0.00     0.053 C 
BRANCH   7   8
ATOM      8  C   UNL     1      -8.749 -11.023   7.675  1.00  0.00     0.041 C 
ATOM      9  O   UNL     1      -9.237 -12.007   7.058  1.00  0.00    -0.550 OA
ATOM     10  O   UNL     1      -7.645 -10.362   7.152  1.00  0.00    -0.550 OA
ENDBRANCH   7   8
ENDBRANCH   6   7
ENDBRANCH   5   6
ENDBRANCH   4   5
ENDBRANCH   3   4
ENDBRANCH   2   3
ENDBRANCH   1   2
BRANCH   1  11
ATOM     11  C   UNL     1     -12.643 -10.306  11.437  1.00  0.00     0.000 C 
BRANCH  11  12
ATOM     12  C   UNL     1     -12.174 -11.756  11.226  1.00  0.00    -0.000 C 
BRANCH  12  13
ATOM     13  C   UNL     1     -12.988 -12.499  10.154  1.00  0.00    -0.000 C 
BRANCH  13  14
ATOM     14  C   UNL     1     -12.076 -13.030   9.042  1.00  0.00    -0.000 C 
BRANCH  14  15
ATOM     15  C   UNL     1     -10.884 -13.800   9.628  1.00  0.00    -0.000 C 
BRANCH  15  16
ATOM     16  C   UNL     1     -10.505 -15.041   8.799  1.00  0.00    -0.000 C 
BRANCH  16  17
ATOM     17  C   UNL     1     -10.378 -16.345   9.607  1.00  0.00    -0.003 C 
ATOM     18  C   UNL     1     -11.442 -17.380   9.243  1.00  0.00     0.004 C 
ENDBRANCH  16  17
ENDBRANCH  15  16
ENDBRANCH  14  15
ENDBRANCH  13  14
ENDBRANCH  12  13
ENDBRANCH  11  12
ENDBRANCH   1  11
TORSDOF 14
ENDMDL
MODEL 5
REMARK VINA RESULT:    -5.393      2.719      5.172
REMARK INTER + INTRA:         -11.767
REMARK INTER:                  -9.649
REMARK INTRA:                  -2.118
REMARK UNBOUND:                -1.961
REMARK SMILES CCCCCCCCCCCCCCCC(=O)[O-]
REMARK SMILES IDX 9 1 10 2 11 3 12 4 13 5 14 6 15 7 16 8 17 9 18 10 8 11 7 12
REMARK SMILES IDX 6 13 5 14 4 15 3 16 2 17 1 18
REMARK H PARENT
REMARK Flexibility Score: inf
ROOT
ATOM      1  C   UNL     1      -9.708  -8.862   9.348  1.00  0.00     0.000 C 
ENDROOT
BRANCH   1   2
ATOM      2  C   UNL     1     -10.275 -10.097   8.626  1.00  0.00     0.000 C 
BRANCH   2   3
ATOM      3  C   UNL     1      -9.178 -11.064   8.149  1.00  0.00     0.000 C 
BRANCH   3   4
ATOM      4  C   UNL     1      -9.680 -12.446   7.686  1.00  0.00     0.000 C 
BRANCH   4   5
ATOM      5  C   UNL     1     -11.214 -12.598   7.732  1.00  0.00     0.000 C 
BRANCH   5   6
ATOM      6  C   UNL     1     -11.647 -13.939   8.350  1.00  0.00     0.006 C 
BRANCH   6   7
ATOM      7  C   UNL     1     -10.654 -14.434   9.410  1.00  0.00     0.053 C 
BRANCH   7   8
ATOM      8  C   UNL     1     -10.147 -15.807   9.090  1.00  0.00     0.041 C 
ATOM      9  O   UNL     1     -10.857 -16.818   9.333  1.00  0.00    -0.550 OA
ATOM     10  O   UNL     1      -8.901 -15.967   8.497  1.00  0.00    -0.550 OA
ENDBRANCH   7   8
ENDBRANCH   6   7
ENDBRANCH   5   6
ENDBRANCH   4   5
ENDBRANCH   3   4
ENDBRANCH   2   3
ENDBRANCH   1   2
BRANCH   1  11
ATOM     11  C   UNL     1     -10.798  -8.017  10.033  1.00  0.00     0.000 C 
BRANCH  11  12
ATOM     12  C   UNL     1     -12.053  -7.757   9.181  1.00  0.00    -0.000 C 
BRANCH  12  13
ATOM     13  C   UNL     1     -13.334  -7.642  10.021  1.00  0.00    -0.000 C 
BRANCH  13  14
ATOM     14  C   UNL     1     -14.273  -8.825   9.757  1.00  0.00    -0.000 C 
BRANCH  14  15
ATOM     15  C   UNL     1     -14.112  -9.905  10.837  1.00  0.00    -0.000 C 
BRANCH  15  16
ATOM     16  C   UNL     1     -13.202 -11.065  10.394  1.00  0.00    -0.000 C 
BRANCH  16  17
ATOM     17  C   UNL     1     -12.156 -11.501  11.436  1.00  0.00    -0.003 C 
ATOM     18  C   UNL     1     -12.005 -10.503  12.584  1.00  0.00     0.004 C 
ENDBRANCH  16  17
ENDBRANCH  15  16
ENDBRANCH  14  15
ENDBRANCH  13  14
ENDBRANCH  12  13
ENDBRANCH  11  12
ENDBRANCH   1  11
TORSDOF 14
ENDMDL
MODEL 6
REMARK VINA RESULT:    -5.194      2.926      5.942
REMARK INTER + INTRA:         -11.406
REMARK INTER:                  -9.277
REMARK INTRA:                  -2.129
REMARK UNBOUND:                -1.961
REMARK SMILES CCCCCCCCCCCCCCCC(=O)[O-]
REMARK SMILES IDX 9 1 10 2 11 3 12 4 13 5 14 6 15 7 16 8 17 9 18 10 8 11 7 12
REMARK SMILES IDX 6 13 5 14 4 15 3 16 2 17 1 18
REMARK H PARENT
REMARK Flexibility Score: inf
ROOT
ATOM      1  C   UNL     1     -10.908  -8.004   8.460  1.00  0.00     0.000 C 
ENDROOT
BRANCH   1   2
ATOM      2  C   UNL     1      -9.573  -8.279   7.746  1.00  0.00     0.000 C 
BRANCH   2   3
ATOM      3  C   UNL     1      -8.769  -9.413   8.403  1.00  0.00     0.000 C 
BRANCH   3   4
ATOM      4  C   UNL     1      -8.200 -10.462   7.427  1.00  0.00     0.000 C 
BRANCH   4   5
ATOM      5  C   UNL     1      -9.054 -11.742   7.321  1.00  0.00     0.000 C 
BRANCH   5   6
ATOM      6  C   UNL     1     -10.015 -11.899   8.513  1.00  0.00     0.006 C 
BRANCH   6   7
ATOM      7  C   UNL     1     -11.473 -12.058   8.063  1.00  0.00     0.053 C 
BRANCH   7   8
ATOM      8  C   UNL     1     -12.245 -12.934   9.001  1.00  0.00     0.041 C 
ATOM      9  O   UNL     1     -12.193 -12.736  10.244  1.00  0.00    -0.550 OA
ATOM     10  O   UNL     1     -13.044 -13.955   8.501  1.00  0.00    -0.550 OA
ENDBRANCH   7   8
ENDBRANCH   6   7
ENDBRANCH   5   6
ENDBRANCH   4   5
ENDBRANCH   3   4
ENDBRANCH   2   3
ENDBRANCH   1   2
BRANCH   1  11
ATOM     11  C   UNL     1     -10.790  -8.072   9.994  1.00  0.00     0.000 C 
BRANCH  11  12
ATOM     12  C   UNL     1     -12.045  -8.584  10.723  1.00  0.00    -0.000 C 
BRANCH  12  13
ATOM     13  C   UNL     1     -13.042  -9.280   9.784  1.00  0.00    -0.000 C 
BRANCH  13  14
ATOM     14  C   UNL     1     -14.485  -9.050  10.246  1.00  0.00    -0.000 C 
BRANCH  14  15
ATOM     15  C   UNL     1     -14.983  -7.660   9.824  1.00  0.00    -0.000 C 
BRANCH  15  16
ATOM     16  C   UNL     1     -14.490  -7.245   8.426  1.00  0.00    -0.000 C 
BRANCH  16  17
ATOM     17  C   UNL     1     -13.872  -5.837   8.348  1.00  0.00    -0.003 C 
ATOM     18  C   UNL     1     -13.429  -5.304   9.710  1.00  0.00     0.004 C 
ENDBRANCH  16  17
ENDBRANCH  15  16
ENDBRANCH  14  15
ENDBRANCH  13  14
ENDBRANCH  12  13
ENDBRANCH  11  12
ENDBRANCH   1  11
TORSDOF 14
ENDMDL
MODEL 7
REMARK VINA RESULT:    -5.140      2.972      5.629
REMARK INTER + INTRA:         -11.309
REMARK INTER:                 -10.023
REMARK INTRA:                  -1.285
REMARK UNBOUND:                -1.961
REMARK SMILES CCCCCCCCCCCCCCCC(=O)[O-]
REMARK SMILES IDX 9 1 10 2 11 3 12 4 13 5 14 6 15 7 16 8 17 9 18 10 8 11 7 12
REMARK SMILES IDX 6 13 5 14 4 15 3 16 2 17 1 18
REMARK H PARENT
REMARK Flexibility Score: inf
ROOT
ATOM      1  C   UNL     1     -11.764  -8.496  10.704  1.00  0.00     0.000 C 
ENDROOT
BRANCH   1   2
ATOM      2  C   UNL     1     -12.898  -9.402  10.195  1.00  0.00     0.000 C 
BRANCH   2   3
ATOM      3  C   UNL     1     -13.031 -10.702  11.006  1.00  0.00     0.000 C 
BRANCH   3   4
ATOM      4  C   UNL     1     -12.790 -11.999  10.209  1.00  0.00     0.000 C 
BRANCH   4   5
ATOM      5  C   UNL     1     -11.368 -12.574  10.372  1.00  0.00     0.000 C 
BRANCH   5   6
ATOM      6  C   UNL     1     -10.759 -13.008   9.027  1.00  0.00     0.006 C 
BRANCH   6   7
ATOM      7  C   UNL     1     -10.448 -14.510   8.991  1.00  0.00     0.053 C 
BRANCH   7   8
ATOM      8  C   UNL     1     -11.640 -15.308   8.559  1.00  0.00     0.041 C 
ATOM      9  O   UNL     1     -11.651 -16.560   8.699  1.00  0.00    -0.550 OA
ATOM     10  O   UNL     1     -12.751 -14.666   8.027  1.00  0.00    -0.550 OA
ENDBRANCH   7   8
ENDBRANCH   6   7
ENDBRANCH   5   6
ENDBRANCH   4   5
ENDBRANCH   3   4
ENDBRANCH   2   3
ENDBRANCH   1   2
BRANCH   1  11
ATOM     11  C   UNL     1     -10.892  -7.934   9.565  1.00  0.00     0.000 C 
BRANCH  11  12
ATOM     12  C   UNL     1     -10.557  -8.936   8.446  1.00  0.00    -0.000 C 
BRANCH  12  13
ATOM     13  C   UNL     1      -9.199  -9.626   8.646  1.00  0.00    -0.000 C 
BRANCH  13  14
ATOM     14  C   UNL     1      -8.769 -10.371   7.376  1.00  0.00    -0.000 C 
BRANCH  14  15
ATOM     15  C   UNL     1      -7.250 -10.600   7.361  1.00  0.00    -0.000 C 
BRANCH  15  16
ATOM     16  C   UNL     1      -6.480  -9.466   6.661  1.00  0.00    -0.000 C 
BRANCH  16  17
ATOM     17  C   UNL     1      -5.078  -9.852   6.155  1.00  0.00    -0.003 C 
ATOM     18  C   UNL     1      -4.428 -10.959   6.984  1.00  0.00     0.004 C 
ENDBRANCH  16  17
ENDBRANCH  15  16
ENDBRANCH  14  15
ENDBRANCH  13  14
ENDBRANCH  12  13
ENDBRANCH  11  12
ENDBRANCH   1  11
TORSDOF 14
ENDMDL
MODEL 8
REMARK VINA RESULT:    -5.124      2.543      4.062
REMARK INTER + INTRA:         -11.278
REMARK INTER:                  -9.516
REMARK INTRA:                  -1.763
REMARK UNBOUND:                -1.961
REMARK SMILES CCCCCCCCCCCCCCCC(=O)[O-]
REMARK SMILES IDX 9 1 10 2 11 3 12 4 13 5 14 6 15 7 16 8 17 9 18 10 8 11 7 12
REMARK SMILES IDX 6 13 5 14 4 15 3 16 2 17 1 18
REMARK H PARENT
REMARK Flexibility Score: inf
ROOT
ATOM      1  C   UNL     1      -8.601  -9.643   8.351  1.00  0.00     0.000 C 
ENDROOT
BRANCH   1   2
ATOM      2  C   UNL     1      -9.440  -8.517   7.721  1.00  0.00     0.000 C 
BRANCH   2   3
ATOM      3  C   UNL     1     -10.657  -8.129   8.578  1.00  0.00     0.000 C 
BRANCH   3   4
ATOM      4  C   UNL     1     -12.026  -8.518   7.986  1.00  0.00     0.000 C 
BRANCH   4   5
ATOM      5  C   UNL     1     -13.222  -8.143   8.884  1.00  0.00     0.000 C 
BRANCH   5   6
ATOM      6  C   UNL     1     -12.967  -8.485  10.363  1.00  0.00     0.006 C 
BRANCH   6   7
ATOM      7  C   UNL     1     -13.095  -9.989  10.638  1.00  0.00     0.053 C 
BRANCH   7   8
ATOM      8  C   UNL     1     -12.036 -10.466  11.584  1.00  0.00     0.041 C 
ATOM      9  O   UNL     1     -10.840 -10.565  11.201  1.00  0.00    -0.550 OA
ATOM     10  O   UNL     1     -12.364 -10.776  12.898  1.00  0.00    -0.550 OA
ENDBRANCH   7   8
ENDBRANCH   6   7
ENDBRANCH   5   6
ENDBRANCH   4   5
ENDBRANCH   3   4
ENDBRANCH   2   3
ENDBRANCH   1   2
BRANCH   1  11
ATOM     11  C   UNL     1      -8.237 -10.751   7.346  1.00  0.00     0.000 C 
BRANCH  11  12
ATOM     12  C   UNL     1      -9.299 -11.851   7.174  1.00  0.00    -0.000 C 
BRANCH  12  13
ATOM     13  C   UNL     1     -10.066 -12.152   8.471  1.00  0.00    -0.000 C 
BRANCH  13  14
ATOM     14  C   UNL     1     -11.561 -12.348   8.192  1.00  0.00    -0.000 C 
BRANCH  14  15
ATOM     15  C   UNL     1     -12.125 -13.516   9.015  1.00  0.00    -0.000 C 
BRANCH  15  16
ATOM     16  C   UNL     1     -12.101 -14.853   8.252  1.00  0.00    -0.000 C 
BRANCH  16  17
ATOM     17  C   UNL     1     -11.328 -15.984   8.953  1.00  0.00    -0.003 C 
ATOM     18  C   UNL     1      -9.812 -15.790   8.905  1.00  0.00     0.004 C 
ENDBRANCH  16  17
ENDBRANCH  15  16
ENDBRANCH  14  15
ENDBRANCH  13  14
ENDBRANCH  12  13
ENDBRANCH  11  12
ENDBRANCH   1  11
TORSDOF 14
ENDMDL
MODEL 9
REMARK VINA RESULT:    -5.090      1.441      5.434
REMARK INTER + INTRA:         -11.217
REMARK INTER:                  -9.468
REMARK INTRA:                  -1.749
REMARK UNBOUND:                -1.961
REMARK SMILES CCCCCCCCCCCCCCCC(=O)[O-]
REMARK SMILES IDX 9 1 10 2 11 3 12 4 13 5 14 6 15 7 16 8 17 9 18 10 8 11 7 12
REMARK SMILES IDX 6 13 5 14 4 15 3 16 2 17 1 18
REMARK H PARENT
REMARK Flexibility Score: inf
ROOT
ATOM      1  C   UNL     1     -11.895 -12.181  10.488  1.00  0.00     0.000 C 
ENDROOT
BRANCH   1   2
ATOM      2  C   UNL     1     -12.645 -12.936   9.377  1.00  0.00     0.000 C 
BRANCH   2   3
ATOM      3  C   UNL     1     -11.700 -13.524   8.314  1.00  0.00     0.000 C 
BRANCH   3   4
ATOM      4  C   UNL     1     -10.197 -13.326   8.593  1.00  0.00     0.000 C 
BRANCH   4   5
ATOM      5  C   UNL     1      -9.475 -12.470   7.532  1.00  0.00     0.000 C 
BRANCH   5   6
ATOM      6  C   UNL     1      -9.989 -11.020   7.507  1.00  0.00     0.006 C 
BRANCH   6   7
ATOM      7  C   UNL     1      -9.140 -10.091   8.385  1.00  0.00     0.053 C 
BRANCH   7   8
ATOM      8  C   UNL     1      -8.364  -9.112   7.559  1.00  0.00     0.041 C 
ATOM      9  O   UNL     1      -8.860  -7.992   7.267  1.00  0.00    -0.550 OA
ATOM     10  O   UNL     1      -7.079  -9.426   7.133  1.00  0.00    -0.550 OA
ENDBRANCH   7   8
ENDBRANCH   6   7
ENDBRANCH   5   6
ENDBRANCH   4   5
ENDBRANCH   3   4
ENDBRANCH   2   3
ENDBRANCH   1   2
BRANCH   1  11
ATOM     11  C   UNL     1     -12.773 -11.132  11.194  1.00  0.00     0.000 C 
BRANCH  11  12
ATOM     12  C   UNL     1     -12.764  -9.734  10.551  1.00  0.00    -0.000 C 
BRANCH  12  13
ATOM     13  C   UNL     1     -11.541  -8.896  10.954  1.00  0.00    -0.000 C 
BRANCH  13  14
ATOM     14  C   UNL     1     -11.380  -7.680  10.035  1.00  0.00    -0.000 C 
BRANCH  14  15
ATOM     15  C   UNL     1     -12.232  -7.832   8.767  1.00  0.00    -0.000 C 
BRANCH  15  16
ATOM     16  C   UNL     1     -13.290  -6.723   8.619  1.00  0.00    -0.000 C 
BRANCH  16  17
ATOM     17  C   UNL     1     -13.496  -5.853   9.872  1.00  0.00    -0.003 C 
ATOM     18  C   UNL     1     -13.564  -4.359   9.557  1.00  0.00     0.004 C 
ENDBRANCH  16  17
ENDBRANCH  15  16
ENDBRANCH  14  15
ENDBRANCH  13  14
ENDBRANCH  12  13
ENDBRANCH  11  12
ENDBRANCH   1  11
TORSDOF 14
ENDMDL
