MODEL 1
REMARK VINA RESULT:    -4.765      0.000      0.000
REMARK INTER + INTRA:         -13.583
REMARK INTER:                 -10.337
REMARK INTRA:                  -3.246
REMARK UNBOUND:                -3.246
REMARK SMILES CCCCCCCCCCCCCCCCCCCCCC(=O)[O-]
REMARK SMILES IDX 12 1 11 2 10 3 9 4 8 5 7 6 6 7 5 8 4 9 3 10 2 11 1 12 13 13
REMARK SMILES IDX 14 14 15 15 16 16 17 17 18 18 19 19 20 20 21 21 22 22 23 23
REMARK SMILES IDX 24 24
REMARK H PARENT
REMARK Flexibility Score: inf
ROOT
ATOM      1  C   UNL     1     -38.787  18.550 -29.890  1.00  0.00     0.000 C 
ENDROOT
BRANCH   1   2
ATOM      2  C   UNL     1     -37.885  18.801 -31.120  1.00  0.00     0.000 C 
BRANCH   2   3
ATOM      3  C   UNL     1     -38.345  20.011 -31.954  1.00  0.00     0.000 C 
BRANCH   3   4
ATOM      4  C   UNL     1     -37.185  20.921 -32.414  1.00  0.00    -0.000 C 
BRANCH   4   5
ATOM      5  C   UNL     1     -36.057  21.119 -31.377  1.00  0.00    -0.000 C 
BRANCH   5   6
ATOM      6  C   UNL     1     -36.147  22.431 -30.568  1.00  0.00    -0.000 C 
BRANCH   6   7
ATOM      7  C   UNL     1     -36.297  22.195 -29.041  1.00  0.00    -0.000 C 
BRANCH   7   8
ATOM      8  C   UNL     1     -37.671  22.625 -28.474  1.00  0.00    -0.000 C 
BRANCH   8   9
ATOM      9  C   UNL     1     -38.899  21.992 -29.161  1.00  0.00    -0.000 C 
BRANCH   9  10
ATOM     10  C   UNL     1     -40.027  22.980 -29.523  1.00  0.00    -0.000 C 
BRANCH  10  11
ATOM     11  C   UNL     1     -41.171  22.378 -30.364  1.00  0.00    -0.003 C 
ATOM     12  C   UNL     1     -42.558  22.801 -29.859  1.00  0.00     0.004 C 
ENDBRANCH  10  11
ENDBRANCH   9  10
ENDBRANCH   8   9
ENDBRANCH   7   8
ENDBRANCH   6   7
ENDBRANCH   5   6
ENDBRANCH   4   5
ENDBRANCH   3   4
ENDBRANCH   2   3
ENDBRANCH   1   2
BRANCH   1  13
ATOM     13  C   UNL     1     -38.157  18.703 -28.471  1.00  0.00     0.000 C 
BRANCH  13  14
ATOM     14  C   UNL     1     -37.065  17.698 -28.016  1.00  0.00     0.000 C 
BRANCH  14  15
ATOM     15  C   UNL     1     -35.736  18.357 -27.604  1.00  0.00     0.000 C 
BRANCH  15  16
ATOM     16  C   UNL     1     -34.953  19.003 -28.771  1.00  0.00     0.000 C 
BRANCH  16  17
ATOM     17  C   UNL     1     -34.115  17.977 -29.541  1.00  0.00     0.000 C 
BRANCH  17  18
ATOM     18  C   UNL     1     -34.724  17.621 -30.908  1.00  0.00     0.000 C 
BRANCH  18  19
ATOM     19  C   UNL     1     -34.952  16.108 -31.060  1.00  0.00     0.000 C 
BRANCH  19  20
ATOM     20  C   UNL     1     -36.391  15.684 -30.728  1.00  0.00     0.006 C 
BRANCH  20  21
ATOM     21  C   UNL     1     -36.418  14.500 -29.761  1.00  0.00     0.053 C 
BRANCH  21  22
ATOM     22  C   UNL     1     -36.701  13.204 -30.469  1.00  0.00     0.041 C 
ATOM     23  O   UNL     1     -37.868  12.706 -30.433  1.00  0.00    -0.550 OA
ATOM     24  O   UNL     1     -35.713  12.589 -31.219  1.00  0.00    -0.550 OA
ENDBRANCH  21  22
ENDBRANCH  20  21
ENDBRANCH  19  20
ENDBRANCH  18  19
ENDBRANCH  17  18
ENDBRANCH  16  17
ENDBRANCH  15  16
ENDBRANCH  14  15
ENDBRANCH  13  14
ENDBRANCH   1  13
TORSDOF 20
ENDMDL
MODEL 2
REMARK VINA RESULT:    -4.675     14.457     17.460
REMARK INTER + INTRA:         -13.387
REMARK INTER:                 -10.425
REMARK INTRA:                  -2.962
REMARK UNBOUND:                -3.246
REMARK SMILES CCCCCCCCCCCCCCCCCCCCCC(=O)[O-]
REMARK SMILES IDX 12 1 11 2 10 3 9 4 8 5 7 6 6 7 5 8 4 9 3 10 2 11 1 12 13 13
REMARK SMILES IDX 14 14 15 15 16 16 17 17 18 18 19 19 20 20 21 21 22 22 23 23
REMARK SMILES IDX 24 24
REMARK H PARENT
REMARK Flexibility Score: inf
ROOT
ATOM      1  C   UNL     1     -47.739   6.999 -32.793  1.00  0.00     0.000 C 
ENDROOT
BRANCH   1   2
ATOM      2  C   UNL     1     -49.207   6.555 -32.603  1.00  0.00     0.000 C 
BRANCH   2   3
ATOM      3  C   UNL     1     -50.112   6.986 -33.771  1.00  0.00     0.000 C 
BRANCH   3   4
ATOM      4  C   UNL     1     -51.491   6.291 -33.773  1.00  0.00    -0.000 C 
BRANCH   4   5
ATOM      5  C   UNL     1     -52.584   7.005 -34.599  1.00  0.00    -0.000 C 
BRANCH   5   6
ATOM      6  C   UNL     1     -53.988   6.999 -33.956  1.00  0.00    -0.000 C 
BRANCH   6   7
ATOM      7  C   UNL     1     -53.988   6.458 -32.501  1.00  0.00    -0.000 C 
BRANCH   7   8
ATOM      8  C   UNL     1     -54.067   7.564 -31.423  1.00  0.00    -0.000 C 
BRANCH   8   9
ATOM      9  C   UNL     1     -52.924   7.563 -30.386  1.00  0.00    -0.000 C 
BRANCH   9  10
ATOM     10  C   UNL     1     -51.728   8.472 -30.730  1.00  0.00    -0.000 C 
BRANCH  10  11
ATOM     11  C   UNL     1     -52.107   9.845 -31.325  1.00  0.00    -0.003 C 
ATOM     12  C   UNL     1     -51.424  10.110 -32.674  1.00  0.00     0.004 C 
ENDBRANCH  10  11
ENDBRANCH   9  10
ENDBRANCH   8   9
ENDBRANCH   7   8
ENDBRANCH   6   7
ENDBRANCH   5   6
ENDBRANCH   4   5
ENDBRANCH   3   4
ENDBRANCH   2   3
ENDBRANCH   1   2
BRANCH   1  13
ATOM     13  C   UNL     1     -47.277   8.326 -32.115  1.00  0.00     0.000 C 
BRANCH  13  14
ATOM     14  C   UNL     1     -48.111   8.905 -30.940  1.00  0.00     0.000 C 
BRANCH  14  15
ATOM     15  C   UNL     1     -47.293   9.751 -29.946  1.00  0.00     0.000 C 
BRANCH  15  16
ATOM     16  C   UNL     1     -48.132  10.410 -28.826  1.00  0.00     0.000 C 
BRANCH  16  17
ATOM     17  C   UNL     1     -49.359  11.142 -29.379  1.00  0.00     0.000 C 
BRANCH  17  18
ATOM     18  C   UNL     1     -49.060  12.607 -29.743  1.00  0.00     0.000 C 
BRANCH  18  19
ATOM     19  C   UNL     1     -49.678  13.003 -31.093  1.00  0.00     0.000 C 
BRANCH  19  20
ATOM     20  C   UNL     1     -49.360  14.452 -31.494  1.00  0.00     0.006 C 
BRANCH  20  21
ATOM     21  C   UNL     1     -50.588  15.157 -32.071  1.00  0.00     0.053 C 
BRANCH  21  22
ATOM     22  C   UNL     1     -51.130  16.198 -31.131  1.00  0.00     0.041 C 
ATOM     23  O   UNL     1     -50.476  17.265 -30.925  1.00  0.00    -0.550 OA
ATOM     24  O   UNL     1     -52.374  16.030 -30.546  1.00  0.00    -0.550 OA
ENDBRANCH  21  22
ENDBRANCH  20  21
ENDBRANCH  19  20
ENDBRANCH  18  19
ENDBRANCH  17  18
ENDBRANCH  16  17
ENDBRANCH  15  16
ENDBRANCH  14  15
ENDBRANCH  13  14
ENDBRANCH   1  13
TORSDOF 20
ENDMDL
MODEL 3
REMARK VINA RESULT:    -4.534     13.379     15.586
REMARK INTER + INTRA:         -13.081
REMARK INTER:                 -10.163
REMARK INTRA:                  -2.919
REMARK UNBOUND:                -3.246
REMARK SMILES CCCCCCCCCCCCCCCCCCCCCC(=O)[O-]
REMARK SMILES IDX 12 1 11 2 10 3 9 4 8 5 7 6 6 7 5 8 4 9 3 10 2 11 1 12 13 13
REMARK SMILES IDX 14 14 15 15 16 16 17 17 18 18 19 19 20 20 21 21 22 22 23 23
REMARK SMILES IDX 24 24
REMARK H PARENT
REMARK Flexibility Score: inf
ROOT
ATOM      1  C   UNL     1     -52.758  12.317 -29.001  1.00  0.00     0.000 C 
ENDROOT
BRANCH   1   2
ATOM      2  C   UNL     1     -53.630  13.514 -28.552  1.00  0.00     0.000 C 
BRANCH   2   3
ATOM      3  C   UNL     1     -52.789  14.714 -28.080  1.00  0.00     0.000 C 
BRANCH   3   4
ATOM      4  C   UNL     1     -53.106  16.024 -28.832  1.00  0.00    -0.000 C 
BRANCH   4   5
ATOM      5  C   UNL     1     -52.046  17.138 -28.684  1.00  0.00    -0.000 C 
BRANCH   5   6
ATOM      6  C   UNL     1     -51.175  17.373 -29.938  1.00  0.00    -0.000 C 
BRANCH   6   7
ATOM      7  C   UNL     1     -51.612  16.512 -31.152  1.00  0.00    -0.000 C 
BRANCH   7   8
ATOM      8  C   UNL     1     -50.460  15.703 -31.792  1.00  0.00    -0.000 C 
BRANCH   8   9
ATOM      9  C   UNL     1     -50.537  14.174 -31.601  1.00  0.00    -0.000 C 
BRANCH   9  10
ATOM     10  C   UNL     1     -49.241  13.513 -31.088  1.00  0.00    -0.000 C 
BRANCH  10  11
ATOM     11  C   UNL     1     -49.348  12.882 -29.684  1.00  0.00    -0.003 C 
ATOM     12  C   UNL     1     -48.769  11.462 -29.632  1.00  0.00     0.004 C 
ENDBRANCH  10  11
ENDBRANCH   9  10
ENDBRANCH   8   9
ENDBRANCH   7   8
ENDBRANCH   6   7
ENDBRANCH   5   6
ENDBRANCH   4   5
ENDBRANCH   3   4
ENDBRANCH   2   3
ENDBRANCH   1   2
BRANCH   1  13
ATOM     13  C   UNL     1     -53.031  11.693 -30.404  1.00  0.00     0.000 C 
BRANCH  13  14
ATOM     14  C   UNL     1     -52.188  10.474 -30.866  1.00  0.00     0.000 C 
BRANCH  14  15
ATOM     15  C   UNL     1     -51.497  10.669 -32.229  1.00  0.00     0.000 C 
BRANCH  15  16
ATOM     16  C   UNL     1     -50.605   9.484 -32.669  1.00  0.00     0.000 C 
BRANCH  16  17
ATOM     17  C   UNL     1     -51.153   8.138 -32.184  1.00  0.00     0.000 C 
BRANCH  17  18
ATOM     18  C   UNL     1     -50.317   6.945 -32.679  1.00  0.00     0.000 C 
BRANCH  18  19
ATOM     19  C   UNL     1     -49.084   7.399 -33.476  1.00  0.00     0.000 C 
BRANCH  19  20
ATOM     20  C   UNL     1     -47.759   6.983 -32.816  1.00  0.00     0.006 C 
BRANCH  20  21
ATOM     21  C   UNL     1     -47.013   8.191 -32.248  1.00  0.00     0.053 C 
BRANCH  21  22
ATOM     22  C   UNL     1     -47.073   8.230 -30.746  1.00  0.00     0.041 C 
ATOM     23  O   UNL     1     -46.069   8.636 -30.084  1.00  0.00    -0.550 OA
ATOM     24  O   UNL     1     -48.242   7.895 -30.085  1.00  0.00    -0.550 OA
ENDBRANCH  21  22
ENDBRANCH  20  21
ENDBRANCH  19  20
ENDBRANCH  18  19
ENDBRANCH  17  18
ENDBRANCH  16  17
ENDBRANCH  15  16
ENDBRANCH  14  15
ENDBRANCH  13  14
ENDBRANCH   1  13
TORSDOF 20
ENDMDL
MODEL 4
REMARK VINA RESULT:    -4.521     13.471     15.548
REMARK INTER + INTRA:         -13.052
REMARK INTER:                  -9.475
REMARK INTRA:                  -3.577
REMARK UNBOUND:                -3.246
REMARK SMILES CCCCCCCCCCCCCCCCCCCCCC(=O)[O-]
REMARK SMILES IDX 12 1 11 2 10 3 9 4 8 5 7 6 6 7 5 8 4 9 3 10 2 11 1 12 13 13
REMARK SMILES IDX 14 14 15 15 16 16 17 17 18 18 19 19 20 20 21 21 22 22 23 23
REMARK SMILES IDX 24 24
REMARK H PARENT
REMARK Flexibility Score: inf
ROOT
ATOM      1  C   UNL     1     -49.130  12.875 -30.561  1.00  0.00     0.000 C 
ENDROOT
BRANCH   1   2
ATOM      2  C   UNL     1     -50.206  13.985 -30.551  1.00  0.00     0.000 C 
BRANCH   2   3
ATOM      3  C   UNL     1     -51.059  13.994 -31.833  1.00  0.00     0.000 C 
BRANCH   3   4
ATOM      4  C   UNL     1     -51.942  12.737 -31.996  1.00  0.00    -0.000 C 
BRANCH   4   5
ATOM      5  C   UNL     1     -53.183  12.685 -31.078  1.00  0.00    -0.000 C 
BRANCH   5   6
ATOM      6  C   UNL     1     -53.035  11.772 -29.842  1.00  0.00    -0.000 C 
BRANCH   6   7
ATOM      7  C   UNL     1     -52.999  12.559 -28.505  1.00  0.00    -0.000 C 
BRANCH   7   8
ATOM      8  C   UNL     1     -53.670  13.951 -28.581  1.00  0.00    -0.000 C 
BRANCH   8   9
ATOM      9  C   UNL     1     -52.769  15.143 -28.196  1.00  0.00    -0.000 C 
BRANCH   9  10
ATOM     10  C   UNL     1     -52.873  16.368 -29.126  1.00  0.00    -0.000 C 
BRANCH  10  11
ATOM     11  C   UNL     1     -51.605  17.245 -29.189  1.00  0.00    -0.003 C 
ATOM     12  C   UNL     1     -51.227  17.631 -30.626  1.00  0.00     0.004 C 
ENDBRANCH  10  11
ENDBRANCH   9  10
ENDBRANCH   8   9
ENDBRANCH   7   8
ENDBRANCH   6   7
ENDBRANCH   5   6
ENDBRANCH   4   5
ENDBRANCH   3   4
ENDBRANCH   2   3
ENDBRANCH   1   2
BRANCH   1  13
ATOM     13  C   UNL     1     -49.176  11.795 -29.436  1.00  0.00     0.000 C 
BRANCH  13  14
ATOM     14  C   UNL     1     -49.609  10.348 -29.794  1.00  0.00     0.000 C 
BRANCH  14  15
ATOM     15  C   UNL     1     -49.800  10.105 -31.303  1.00  0.00     0.000 C 
BRANCH  15  16
ATOM     16  C   UNL     1     -50.984   9.173 -31.656  1.00  0.00     0.000 C 
BRANCH  16  17
ATOM     17  C   UNL     1     -50.905   8.661 -33.097  1.00  0.00     0.000 C 
BRANCH  17  18
ATOM     18  C   UNL     1     -49.786   7.624 -33.296  1.00  0.00     0.000 C 
BRANCH  18  19
ATOM     19  C   UNL     1     -49.825   6.522 -32.225  1.00  0.00     0.000 C 
BRANCH  19  20
ATOM     20  C   UNL     1     -48.428   6.137 -31.712  1.00  0.00     0.006 C 
BRANCH  20  21
ATOM     21  C   UNL     1     -48.083   6.875 -30.419  1.00  0.00     0.053 C 
BRANCH  21  22
ATOM     22  C   UNL     1     -46.919   7.809 -30.599  1.00  0.00     0.041 C 
ATOM     23  O   UNL     1     -46.083   7.966 -29.658  1.00  0.00    -0.550 OA
ATOM     24  O   UNL     1     -46.715   8.443 -31.813  1.00  0.00    -0.550 OA
ENDBRANCH  21  22
ENDBRANCH  20  21
ENDBRANCH  19  20
ENDBRANCH  18  19
ENDBRANCH  17  18
ENDBRANCH  16  17
ENDBRANCH  15  16
ENDBRANCH  14  15
ENDBRANCH  13  14
ENDBRANCH   1  13
TORSDOF 20
ENDMDL
MODEL 5
REMARK VINA RESULT:    -4.502     13.432     15.777
REMARK INTER + INTRA:         -13.012
REMARK INTER:                  -9.689
REMARK INTRA:                  -3.322
REMARK UNBOUND:                -3.246
REMARK SMILES CCCCCCCCCCCCCCCCCCCCCC(=O)[O-]
REMARK SMILES IDX 12 1 11 2 10 3 9 4 8 5 7 6 6 7 5 8 4 9 3 10 2 11 1 12 13 13
REMARK SMILES IDX 14 14 15 15 16 16 17 17 18 18 19 19 20 20 21 21 22 22 23 23
REMARK SMILES IDX 24 24
REMARK H PARENT
REMARK Flexibility Score: inf
ROOT
ATOM      1  C   UNL     1     -52.571  15.238 -28.039  1.00  0.00     0.000 C 
ENDROOT
BRANCH   1   2
ATOM      2  C   UNL     1     -53.802  16.162 -27.886  1.00  0.00     0.000 C 
BRANCH   2   3
ATOM      3  C   UNL     1     -53.483  17.631 -28.216  1.00  0.00     0.000 C 
BRANCH   3   4
ATOM      4  C   UNL     1     -54.006  18.082 -29.597  1.00  0.00    -0.000 C 
BRANCH   4   5
ATOM      5  C   UNL     1     -53.262  17.480 -30.808  1.00  0.00    -0.000 C 
BRANCH   5   6
ATOM      6  C   UNL     1     -51.835  18.029 -31.029  1.00  0.00    -0.000 C 
BRANCH   6   7
ATOM      7  C   UNL     1     -50.730  16.970 -30.772  1.00  0.00    -0.000 C 
BRANCH   7   8
ATOM      8  C   UNL     1     -50.929  15.655 -31.561  1.00  0.00    -0.000 C 
BRANCH   8   9
ATOM      9  C   UNL     1     -49.668  14.779 -31.722  1.00  0.00    -0.000 C 
BRANCH   9  10
ATOM     10  C   UNL     1     -49.811  13.329 -31.219  1.00  0.00    -0.000 C 
BRANCH  10  11
ATOM     11  C   UNL     1     -49.190  13.058 -29.833  1.00  0.00    -0.003 C 
ATOM     12  C   UNL     1     -49.212  11.570 -29.458  1.00  0.00     0.004 C 
ENDBRANCH  10  11
ENDBRANCH   9  10
ENDBRANCH   8   9
ENDBRANCH   7   8
ENDBRANCH   6   7
ENDBRANCH   5   6
ENDBRANCH   4   5
ENDBRANCH   3   4
ENDBRANCH   2   3
ENDBRANCH   1   2
BRANCH   1  13
ATOM     13  C   UNL     1     -52.750  13.896 -28.815  1.00  0.00     0.000 C 
BRANCH  13  14
ATOM     14  C   UNL     1     -53.719  13.846 -30.026  1.00  0.00     0.000 C 
BRANCH  14  15
ATOM     15  C   UNL     1     -53.378  12.756 -31.060  1.00  0.00     0.000 C 
BRANCH  15  16
ATOM     16  C   UNL     1     -53.126  11.356 -30.454  1.00  0.00     0.000 C 
BRANCH  16  17
ATOM     17  C   UNL     1     -52.162  10.523 -31.306  1.00  0.00     0.000 C 
BRANCH  17  18
ATOM     18  C   UNL     1     -51.893   9.132 -30.706  1.00  0.00     0.000 C 
BRANCH  18  19
ATOM     19  C   UNL     1     -50.948   8.299 -31.587  1.00  0.00     0.000 C 
BRANCH  19  20
ATOM     20  C   UNL     1     -50.300   9.121 -32.712  1.00  0.00     0.006 C 
BRANCH  20  21
ATOM     21  C   UNL     1     -48.852   9.483 -32.379  1.00  0.00     0.053 C 
BRANCH  21  22
ATOM     22  C   UNL     1     -47.922   8.320 -32.584  1.00  0.00     0.041 C 
ATOM     23  O   UNL     1     -47.797   7.807 -33.738  1.00  0.00    -0.550 OA
ATOM     24  O   UNL     1     -47.146   7.853 -31.537  1.00  0.00    -0.550 OA
ENDBRANCH  21  22
ENDBRANCH  20  21
ENDBRANCH  19  20
ENDBRANCH  18  19
ENDBRANCH  17  18
ENDBRANCH  16  17
ENDBRANCH  15  16
ENDBRANCH  14  15
ENDBRANCH  13  14
ENDBRANCH   1  13
TORSDOF 20
ENDMDL
MODEL 6
REMARK VINA RESULT:    -4.453     13.587     15.696
REMARK INTER + INTRA:         -12.905
REMARK INTER:                  -9.281
REMARK INTRA:                  -3.624
REMARK UNBOUND:                -3.246
REMARK SMILES CCCCCCCCCCCCCCCCCCCCCC(=O)[O-]
REMARK SMILES IDX 12 1 11 2 10 3 9 4 8 5 7 6 6 7 5 8 4 9 3 10 2 11 1 12 13 13
REMARK SMILES IDX 14 14 15 15 16 16 17 17 18 18 19 19 20 20 21 21 22 22 23 23
REMARK SMILES IDX 24 24
REMARK H PARENT
REMARK Flexibility Score: inf
ROOT
ATOM      1  C   UNL     1     -50.795  14.831 -31.775  1.00  0.00     0.000 C 
ENDROOT
BRANCH   1   2
ATOM      2  C   UNL     1     -50.479  16.224 -31.181  1.00  0.00     0.000 C 
BRANCH   2   3
ATOM      3  C   UNL     1     -51.620  16.764 -30.299  1.00  0.00     0.000 C 
BRANCH   3   4
ATOM      4  C   UNL     1     -53.019  16.270 -30.728  1.00  0.00    -0.000 C 
BRANCH   4   5
ATOM      5  C   UNL     1     -53.804  15.504 -29.641  1.00  0.00    -0.000 C 
BRANCH   5   6
ATOM      6  C   UNL     1     -52.928  14.840 -28.557  1.00  0.00    -0.000 C 
BRANCH   6   7
ATOM      7  C   UNL     1     -53.010  13.290 -28.573  1.00  0.00    -0.000 C 
BRANCH   7   8
ATOM      8  C   UNL     1     -53.861  12.721 -29.732  1.00  0.00    -0.000 C 
BRANCH   8   9
ATOM      9  C   UNL     1     -53.086  11.907 -30.788  1.00  0.00    -0.000 C 
BRANCH   9  10
ATOM     10  C   UNL     1     -52.437  10.608 -30.266  1.00  0.00    -0.000 C 
BRANCH  10  11
ATOM     11  C   UNL     1     -51.917   9.657 -31.364  1.00  0.00    -0.003 C 
ATOM     12  C   UNL     1     -51.408  10.410 -32.601  1.00  0.00     0.004 C 
ENDBRANCH  10  11
ENDBRANCH   9  10
ENDBRANCH   8   9
ENDBRANCH   7   8
ENDBRANCH   6   7
ENDBRANCH   5   6
ENDBRANCH   4   5
ENDBRANCH   3   4
ENDBRANCH   2   3
ENDBRANCH   1   2
BRANCH   1  13
ATOM     13  C   UNL     1     -49.803  13.663 -31.483  1.00  0.00     0.000 C 
BRANCH  13  14
ATOM     14  C   UNL     1     -49.683  13.118 -30.035  1.00  0.00     0.000 C 
BRANCH  14  15
ATOM     15  C   UNL     1     -48.578  12.060 -29.851  1.00  0.00     0.000 C 
BRANCH  15  16
ATOM     16  C   UNL     1     -48.976  10.870 -28.948  1.00  0.00     0.000 C 
BRANCH  16  17
ATOM     17  C   UNL     1     -48.656   9.520 -29.599  1.00  0.00     0.000 C 
BRANCH  17  18
ATOM     18  C   UNL     1     -47.181   9.400 -30.017  1.00  0.00     0.000 C 
BRANCH  18  19
ATOM     19  C   UNL     1     -47.018   8.627 -31.336  1.00  0.00     0.000 C 
BRANCH  19  20
ATOM     20  C   UNL     1     -48.136   8.928 -32.347  1.00  0.00     0.006 C 
BRANCH  20  21
ATOM     21  C   UNL     1     -48.335   7.770 -33.325  1.00  0.00     0.053 C 
BRANCH  21  22
ATOM     22  C   UNL     1     -49.621   7.034 -33.068  1.00  0.00     0.041 C 
ATOM     23  O   UNL     1     -50.344   6.666 -34.043  1.00  0.00    -0.550 OA
ATOM     24  O   UNL     1     -49.983   6.692 -31.776  1.00  0.00    -0.550 OA
ENDBRANCH  21  22
ENDBRANCH  20  21
ENDBRANCH  19  20
ENDBRANCH  18  19
ENDBRANCH  17  18
ENDBRANCH  16  17
ENDBRANCH  15  16
ENDBRANCH  14  15
ENDBRANCH  13  14
ENDBRANCH   1  13
TORSDOF 20
ENDMDL
MODEL 7
REMARK VINA RESULT:    -4.438     13.651     15.121
REMARK INTER + INTRA:         -12.873
REMARK INTER:                 -10.280
REMARK INTRA:                  -2.593
REMARK UNBOUND:                -3.246
REMARK SMILES CCCCCCCCCCCCCCCCCCCCCC(=O)[O-]
REMARK SMILES IDX 12 1 11 2 10 3 9 4 8 5 7 6 6 7 5 8 4 9 3 10 2 11 1 12 13 13
REMARK SMILES IDX 14 14 15 15 16 16 17 17 18 18 19 19 20 20 21 21 22 22 23 23
REMARK SMILES IDX 24 24
REMARK H PARENT
REMARK Flexibility Score: inf
ROOT
ATOM      1  C   UNL     1     -49.075  12.151 -30.105  1.00  0.00     0.000 C 
ENDROOT
BRANCH   1   2
ATOM      2  C   UNL     1     -49.970  13.412 -30.105  1.00  0.00     0.000 C 
BRANCH   2   3
ATOM      3  C   UNL     1     -50.563  13.717 -31.492  1.00  0.00     0.000 C 
BRANCH   3   4
ATOM      4  C   UNL     1     -50.397  15.189 -31.926  1.00  0.00    -0.000 C 
BRANCH   4   5
ATOM      5  C   UNL     1     -51.557  16.126 -31.523  1.00  0.00    -0.000 C 
BRANCH   5   6
ATOM      6  C   UNL     1     -51.119  17.444 -30.848  1.00  0.00    -0.000 C 
BRANCH   6   7
ATOM      7  C   UNL     1     -51.433  17.484 -29.329  1.00  0.00    -0.000 C 
BRANCH   7   8
ATOM      8  C   UNL     1     -52.945  17.476 -29.003  1.00  0.00    -0.000 C 
BRANCH   8   9
ATOM      9  C   UNL     1     -53.371  16.545 -27.848  1.00  0.00    -0.000 C 
BRANCH   9  10
ATOM     10  C   UNL     1     -52.724  15.145 -27.864  1.00  0.00    -0.000 C 
BRANCH  10  11
ATOM     11  C   UNL     1     -53.316  14.170 -28.903  1.00  0.00    -0.003 C 
ATOM     12  C   UNL     1     -53.215  12.704 -28.457  1.00  0.00     0.004 C 
ENDBRANCH  10  11
ENDBRANCH   9  10
ENDBRANCH   8   9
ENDBRANCH   7   8
ENDBRANCH   6   7
ENDBRANCH   5   6
ENDBRANCH   4   5
ENDBRANCH   3   4
ENDBRANCH   2   3
ENDBRANCH   1   2
BRANCH   1  13
ATOM     13  C   UNL     1     -49.653  10.838 -29.490  1.00  0.00     0.000 C 
BRANCH  13  14
ATOM     14  C   UNL     1     -48.815   9.534 -29.568  1.00  0.00     0.000 C 
BRANCH  14  15
ATOM     15  C   UNL     1     -47.295   9.767 -29.641  1.00  0.00     0.000 C 
BRANCH  15  16
ATOM     16  C   UNL     1     -46.574   8.945 -30.735  1.00  0.00     0.000 C 
BRANCH  16  17
ATOM     17  C   UNL     1     -46.905   7.452 -30.647  1.00  0.00     0.000 C 
BRANCH  17  18
ATOM     18  C   UNL     1     -47.272   6.846 -32.012  1.00  0.00     0.000 C 
BRANCH  18  19
ATOM     19  C   UNL     1     -48.792   6.817 -32.239  1.00  0.00     0.000 C 
BRANCH  19  20
ATOM     20  C   UNL     1     -49.232   7.653 -33.452  1.00  0.00     0.006 C 
BRANCH  20  21
ATOM     21  C   UNL     1     -49.564   9.091 -33.051  1.00  0.00     0.053 C 
BRANCH  21  22
ATOM     22  C   UNL     1     -51.047   9.332 -33.006  1.00  0.00     0.041 C 
ATOM     23  O   UNL     1     -51.491  10.472 -32.666  1.00  0.00    -0.550 OA
ATOM     24  O   UNL     1     -51.928   8.341 -33.404  1.00  0.00    -0.550 OA
ENDBRANCH  21  22
ENDBRANCH  20  21
ENDBRANCH  19  20
ENDBRANCH  18  19
ENDBRANCH  17  18
ENDBRANCH  16  17
ENDBRANCH  15  16
ENDBRANCH  14  15
ENDBRANCH  13  14
ENDBRANCH   1  13
TORSDOF 20
ENDMDL
MODEL 8
REMARK VINA RESULT:    -4.413     13.362     15.135
REMARK INTER + INTRA:         -12.818
REMARK INTER:                 -10.002
REMARK INTRA:                  -2.816
REMARK UNBOUND:                -3.246
REMARK SMILES CCCCCCCCCCCCCCCCCCCCCC(=O)[O-]
REMARK SMILES IDX 12 1 11 2 10 3 9 4 8 5 7 6 6 7 5 8 4 9 3 10 2 11 1 12 13 13
REMARK SMILES IDX 14 14 15 15 16 16 17 17 18 18 19 19 20 20 21 21 22 22 23 23
REMARK SMILES IDX 24 24
REMARK H PARENT
REMARK Flexibility Score: inf
ROOT
ATOM      1  C   UNL     1     -49.236  12.482 -29.885  1.00  0.00     0.000 C 
ENDROOT
BRANCH   1   2
ATOM      2  C   UNL     1     -49.489  13.284 -31.183  1.00  0.00     0.000 C 
BRANCH   2   3
ATOM      3  C   UNL     1     -50.985  13.378 -31.537  1.00  0.00     0.000 C 
BRANCH   3   4
ATOM      4  C   UNL     1     -51.538  14.819 -31.503  1.00  0.00    -0.000 C 
BRANCH   4   5
ATOM      5  C   UNL     1     -50.467  15.933 -31.516  1.00  0.00    -0.000 C 
BRANCH   5   6
ATOM      6  C   UNL     1     -50.838  17.195 -30.708  1.00  0.00    -0.000 C 
BRANCH   6   7
ATOM      7  C   UNL     1     -52.291  17.166 -30.165  1.00  0.00    -0.000 C 
BRANCH   7   8
ATOM      8  C   UNL     1     -52.402  17.486 -28.656  1.00  0.00    -0.000 C 
BRANCH   8   9
ATOM      9  C   UNL     1     -52.598  16.266 -27.731  1.00  0.00    -0.000 C 
BRANCH   9  10
ATOM     10  C   UNL     1     -53.613  15.220 -28.236  1.00  0.00    -0.000 C 
BRANCH  10  11
ATOM     11  C   UNL     1     -53.059  13.785 -28.357  1.00  0.00    -0.003 C 
ATOM     12  C   UNL     1     -54.063  12.819 -29.000  1.00  0.00     0.004 C 
ENDBRANCH  10  11
ENDBRANCH   9  10
ENDBRANCH   8   9
ENDBRANCH   7   8
ENDBRANCH   6   7
ENDBRANCH   5   6
ENDBRANCH   4   5
ENDBRANCH   3   4
ENDBRANCH   2   3
ENDBRANCH   1   2
BRANCH   1  13
ATOM     13  C   UNL     1     -50.357  11.521 -29.382  1.00  0.00     0.000 C 
BRANCH  13  14
ATOM     14  C   UNL     1     -50.532  10.139 -30.066  1.00  0.00     0.000 C 
BRANCH  14  15
ATOM     15  C   UNL     1     -51.935   9.902 -30.657  1.00  0.00     0.000 C 
BRANCH  15  16
ATOM     16  C   UNL     1     -51.937   9.216 -32.043  1.00  0.00     0.000 C 
BRANCH  16  17
ATOM     17  C   UNL     1     -50.644   9.481 -32.820  1.00  0.00     0.000 C 
BRANCH  17  18
ATOM     18  C   UNL     1     -49.840   8.197 -33.086  1.00  0.00     0.000 C 
BRANCH  18  19
ATOM     19  C   UNL     1     -48.365   8.497 -33.401  1.00  0.00     0.000 C 
BRANCH  19  20
ATOM     20  C   UNL     1     -47.392   7.751 -32.474  1.00  0.00     0.006 C 
BRANCH  20  21
ATOM     21  C   UNL     1     -47.858   7.796 -31.019  1.00  0.00     0.053 C 
BRANCH  21  22
ATOM     22  C   UNL     1     -46.860   8.486 -30.131  1.00  0.00     0.041 C 
ATOM     23  O   UNL     1     -47.034   9.702 -29.812  1.00  0.00    -0.550 OA
ATOM     24  O   UNL     1     -45.793   7.782 -29.602  1.00  0.00    -0.550 OA
ENDBRANCH  21  22
ENDBRANCH  20  21
ENDBRANCH  19  20
ENDBRANCH  18  19
ENDBRANCH  17  18
ENDBRANCH  16  17
ENDBRANCH  15  16
ENDBRANCH  14  15
ENDBRANCH  13  14
ENDBRANCH   1  13
TORSDOF 20
ENDMDL
MODEL 9
REMARK VINA RESULT:    -4.390     13.640     16.764
REMARK INTER + INTRA:         -12.768
REMARK INTER:                  -9.966
REMARK INTRA:                  -2.802
REMARK UNBOUND:                -3.246
REMARK SMILES CCCCCCCCCCCCCCCCCCCCCC(=O)[O-]
REMARK SMILES IDX 12 1 11 2 10 3 9 4 8 5 7 6 6 7 5 8 4 9 3 10 2 11 1 12 13 13
REMARK SMILES IDX 14 14 15 15 16 16 17 17 18 18 19 19 20 20 21 21 22 22 23 23
REMARK SMILES IDX 24 24
REMARK H PARENT
REMARK Flexibility Score: inf
ROOT
ATOM      1  C   UNL     1     -49.085  12.619 -29.907  1.00  0.00     0.000 C 
ENDROOT
BRANCH   1   2
ATOM      2  C   UNL     1     -48.261  11.479 -29.265  1.00  0.00     0.000 C 
BRANCH   2   3
ATOM      3  C   UNL     1     -48.893  10.093 -29.489  1.00  0.00     0.000 C 
BRANCH   3   4
ATOM      4  C   UNL     1     -47.864   8.942 -29.523  1.00  0.00    -0.000 C 
BRANCH   4   5
ATOM      5  C   UNL     1     -46.712   9.123 -30.535  1.00  0.00    -0.000 C 
BRANCH   5   6
ATOM      6  C   UNL     1     -46.967   8.497 -31.924  1.00  0.00    -0.000 C 
BRANCH   6   7
ATOM      7  C   UNL     1     -47.146   6.957 -31.873  1.00  0.00    -0.000 C 
BRANCH   7   8
ATOM      8  C   UNL     1     -48.591   6.485 -32.158  1.00  0.00    -0.000 C 
BRANCH   8   9
ATOM      9  C   UNL     1     -49.202   6.983 -33.485  1.00  0.00    -0.000 C 
BRANCH   9  10
ATOM     10  C   UNL     1     -50.598   7.627 -33.361  1.00  0.00    -0.000 C 
BRANCH  10  11
ATOM     11  C   UNL     1     -50.641   8.929 -32.534  1.00  0.00    -0.003 C 
ATOM     12  C   UNL     1     -51.953   9.086 -31.752  1.00  0.00     0.004 C 
ENDBRANCH  10  11
ENDBRANCH   9  10
ENDBRANCH   8   9
ENDBRANCH   7   8
ENDBRANCH   6   7
ENDBRANCH   5   6
ENDBRANCH   4   5
ENDBRANCH   3   4
ENDBRANCH   2   3
ENDBRANCH   1   2
BRANCH   1  13
ATOM     13  C   UNL     1     -50.083  12.253 -31.049  1.00  0.00     0.000 C 
BRANCH  13  14
ATOM     14  C   UNL     1     -51.117  13.312 -31.517  1.00  0.00     0.000 C 
BRANCH  14  15
ATOM     15  C   UNL     1     -52.553  13.047 -31.028  1.00  0.00     0.000 C 
BRANCH  15  16
ATOM     16  C   UNL     1     -52.646  12.144 -29.776  1.00  0.00     0.000 C 
BRANCH  16  17
ATOM     17  C   UNL     1     -53.069  12.928 -28.529  1.00  0.00     0.000 C 
BRANCH  17  18
ATOM     18  C   UNL     1     -53.315  14.418 -28.823  1.00  0.00     0.000 C 
BRANCH  18  19
ATOM     19  C   UNL     1     -52.372  15.327 -28.017  1.00  0.00     0.000 C 
BRANCH  19  20
ATOM     20  C   UNL     1     -52.229  16.731 -28.627  1.00  0.00     0.006 C 
BRANCH  20  21
ATOM     21  C   UNL     1     -52.526  16.724 -30.127  1.00  0.00     0.053 C 
BRANCH  21  22
ATOM     22  C   UNL     1     -51.419  17.361 -30.920  1.00  0.00     0.041 C 
ATOM     23  O   UNL     1     -51.498  18.587 -31.242  1.00  0.00    -0.550 OA
ATOM     24  O   UNL     1     -50.283  16.638 -31.239  1.00  0.00    -0.550 OA
ENDBRANCH  21  22
ENDBRANCH  20  21
ENDBRANCH  19  20
ENDBRANCH  18  19
ENDBRANCH  17  18
ENDBRANCH  16  17
ENDBRANCH  15  16
ENDBRANCH  14  15
ENDBRANCH  13  14
ENDBRANCH   1  13
TORSDOF 20
ENDMDL
