MODEL 1
REMARK VINA RESULT:    -0.824      0.000      0.000
REMARK INTER + INTRA:          -2.176
REMARK INTER:                  -1.594
REMARK INTRA:                  -0.582
REMARK UNBOUND:                -0.582
REMARK SMILES CCCCCCCCCCCCCCCCCC(=O)[O-]
REMARK SMILES IDX 10 1 11 2 12 3 13 4 14 5 15 6 16 7 17 8 18 9 19 10 20 11
REMARK SMILES IDX 9 12 8 13 7 14 6 15 5 16 4 17 3 18 2 19 1 20
REMARK H PARENT
REMARK Flexibility Score: inf
ROOT
ATOM      1  C   UNL     1       4.283  76.832   3.779  1.00  0.00     0.000 C 
ENDROOT
BRANCH   1   2
ATOM      2  C   UNL     1       5.708  77.289   3.435  1.00  0.00     0.000 C 
BRANCH   2   3
ATOM      3  C   UNL     1       5.715  78.177   2.183  1.00  0.00     0.000 C 
BRANCH   3   4
ATOM      4  C   UNL     1       5.759  77.366   0.875  1.00  0.00     0.000 C 
BRANCH   4   5
ATOM      5  C   UNL     1       6.956  76.403   0.742  1.00  0.00     0.000 C 
BRANCH   5   6
ATOM      6  C   UNL     1       6.593  74.907   0.714  1.00  0.00     0.000 C 
BRANCH   6   7
ATOM      7  C   UNL     1       5.119  74.645   1.069  1.00  0.00     0.006 C 
BRANCH   7   8
ATOM      8  C   UNL     1       4.205  74.721  -0.161  1.00  0.00     0.053 C 
BRANCH   8   9
ATOM      9  C   UNL     1       4.580  73.707  -1.198  1.00  0.00     0.041 C 
ATOM     10  O   UNL     1       5.215  72.670  -0.869  1.00  0.00    -0.550 OA
ATOM     11  O   UNL     1       4.202  73.891  -2.523  1.00  0.00    -0.550 OA
ENDBRANCH   8   9
ENDBRANCH   7   8
ENDBRANCH   6   7
ENDBRANCH   5   6
ENDBRANCH   4   5
ENDBRANCH   3   4
ENDBRANCH   2   3
ENDBRANCH   1   2
BRANCH   1  12
ATOM     12  C   UNL     1       3.970  76.978   5.283  1.00  0.00     0.000 C 
BRANCH  12  13
ATOM     13  C   UNL     1       2.494  77.298   5.578  1.00  0.00    -0.000 C 
BRANCH  13  14
ATOM     14  C   UNL     1       2.154  77.227   7.072  1.00  0.00    -0.000 C 
BRANCH  14  15
ATOM     15  C   UNL     1       3.417  77.004   7.917  1.00  0.00    -0.000 C 
BRANCH  15  16
ATOM     16  C   UNL     1       3.929  78.299   8.566  1.00  0.00    -0.000 C 
BRANCH  16  17
ATOM     17  C   UNL     1       3.360  78.519   9.979  1.00  0.00    -0.000 C 
BRANCH  17  18
ATOM     18  C   UNL     1       3.686  77.361  10.939  1.00  0.00    -0.000 C 
BRANCH  18  19
ATOM     19  C   UNL     1       4.583  77.776  12.124  1.00  0.00    -0.003 C 
ATOM     20  C   UNL     1       6.052  77.422  11.895  1.00  0.00     0.004 C 
ENDBRANCH  18  19
ENDBRANCH  17  18
ENDBRANCH  16  17
ENDBRANCH  15  16
ENDBRANCH  14  15
ENDBRANCH  13  14
ENDBRANCH  12  13
ENDBRANCH   1  12
TORSDOF 16
ENDMDL
MODEL 2
REMARK VINA RESULT:    -0.810      4.589      9.611
REMARK INTER + INTRA:          -2.150
REMARK INTER:                  -0.872
REMARK INTRA:                  -1.278
REMARK UNBOUND:                -0.582
REMARK SMILES CCCCCCCCCCCCCCCCCC(=O)[O-]
REMARK SMILES IDX 10 1 11 2 12 3 13 4 14 5 15 6 16 7 17 8 18 9 19 10 20 11
REMARK SMILES IDX 9 12 8 13 7 14 6 15 5 16 4 17 3 18 2 19 1 20
REMARK H PARENT
REMARK Flexibility Score: inf
ROOT
ATOM      1  C   UNL     1       4.303  76.758   3.863  1.00  0.00     0.000 C 
ENDROOT
BRANCH   1   2
ATOM      2  C   UNL     1       4.038  77.219   5.304  1.00  0.00     0.000 C 
BRANCH   2   3
ATOM      3  C   UNL     1       2.599  76.896   5.729  1.00  0.00     0.000 C 
BRANCH   3   4
ATOM      4  C   UNL     1       1.789  78.151   6.103  1.00  0.00     0.000 C 
BRANCH   4   5
ATOM      5  C   UNL     1       2.217  78.839   7.416  1.00  0.00     0.000 C 
BRANCH   5   6
ATOM      6  C   UNL     1       2.884  77.915   8.452  1.00  0.00     0.000 C 
BRANCH   6   7
ATOM      7  C   UNL     1       3.956  78.635   9.289  1.00  0.00     0.006 C 
BRANCH   7   8
ATOM      8  C   UNL     1       3.529  78.805  10.752  1.00  0.00     0.053 C 
BRANCH   8   9
ATOM      9  C   UNL     1       4.134  77.757  11.636  1.00  0.00     0.041 C 
ATOM     10  O   UNL     1       3.427  76.807  12.065  1.00  0.00    -0.550 OA
ATOM     11  O   UNL     1       5.483  77.813  11.961  1.00  0.00    -0.550 OA
ENDBRANCH   8   9
ENDBRANCH   7   8
ENDBRANCH   6   7
ENDBRANCH   5   6
ENDBRANCH   4   5
ENDBRANCH   3   4
ENDBRANCH   2   3
ENDBRANCH   1   2
BRANCH   1  12
ATOM     12  C   UNL     1       5.553  77.431   3.256  1.00  0.00     0.000 C 
BRANCH  12  13
ATOM     13  C   UNL     1       5.240  78.352   2.065  1.00  0.00    -0.000 C 
BRANCH  13  14
ATOM     14  C   UNL     1       6.014  77.973   0.796  1.00  0.00    -0.000 C 
BRANCH  14  15
ATOM     15  C   UNL     1       7.070  76.898   1.094  1.00  0.00    -0.000 C 
BRANCH  15  16
ATOM     16  C   UNL     1       6.982  75.703   0.131  1.00  0.00    -0.000 C 
BRANCH  16  17
ATOM     17  C   UNL     1       6.514  74.414   0.829  1.00  0.00    -0.000 C 
BRANCH  17  18
ATOM     18  C   UNL     1       4.994  74.381   1.064  1.00  0.00    -0.000 C 
BRANCH  18  19
ATOM     19  C   UNL     1       4.167  74.716  -0.194  1.00  0.00    -0.003 C 
ATOM     20  C   UNL     1       4.407  73.723  -1.331  1.00  0.00     0.004 C 
ENDBRANCH  18  19
ENDBRANCH  17  18
ENDBRANCH  16  17
ENDBRANCH  15  16
ENDBRANCH  14  15
ENDBRANCH  13  14
ENDBRANCH  12  13
ENDBRANCH   1  12
TORSDOF 16
ENDMDL
MODEL 3
REMARK VINA RESULT:    -0.276     19.427     20.837
REMARK INTER + INTRA:          -1.117
REMARK INTER:                   0.315
REMARK INTRA:                  -1.432
REMARK UNBOUND:                -0.582
REMARK SMILES CCCCCCCCCCCCCCCCCC(=O)[O-]
REMARK SMILES IDX 10 1 11 2 12 3 13 4 14 5 15 6 16 7 17 8 18 9 19 10 20 11
REMARK SMILES IDX 9 12 8 13 7 14 6 15 5 16 4 17 3 18 2 19 1 20
REMARK H PARENT
REMARK Flexibility Score: inf
ROOT
ATOM      1  C   UNL     1       1.020  58.881  -6.735  1.00  0.00     0.000 C 
ENDROOT
BRANCH   1   2
ATOM      2  C   UNL     1       2.133  58.879  -5.676  1.00  0.00     0.000 C 
BRANCH   2   3
ATOM      3  C   UNL     1       2.896  60.211  -5.676  1.00  0.00     0.000 C 
BRANCH   3   4
ATOM      4  C   UNL     1       2.732  60.994  -6.991  1.00  0.00     0.000 C 
BRANCH   4   5
ATOM      5  C   UNL     1       3.808  60.710  -8.060  1.00  0.00     0.000 C 
BRANCH   5   6
ATOM      6  C   UNL     1       4.872  59.673  -7.658  1.00  0.00     0.000 C 
BRANCH   6   7
ATOM      7  C   UNL     1       6.287  60.060  -8.123  1.00  0.00     0.006 C 
BRANCH   7   8
ATOM      8  C   UNL     1       7.276  58.894  -8.001  1.00  0.00     0.053 C 
BRANCH   8   9
ATOM      9  C   UNL     1       8.565  59.320  -7.368  1.00  0.00     0.041 C 
ATOM     10  O   UNL     1       8.891  58.877  -6.235  1.00  0.00    -0.550 OA
ATOM     11  O   UNL     1       9.421  60.183  -8.042  1.00  0.00    -0.550 OA
ENDBRANCH   8   9
ENDBRANCH   7   8
ENDBRANCH   6   7
ENDBRANCH   5   6
ENDBRANCH   4   5
ENDBRANCH   3   4
ENDBRANCH   2   3
ENDBRANCH   1   2
BRANCH   1  12
ATOM     12  C   UNL     1      -0.365  59.185  -6.125  1.00  0.00     0.000 C 
BRANCH  12  13
ATOM     13  C   UNL     1      -0.397  59.090  -4.590  1.00  0.00    -0.000 C 
BRANCH  13  14
ATOM     14  C   UNL     1      -0.990  60.339  -3.927  1.00  0.00    -0.000 C 
BRANCH  14  15
ATOM     15  C   UNL     1      -2.451  60.106  -3.513  1.00  0.00    -0.000 C 
BRANCH  15  16
ATOM     16  C   UNL     1      -3.358  61.298  -3.853  1.00  0.00    -0.000 C 
BRANCH  16  17
ATOM     17  C   UNL     1      -4.067  61.135  -5.209  1.00  0.00    -0.000 C 
BRANCH  17  18
ATOM     18  C   UNL     1      -4.643  59.723  -5.415  1.00  0.00    -0.000 C 
BRANCH  18  19
ATOM     19  C   UNL     1      -4.233  59.079  -6.755  1.00  0.00    -0.003 C 
ATOM     20  C   UNL     1      -3.813  60.116  -7.797  1.00  0.00     0.004 C 
ENDBRANCH  18  19
ENDBRANCH  17  18
ENDBRANCH  16  17
ENDBRANCH  15  16
ENDBRANCH  14  15
ENDBRANCH  13  14
ENDBRANCH  12  13
ENDBRANCH   1  12
TORSDOF 16
ENDMDL
MODEL 4
REMARK VINA RESULT:    -0.097      1.121      2.039
REMARK INTER + INTRA:          -0.769
REMARK INTER:                  -0.344
REMARK INTRA:                  -0.425
REMARK UNBOUND:                -0.582
REMARK SMILES CCCCCCCCCCCCCCCCCC(=O)[O-]
REMARK SMILES IDX 10 1 11 2 12 3 13 4 14 5 15 6 16 7 17 8 18 9 19 10 20 11
REMARK SMILES IDX 9 12 8 13 7 14 6 15 5 16 4 17 3 18 2 19 1 20
REMARK H PARENT
REMARK Flexibility Score: inf
ROOT
ATOM      1  C   UNL     1       3.137  77.055   5.051  1.00  0.00     0.000 C 
ENDROOT
BRANCH   1   2
ATOM      2  C   UNL     1       4.604  77.212   4.621  1.00  0.00     0.000 C 
BRANCH   2   3
ATOM      3  C   UNL     1       4.734  77.200   3.091  1.00  0.00     0.000 C 
BRANCH   3   4
ATOM      4  C   UNL     1       5.493  78.423   2.546  1.00  0.00     0.000 C 
BRANCH   4   5
ATOM      5  C   UNL     1       6.107  78.240   1.143  1.00  0.00     0.000 C 
BRANCH   5   6
ATOM      6  C   UNL     1       5.939  76.836   0.532  1.00  0.00     0.000 C 
BRANCH   6   7
ATOM      7  C   UNL     1       7.153  75.927   0.786  1.00  0.00     0.006 C 
BRANCH   7   8
ATOM      8  C   UNL     1       6.905  74.486   0.320  1.00  0.00     0.053 C 
BRANCH   8   9
ATOM      9  C   UNL     1       5.443  74.165   0.257  1.00  0.00     0.041 C 
ATOM     10  O   UNL     1       4.941  73.709  -0.805  1.00  0.00    -0.550 OA
ATOM     11  O   UNL     1       4.641  74.340   1.378  1.00  0.00    -0.550 OA
ENDBRANCH   8   9
ENDBRANCH   7   8
ENDBRANCH   6   7
ENDBRANCH   5   6
ENDBRANCH   4   5
ENDBRANCH   3   4
ENDBRANCH   2   3
ENDBRANCH   1   2
BRANCH   1  12
ATOM     12  C   UNL     1       2.971  77.097   6.584  1.00  0.00     0.000 C 
BRANCH  12  13
ATOM     13  C   UNL     1       2.037  78.217   7.073  1.00  0.00    -0.000 C 
BRANCH  13  14
ATOM     14  C   UNL     1       2.668  79.086   8.169  1.00  0.00    -0.000 C 
BRANCH  14  15
ATOM     15  C   UNL     1       3.366  78.221   9.228  1.00  0.00    -0.000 C 
BRANCH  15  16
ATOM     16  C   UNL     1       3.081  78.698  10.661  1.00  0.00    -0.000 C 
BRANCH  16  17
ATOM     17  C   UNL     1       3.230  77.574  11.700  1.00  0.00    -0.000 C 
BRANCH  17  18
ATOM     18  C   UNL     1       4.694  77.328  12.107  1.00  0.00    -0.000 C 
BRANCH  18  19
ATOM     19  C   UNL     1       5.554  78.609  12.122  1.00  0.00    -0.003 C 
ATOM     20  C   UNL     1       7.052  78.306  12.095  1.00  0.00     0.004 C 
ENDBRANCH  18  19
ENDBRANCH  17  18
ENDBRANCH  16  17
ENDBRANCH  15  16
ENDBRANCH  14  15
ENDBRANCH  13  14
ENDBRANCH  12  13
ENDBRANCH   1  12
TORSDOF 16
ENDMDL
MODEL 5
REMARK VINA RESULT:     0.921     19.218     21.526
REMARK INTER + INTRA:           1.201
REMARK INTER:                   2.032
REMARK INTRA:                  -0.830
REMARK UNBOUND:                -0.582
REMARK SMILES CCCCCCCCCCCCCCCCCC(=O)[O-]
REMARK SMILES IDX 10 1 11 2 12 3 13 4 14 5 15 6 16 7 17 8 18 9 19 10 20 11
REMARK SMILES IDX 9 12 8 13 7 14 6 15 5 16 4 17 3 18 2 19 1 20
REMARK H PARENT
REMARK Flexibility Score: inf
ROOT
ATOM      1  C   UNL     1      -0.411  60.023  -4.891  1.00  0.00     0.000 C 
ENDROOT
BRANCH   1   2
ATOM      2  C   UNL     1       0.325  60.468  -3.618  1.00  0.00     0.000 C 
BRANCH   2   3
ATOM      3  C   UNL     1      -0.177  59.693  -2.392  1.00  0.00     0.000 C 
BRANCH   3   4
ATOM      4  C   UNL     1      -1.640  60.016  -2.038  1.00  0.00     0.000 C 
BRANCH   4   5
ATOM      5  C   UNL     1      -2.695  59.158  -2.767  1.00  0.00     0.000 C 
BRANCH   5   6
ATOM      6  C   UNL     1      -3.838  59.950  -3.430  1.00  0.00     0.000 C 
BRANCH   6   7
ATOM      7  C   UNL     1      -3.627  60.148  -4.941  1.00  0.00     0.006 C 
BRANCH   7   8
ATOM      8  C   UNL     1      -3.939  58.878  -5.741  1.00  0.00     0.053 C 
BRANCH   8   9
ATOM      9  C   UNL     1      -3.689  59.066  -7.207  1.00  0.00     0.041 C 
ATOM     10  O   UNL     1      -2.512  59.197  -7.636  1.00  0.00    -0.550 OA
ATOM     11  O   UNL     1      -4.753  59.066  -8.101  1.00  0.00    -0.550 OA
ENDBRANCH   8   9
ENDBRANCH   7   8
ENDBRANCH   6   7
ENDBRANCH   5   6
ENDBRANCH   4   5
ENDBRANCH   3   4
ENDBRANCH   2   3
ENDBRANCH   1   2
BRANCH   1  12
ATOM     12  C   UNL     1       0.322  58.876  -5.618  1.00  0.00     0.000 C 
BRANCH  12  13
ATOM     13  C   UNL     1       0.687  59.203  -7.076  1.00  0.00    -0.000 C 
BRANCH  13  14
ATOM     14  C   UNL     1       1.768  60.285  -7.193  1.00  0.00    -0.000 C 
BRANCH  14  15
ATOM     15  C   UNL     1       3.025  59.899  -6.400  1.00  0.00    -0.000 C 
BRANCH  15  16
ATOM     16  C   UNL     1       3.963  58.976  -7.194  1.00  0.00    -0.000 C 
BRANCH  16  17
ATOM     17  C   UNL     1       5.056  59.751  -7.950  1.00  0.00    -0.000 C 
BRANCH  17  18
ATOM     18  C   UNL     1       6.367  58.956  -8.083  1.00  0.00    -0.000 C 
BRANCH  18  19
ATOM     19  C   UNL     1       7.627  59.846  -8.119  1.00  0.00    -0.003 C 
ATOM     20  C   UNL     1       8.846  59.154  -7.509  1.00  0.00     0.004 C 
ENDBRANCH  18  19
ENDBRANCH  17  18
ENDBRANCH  16  17
ENDBRANCH  15  16
ENDBRANCH  14  15
ENDBRANCH  13  14
ENDBRANCH  12  13
ENDBRANCH   1  12
TORSDOF 16
ENDMDL
MODEL 6
REMARK VINA RESULT:     1.308      4.416      9.445
REMARK INTER + INTRA:           1.950
REMARK INTER:                   2.826
REMARK INTRA:                  -0.876
REMARK UNBOUND:                -0.582
REMARK SMILES CCCCCCCCCCCCCCCCCC(=O)[O-]
REMARK SMILES IDX 10 1 11 2 12 3 13 4 14 5 15 6 16 7 17 8 18 9 19 10 20 11
REMARK SMILES IDX 9 12 8 13 7 14 6 15 5 16 4 17 3 18 2 19 1 20
REMARK H PARENT
REMARK Flexibility Score: inf
ROOT
ATOM      1  C   UNL     1       4.999  78.129   2.302  1.00  0.00     0.000 C 
ENDROOT
BRANCH   1   2
ATOM      2  C   UNL     1       5.323  77.249   3.518  1.00  0.00     0.000 C 
BRANCH   2   3
ATOM      3  C   UNL     1       4.042  76.828   4.251  1.00  0.00     0.000 C 
BRANCH   3   4
ATOM      4  C   UNL     1       4.091  77.125   5.761  1.00  0.00     0.000 C 
BRANCH   4   5
ATOM      5  C   UNL     1       2.728  77.081   6.482  1.00  0.00     0.000 C 
BRANCH   5   6
ATOM      6  C   UNL     1       2.377  78.341   7.294  1.00  0.00     0.000 C 
BRANCH   6   7
ATOM      7  C   UNL     1       3.365  78.603   8.444  1.00  0.00     0.006 C 
BRANCH   7   8
ATOM      8  C   UNL     1       3.579  77.361   9.318  1.00  0.00     0.053 C 
BRANCH   8   9
ATOM      9  C   UNL     1       3.880  77.724  10.740  1.00  0.00     0.041 C 
ATOM     10  O   UNL     1       4.983  77.400  11.256  1.00  0.00    -0.550 OA
ATOM     11  O   UNL     1       2.957  78.445  11.487  1.00  0.00    -0.550 OA
ENDBRANCH   8   9
ENDBRANCH   7   8
ENDBRANCH   6   7
ENDBRANCH   5   6
ENDBRANCH   4   5
ENDBRANCH   3   4
ENDBRANCH   2   3
ENDBRANCH   1   2
BRANCH   1  12
ATOM     12  C   UNL     1       6.260  78.491   1.490  1.00  0.00     0.000 C 
BRANCH  12  13
ATOM     13  C   UNL     1       6.200  78.036   0.022  1.00  0.00    -0.000 C 
BRANCH  13  14
ATOM     14  C   UNL     1       7.124  76.848  -0.275  1.00  0.00    -0.000 C 
BRANCH  14  15
ATOM     15  C   UNL     1       7.204  75.896   0.928  1.00  0.00    -0.000 C 
BRANCH  15  16
ATOM     16  C   UNL     1       6.543  74.537   0.649  1.00  0.00    -0.000 C 
BRANCH  16  17
ATOM     17  C   UNL     1       5.083  74.479   1.130  1.00  0.00    -0.000 C 
BRANCH  17  18
ATOM     18  C   UNL     1       4.079  74.892   0.039  1.00  0.00    -0.000 C 
BRANCH  18  19
ATOM     19  C   UNL     1       4.286  74.156  -1.301  1.00  0.00    -0.003 C 
ATOM     20  C   UNL     1       4.833  72.741  -1.110  1.00  0.00     0.004 C 
ENDBRANCH  18  19
ENDBRANCH  17  18
ENDBRANCH  16  17
ENDBRANCH  15  16
ENDBRANCH  14  15
ENDBRANCH  13  14
ENDBRANCH  12  13
ENDBRANCH   1  12
TORSDOF 16
ENDMDL
