MODEL 1
REMARK VINA RESULT:    -4.596      0.000      0.000
REMARK INTER + INTRA:         -13.893
REMARK INTER:                 -10.508
REMARK INTRA:                  -3.385
REMARK UNBOUND:                -3.385
REMARK SMILES CCCCCCCCCCCCCCCCCCCCCCCC(=O)[O-]
REMARK SMILES IDX 13 1 14 2 15 3 16 4 17 5 18 6 19 7 20 8 21 9 22 10 23 11
REMARK SMILES IDX 24 12 25 13 26 14 12 15 11 16 10 17 9 18 8 19 7 20 6 21 5 22
REMARK SMILES IDX 4 23 3 24 2 25 1 26
REMARK H PARENT
REMARK Flexibility Score: inf
ROOT
ATOM      1  C   UNL     1      46.714  35.271 -12.925  1.00  0.00     0.000 C 
ENDROOT
BRANCH   1   2
ATOM      2  C   UNL     1      45.282  35.208 -12.364  1.00  0.00     0.000 C 
BRANCH   2   3
ATOM      3  C   UNL     1      44.294  36.087 -13.150  1.00  0.00     0.000 C 
BRANCH   3   4
ATOM      4  C   UNL     1      42.967  36.307 -12.409  1.00  0.00     0.000 C 
BRANCH   4   5
ATOM      5  C   UNL     1      42.907  37.672 -11.700  1.00  0.00     0.000 C 
BRANCH   5   6
ATOM      6  C   UNL     1      41.744  37.780 -10.696  1.00  0.00     0.000 C 
BRANCH   6   7
ATOM      7  C   UNL     1      41.930  36.987  -9.389  1.00  0.00     0.000 C 
BRANCH   7   8
ATOM      8  C   UNL     1      42.828  37.705  -8.369  1.00  0.00     0.000 C 
BRANCH   8   9
ATOM      9  C   UNL     1      44.116  36.913  -8.111  1.00  0.00     0.000 C 
BRANCH   9  10
ATOM     10  C   UNL     1      44.150  35.562  -8.846  1.00  0.00     0.006 C 
BRANCH  10  11
ATOM     11  C   UNL     1      45.516  34.856  -8.793  1.00  0.00     0.053 C 
BRANCH  11  12
ATOM     12  C   UNL     1      45.508  33.651  -7.902  1.00  0.00     0.041 C 
ATOM     13  O   UNL     1      46.579  33.030  -7.668  1.00  0.00    -0.550 OA
ATOM     14  O   UNL     1      44.328  33.237  -7.295  1.00  0.00    -0.550 OA
ENDBRANCH  11  12
ENDBRANCH  10  11
ENDBRANCH   9  10
ENDBRANCH   8   9
ENDBRANCH   7   8
ENDBRANCH   6   7
ENDBRANCH   5   6
ENDBRANCH   4   5
ENDBRANCH   3   4
ENDBRANCH   2   3
ENDBRANCH   1   2
BRANCH   1  15
ATOM     15  C   UNL     1      47.646  36.262 -12.203  1.00  0.00     0.000 C 
BRANCH  15  16
ATOM     16  C   UNL     1      48.991  36.457 -12.926  1.00  0.00     0.000 C 
BRANCH  16  17
ATOM     17  C   UNL     1      49.113  37.858 -13.556  1.00  0.00     0.000 C 
BRANCH  17  18
ATOM     18  C   UNL     1      50.164  37.946 -14.678  1.00  0.00    -0.000 C 
BRANCH  18  19
ATOM     19  C   UNL     1      50.834  36.601 -15.030  1.00  0.00    -0.000 C 
BRANCH  19  20
ATOM     20  C   UNL     1      51.040  36.353 -16.538  1.00  0.00    -0.000 C 
BRANCH  20  21
ATOM     21  C   UNL     1      49.918  35.565 -17.244  1.00  0.00    -0.000 C 
BRANCH  21  22
ATOM     22  C   UNL     1      48.912  34.900 -16.280  1.00  0.00    -0.000 C 
BRANCH  22  23
ATOM     23  C   UNL     1      47.476  35.389 -16.520  1.00  0.00    -0.000 C 
BRANCH  23  24
ATOM     24  C   UNL     1      47.450  36.586 -17.476  1.00  0.00    -0.000 C 
BRANCH  24  25
ATOM     25  C   UNL     1      47.193  37.890 -16.714  1.00  0.00    -0.003 C 
ATOM     26  C   UNL     1      46.137  37.698 -15.631  1.00  0.00     0.004 C 
ENDBRANCH  24  25
ENDBRANCH  23  24
ENDBRANCH  22  23
ENDBRANCH  21  22
ENDBRANCH  20  21
ENDBRANCH  19  20
ENDBRANCH  18  19
ENDBRANCH  17  18
ENDBRANCH  16  17
ENDBRANCH  15  16
ENDBRANCH   1  15
TORSDOF 22
ENDMDL
MODEL 2
REMARK VINA RESULT:    -4.475      3.489      8.458
REMARK INTER + INTRA:         -13.616
REMARK INTER:                 -10.212
REMARK INTRA:                  -3.403
REMARK UNBOUND:                -3.385
REMARK SMILES CCCCCCCCCCCCCCCCCCCCCCCC(=O)[O-]
REMARK SMILES IDX 13 1 14 2 15 3 16 4 17 5 18 6 19 7 20 8 21 9 22 10 23 11
REMARK SMILES IDX 24 12 25 13 26 14 12 15 11 16 10 17 9 18 8 19 7 20 6 21 5 22
REMARK SMILES IDX 4 23 3 24 2 25 1 26
REMARK H PARENT
REMARK Flexibility Score: inf
ROOT
ATOM      1  C   UNL     1      48.094  34.570 -13.376  1.00  0.00     0.000 C 
ENDROOT
BRANCH   1   2
ATOM      2  C   UNL     1      48.935  35.847 -13.202  1.00  0.00     0.000 C 
BRANCH   2   3
ATOM      3  C   UNL     1      48.229  36.915 -12.350  1.00  0.00     0.000 C 
BRANCH   3   4
ATOM      4  C   UNL     1      47.628  38.052 -13.189  1.00  0.00     0.000 C 
BRANCH   4   5
ATOM      5  C   UNL     1      48.092  38.008 -14.657  1.00  0.00     0.000 C 
BRANCH   5   6
ATOM      6  C   UNL     1      46.971  37.606 -15.632  1.00  0.00     0.000 C 
BRANCH   6   7
ATOM      7  C   UNL     1      47.442  36.906 -16.921  1.00  0.00     0.000 C 
BRANCH   7   8
ATOM      8  C   UNL     1      47.620  35.388 -16.754  1.00  0.00     0.000 C 
BRANCH   8   9
ATOM      9  C   UNL     1      49.106  35.005 -16.730  1.00  0.00     0.000 C 
BRANCH   9  10
ATOM     10  C   UNL     1      50.031  36.150 -17.181  1.00  0.00     0.006 C 
BRANCH  10  11
ATOM     11  C   UNL     1      50.995  36.641 -16.087  1.00  0.00     0.053 C 
BRANCH  11  12
ATOM     12  C   UNL     1      52.429  36.601 -16.524  1.00  0.00     0.041 C 
ATOM     13  O   UNL     1      52.729  36.180 -17.673  1.00  0.00    -0.550 OA
ATOM     14  O   UNL     1      53.430  37.066 -15.680  1.00  0.00    -0.550 OA
ENDBRANCH  11  12
ENDBRANCH  10  11
ENDBRANCH   9  10
ENDBRANCH   8   9
ENDBRANCH   7   8
ENDBRANCH   6   7
ENDBRANCH   5   6
ENDBRANCH   4   5
ENDBRANCH   3   4
ENDBRANCH   2   3
ENDBRANCH   1   2
BRANCH   1  15
ATOM     15  C   UNL     1      46.730  34.594 -12.662  1.00  0.00     0.000 C 
BRANCH  15  16
ATOM     16  C   UNL     1      45.546  34.739 -13.636  1.00  0.00     0.000 C 
BRANCH  16  17
ATOM     17  C   UNL     1      44.737  36.025 -13.377  1.00  0.00     0.000 C 
BRANCH  17  18
ATOM     18  C   UNL     1      43.925  35.998 -12.069  1.00  0.00    -0.000 C 
BRANCH  18  19
ATOM     19  C   UNL     1      42.668  36.894 -12.083  1.00  0.00    -0.000 C 
BRANCH  19  20
ATOM     20  C   UNL     1      42.188  37.360 -10.694  1.00  0.00    -0.000 C 
BRANCH  20  21
ATOM     21  C   UNL     1      42.669  36.509  -9.502  1.00  0.00    -0.000 C 
BRANCH  21  22
ATOM     22  C   UNL     1      43.627  37.250  -8.544  1.00  0.00    -0.000 C 
BRANCH  22  23
ATOM     23  C   UNL     1      44.722  36.323  -7.996  1.00  0.00    -0.000 C 
BRANCH  23  24
ATOM     24  C   UNL     1      45.736  35.958  -9.085  1.00  0.00    -0.000 C 
BRANCH  24  25
ATOM     25  C   UNL     1      45.878  34.437  -9.212  1.00  0.00    -0.003 C 
ATOM     26  C   UNL     1      46.151  33.793  -7.856  1.00  0.00     0.004 C 
ENDBRANCH  24  25
ENDBRANCH  23  24
ENDBRANCH  22  23
ENDBRANCH  21  22
ENDBRANCH  20  21
ENDBRANCH  19  20
ENDBRANCH  18  19
ENDBRANCH  17  18
ENDBRANCH  16  17
ENDBRANCH  15  16
ENDBRANCH   1  15
TORSDOF 22
ENDMDL
MODEL 3
REMARK VINA RESULT:    -4.446      1.794      7.998
REMARK INTER + INTRA:         -13.548
REMARK INTER:                 -10.223
REMARK INTRA:                  -3.325
REMARK UNBOUND:                -3.385
REMARK SMILES CCCCCCCCCCCCCCCCCCCCCCCC(=O)[O-]
REMARK SMILES IDX 13 1 14 2 15 3 16 4 17 5 18 6 19 7 20 8 21 9 22 10 23 11
REMARK SMILES IDX 24 12 25 13 26 14 12 15 11 16 10 17 9 18 8 19 7 20 6 21 5 22
REMARK SMILES IDX 4 23 3 24 2 25 1 26
REMARK H PARENT
REMARK Flexibility Score: inf
ROOT
ATOM      1  C   UNL     1      46.328  37.033 -14.705  1.00  0.00     0.000 C 
ENDROOT
BRANCH   1   2
ATOM      2  C   UNL     1      46.505  37.564 -16.139  1.00  0.00     0.000 C 
BRANCH   2   3
ATOM      3  C   UNL     1      47.059  36.503 -17.105  1.00  0.00     0.000 C 
BRANCH   3   4
ATOM      4  C   UNL     1      47.617  35.268 -16.383  1.00  0.00     0.000 C 
BRANCH   4   5
ATOM      5  C   UNL     1      49.069  34.955 -16.789  1.00  0.00     0.000 C 
BRANCH   5   6
ATOM      6  C   UNL     1      49.896  36.219 -17.092  1.00  0.00     0.000 C 
BRANCH   6   7
ATOM      7  C   UNL     1      51.312  36.238 -16.486  1.00  0.00     0.000 C 
BRANCH   7   8
ATOM      8  C   UNL     1      51.466  37.251 -15.340  1.00  0.00     0.000 C 
BRANCH   8   9
ATOM      9  C   UNL     1      50.106  37.831 -14.928  1.00  0.00     0.000 C 
BRANCH   9  10
ATOM     10  C   UNL     1      49.736  37.519 -13.467  1.00  0.00     0.006 C 
BRANCH  10  11
ATOM     11  C   UNL     1      49.614  36.016 -13.162  1.00  0.00     0.053 C 
BRANCH  11  12
ATOM     12  C   UNL     1      48.545  35.718 -12.155  1.00  0.00     0.041 C 
ATOM     13  O   UNL     1      47.610  34.923 -12.442  1.00  0.00    -0.550 OA
ATOM     14  O   UNL     1      48.602  36.281 -10.886  1.00  0.00    -0.550 OA
ENDBRANCH  11  12
ENDBRANCH  10  11
ENDBRANCH   9  10
ENDBRANCH   8   9
ENDBRANCH   7   8
ENDBRANCH   6   7
ENDBRANCH   5   6
ENDBRANCH   4   5
ENDBRANCH   3   4
ENDBRANCH   2   3
ENDBRANCH   1   2
BRANCH   1  15
ATOM     15  C   UNL     1      44.987  37.400 -14.043  1.00  0.00     0.000 C 
BRANCH  15  16
ATOM     16  C   UNL     1      44.471  36.309 -13.088  1.00  0.00     0.000 C 
BRANCH  16  17
ATOM     17  C   UNL     1      43.000  36.536 -12.689  1.00  0.00     0.000 C 
BRANCH  17  18
ATOM     18  C   UNL     1      42.771  37.802 -11.844  1.00  0.00    -0.000 C 
BRANCH  18  19
ATOM     19  C   UNL     1      41.578  37.708 -10.868  1.00  0.00    -0.000 C 
BRANCH  19  20
ATOM     20  C   UNL     1      41.964  37.646  -9.376  1.00  0.00    -0.000 C 
BRANCH  20  21
ATOM     21  C   UNL     1      42.966  36.539  -8.992  1.00  0.00    -0.000 C 
BRANCH  21  22
ATOM     22  C   UNL     1      44.323  37.067  -8.480  1.00  0.00    -0.000 C 
BRANCH  22  23
ATOM     23  C   UNL     1      45.485  36.644  -9.391  1.00  0.00    -0.000 C 
BRANCH  23  24
ATOM     24  C   UNL     1      45.423  35.147  -9.711  1.00  0.00    -0.000 C 
BRANCH  24  25
ATOM     25  C   UNL     1      46.390  34.358  -8.822  1.00  0.00    -0.003 C 
ATOM     26  C   UNL     1      45.670  33.231  -8.087  1.00  0.00     0.004 C 
ENDBRANCH  24  25
ENDBRANCH  23  24
ENDBRANCH  22  23
ENDBRANCH  21  22
ENDBRANCH  20  21
ENDBRANCH  19  20
ENDBRANCH  18  19
ENDBRANCH  17  18
ENDBRANCH  16  17
ENDBRANCH  15  16
ENDBRANCH   1  15
TORSDOF 22
ENDMDL
MODEL 4
REMARK VINA RESULT:    -4.420      2.941      8.572
REMARK INTER + INTRA:         -13.490
REMARK INTER:                 -10.690
REMARK INTRA:                  -2.801
REMARK UNBOUND:                -3.385
REMARK SMILES CCCCCCCCCCCCCCCCCCCCCCCC(=O)[O-]
REMARK SMILES IDX 13 1 14 2 15 3 16 4 17 5 18 6 19 7 20 8 21 9 22 10 23 11
REMARK SMILES IDX 24 12 25 13 26 14 12 15 11 16 10 17 9 18 8 19 7 20 6 21 5 22
REMARK SMILES IDX 4 23 3 24 2 25 1 26
REMARK H PARENT
REMARK Flexibility Score: inf
ROOT
ATOM      1  C   UNL     1      45.259  35.056 -13.126  1.00  0.00     0.000 C 
ENDROOT
BRANCH   1   2
ATOM      2  C   UNL     1      46.590  34.371 -12.766  1.00  0.00     0.000 C 
BRANCH   2   3
ATOM      3  C   UNL     1      47.805  35.041 -13.430  1.00  0.00     0.000 C 
BRANCH   3   4
ATOM      4  C   UNL     1      48.646  35.867 -12.446  1.00  0.00     0.000 C 
BRANCH   4   5
ATOM      5  C   UNL     1      50.114  35.999 -12.892  1.00  0.00     0.000 C 
BRANCH   5   6
ATOM      6  C   UNL     1      50.438  37.377 -13.499  1.00  0.00     0.000 C 
BRANCH   6   7
ATOM      7  C   UNL     1      51.694  37.422 -14.389  1.00  0.00     0.000 C 
BRANCH   7   8
ATOM      8  C   UNL     1      51.368  37.539 -15.887  1.00  0.00     0.000 C 
BRANCH   8   9
ATOM      9  C   UNL     1      51.455  36.172 -16.580  1.00  0.00     0.000 C 
BRANCH   9  10
ATOM     10  C   UNL     1      50.109  35.704 -17.160  1.00  0.00     0.006 C 
BRANCH  10  11
ATOM     11  C   UNL     1      48.894  36.479 -16.622  1.00  0.00     0.053 C 
BRANCH  11  12
ATOM     12  C   UNL     1      47.591  35.867 -17.036  1.00  0.00     0.041 C 
ATOM     13  O   UNL     1      46.766  36.535 -17.715  1.00  0.00    -0.550 OA
ATOM     14  O   UNL     1      47.302  34.547 -16.710  1.00  0.00    -0.550 OA
ENDBRANCH  11  12
ENDBRANCH  10  11
ENDBRANCH   9  10
ENDBRANCH   8   9
ENDBRANCH   7   8
ENDBRANCH   6   7
ENDBRANCH   5   6
ENDBRANCH   4   5
ENDBRANCH   3   4
ENDBRANCH   2   3
ENDBRANCH   1   2
BRANCH   1  15
ATOM     15  C   UNL     1      45.354  36.578 -13.338  1.00  0.00     0.000 C 
BRANCH  15  16
ATOM     16  C   UNL     1      44.013  37.300 -13.115  1.00  0.00     0.000 C 
BRANCH  16  17
ATOM     17  C   UNL     1      43.110  36.551 -12.116  1.00  0.00     0.000 C 
BRANCH  17  18
ATOM     18  C   UNL     1      42.128  37.463 -11.358  1.00  0.00    -0.000 C 
BRANCH  18  19
ATOM     19  C   UNL     1      41.941  37.099  -9.870  1.00  0.00    -0.000 C 
BRANCH  19  20
ATOM     20  C   UNL     1      43.033  36.181  -9.284  1.00  0.00    -0.000 C 
BRANCH  20  21
ATOM     21  C   UNL     1      44.281  36.898  -8.731  1.00  0.00    -0.000 C 
BRANCH  21  22
ATOM     22  C   UNL     1      45.610  36.429  -9.362  1.00  0.00    -0.000 C 
BRANCH  22  23
ATOM     23  C   UNL     1      45.660  34.903  -9.528  1.00  0.00    -0.000 C 
BRANCH  23  24
ATOM     24  C   UNL     1      46.842  34.301  -8.762  1.00  0.00    -0.000 C 
BRANCH  24  25
ATOM     25  C   UNL     1      46.359  33.290  -7.716  1.00  0.00    -0.003 C 
ATOM     26  C   UNL     1      44.851  33.084  -7.803  1.00  0.00     0.004 C 
ENDBRANCH  24  25
ENDBRANCH  23  24
ENDBRANCH  22  23
ENDBRANCH  21  22
ENDBRANCH  20  21
ENDBRANCH  19  20
ENDBRANCH  18  19
ENDBRANCH  17  18
ENDBRANCH  16  17
ENDBRANCH  15  16
ENDBRANCH   1  15
TORSDOF 22
ENDMDL
MODEL 5
REMARK VINA RESULT:    -4.389      1.216      3.610
REMARK INTER + INTRA:         -13.418
REMARK INTER:                  -9.481
REMARK INTRA:                  -3.937
REMARK UNBOUND:                -3.385
REMARK SMILES CCCCCCCCCCCCCCCCCCCCCCCC(=O)[O-]
REMARK SMILES IDX 13 1 14 2 15 3 16 4 17 5 18 6 19 7 20 8 21 9 22 10 23 11
REMARK SMILES IDX 24 12 25 13 26 14 12 15 11 16 10 17 9 18 8 19 7 20 6 21 5 22
REMARK SMILES IDX 4 23 3 24 2 25 1 26
REMARK H PARENT
REMARK Flexibility Score: inf
ROOT
ATOM      1  C   UNL     1      48.016  34.880 -15.441  1.00  0.00     0.000 C 
ENDROOT
BRANCH   1   2
ATOM      2  C   UNL     1      46.774  35.687 -15.023  1.00  0.00     0.000 C 
BRANCH   2   3
ATOM      3  C   UNL     1      47.025  37.204 -15.005  1.00  0.00     0.000 C 
BRANCH   3   4
ATOM      4  C   UNL     1      45.913  37.988 -14.293  1.00  0.00     0.000 C 
BRANCH   4   5
ATOM      5  C   UNL     1      44.725  37.093 -13.893  1.00  0.00     0.000 C 
BRANCH   5   6
ATOM      6  C   UNL     1      44.001  37.582 -12.626  1.00  0.00     0.000 C 
BRANCH   6   7
ATOM      7  C   UNL     1      42.766  36.759 -12.217  1.00  0.00     0.000 C 
BRANCH   7   8
ATOM      8  C   UNL     1      42.352  36.977 -10.752  1.00  0.00     0.000 C 
BRANCH   8   9
ATOM      9  C   UNL     1      43.566  36.900  -9.817  1.00  0.00     0.000 C 
BRANCH   9  10
ATOM     10  C   UNL     1      43.592  35.618  -8.966  1.00  0.00     0.006 C 
BRANCH  10  11
ATOM     11  C   UNL     1      44.839  35.485  -8.075  1.00  0.00     0.053 C 
BRANCH  11  12
ATOM     12  C   UNL     1      45.158  34.059  -7.741  1.00  0.00     0.041 C 
ATOM     13  O   UNL     1      44.242  33.273  -7.380  1.00  0.00    -0.550 OA
ATOM     14  O   UNL     1      46.458  33.585  -7.869  1.00  0.00    -0.550 OA
ENDBRANCH  11  12
ENDBRANCH  10  11
ENDBRANCH   9  10
ENDBRANCH   8   9
ENDBRANCH   7   8
ENDBRANCH   6   7
ENDBRANCH   5   6
ENDBRANCH   4   5
ENDBRANCH   3   4
ENDBRANCH   2   3
ENDBRANCH   1   2
BRANCH   1  15
ATOM     15  C   UNL     1      48.528  35.175 -16.863  1.00  0.00     0.000 C 
BRANCH  15  16
ATOM     16  C   UNL     1      49.980  35.686 -16.884  1.00  0.00     0.000 C 
BRANCH  16  17
ATOM     17  C   UNL     1      50.065  37.203 -16.626  1.00  0.00     0.000 C 
BRANCH  17  18
ATOM     18  C   UNL     1      51.437  37.671 -16.107  1.00  0.00    -0.000 C 
BRANCH  18  19
ATOM     19  C   UNL     1      51.731  37.277 -14.644  1.00  0.00    -0.000 C 
BRANCH  19  20
ATOM     20  C   UNL     1      50.529  37.395 -13.685  1.00  0.00    -0.000 C 
BRANCH  20  21
ATOM     21  C   UNL     1      50.044  36.073 -13.058  1.00  0.00    -0.000 C 
BRANCH  21  22
ATOM     22  C   UNL     1      49.410  36.233 -11.660  1.00  0.00    -0.000 C 
BRANCH  22  23
ATOM     23  C   UNL     1      48.283  37.275 -11.655  1.00  0.00    -0.000 C 
BRANCH  23  24
ATOM     24  C   UNL     1      47.046  36.751 -10.919  1.00  0.00    -0.000 C 
BRANCH  24  25
ATOM     25  C   UNL     1      47.072  35.222 -10.824  1.00  0.00    -0.003 C 
ATOM     26  C   UNL     1      45.971  34.596 -11.674  1.00  0.00     0.004 C 
ENDBRANCH  24  25
ENDBRANCH  23  24
ENDBRANCH  22  23
ENDBRANCH  21  22
ENDBRANCH  20  21
ENDBRANCH  19  20
ENDBRANCH  18  19
ENDBRANCH  17  18
ENDBRANCH  16  17
ENDBRANCH  15  16
ENDBRANCH   1  15
TORSDOF 22
ENDMDL
MODEL 6
REMARK VINA RESULT:    -4.352      1.025      2.794
REMARK INTER + INTRA:         -13.334
REMARK INTER:                 -10.232
REMARK INTRA:                  -3.102
REMARK UNBOUND:                -3.385
REMARK SMILES CCCCCCCCCCCCCCCCCCCCCCCC(=O)[O-]
REMARK SMILES IDX 13 1 14 2 15 3 16 4 17 5 18 6 19 7 20 8 21 9 22 10 23 11
REMARK SMILES IDX 24 12 25 13 26 14 12 15 11 16 10 17 9 18 8 19 7 20 6 21 5 22
REMARK SMILES IDX 4 23 3 24 2 25 1 26
REMARK H PARENT
REMARK Flexibility Score: inf
ROOT
ATOM      1  C   UNL     1      46.618  34.410 -13.714  1.00  0.00     0.000 C 
ENDROOT
BRANCH   1   2
ATOM      2  C   UNL     1      45.267  34.694 -13.033  1.00  0.00     0.000 C 
BRANCH   2   3
ATOM      3  C   UNL     1      44.861  36.176 -13.106  1.00  0.00     0.000 C 
BRANCH   3   4
ATOM      4  C   UNL     1      43.359  36.398 -12.875  1.00  0.00     0.000 C 
BRANCH   4   5
ATOM      5  C   UNL     1      43.061  37.753 -12.205  1.00  0.00     0.000 C 
BRANCH   5   6
ATOM      6  C   UNL     1      41.719  37.770 -11.451  1.00  0.00     0.000 C 
BRANCH   6   7
ATOM      7  C   UNL     1      41.830  37.769  -9.914  1.00  0.00     0.000 C 
BRANCH   7   8
ATOM      8  C   UNL     1      42.651  36.590  -9.368  1.00  0.00     0.000 C 
BRANCH   8   9
ATOM      9  C   UNL     1      44.034  37.053  -8.889  1.00  0.00     0.000 C 
BRANCH   9  10
ATOM     10  C   UNL     1      44.712  36.046  -7.943  1.00  0.00     0.006 C 
BRANCH  10  11
ATOM     11  C   UNL     1      45.518  34.954  -8.667  1.00  0.00     0.053 C 
BRANCH  11  12
ATOM     12  C   UNL     1      45.388  33.613  -8.012  1.00  0.00     0.041 C 
ATOM     13  O   UNL     1      44.251  33.167  -7.703  1.00  0.00    -0.550 OA
ATOM     14  O   UNL     1      46.516  32.835  -7.781  1.00  0.00    -0.550 OA
ENDBRANCH  11  12
ENDBRANCH  10  11
ENDBRANCH   9  10
ENDBRANCH   8   9
ENDBRANCH   7   8
ENDBRANCH   6   7
ENDBRANCH   5   6
ENDBRANCH   4   5
ENDBRANCH   3   4
ENDBRANCH   2   3
ENDBRANCH   1   2
BRANCH   1  15
ATOM     15  C   UNL     1      47.045  35.456 -14.760  1.00  0.00     0.000 C 
BRANCH  15  16
ATOM     16  C   UNL     1      47.611  34.824 -16.045  1.00  0.00     0.000 C 
BRANCH  16  17
ATOM     17  C   UNL     1      48.002  35.886 -17.090  1.00  0.00     0.000 C 
BRANCH  17  18
ATOM     18  C   UNL     1      47.815  37.336 -16.607  1.00  0.00    -0.000 C 
BRANCH  18  19
ATOM     19  C   UNL     1      49.133  38.113 -16.404  1.00  0.00    -0.000 C 
BRANCH  19  20
ATOM     20  C   UNL     1      50.410  37.249 -16.443  1.00  0.00    -0.000 C 
BRANCH  20  21
ATOM     21  C   UNL     1      51.104  37.021 -15.086  1.00  0.00    -0.000 C 
BRANCH  21  22
ATOM     22  C   UNL     1      50.193  37.263 -13.863  1.00  0.00    -0.000 C 
BRANCH  22  23
ATOM     23  C   UNL     1      49.905  35.966 -13.094  1.00  0.00    -0.000 C 
BRANCH  23  24
ATOM     24  C   UNL     1      49.247  36.257 -11.742  1.00  0.00    -0.000 C 
BRANCH  24  25
ATOM     25  C   UNL     1      48.207  37.377 -11.869  1.00  0.00    -0.003 C 
ATOM     26  C   UNL     1      47.263  37.392 -10.671  1.00  0.00     0.004 C 
ENDBRANCH  24  25
ENDBRANCH  23  24
ENDBRANCH  22  23
ENDBRANCH  21  22
ENDBRANCH  20  21
ENDBRANCH  19  20
ENDBRANCH  18  19
ENDBRANCH  17  18
ENDBRANCH  16  17
ENDBRANCH  15  16
ENDBRANCH   1  15
TORSDOF 22
ENDMDL
MODEL 7
REMARK VINA RESULT:    -4.211      1.964      4.512
REMARK INTER + INTRA:         -13.012
REMARK INTER:                 -10.222
REMARK INTRA:                  -2.790
REMARK UNBOUND:                -3.385
REMARK SMILES CCCCCCCCCCCCCCCCCCCCCCCC(=O)[O-]
REMARK SMILES IDX 13 1 14 2 15 3 16 4 17 5 18 6 19 7 20 8 21 9 22 10 23 11
REMARK SMILES IDX 24 12 25 13 26 14 12 15 11 16 10 17 9 18 8 19 7 20 6 21 5 22
REMARK SMILES IDX 4 23 3 24 2 25 1 26
REMARK H PARENT
REMARK Flexibility Score: inf
ROOT
ATOM      1  C   UNL     1      47.871  37.939 -14.929  1.00  0.00     0.000 C 
ENDROOT
BRANCH   1   2
ATOM      2  C   UNL     1      47.600  37.627 -13.446  1.00  0.00     0.000 C 
BRANCH   2   3
ATOM      3  C   UNL     1      48.536  36.544 -12.883  1.00  0.00     0.000 C 
BRANCH   3   4
ATOM      4  C   UNL     1      48.051  35.118 -13.183  1.00  0.00     0.000 C 
BRANCH   4   5
ATOM      5  C   UNL     1      46.795  34.742 -12.376  1.00  0.00     0.000 C 
BRANCH   5   6
ATOM      6  C   UNL     1      45.500  34.815 -13.206  1.00  0.00     0.000 C 
BRANCH   6   7
ATOM      7  C   UNL     1      44.561  35.983 -12.855  1.00  0.00     0.000 C 
BRANCH   7   8
ATOM      8  C   UNL     1      44.079  35.954 -11.395  1.00  0.00     0.000 C 
BRANCH   8   9
ATOM      9  C   UNL     1      44.866  36.951 -10.533  1.00  0.00     0.000 C 
BRANCH   9  10
ATOM     10  C   UNL     1      45.530  36.295  -9.310  1.00  0.00     0.006 C 
BRANCH  10  11
ATOM     11  C   UNL     1      44.725  35.128  -8.713  1.00  0.00     0.053 C 
BRANCH  11  12
ATOM     12  C   UNL     1      45.593  33.974  -8.312  1.00  0.00     0.041 C 
ATOM     13  O   UNL     1      46.832  34.005  -8.541  1.00  0.00    -0.550 OA
ATOM     14  O   UNL     1      45.045  32.884  -7.647  1.00  0.00    -0.550 OA
ENDBRANCH  11  12
ENDBRANCH  10  11
ENDBRANCH   9  10
ENDBRANCH   8   9
ENDBRANCH   7   8
ENDBRANCH   6   7
ENDBRANCH   5   6
ENDBRANCH   4   5
ENDBRANCH   3   4
ENDBRANCH   2   3
ENDBRANCH   1   2
BRANCH   1  15
ATOM     15  C   UNL     1      46.722  37.568 -15.886  1.00  0.00     0.000 C 
BRANCH  15  16
ATOM     16  C   UNL     1      47.182  36.689 -17.062  1.00  0.00     0.000 C 
BRANCH  16  17
ATOM     17  C   UNL     1      47.450  35.234 -16.630  1.00  0.00     0.000 C 
BRANCH  17  18
ATOM     18  C   UNL     1      48.944  34.862 -16.589  1.00  0.00    -0.000 C 
BRANCH  18  19
ATOM     19  C   UNL     1      49.880  35.924 -17.204  1.00  0.00    -0.000 C 
BRANCH  19  20
ATOM     20  C   UNL     1      51.145  36.231 -16.377  1.00  0.00    -0.000 C 
BRANCH  20  21
ATOM     21  C   UNL     1      51.650  37.686 -16.447  1.00  0.00    -0.000 C 
BRANCH  21  22
ATOM     22  C   UNL     1      52.998  37.921 -15.732  1.00  0.00    -0.000 C 
BRANCH  22  23
ATOM     23  C   UNL     1      54.150  38.120 -16.728  1.00  0.00    -0.000 C 
BRANCH  23  24
ATOM     24  C   UNL     1      53.663  37.980 -18.174  1.00  0.00    -0.000 C 
BRANCH  24  25
ATOM     25  C   UNL     1      54.076  36.627 -18.763  1.00  0.00    -0.003 C 
ATOM     26  C   UNL     1      55.361  36.748 -19.576  1.00  0.00     0.004 C 
ENDBRANCH  24  25
ENDBRANCH  23  24
ENDBRANCH  22  23
ENDBRANCH  21  22
ENDBRANCH  20  21
ENDBRANCH  19  20
ENDBRANCH  18  19
ENDBRANCH  17  18
ENDBRANCH  16  17
ENDBRANCH  15  16
ENDBRANCH   1  15
TORSDOF 22
ENDMDL
MODEL 8
REMARK VINA RESULT:    -4.211      0.989      2.126
REMARK INTER + INTRA:         -13.012
REMARK INTER:                  -9.506
REMARK INTRA:                  -3.506
REMARK UNBOUND:                -3.385
REMARK SMILES CCCCCCCCCCCCCCCCCCCCCCCC(=O)[O-]
REMARK SMILES IDX 13 1 14 2 15 3 16 4 17 5 18 6 19 7 20 8 21 9 22 10 23 11
REMARK SMILES IDX 24 12 25 13 26 14 12 15 11 16 10 17 9 18 8 19 7 20 6 21 5 22
REMARK SMILES IDX 4 23 3 24 2 25 1 26
REMARK H PARENT
REMARK Flexibility Score: inf
ROOT
ATOM      1  C   UNL     1      44.867  35.589 -13.215  1.00  0.00     0.000 C 
ENDROOT
BRANCH   1   2
ATOM      2  C   UNL     1      43.473  36.232 -13.108  1.00  0.00     0.000 C 
BRANCH   2   3
ATOM      3  C   UNL     1      42.999  36.392 -11.653  1.00  0.00     0.000 C 
BRANCH   3   4
ATOM      4  C   UNL     1      42.643  37.842 -11.295  1.00  0.00     0.000 C 
BRANCH   4   5
ATOM      5  C   UNL     1      41.333  37.946 -10.492  1.00  0.00     0.000 C 
BRANCH   5   6
ATOM      6  C   UNL     1      41.499  37.542  -9.015  1.00  0.00     0.000 C 
BRANCH   6   7
ATOM      7  C   UNL     1      42.744  38.115  -8.313  1.00  0.00     0.000 C 
BRANCH   7   8
ATOM      8  C   UNL     1      43.754  37.034  -7.895  1.00  0.00     0.000 C 
BRANCH   8   9
ATOM      9  C   UNL     1      45.050  37.142  -8.710  1.00  0.00     0.000 C 
BRANCH   9  10
ATOM     10  C   UNL     1      45.730  35.781  -8.943  1.00  0.00     0.006 C 
BRANCH  10  11
ATOM     11  C   UNL     1      44.793  34.575  -8.753  1.00  0.00     0.053 C 
BRANCH  11  12
ATOM     12  C   UNL     1      45.360  33.547  -7.821  1.00  0.00     0.041 C 
ATOM     13  O   UNL     1      44.597  32.898  -7.056  1.00  0.00    -0.550 OA
ATOM     14  O   UNL     1      46.722  33.273  -7.825  1.00  0.00    -0.550 OA
ENDBRANCH  11  12
ENDBRANCH  10  11
ENDBRANCH   9  10
ENDBRANCH   8   9
ENDBRANCH   7   8
ENDBRANCH   6   7
ENDBRANCH   5   6
ENDBRANCH   4   5
ENDBRANCH   3   4
ENDBRANCH   2   3
ENDBRANCH   1   2
BRANCH   1  15
ATOM     15  C   UNL     1      45.923  36.178 -12.262  1.00  0.00     0.000 C 
BRANCH  15  16
ATOM     16  C   UNL     1      46.527  37.497 -12.777  1.00  0.00     0.000 C 
BRANCH  16  17
ATOM     17  C   UNL     1      47.989  37.680 -12.325  1.00  0.00     0.000 C 
BRANCH  17  18
ATOM     18  C   UNL     1      48.743  36.357 -12.098  1.00  0.00    -0.000 C 
BRANCH  18  19
ATOM     19  C   UNL     1      49.941  36.137 -13.046  1.00  0.00    -0.000 C 
BRANCH  19  20
ATOM     20  C   UNL     1      50.236  37.310 -14.002  1.00  0.00    -0.000 C 
BRANCH  20  21
ATOM     21  C   UNL     1      50.690  36.915 -15.422  1.00  0.00    -0.000 C 
BRANCH  21  22
ATOM     22  C   UNL     1      49.770  37.437 -16.546  1.00  0.00    -0.000 C 
BRANCH  22  23
ATOM     23  C   UNL     1      48.362  37.768 -16.031  1.00  0.00    -0.000 C 
BRANCH  23  24
ATOM     24  C   UNL     1      47.305  36.886 -16.703  1.00  0.00    -0.000 C 
BRANCH  24  25
ATOM     25  C   UNL     1      47.782  35.432 -16.794  1.00  0.00    -0.003 C 
ATOM     26  C   UNL     1      47.536  34.687 -15.486  1.00  0.00     0.004 C 
ENDBRANCH  24  25
ENDBRANCH  23  24
ENDBRANCH  22  23
ENDBRANCH  21  22
ENDBRANCH  20  21
ENDBRANCH  19  20
ENDBRANCH  18  19
ENDBRANCH  17  18
ENDBRANCH  16  17
ENDBRANCH  15  16
ENDBRANCH   1  15
TORSDOF 22
ENDMDL
MODEL 9
REMARK VINA RESULT:    -4.209      1.325      3.598
REMARK INTER + INTRA:         -13.007
REMARK INTER:                  -9.723
REMARK INTRA:                  -3.283
REMARK UNBOUND:                -3.385
REMARK SMILES CCCCCCCCCCCCCCCCCCCCCCCC(=O)[O-]
REMARK SMILES IDX 13 1 14 2 15 3 16 4 17 5 18 6 19 7 20 8 21 9 22 10 23 11
REMARK SMILES IDX 24 12 25 13 26 14 12 15 11 16 10 17 9 18 8 19 7 20 6 21 5 22
REMARK SMILES IDX 4 23 3 24 2 25 1 26
REMARK H PARENT
REMARK Flexibility Score: inf
ROOT
ATOM      1  C   UNL     1      47.084  37.916 -15.800  1.00  0.00     0.000 C 
ENDROOT
BRANCH   1   2
ATOM      2  C   UNL     1      45.629  37.964 -15.302  1.00  0.00     0.000 C 
BRANCH   2   3
ATOM      3  C   UNL     1      45.461  37.380 -13.889  1.00  0.00     0.000 C 
BRANCH   3   4
ATOM      4  C   UNL     1      44.115  37.745 -13.245  1.00  0.00     0.000 C 
BRANCH   4   5
ATOM      5  C   UNL     1      43.330  36.505 -12.778  1.00  0.00     0.000 C 
BRANCH   5   6
ATOM      6  C   UNL     1      42.555  36.740 -11.469  1.00  0.00     0.000 C 
BRANCH   6   7
ATOM      7  C   UNL     1      43.289  36.310 -10.185  1.00  0.00     0.000 C 
BRANCH   7   8
ATOM      8  C   UNL     1      44.227  37.396  -9.633  1.00  0.00     0.000 C 
BRANCH   8   9
ATOM      9  C   UNL     1      45.695  36.954  -9.715  1.00  0.00     0.000 C 
BRANCH   9  10
ATOM     10  C   UNL     1      45.861  35.509 -10.218  1.00  0.00     0.006 C 
BRANCH  10  11
ATOM     11  C   UNL     1      46.810  34.655  -9.360  1.00  0.00     0.053 C 
BRANCH  11  12
ATOM     12  C   UNL     1      46.089  33.893  -8.289  1.00  0.00     0.041 C 
ATOM     13  O   UNL     1      46.661  32.938  -7.698  1.00  0.00    -0.550 OA
ATOM     14  O   UNL     1      44.804  34.262  -7.912  1.00  0.00    -0.550 OA
ENDBRANCH  11  12
ENDBRANCH  10  11
ENDBRANCH   9  10
ENDBRANCH   8   9
ENDBRANCH   7   8
ENDBRANCH   6   7
ENDBRANCH   5   6
ENDBRANCH   4   5
ENDBRANCH   3   4
ENDBRANCH   2   3
ENDBRANCH   1   2
BRANCH   1  15
ATOM     15  C   UNL     1      47.298  37.098 -17.087  1.00  0.00     0.000 C 
BRANCH  15  16
ATOM     16  C   UNL     1      48.212  35.877 -16.877  1.00  0.00     0.000 C 
BRANCH  16  17
ATOM     17  C   UNL     1      47.539  34.790 -16.015  1.00  0.00     0.000 C 
BRANCH  17  18
ATOM     18  C   UNL     1      48.353  34.389 -14.772  1.00  0.00    -0.000 C 
BRANCH  18  19
ATOM     19  C   UNL     1      47.900  35.076 -13.466  1.00  0.00    -0.000 C 
BRANCH  19  20
ATOM     20  C   UNL     1      49.008  35.844 -12.717  1.00  0.00    -0.000 C 
BRANCH  20  21
ATOM     21  C   UNL     1      48.995  37.375 -12.897  1.00  0.00    -0.000 C 
BRANCH  21  22
ATOM     22  C   UNL     1      50.278  37.945 -13.538  1.00  0.00    -0.000 C 
BRANCH  22  23
ATOM     23  C   UNL     1      50.802  37.050 -14.670  1.00  0.00    -0.000 C 
BRANCH  23  24
ATOM     24  C   UNL     1      52.242  37.417 -15.046  1.00  0.00    -0.000 C 
BRANCH  24  25
ATOM     25  C   UNL     1      52.357  37.716 -16.545  1.00  0.00    -0.003 C 
ATOM     26  C   UNL     1      52.795  36.480 -17.323  1.00  0.00     0.004 C 
ENDBRANCH  24  25
ENDBRANCH  23  24
ENDBRANCH  22  23
ENDBRANCH  21  22
ENDBRANCH  20  21
ENDBRANCH  19  20
ENDBRANCH  18  19
ENDBRANCH  17  18
ENDBRANCH  16  17
ENDBRANCH  15  16
ENDBRANCH   1  15
TORSDOF 22
ENDMDL
