MODEL 1
REMARK VINA RESULT:    -4.794      0.000      0.000
REMARK INTER + INTRA:          -8.145
REMARK INTER:                  -7.597
REMARK INTRA:                  -0.548
REMARK UNBOUND:                -0.548
REMARK SMILES CCCCCCCCCCCC(=O)[O-]
REMARK SMILES IDX 7 1 8 2 9 3 10 4 11 5 12 6 13 7 14 8 6 9 5 10 4 11 3 12 2 13
REMARK SMILES IDX 1 14
REMARK H PARENT
REMARK Flexibility Score: inf
ROOT
ATOM      1  C   UNL     1      -3.314  37.947  19.869  1.00  0.00     0.000 C 
ENDROOT
BRANCH   1   2
ATOM      2  C   UNL     1      -4.762  37.876  20.386  1.00  0.00     0.000 C 
BRANCH   2   3
ATOM      3  C   UNL     1      -5.455  36.549  20.042  1.00  0.00     0.000 C 
BRANCH   3   4
ATOM      4  C   UNL     1      -5.846  35.788  21.318  1.00  0.00     0.006 C 
BRANCH   4   5
ATOM      5  C   UNL     1      -5.787  36.679  22.565  1.00  0.00     0.053 C 
BRANCH   5   6
ATOM      6  C   UNL     1      -5.608  35.872  23.815  1.00  0.00     0.041 C 
ATOM      7  O   UNL     1      -5.335  36.441  24.905  1.00  0.00    -0.550 OA
ATOM      8  O   UNL     1      -5.711  34.487  23.769  1.00  0.00    -0.550 OA
ENDBRANCH   5   6
ENDBRANCH   4   5
ENDBRANCH   3   4
ENDBRANCH   2   3
ENDBRANCH   1   2
BRANCH   1   9
ATOM      9  C   UNL     1      -3.157  37.823  18.340  1.00  0.00     0.000 C 
BRANCH   9  10
ATOM     10  C   UNL     1      -1.704  37.806  17.835  1.00  0.00    -0.000 C 
BRANCH  10  11
ATOM     11  C   UNL     1      -1.530  36.981  16.548  1.00  0.00    -0.000 C 
BRANCH  11  12
ATOM     12  C   UNL     1      -2.869  36.664  15.858  1.00  0.00    -0.000 C 
BRANCH  12  13
ATOM     13  C   UNL     1      -2.962  37.121  14.391  1.00  0.00    -0.003 C 
ATOM     14  C   UNL     1      -3.903  38.308  14.193  1.00  0.00     0.004 C 
ENDBRANCH  12  13
ENDBRANCH  11  12
ENDBRANCH  10  11
ENDBRANCH   9  10
ENDBRANCH   1   9
TORSDOF 10
ENDMDL
MODEL 2
REMARK VINA RESULT:    -4.616      4.057      7.684
REMARK INTER + INTRA:          -7.862
REMARK INTER:                  -7.367
REMARK INTRA:                  -0.495
REMARK UNBOUND:                -0.548
REMARK SMILES CCCCCCCCCCCC(=O)[O-]
REMARK SMILES IDX 7 1 8 2 9 3 10 4 11 5 12 6 13 7 14 8 6 9 5 10 4 11 3 12 2 13
REMARK SMILES IDX 1 14
REMARK H PARENT
REMARK Flexibility Score: inf
ROOT
ATOM      1  C   UNL     1      -3.395  37.199  20.117  1.00  0.00     0.000 C 
ENDROOT
BRANCH   1   2
ATOM      2  C   UNL     1      -3.420  37.862  18.729  1.00  0.00     0.000 C 
BRANCH   2   3
ATOM      3  C   UNL     1      -2.017  38.060  18.136  1.00  0.00     0.000 C 
BRANCH   3   4
ATOM      4  C   UNL     1      -1.790  37.122  16.941  1.00  0.00     0.006 C 
BRANCH   4   5
ATOM      5  C   UNL     1      -3.083  36.857  16.157  1.00  0.00     0.053 C 
BRANCH   5   6
ATOM      6  C   UNL     1      -3.041  37.480  14.794  1.00  0.00     0.041 C 
ATOM      7  O   UNL     1      -2.225  37.063  13.931  1.00  0.00    -0.550 OA
ATOM      8  O   UNL     1      -3.883  38.542  14.490  1.00  0.00    -0.550 OA
ENDBRANCH   5   6
ENDBRANCH   4   5
ENDBRANCH   3   4
ENDBRANCH   2   3
ENDBRANCH   1   2
BRANCH   1   9
ATOM      9  C   UNL     1      -4.256  35.926  20.252  1.00  0.00     0.000 C 
BRANCH   9  10
ATOM     10  C   UNL     1      -5.690  36.163  20.757  1.00  0.00    -0.000 C 
BRANCH  10  11
ATOM     11  C   UNL     1      -5.740  36.556  22.244  1.00  0.00    -0.000 C 
BRANCH  11  12
ATOM     12  C   UNL     1      -5.814  35.338  23.181  1.00  0.00    -0.000 C 
BRANCH  12  13
ATOM     13  C   UNL     1      -6.125  35.675  24.650  1.00  0.00    -0.003 C 
ATOM     14  C   UNL     1      -5.451  36.961  25.125  1.00  0.00     0.004 C 
ENDBRANCH  12  13
ENDBRANCH  11  12
ENDBRANCH  10  11
ENDBRANCH   9  10
ENDBRANCH   1   9
TORSDOF 10
ENDMDL
MODEL 3
REMARK VINA RESULT:    -4.041      1.512      2.107
REMARK INTER + INTRA:          -6.951
REMARK INTER:                  -6.440
REMARK INTRA:                  -0.512
REMARK UNBOUND:                -0.548
REMARK SMILES CCCCCCCCCCCC(=O)[O-]
REMARK SMILES IDX 7 1 8 2 9 3 10 4 11 5 12 6 13 7 14 8 6 9 5 10 4 11 3 12 2 13
REMARK SMILES IDX 1 14
REMARK H PARENT
REMARK Flexibility Score: inf
ROOT
ATOM      1  C   UNL     1      -4.070  36.015  20.709  1.00  0.00     0.000 C 
ENDROOT
BRANCH   1   2
ATOM      2  C   UNL     1      -5.447  36.513  21.185  1.00  0.00     0.000 C 
BRANCH   2   3
ATOM      3  C   UNL     1      -6.125  35.547  22.168  1.00  0.00     0.000 C 
BRANCH   3   4
ATOM      4  C   UNL     1      -5.270  35.361  23.431  1.00  0.00     0.006 C 
BRANCH   4   5
ATOM      5  C   UNL     1      -5.943  35.947  24.679  1.00  0.00     0.053 C 
BRANCH   5   6
ATOM      6  C   UNL     1      -5.380  37.290  25.033  1.00  0.00     0.041 C 
ATOM      7  O   UNL     1      -5.692  38.307  24.359  1.00  0.00    -0.550 OA
ATOM      8  O   UNL     1      -4.485  37.412  26.089  1.00  0.00    -0.550 OA
ENDBRANCH   5   6
ENDBRANCH   4   5
ENDBRANCH   3   4
ENDBRANCH   2   3
ENDBRANCH   1   2
BRANCH   1   9
ATOM      9  C   UNL     1      -3.163  37.095  20.085  1.00  0.00     0.000 C 
BRANCH   9  10
ATOM     10  C   UNL     1      -3.781  37.859  18.901  1.00  0.00    -0.000 C 
BRANCH  10  11
ATOM     11  C   UNL     1      -2.865  37.882  17.665  1.00  0.00    -0.000 C 
BRANCH  11  12
ATOM     12  C   UNL     1      -3.002  36.618  16.798  1.00  0.00    -0.000 C 
BRANCH  12  13
ATOM     13  C   UNL     1      -2.819  36.850  15.288  1.00  0.00    -0.003 C 
ATOM     14  C   UNL     1      -3.443  38.159  14.804  1.00  0.00     0.004 C 
ENDBRANCH  12  13
ENDBRANCH  11  12
ENDBRANCH  10  11
ENDBRANCH   9  10
ENDBRANCH   1   9
TORSDOF 10
ENDMDL
MODEL 4
REMARK VINA RESULT:    -3.901      2.895      6.707
REMARK INTER + INTRA:          -6.730
REMARK INTER:                  -6.242
REMARK INTRA:                  -0.488
REMARK UNBOUND:                -0.548
REMARK SMILES CCCCCCCCCCCC(=O)[O-]
REMARK SMILES IDX 7 1 8 2 9 3 10 4 11 5 12 6 13 7 14 8 6 9 5 10 4 11 3 12 2 13
REMARK SMILES IDX 1 14
REMARK H PARENT
REMARK Flexibility Score: inf
ROOT
ATOM      1  C   UNL     1      -4.244  35.230  18.077  1.00  0.00     0.000 C 
ENDROOT
BRANCH   1   2
ATOM      2  C   UNL     1      -3.964  36.431  17.155  1.00  0.00     0.000 C 
BRANCH   2   3
ATOM      3  C   UNL     1      -2.779  36.194  16.209  1.00  0.00     0.000 C 
BRANCH   3   4
ATOM      4  C   UNL     1      -1.583  37.076  16.597  1.00  0.00     0.006 C 
BRANCH   4   5
ATOM      5  C   UNL     1      -1.994  38.242  17.507  1.00  0.00     0.053 C 
BRANCH   5   6
ATOM      6  C   UNL     1      -1.409  38.106  18.880  1.00  0.00     0.041 C 
ATOM      7  O   UNL     1      -0.164  38.174  19.050  1.00  0.00    -0.550 OA
ATOM      8  O   UNL     1      -2.240  37.870  19.969  1.00  0.00    -0.550 OA
ENDBRANCH   5   6
ENDBRANCH   4   5
ENDBRANCH   3   4
ENDBRANCH   2   3
ENDBRANCH   1   2
BRANCH   1   9
ATOM      9  C   UNL     1      -5.518  35.349  18.939  1.00  0.00     0.000 C 
BRANCH   9  10
ATOM     10  C   UNL     1      -5.417  36.336  20.115  1.00  0.00    -0.000 C 
BRANCH  10  11
ATOM     11  C   UNL     1      -6.086  35.807  21.395  1.00  0.00    -0.000 C 
BRANCH  11  12
ATOM     12  C   UNL     1      -5.728  36.636  22.641  1.00  0.00    -0.000 C 
BRANCH  12  13
ATOM     13  C   UNL     1      -6.047  35.953  23.983  1.00  0.00    -0.003 C 
ATOM     14  C   UNL     1      -6.058  34.427  23.890  1.00  0.00     0.004 C 
ENDBRANCH  12  13
ENDBRANCH  11  12
ENDBRANCH  10  11
ENDBRANCH   9  10
ENDBRANCH   1   9
TORSDOF 10
ENDMDL
MODEL 5
REMARK VINA RESULT:    -3.733      1.290      2.917
REMARK INTER + INTRA:          -6.463
REMARK INTER:                  -5.331
REMARK INTRA:                  -1.131
REMARK UNBOUND:                -0.548
REMARK SMILES CCCCCCCCCCCC(=O)[O-]
REMARK SMILES IDX 7 1 8 2 9 3 10 4 11 5 12 6 13 7 14 8 6 9 5 10 4 11 3 12 2 13
REMARK SMILES IDX 1 14
REMARK H PARENT
REMARK Flexibility Score: inf
ROOT
ATOM      1  C   UNL     1      -4.669  35.770  18.291  1.00  0.00     0.000 C 
ENDROOT
BRANCH   1   2
ATOM      2  C   UNL     1      -4.237  36.001  19.750  1.00  0.00     0.000 C 
BRANCH   2   3
ATOM      3  C   UNL     1      -4.526  37.427  20.241  1.00  0.00     0.000 C 
BRANCH   3   4
ATOM      4  C   UNL     1      -5.443  37.408  21.473  1.00  0.00     0.006 C 
BRANCH   4   5
ATOM      5  C   UNL     1      -5.901  35.988  21.833  1.00  0.00     0.053 C 
BRANCH   5   6
ATOM      6  C   UNL     1      -5.720  35.701  23.293  1.00  0.00     0.041 C 
ATOM      7  O   UNL     1      -5.645  34.512  23.701  1.00  0.00    -0.550 OA
ATOM      8  O   UNL     1      -5.668  36.747  24.206  1.00  0.00    -0.550 OA
ENDBRANCH   5   6
ENDBRANCH   4   5
ENDBRANCH   3   4
ENDBRANCH   2   3
ENDBRANCH   1   2
BRANCH   1   9
ATOM      9  C   UNL     1      -3.514  35.668  17.274  1.00  0.00     0.000 C 
BRANCH   9  10
ATOM     10  C   UNL     1      -3.467  36.798  16.230  1.00  0.00    -0.000 C 
BRANCH  10  11
ATOM     11  C   UNL     1      -2.628  38.001  16.693  1.00  0.00    -0.000 C 
BRANCH  11  12
ATOM     12  C   UNL     1      -1.438  37.593  17.579  1.00  0.00    -0.000 C 
BRANCH  12  13
ATOM     13  C   UNL     1      -1.199  38.504  18.796  1.00  0.00    -0.003 C 
ATOM     14  C   UNL     1      -0.811  37.731  20.056  1.00  0.00     0.004 C 
ENDBRANCH  12  13
ENDBRANCH  11  12
ENDBRANCH  10  11
ENDBRANCH   9  10
ENDBRANCH   1   9
TORSDOF 10
ENDMDL
MODEL 6
REMARK VINA RESULT:    -3.396      2.307      2.795
REMARK INTER + INTRA:          -5.928
REMARK INTER:                  -5.267
REMARK INTRA:                  -0.662
REMARK UNBOUND:                -0.548
REMARK SMILES CCCCCCCCCCCC(=O)[O-]
REMARK SMILES IDX 7 1 8 2 9 3 10 4 11 5 12 6 13 7 14 8 6 9 5 10 4 11 3 12 2 13
REMARK SMILES IDX 1 14
REMARK H PARENT
REMARK Flexibility Score: inf
ROOT
ATOM      1  C   UNL     1      -5.011  34.879  18.496  1.00  0.00     0.000 C 
ENDROOT
BRANCH   1   2
ATOM      2  C   UNL     1      -5.949  35.805  19.291  1.00  0.00     0.000 C 
BRANCH   2   3
ATOM      3  C   UNL     1      -5.898  35.550  20.805  1.00  0.00     0.000 C 
BRANCH   3   4
ATOM      4  C   UNL     1      -4.932  36.526  21.493  1.00  0.00     0.006 C 
BRANCH   4   5
ATOM      5  C   UNL     1      -5.670  37.666  22.207  1.00  0.00     0.053 C 
BRANCH   5   6
ATOM      6  C   UNL     1      -5.500  38.972  21.491  1.00  0.00     0.041 C 
ATOM      7  O   UNL     1      -5.440  40.049  22.141  1.00  0.00    -0.550 OA
ATOM      8  O   UNL     1      -5.440  39.001  20.103  1.00  0.00    -0.550 OA
ENDBRANCH   5   6
ENDBRANCH   4   5
ENDBRANCH   3   4
ENDBRANCH   2   3
ENDBRANCH   1   2
BRANCH   1   9
ATOM      9  C   UNL     1      -3.957  35.600  17.631  1.00  0.00     0.000 C 
BRANCH   9  10
ATOM     10  C   UNL     1      -3.513  36.975  18.160  1.00  0.00    -0.000 C 
BRANCH  10  11
ATOM     11  C   UNL     1      -2.904  37.866  17.063  1.00  0.00    -0.000 C 
BRANCH  11  12
ATOM     12  C   UNL     1      -2.033  37.076  16.069  1.00  0.00    -0.000 C 
BRANCH  12  13
ATOM     13  C   UNL     1      -2.639  36.924  14.663  1.00  0.00    -0.003 C 
ATOM     14  C   UNL     1      -3.687  37.990  14.343  1.00  0.00     0.004 C 
ENDBRANCH  12  13
ENDBRANCH  11  12
ENDBRANCH  10  11
ENDBRANCH   9  10
ENDBRANCH   1   9
TORSDOF 10
ENDMDL
