MODEL 1
REMARK VINA RESULT:    -5.856      0.000      0.000
REMARK INTER + INTRA:          -7.201
REMARK INTER:                  -7.054
REMARK INTRA:                  -0.147
REMARK UNBOUND:                -0.147
REMARK SMILES Oc1cc(O)c2cc(O)c(-c3ccc(O)c(O)c3)[o+]c2c1
REMARK SMILES IDX 10 1 19 2 20 3 21 4 2 5 3 6 4 7 6 8 7 9 8 10 11 11 12 12
REMARK SMILES IDX 13 13 14 14 18 15 16 16 15 17 17 19 9 21 1 23 5 25
REMARK H PARENT 15 18 17 20 9 22 1 24 5 26
REMARK Flexibility Score: inf
ROOT
ATOM      1  C   UNL     1      -4.046   9.276   4.921  1.00  0.00     0.402 A 
ATOM      2  O   UNL     1      -2.739   9.408   5.125  1.00  0.00    -0.202 OA
ATOM      3  C   UNL     1      -2.206   9.633   6.321  1.00  0.00     0.368 A 
ATOM      4  C   UNL     1      -0.818   9.761   6.434  1.00  0.00     0.162 A 
ATOM      5  C   UNL     1      -0.231  10.001   7.677  1.00  0.00     0.128 A 
ATOM      6  C   UNL     1      -1.036  10.117   8.817  1.00  0.00     0.093 A 
ATOM      7  C   UNL     1      -2.427   9.993   8.730  1.00  0.00     0.136 A 
ATOM      8  C   UNL     1      -3.028   9.747   7.468  1.00  0.00     0.125 A 
ATOM      9  C   UNL     1      -4.413   9.596   7.288  1.00  0.00     0.078 A 
ATOM     10  C   UNL     1      -4.931   9.349   6.013  1.00  0.00     0.223 A 
ENDROOT
BRANCH   1  11
ATOM     11  C   UNL     1      -4.519   9.037   3.538  1.00  0.00     0.087 A 
ATOM     12  C   UNL     1      -4.279   9.965   2.510  1.00  0.00     0.022 A 
ATOM     13  C   UNL     1      -4.715   9.707   1.209  1.00  0.00     0.051 A 
ATOM     14  C   UNL     1      -5.385   8.513   0.911  1.00  0.00     0.157 A 
ATOM     15  C   UNL     1      -5.173   7.833   3.230  1.00  0.00     0.068 A 
ATOM     16  C   UNL     1      -5.612   7.570   1.927  1.00  0.00     0.158 A 
BRANCH  14  17
ATOM     17  O   UNL     1      -5.820   8.259  -0.388  1.00  0.00    -0.504 OA
ATOM     18  H   UNL     1      -5.173   8.209  -1.166  1.00  0.00     0.293 HD
ENDBRANCH  14  17
BRANCH  16  19
ATOM     19  O   UNL     1      -6.269   6.369   1.663  1.00  0.00    -0.504 OA
ATOM     20  H   UNL     1      -6.852   6.244   0.844  1.00  0.00     0.293 HD
ENDBRANCH  16  19
ENDBRANCH   1  11
BRANCH  10  21
ATOM     21  O   UNL     1      -6.301   9.149   5.841  1.00  0.00    -0.500 OA
ATOM     22  H   UNL     1      -6.727   9.139   4.922  1.00  0.00     0.294 HD
ENDBRANCH  10  21
BRANCH   5  23
ATOM     23  O   UNL     1       1.153  10.125   7.769  1.00  0.00    -0.507 OA
ATOM     24  H   UNL     1       1.601  11.032   7.823  1.00  0.00     0.293 HD
ENDBRANCH   5  23
BRANCH   7  25
ATOM     25  O   UNL     1      -3.161  10.125   9.913  1.00  0.00    -0.507 OA
ATOM     26  H   UNL     1      -3.105  10.920  10.533  1.00  0.00     0.293 HD
ENDBRANCH   7  25
TORSDOF 6
ENDMDL
MODEL 2
REMARK VINA RESULT:    -5.714     15.491     16.946
REMARK INTER + INTRA:          -7.030
REMARK INTER:                  -6.725
REMARK INTRA:                  -0.305
REMARK UNBOUND:                -0.147
REMARK SMILES Oc1cc(O)c2cc(O)c(-c3ccc(O)c(O)c3)[o+]c2c1
REMARK SMILES IDX 10 1 19 2 20 3 21 4 2 5 3 6 4 7 6 8 7 9 8 10 11 11 12 12
REMARK SMILES IDX 13 13 14 14 18 15 16 16 15 17 17 19 9 21 1 23 5 25
REMARK H PARENT 15 18 17 20 9 22 1 24 5 26
REMARK Flexibility Score: inf
ROOT
ATOM      1  C   UNL     1      -4.084  -6.689   7.557  1.00  0.00     0.402 A 
ATOM      2  O   UNL     1      -3.738  -7.290   6.423  1.00  0.00    -0.202 OA
ATOM      3  C   UNL     1      -2.672  -8.075   6.309  1.00  0.00     0.368 A 
ATOM      4  C   UNL     1      -2.388  -8.661   5.072  1.00  0.00     0.162 A 
ATOM      5  C   UNL     1      -1.273  -9.488   4.922  1.00  0.00     0.128 A 
ATOM      6  C   UNL     1      -0.435  -9.731   6.016  1.00  0.00     0.093 A 
ATOM      7  C   UNL     1      -0.698  -9.156   7.265  1.00  0.00     0.136 A 
ATOM      8  C   UNL     1      -1.830  -8.317   7.422  1.00  0.00     0.125 A 
ATOM      9  C   UNL     1      -2.179  -7.709   8.639  1.00  0.00     0.078 A 
ATOM     10  C   UNL     1      -3.315  -6.898   8.717  1.00  0.00     0.223 A 
ENDROOT
BRANCH   1  11
ATOM     11  C   UNL     1      -5.289  -5.828   7.555  1.00  0.00     0.087 A 
ATOM     12  C   UNL     1      -6.582  -6.378   7.605  1.00  0.00     0.022 A 
ATOM     13  C   UNL     1      -7.703  -5.545   7.625  1.00  0.00     0.051 A 
ATOM     14  C   UNL     1      -7.551  -4.152   7.609  1.00  0.00     0.157 A 
ATOM     15  C   UNL     1      -5.141  -4.432   7.559  1.00  0.00     0.068 A 
ATOM     16  C   UNL     1      -6.262  -3.594   7.578  1.00  0.00     0.158 A 
BRANCH  14  17
ATOM     17  O   UNL     1      -8.672  -3.325   7.626  1.00  0.00    -0.504 OA
ATOM     18  H   UNL     1      -8.590  -2.317   7.557  1.00  0.00     0.293 HD
ENDBRANCH  14  17
BRANCH  16  19
ATOM     19  O   UNL     1      -6.075  -2.212   7.569  1.00  0.00    -0.504 OA
ATOM     20  H   UNL     1      -5.893  -1.688   8.417  1.00  0.00     0.293 HD
ENDBRANCH  16  19
ENDBRANCH   1  11
BRANCH  10  21
ATOM     21  O   UNL     1      -3.690  -6.335   9.938  1.00  0.00    -0.500 OA
ATOM     22  H   UNL     1      -3.006  -6.092  10.645  1.00  0.00     0.294 HD
ENDBRANCH  10  21
BRANCH   5  23
ATOM     23  O   UNL     1      -1.008 -10.062   3.681  1.00  0.00    -0.507 OA
ATOM     24  H   UNL     1      -1.694 -10.637   3.206  1.00  0.00     0.293 HD
ENDBRANCH   5  23
BRANCH   7  25
ATOM     25  O   UNL     1       0.190  -9.446   8.306  1.00  0.00    -0.507 OA
ATOM     26  H   UNL     1       1.005  -8.893   8.531  1.00  0.00     0.293 HD
ENDBRANCH   7  25
TORSDOF 6
ENDMDL
MODEL 3
REMARK VINA RESULT:    -5.092     13.362     16.059
REMARK INTER + INTRA:          -6.281
REMARK INTER:                  -6.053
REMARK INTRA:                  -0.229
REMARK UNBOUND:                -0.147
REMARK SMILES Oc1cc(O)c2cc(O)c(-c3ccc(O)c(O)c3)[o+]c2c1
REMARK SMILES IDX 10 1 19 2 20 3 21 4 2 5 3 6 4 7 6 8 7 9 8 10 11 11 12 12
REMARK SMILES IDX 13 13 14 14 18 15 16 16 15 17 17 19 9 21 1 23 5 25
REMARK H PARENT 15 18 17 20 9 22 1 24 5 26
REMARK Flexibility Score: inf
ROOT
ATOM      1  C   UNL     1       6.377   6.847  -5.090  1.00  0.00     0.402 A 
ATOM      2  O   UNL     1       5.861   5.633  -5.260  1.00  0.00    -0.202 OA
ATOM      3  C   UNL     1       5.959   4.952  -6.397  1.00  0.00     0.368 A 
ATOM      4  C   UNL     1       5.379   3.682  -6.480  1.00  0.00     0.162 A 
ATOM      5  C   UNL     1       5.464   2.945  -7.662  1.00  0.00     0.128 A 
ATOM      6  C   UNL     1       6.131   3.480  -8.770  1.00  0.00     0.093 A 
ATOM      7  C   UNL     1       6.718   4.749  -8.712  1.00  0.00     0.136 A 
ATOM      8  C   UNL     1       6.637   5.501  -7.512  1.00  0.00     0.125 A 
ATOM      9  C   UNL     1       7.207   6.775  -7.358  1.00  0.00     0.078 A 
ATOM     10  C   UNL     1       7.089   7.453  -6.141  1.00  0.00     0.223 A 
ENDROOT
BRANCH   1  11
ATOM     11  C   UNL     1       6.192   7.509  -3.778  1.00  0.00     0.087 A 
ATOM     12  C   UNL     1       5.443   8.692  -3.653  1.00  0.00     0.022 A 
ATOM     13  C   UNL     1       5.264   9.285  -2.401  1.00  0.00     0.051 A 
ATOM     14  C   UNL     1       5.817   8.700  -1.255  1.00  0.00     0.157 A 
ATOM     15  C   UNL     1       6.728   6.916  -2.623  1.00  0.00     0.068 A 
ATOM     16  C   UNL     1       6.551   7.508  -1.367  1.00  0.00     0.158 A 
BRANCH  14  17
ATOM     17  O   UNL     1       5.638   9.297  -0.008  1.00  0.00    -0.504 OA
ATOM     18  H   UNL     1       4.719   9.390   0.410  1.00  0.00     0.293 HD
ENDBRANCH  14  17
BRANCH  16  19
ATOM     19  O   UNL     1       7.109   6.896  -0.246  1.00  0.00    -0.504 OA
ATOM     20  H   UNL     1       6.849   7.162   0.697  1.00  0.00     0.293 HD
ENDBRANCH  16  19
ENDBRANCH   1  11
BRANCH  10  21
ATOM     21  O   UNL     1       7.699   8.697  -5.971  1.00  0.00    -0.500 OA
ATOM     22  H   UNL     1       7.485   9.291  -5.178  1.00  0.00     0.294 HD
ENDBRANCH  10  21
BRANCH   5  23
ATOM     23  O   UNL     1       4.881   1.682  -7.725  1.00  0.00    -0.507 OA
ATOM     24  H   UNL     1       4.137   1.474  -8.381  1.00  0.00     0.293 HD
ENDBRANCH   5  23
BRANCH   7  25
ATOM     25  O   UNL     1       7.363   5.213  -9.863  1.00  0.00    -0.507 OA
ATOM     26  H   UNL     1       7.693   6.159  -9.989  1.00  0.00     0.293 HD
ENDBRANCH   7  25
TORSDOF 6
ENDMDL
MODEL 4
REMARK VINA RESULT:    -5.069     15.609     17.366
REMARK INTER + INTRA:          -6.253
REMARK INTER:                  -5.957
REMARK INTRA:                  -0.296
REMARK UNBOUND:                -0.147
REMARK SMILES Oc1cc(O)c2cc(O)c(-c3ccc(O)c(O)c3)[o+]c2c1
REMARK SMILES IDX 10 1 19 2 20 3 21 4 2 5 3 6 4 7 6 8 7 9 8 10 11 11 12 12
REMARK SMILES IDX 13 13 14 14 18 15 16 16 15 17 17 19 9 21 1 23 5 25
REMARK H PARENT 15 18 17 20 9 22 1 24 5 26
REMARK Flexibility Score: inf
ROOT
ATOM      1  C   UNL     1       5.871   2.624  -7.239  1.00  0.00     0.402 A 
ATOM      2  O   UNL     1       7.016   3.230  -7.542  1.00  0.00    -0.202 OA
ATOM      3  C   UNL     1       7.318   4.459  -7.139  1.00  0.00     0.368 A 
ATOM      4  C   UNL     1       8.546   5.014  -7.512  1.00  0.00     0.162 A 
ATOM      5  C   UNL     1       8.890   6.304  -7.106  1.00  0.00     0.128 A 
ATOM      6  C   UNL     1       8.001   7.047  -6.321  1.00  0.00     0.093 A 
ATOM      7  C   UNL     1       6.766   6.514  -5.934  1.00  0.00     0.136 A 
ATOM      8  C   UNL     1       6.413   5.203  -6.343  1.00  0.00     0.125 A 
ATOM      9  C   UNL     1       5.202   4.582  -5.993  1.00  0.00     0.078 A 
ATOM     10  C   UNL     1       4.928   3.284  -6.430  1.00  0.00     0.223 A 
ENDROOT
BRANCH   1  11
ATOM     11  C   UNL     1       5.645   1.255  -7.758  1.00  0.00     0.087 A 
ATOM     12  C   UNL     1       5.310   1.027  -9.104  1.00  0.00     0.022 A 
ATOM     13  C   UNL     1       5.124  -0.275  -9.574  1.00  0.00     0.051 A 
ATOM     14  C   UNL     1       5.284  -1.368  -8.713  1.00  0.00     0.157 A 
ATOM     15  C   UNL     1       5.824   0.155  -6.904  1.00  0.00     0.068 A 
ATOM     16  C   UNL     1       5.638  -1.152  -7.372  1.00  0.00     0.158 A 
BRANCH  14  17
ATOM     17  O   UNL     1       5.095  -2.666  -9.186  1.00  0.00    -0.504 OA
ATOM     18  H   UNL     1       4.170  -3.066  -9.286  1.00  0.00     0.293 HD
ENDBRANCH  14  17
BRANCH  16  19
ATOM     19  O   UNL     1       5.812  -2.218  -6.490  1.00  0.00    -0.504 OA
ATOM     20  H   UNL     1       5.104  -2.932  -6.364  1.00  0.00     0.293 HD
ENDBRANCH  16  19
ENDBRANCH   1  11
BRANCH  10  21
ATOM     21  O   UNL     1       3.748   2.649  -6.040  1.00  0.00    -0.500 OA
ATOM     22  H   UNL     1       3.599   1.658  -6.197  1.00  0.00     0.294 HD
ENDBRANCH  10  21
BRANCH   5  23
ATOM     23  O   UNL     1      10.118   6.839  -7.488  1.00  0.00    -0.507 OA
ATOM     24  H   UNL     1      10.562   7.578  -6.955  1.00  0.00     0.293 HD
ENDBRANCH   5  23
BRANCH   7  25
ATOM     25  O   UNL     1       5.932   7.322  -5.153  1.00  0.00    -0.507 OA
ATOM     26  H   UNL     1       4.939   7.176  -5.042  1.00  0.00     0.293 HD
ENDBRANCH   7  25
TORSDOF 6
ENDMDL
MODEL 5
REMARK VINA RESULT:    -5.005     15.563     17.067
REMARK INTER + INTRA:          -6.176
REMARK INTER:                  -5.851
REMARK INTRA:                  -0.325
REMARK UNBOUND:                -0.147
REMARK SMILES Oc1cc(O)c2cc(O)c(-c3ccc(O)c(O)c3)[o+]c2c1
REMARK SMILES IDX 10 1 19 2 20 3 21 4 2 5 3 6 4 7 6 8 7 9 8 10 11 11 12 12
REMARK SMILES IDX 13 13 14 14 18 15 16 16 15 17 17 19 9 21 1 23 5 25
REMARK H PARENT 15 18 17 20 9 22 1 24 5 26
REMARK Flexibility Score: inf
ROOT
ATOM      1  C   UNL     1      -4.269  -7.494   7.175  1.00  0.00     0.402 A 
ATOM      2  O   UNL     1      -4.348  -6.168   7.115  1.00  0.00    -0.202 OA
ATOM      3  C   UNL     1      -5.374  -5.477   7.600  1.00  0.00     0.368 A 
ATOM      4  C   UNL     1      -5.369  -4.083   7.486  1.00  0.00     0.162 A 
ATOM      5  C   UNL     1      -6.434  -3.331   7.983  1.00  0.00     0.128 A 
ATOM      6  C   UNL     1      -7.514  -3.975   8.598  1.00  0.00     0.093 A 
ATOM      7  C   UNL     1      -7.543  -5.368   8.724  1.00  0.00     0.136 A 
ATOM      8  C   UNL     1      -6.461  -6.137   8.222  1.00  0.00     0.125 A 
ATOM      9  C   UNL     1      -6.398  -7.537   8.315  1.00  0.00     0.078 A 
ATOM     10  C   UNL     1      -5.296  -8.225   7.801  1.00  0.00     0.223 A 
ENDROOT
BRANCH   1  11
ATOM     11  C   UNL     1      -3.078  -8.152   6.589  1.00  0.00     0.087 A 
ATOM     12  C   UNL     1      -1.995  -8.555   7.389  1.00  0.00     0.022 A 
ATOM     13  C   UNL     1      -0.893  -9.194   6.816  1.00  0.00     0.051 A 
ATOM     14  C   UNL     1      -0.861  -9.452   5.439  1.00  0.00     0.157 A 
ATOM     15  C   UNL     1      -3.051  -8.431   5.213  1.00  0.00     0.068 A 
ATOM     16  C   UNL     1      -1.947  -9.071   4.635  1.00  0.00     0.158 A 
BRANCH  14  17
ATOM     17  O   UNL     1       0.241 -10.088   4.871  1.00  0.00    -0.504 OA
ATOM     18  H   UNL     1       0.148 -10.694   4.064  1.00  0.00     0.293 HD
ENDBRANCH  14  17
BRANCH  16  19
ATOM     19  O   UNL     1      -1.951  -9.319   3.263  1.00  0.00    -0.504 OA
ATOM     20  H   UNL     1      -1.480  -8.709   2.604  1.00  0.00     0.293 HD
ENDBRANCH  16  19
ENDBRANCH   1  11
BRANCH  10  21
ATOM     21  O   UNL     1      -5.209  -9.611   7.938  1.00  0.00    -0.500 OA
ATOM     22  H   UNL     1      -4.444 -10.139   7.535  1.00  0.00     0.294 HD
ENDBRANCH  10  21
BRANCH   5  23
ATOM     23  O   UNL     1      -6.410  -1.944   7.861  1.00  0.00    -0.507 OA
ATOM     24  H   UNL     1      -5.995  -1.357   8.575  1.00  0.00     0.293 HD
ENDBRANCH   5  23
BRANCH   7  25
ATOM     25  O   UNL     1      -8.659  -5.936   9.347  1.00  0.00    -0.507 OA
ATOM     26  H   UNL     1      -8.660  -6.307  10.286  1.00  0.00     0.293 HD
ENDBRANCH   7  25
TORSDOF 6
ENDMDL
MODEL 6
REMARK VINA RESULT:    -4.952     15.687     18.089
REMARK INTER + INTRA:          -6.112
REMARK INTER:                  -5.783
REMARK INTRA:                  -0.330
REMARK UNBOUND:                -0.147
REMARK SMILES Oc1cc(O)c2cc(O)c(-c3ccc(O)c(O)c3)[o+]c2c1
REMARK SMILES IDX 10 1 19 2 20 3 21 4 2 5 3 6 4 7 6 8 7 9 8 10 11 11 12 12
REMARK SMILES IDX 13 13 14 14 18 15 16 16 15 17 17 19 9 21 1 23 5 25
REMARK H PARENT 15 18 17 20 9 22 1 24 5 26
REMARK Flexibility Score: inf
ROOT
ATOM      1  C   UNL     1       6.427   3.264  -7.544  1.00  0.00     0.402 A 
ATOM      2  O   UNL     1       6.803   2.273  -6.741  1.00  0.00    -0.202 OA
ATOM      3  C   UNL     1       6.455   1.005  -6.936  1.00  0.00     0.368 A 
ATOM      4  C   UNL     1       6.896   0.033  -6.033  1.00  0.00     0.162 A 
ATOM      5  C   UNL     1       6.544  -1.306  -6.211  1.00  0.00     0.128 A 
ATOM      6  C   UNL     1       5.744  -1.677  -7.298  1.00  0.00     0.093 A 
ATOM      7  C   UNL     1       5.289  -0.722  -8.214  1.00  0.00     0.136 A 
ATOM      8  C   UNL     1       5.646   0.639  -8.039  1.00  0.00     0.125 A 
ATOM      9  C   UNL     1       5.247   1.663  -8.914  1.00  0.00     0.078 A 
ATOM     10  C   UNL     1       5.644   2.982  -8.678  1.00  0.00     0.223 A 
ENDROOT
BRANCH   1  11
ATOM     11  C   UNL     1       6.871   4.639  -7.214  1.00  0.00     0.087 A 
ATOM     12  C   UNL     1       7.993   5.215  -7.834  1.00  0.00     0.022 A 
ATOM     13  C   UNL     1       8.379   6.521  -7.523  1.00  0.00     0.051 A 
ATOM     14  C   UNL     1       7.642   7.276  -6.601  1.00  0.00     0.157 A 
ATOM     15  C   UNL     1       6.124   5.406  -6.305  1.00  0.00     0.068 A 
ATOM     16  C   UNL     1       6.508   6.715  -5.991  1.00  0.00     0.158 A 
BRANCH  14  17
ATOM     17  O   UNL     1       8.031   8.578  -6.292  1.00  0.00    -0.504 OA
ATOM     18  H   UNL     1       8.217   9.263  -7.015  1.00  0.00     0.293 HD
ENDBRANCH  14  17
BRANCH  16  19
ATOM     19  O   UNL     1       5.749   7.442  -5.074  1.00  0.00    -0.504 OA
ATOM     20  H   UNL     1       5.679   7.171  -4.100  1.00  0.00     0.293 HD
ENDBRANCH  16  19
ENDBRANCH   1  11
BRANCH  10  21
ATOM     21  O   UNL     1       5.290   3.990  -9.575  1.00  0.00    -0.500 OA
ATOM     22  H   UNL     1       4.323   4.246  -9.734  1.00  0.00     0.294 HD
ENDBRANCH  10  21
BRANCH   5  23
ATOM     23  O   UNL     1       6.994  -2.260  -5.302  1.00  0.00    -0.507 OA
ATOM     24  H   UNL     1       7.406  -1.993  -4.415  1.00  0.00     0.293 HD
ENDBRANCH   5  23
BRANCH   7  25
ATOM     25  O   UNL     1       4.491  -1.173  -9.271  1.00  0.00    -0.507 OA
ATOM     26  H   UNL     1       4.233  -0.612 -10.070  1.00  0.00     0.293 HD
ENDBRANCH   7  25
TORSDOF 6
ENDMDL
MODEL 7
REMARK VINA RESULT:    -4.747      1.588      3.345
REMARK INTER + INTRA:          -5.865
REMARK INTER:                  -5.717
REMARK INTRA:                  -0.148
REMARK UNBOUND:                -0.147
REMARK SMILES Oc1cc(O)c2cc(O)c(-c3ccc(O)c(O)c3)[o+]c2c1
REMARK SMILES IDX 10 1 19 2 20 3 21 4 2 5 3 6 4 7 6 8 7 9 8 10 11 11 12 12
REMARK SMILES IDX 13 13 14 14 18 15 16 16 15 17 17 19 9 21 1 23 5 25
REMARK H PARENT 15 18 17 20 9 22 1 24 5 26
REMARK Flexibility Score: inf
ROOT
ATOM      1  C   UNL     1      -4.564   9.262   5.142  1.00  0.00     0.402 A 
ATOM      2  O   UNL     1      -5.615   9.404   5.944  1.00  0.00    -0.202 OA
ATOM      3  C   UNL     1      -5.512   9.631   7.249  1.00  0.00     0.368 A 
ATOM      4  C   UNL     1      -6.677   9.761   8.010  1.00  0.00     0.162 A 
ATOM      5  C   UNL     1      -6.599   9.997   9.384  1.00  0.00     0.128 A 
ATOM      6  C   UNL     1      -5.348  10.102  10.002  1.00  0.00     0.093 A 
ATOM      7  C   UNL     1      -4.167   9.974   9.262  1.00  0.00     0.136 A 
ATOM      8  C   UNL     1      -4.241   9.737   7.865  1.00  0.00     0.125 A 
ATOM      9  C   UNL     1      -3.111   9.609   7.041  1.00  0.00     0.078 A 
ATOM     10  C   UNL     1      -3.265   9.380   5.671  1.00  0.00     0.223 A 
ENDROOT
BRANCH   1  11
ATOM     11  C   UNL     1      -4.809   9.002   3.704  1.00  0.00     0.087 A 
ATOM     12  C   UNL     1      -4.354   9.886   2.711  1.00  0.00     0.022 A 
ATOM     13  C   UNL     1      -4.577   9.607   1.361  1.00  0.00     0.051 A 
ATOM     14  C   UNL     1      -5.245   8.435   0.982  1.00  0.00     0.157 A 
ATOM     15  C   UNL     1      -5.460   7.819   3.318  1.00  0.00     0.068 A 
ATOM     16  C   UNL     1      -5.687   7.536   1.966  1.00  0.00     0.158 A 
BRANCH  14  17
ATOM     17  O   UNL     1      -5.469   8.161  -0.367  1.00  0.00    -0.504 OA
ATOM     18  H   UNL     1      -6.405   8.057  -0.740  1.00  0.00     0.293 HD
ENDBRANCH  14  17
BRANCH  16  19
ATOM     19  O   UNL     1      -6.349   6.358   1.623  1.00  0.00    -0.504 OA
ATOM     20  H   UNL     1      -7.007   6.316   0.854  1.00  0.00     0.293 HD
ENDBRANCH  16  19
ENDBRANCH   1  11
BRANCH  10  21
ATOM     21  O   UNL     1      -2.144   9.303   4.844  1.00  0.00    -0.500 OA
ATOM     22  H   UNL     1      -2.199   8.924   3.906  1.00  0.00     0.294 HD
ENDBRANCH  10  21
BRANCH   5  23
ATOM     23  O   UNL     1      -7.771  10.125  10.125  1.00  0.00    -0.507 OA
ATOM     24  H   UNL     1      -8.495  10.783   9.861  1.00  0.00     0.293 HD
ENDBRANCH   5  23
BRANCH   7  25
ATOM     25  O   UNL     1      -2.957  10.088   9.954  1.00  0.00    -0.507 OA
ATOM     26  H   UNL     1      -2.787  10.748  10.700  1.00  0.00     0.293 HD
ENDBRANCH   7  25
TORSDOF 6
ENDMDL
MODEL 8
REMARK VINA RESULT:    -4.615     13.137     14.557
REMARK INTER + INTRA:          -5.706
REMARK INTER:                  -5.427
REMARK INTRA:                  -0.279
REMARK UNBOUND:                -0.147
REMARK SMILES Oc1cc(O)c2cc(O)c(-c3ccc(O)c(O)c3)[o+]c2c1
REMARK SMILES IDX 10 1 19 2 20 3 21 4 2 5 3 6 4 7 6 8 7 9 8 10 11 11 12 12
REMARK SMILES IDX 13 13 14 14 18 15 16 16 15 17 17 19 9 21 1 23 5 25
REMARK H PARENT 15 18 17 20 9 22 1 24 5 26
REMARK Flexibility Score: inf
ROOT
ATOM      1  C   UNL     1       6.776   6.370  -5.005  1.00  0.00     0.402 A 
ATOM      2  O   UNL     1       6.021   7.050  -4.146  1.00  0.00    -0.202 OA
ATOM      3  C   UNL     1       6.513   7.694  -3.094  1.00  0.00     0.368 A 
ATOM      4  C   UNL     1       5.638   8.379  -2.245  1.00  0.00     0.162 A 
ATOM      5  C   UNL     1       6.127   9.062  -1.130  1.00  0.00     0.128 A 
ATOM      6  C   UNL     1       7.500   9.060  -0.859  1.00  0.00     0.093 A 
ATOM      7  C   UNL     1       8.396   8.382  -1.693  1.00  0.00     0.136 A 
ATOM      8  C   UNL     1       7.904   7.689  -2.829  1.00  0.00     0.125 A 
ATOM      9  C   UNL     1       8.730   6.993  -3.728  1.00  0.00     0.078 A 
ATOM     10  C   UNL     1       8.171   6.337  -4.828  1.00  0.00     0.223 A 
ENDROOT
BRANCH   1  11
ATOM     11  C   UNL     1       6.107   5.685  -6.135  1.00  0.00     0.087 A 
ATOM     12  C   UNL     1       6.187   6.184  -7.446  1.00  0.00     0.022 A 
ATOM     13  C   UNL     1       5.567   5.507  -8.499  1.00  0.00     0.051 A 
ATOM     14  C   UNL     1       4.871   4.315  -8.261  1.00  0.00     0.157 A 
ATOM     15  C   UNL     1       5.425   4.479  -5.904  1.00  0.00     0.068 A 
ATOM     16  C   UNL     1       4.802   3.798  -6.957  1.00  0.00     0.158 A 
BRANCH  14  17
ATOM     17  O   UNL     1       4.251   3.643  -9.313  1.00  0.00    -0.504 OA
ATOM     18  H   UNL     1       3.950   2.680  -9.225  1.00  0.00     0.293 HD
ENDBRANCH  14  17
BRANCH  16  19
ATOM     19  O   UNL     1       4.123   2.610  -6.686  1.00  0.00    -0.504 OA
ATOM     20  H   UNL     1       3.181   2.441  -7.020  1.00  0.00     0.293 HD
ENDBRANCH  16  19
ENDBRANCH   1  11
BRANCH  10  21
ATOM     21  O   UNL     1       8.996   5.688  -5.749  1.00  0.00    -0.500 OA
ATOM     22  H   UNL     1       8.629   5.295  -6.608  1.00  0.00     0.294 HD
ENDBRANCH  10  21
BRANCH   5  23
ATOM     23  O   UNL     1       5.239   9.738  -0.297  1.00  0.00    -0.507 OA
ATOM     24  H   UNL     1       4.549   9.242   0.255  1.00  0.00     0.293 HD
ENDBRANCH   5  23
BRANCH   7  25
ATOM     25  O   UNL     1       9.752   8.426  -1.352  1.00  0.00    -0.507 OA
ATOM     26  H   UNL     1      10.276   9.277  -1.208  1.00  0.00     0.293 HD
ENDBRANCH   7  25
TORSDOF 6
ENDMDL
