MODEL 1
REMARK VINA RESULT:    -3.529      0.000      0.000
REMARK INTER + INTRA:          -6.864
REMARK INTER:                  -5.592
REMARK INTRA:                  -1.272
REMARK UNBOUND:                -1.272
REMARK SMILES CCCCCCCCCCCC(=O)[O-]
REMARK SMILES IDX 7 1 8 2 9 3 10 4 11 5 12 6 13 7 14 8 6 9 5 10 4 11 3 12 2 13
REMARK SMILES IDX 1 14
REMARK H PARENT
REMARK Flexibility Score: inf
ROOT
ATOM      1  C   UNL     1      -0.559   9.102  36.581  1.00  0.00     0.000 C 
ENDROOT
BRANCH   1   2
ATOM      2  C   UNL     1      -1.145   8.183  37.671  1.00  0.00     0.000 C 
BRANCH   2   3
ATOM      3  C   UNL     1      -1.901   8.941  38.786  1.00  0.00     0.000 C 
BRANCH   3   4
ATOM      4  C   UNL     1      -2.415   8.032  39.917  1.00  0.00     0.006 C 
BRANCH   4   5
ATOM      5  C   UNL     1      -2.660   6.591  39.445  1.00  0.00     0.053 C 
BRANCH   5   6
ATOM      6  C   UNL     1      -2.122   5.618  40.447  1.00  0.00     0.041 C 
ATOM      7  O   UNL     1      -1.052   5.868  41.062  1.00  0.00    -0.550 OA
ATOM      8  O   UNL     1      -2.830   4.459  40.738  1.00  0.00    -0.550 OA
ENDBRANCH   5   6
ENDBRANCH   4   5
ENDBRANCH   3   4
ENDBRANCH   2   3
ENDBRANCH   1   2
BRANCH   1   9
ATOM      9  C   UNL     1       0.545  10.064  37.060  1.00  0.00     0.000 C 
BRANCH   9  10
ATOM     10  C   UNL     1       1.962   9.459  37.106  1.00  0.00    -0.000 C 
BRANCH  10  11
ATOM     11  C   UNL     1       2.627   9.600  38.484  1.00  0.00    -0.000 C 
BRANCH  11  12
ATOM     12  C   UNL     1       1.608   9.811  39.618  1.00  0.00    -0.000 C 
BRANCH  12  13
ATOM     13  C   UNL     1       1.367   8.553  40.478  1.00  0.00    -0.003 C 
ATOM     14  C   UNL     1       0.793   8.891  41.854  1.00  0.00     0.004 C 
ENDBRANCH  12  13
ENDBRANCH  11  12
ENDBRANCH  10  11
ENDBRANCH   9  10
ENDBRANCH   1   9
TORSDOF 10
ENDMDL
MODEL 2
REMARK VINA RESULT:    -3.513      1.798      3.558
REMARK INTER + INTRA:          -6.838
REMARK INTER:                  -5.238
REMARK INTRA:                  -1.601
REMARK UNBOUND:                -1.272
REMARK SMILES CCCCCCCCCCCC(=O)[O-]
REMARK SMILES IDX 7 1 8 2 9 3 10 4 11 5 12 6 13 7 14 8 6 9 5 10 4 11 3 12 2 13
REMARK SMILES IDX 1 14
REMARK H PARENT
REMARK Flexibility Score: inf
ROOT
ATOM      1  C   UNL     1      -0.529   8.159  42.009  1.00  0.00     0.000 C 
ENDROOT
BRANCH   1   2
ATOM      2  C   UNL     1      -1.781   7.285  41.798  1.00  0.00     0.000 C 
BRANCH   2   3
ATOM      3  C   UNL     1      -2.620   7.683  40.562  1.00  0.00     0.000 C 
BRANCH   3   4
ATOM      4  C   UNL     1      -2.843   6.532  39.566  1.00  0.00     0.006 C 
BRANCH   4   5
ATOM      5  C   UNL     1      -1.804   5.413  39.720  1.00  0.00     0.053 C 
BRANCH   5   6
ATOM      6  C   UNL     1      -1.041   5.234  38.445  1.00  0.00     0.041 C 
ATOM      7  O   UNL     1      -1.632   5.311  37.336  1.00  0.00    -0.550 OA
ATOM      8  O   UNL     1       0.333   5.033  38.481  1.00  0.00    -0.550 OA
ENDBRANCH   5   6
ENDBRANCH   4   5
ENDBRANCH   3   4
ENDBRANCH   2   3
ENDBRANCH   1   2
BRANCH   1   9
ATOM      9  C   UNL     1       0.540   8.048  40.905  1.00  0.00     0.000 C 
BRANCH   9  10
ATOM     10  C   UNL     1       1.108   9.393  40.410  1.00  0.00    -0.000 C 
BRANCH  10  11
ATOM     11  C   UNL     1       0.453   9.874  39.106  1.00  0.00    -0.000 C 
BRANCH  11  12
ATOM     12  C   UNL     1       0.152   8.722  38.130  1.00  0.00    -0.000 C 
BRANCH  12  13
ATOM     13  C   UNL     1      -1.121   8.941  37.286  1.00  0.00    -0.003 C 
ATOM     14  C   UNL     1      -1.952  10.123  37.785  1.00  0.00     0.004 C 
ENDBRANCH  12  13
ENDBRANCH  11  12
ENDBRANCH  10  11
ENDBRANCH   9  10
ENDBRANCH   1   9
TORSDOF 10
ENDMDL
MODEL 3
REMARK VINA RESULT:    -3.478      2.662      4.624
REMARK INTER + INTRA:          -6.783
REMARK INTER:                  -5.267
REMARK INTRA:                  -1.516
REMARK UNBOUND:                -1.272
REMARK SMILES CCCCCCCCCCCC(=O)[O-]
REMARK SMILES IDX 7 1 8 2 9 3 10 4 11 5 12 6 13 7 14 8 6 9 5 10 4 11 3 12 2 13
REMARK SMILES IDX 1 14
REMARK H PARENT
REMARK Flexibility Score: inf
ROOT
ATOM      1  C   UNL     1      -2.899   6.288  39.593  1.00  0.00     0.000 C 
ENDROOT
BRANCH   1   2
ATOM      2  C   UNL     1      -1.683   5.499  39.069  1.00  0.00     0.000 C 
BRANCH   2   3
ATOM      3  C   UNL     1      -1.557   5.495  37.529  1.00  0.00     0.000 C 
BRANCH   3   4
ATOM      4  C   UNL     1      -0.116   5.678  37.022  1.00  0.00     0.006 C 
BRANCH   4   5
ATOM      5  C   UNL     1       0.916   5.627  38.158  1.00  0.00     0.053 C 
BRANCH   5   6
ATOM      6  C   UNL     1       1.952   6.691  37.967  1.00  0.00     0.041 C 
ATOM      7  O   UNL     1       2.269   7.444  38.924  1.00  0.00    -0.550 OA
ATOM      8  O   UNL     1       2.603   6.815  36.747  1.00  0.00    -0.550 OA
ENDBRANCH   5   6
ENDBRANCH   4   5
ENDBRANCH   3   4
ENDBRANCH   2   3
ENDBRANCH   1   2
BRANCH   1   9
ATOM      9  C   UNL     1      -2.601   7.733  40.036  1.00  0.00     0.000 C 
BRANCH   9  10
ATOM     10  C   UNL     1      -1.106   8.105  40.082  1.00  0.00    -0.000 C 
BRANCH  10  11
ATOM     11  C   UNL     1      -0.750   9.266  39.139  1.00  0.00    -0.000 C 
BRANCH  11  12
ATOM     12  C   UNL     1      -1.924   9.681  38.236  1.00  0.00    -0.000 C 
BRANCH  12  13
ATOM     13  C   UNL     1      -1.505  10.022  36.791  1.00  0.00    -0.003 C 
ATOM     14  C   UNL     1      -0.276   9.232  36.341  1.00  0.00     0.004 C 
ENDBRANCH  12  13
ENDBRANCH  11  12
ENDBRANCH  10  11
ENDBRANCH   9  10
ENDBRANCH   1   9
TORSDOF 10
ENDMDL
MODEL 4
REMARK VINA RESULT:    -3.417      2.852      4.483
REMARK INTER + INTRA:          -6.686
REMARK INTER:                  -5.199
REMARK INTRA:                  -1.488
REMARK UNBOUND:                -1.272
REMARK SMILES CCCCCCCCCCCC(=O)[O-]
REMARK SMILES IDX 7 1 8 2 9 3 10 4 11 5 12 6 13 7 14 8 6 9 5 10 4 11 3 12 2 13
REMARK SMILES IDX 1 14
REMARK H PARENT
REMARK Flexibility Score: inf
ROOT
ATOM      1  C   UNL     1      -2.797   6.584  39.671  1.00  0.00     0.000 C 
ENDROOT
BRANCH   1   2
ATOM      2  C   UNL     1      -1.805   5.449  39.346  1.00  0.00     0.000 C 
BRANCH   2   3
ATOM      3  C   UNL     1      -1.275   5.479  37.894  1.00  0.00     0.000 C 
BRANCH   3   4
ATOM      4  C   UNL     1       0.158   6.022  37.766  1.00  0.00     0.006 C 
BRANCH   4   5
ATOM      5  C   UNL     1       0.299   7.046  36.631  1.00  0.00     0.053 C 
BRANCH   5   6
ATOM      6  C   UNL     1       1.635   6.911  35.972  1.00  0.00     0.041 C 
ATOM      7  O   UNL     1       1.782   7.237  34.764  1.00  0.00    -0.550 OA
ATOM      8  O   UNL     1       2.731   6.473  36.705  1.00  0.00    -0.550 OA
ENDBRANCH   5   6
ENDBRANCH   4   5
ENDBRANCH   3   4
ENDBRANCH   2   3
ENDBRANCH   1   2
BRANCH   1   9
ATOM      9  C   UNL     1      -2.149   7.915  40.098  1.00  0.00     0.000 C 
BRANCH   9  10
ATOM     10  C   UNL     1      -1.950   8.936  38.961  1.00  0.00    -0.000 C 
BRANCH  10  11
ATOM     11  C   UNL     1      -0.586   9.642  39.024  1.00  0.00    -0.000 C 
BRANCH  11  12
ATOM     12  C   UNL     1       0.320   9.088  40.138  1.00  0.00    -0.000 C 
BRANCH  12  13
ATOM     13  C   UNL     1       1.767   8.810  39.680  1.00  0.00    -0.003 C 
ATOM     14  C   UNL     1       2.196   9.718  38.528  1.00  0.00     0.004 C 
ENDBRANCH  12  13
ENDBRANCH  11  12
ENDBRANCH  10  11
ENDBRANCH   9  10
ENDBRANCH   1   9
TORSDOF 10
ENDMDL
MODEL 5
REMARK VINA RESULT:    -3.373      2.877      4.976
REMARK INTER + INTRA:          -6.617
REMARK INTER:                  -5.151
REMARK INTRA:                  -1.466
REMARK UNBOUND:                -1.272
REMARK SMILES CCCCCCCCCCCC(=O)[O-]
REMARK SMILES IDX 7 1 8 2 9 3 10 4 11 5 12 6 13 7 14 8 6 9 5 10 4 11 3 12 2 13
REMARK SMILES IDX 1 14
REMARK H PARENT
REMARK Flexibility Score: inf
ROOT
ATOM      1  C   UNL     1      -1.209   7.552  38.426  1.00  0.00     0.000 C 
ENDROOT
BRANCH   1   2
ATOM      2  C   UNL     1      -1.384   9.082  38.349  1.00  0.00     0.000 C 
BRANCH   2   3
ATOM      3  C   UNL     1      -0.272   9.875  39.073  1.00  0.00     0.000 C 
BRANCH   3   4
ATOM      4  C   UNL     1       0.971   9.035  39.412  1.00  0.00     0.006 C 
BRANCH   4   5
ATOM      5  C   UNL     1       2.234   9.543  38.703  1.00  0.00     0.053 C 
BRANCH   5   6
ATOM      6  C   UNL     1       2.217   9.145  37.261  1.00  0.00     0.041 C 
ATOM      7  O   UNL     1       2.270   7.929  36.938  1.00  0.00    -0.550 OA
ATOM      8  O   UNL     1       2.090  10.115  36.274  1.00  0.00    -0.550 OA
ENDBRANCH   5   6
ENDBRANCH   4   5
ENDBRANCH   3   4
ENDBRANCH   2   3
ENDBRANCH   1   2
BRANCH   1   9
ATOM      9  C   UNL     1      -2.212   6.825  39.343  1.00  0.00     0.000 C 
BRANCH   9  10
ATOM     10  C   UNL     1      -2.622   7.603  40.608  1.00  0.00    -0.000 C 
BRANCH  10  11
ATOM     11  C   UNL     1      -1.592   7.484  41.743  1.00  0.00    -0.000 C 
BRANCH  11  12
ATOM     12  C   UNL     1      -0.915   6.103  41.789  1.00  0.00    -0.000 C 
BRANCH  12  13
ATOM     13  C   UNL     1       0.623   6.162  41.676  1.00  0.00    -0.003 C 
ATOM     14  C   UNL     1       1.146   5.400  40.458  1.00  0.00     0.004 C 
ENDBRANCH  12  13
ENDBRANCH  11  12
ENDBRANCH  10  11
ENDBRANCH   9  10
ENDBRANCH   1   9
TORSDOF 10
ENDMDL
MODEL 6
REMARK VINA RESULT:    -3.311      2.778      5.210
REMARK INTER + INTRA:          -6.518
REMARK INTER:                  -5.193
REMARK INTRA:                  -1.326
REMARK UNBOUND:                -1.272
REMARK SMILES CCCCCCCCCCCC(=O)[O-]
REMARK SMILES IDX 7 1 8 2 9 3 10 4 11 5 12 6 13 7 14 8 6 9 5 10 4 11 3 12 2 13
REMARK SMILES IDX 1 14
REMARK H PARENT
REMARK Flexibility Score: inf
ROOT
ATOM      1  C   UNL     1      -1.429   8.603  39.352  1.00  0.00     0.000 C 
ENDROOT
BRANCH   1   2
ATOM      2  C   UNL     1      -1.852   9.551  38.211  1.00  0.00     0.000 C 
BRANCH   2   3
ATOM      3  C   UNL     1      -1.132   9.276  36.871  1.00  0.00     0.000 C 
BRANCH   3   4
ATOM      4  C   UNL     1       0.386   9.069  37.013  1.00  0.00     0.006 C 
BRANCH   4   5
ATOM      5  C   UNL     1       0.871   7.787  36.321  1.00  0.00     0.053 C 
BRANCH   5   6
ATOM      6  C   UNL     1       1.874   7.081  37.178  1.00  0.00     0.041 C 
ATOM      7  O   UNL     1       2.703   6.288  36.660  1.00  0.00    -0.550 OA
ATOM      8  O   UNL     1       1.925   7.338  38.542  1.00  0.00    -0.550 OA
ENDBRANCH   5   6
ENDBRANCH   4   5
ENDBRANCH   3   4
ENDBRANCH   2   3
ENDBRANCH   1   2
BRANCH   1   9
ATOM      9  C   UNL     1      -2.577   7.803  39.996  1.00  0.00     0.000 C 
BRANCH   9  10
ATOM     10  C   UNL     1      -2.617   6.307  39.626  1.00  0.00    -0.000 C 
BRANCH  10  11
ATOM     11  C   UNL     1      -1.377   5.853  38.840  1.00  0.00    -0.000 C 
BRANCH  11  12
ATOM     12  C   UNL     1      -1.720   5.347  37.428  1.00  0.00    -0.000 C 
BRANCH  12  13
ATOM     13  C   UNL     1      -0.887   4.124  36.988  1.00  0.00    -0.003 C 
ATOM     14  C   UNL     1      -0.289   4.301  35.592  1.00  0.00     0.004 C 
ENDBRANCH  12  13
ENDBRANCH  11  12
ENDBRANCH  10  11
ENDBRANCH   9  10
ENDBRANCH   1   9
TORSDOF 10
ENDMDL
MODEL 7
REMARK VINA RESULT:    -3.304      1.648      2.543
REMARK INTER + INTRA:          -6.507
REMARK INTER:                  -4.901
REMARK INTRA:                  -1.606
REMARK UNBOUND:                -1.272
REMARK SMILES CCCCCCCCCCCC(=O)[O-]
REMARK SMILES IDX 7 1 8 2 9 3 10 4 11 5 12 6 13 7 14 8 6 9 5 10 4 11 3 12 2 13
REMARK SMILES IDX 1 14
REMARK H PARENT
REMARK Flexibility Score: inf
ROOT
ATOM      1  C   UNL     1       0.790   9.443  36.455  1.00  0.00     0.000 C 
ENDROOT
BRANCH   1   2
ATOM      2  C   UNL     1      -0.570   9.922  36.999  1.00  0.00     0.000 C 
BRANCH   2   3
ATOM      3  C   UNL     1      -1.421   8.799  37.634  1.00  0.00     0.000 C 
BRANCH   3   4
ATOM      4  C   UNL     1      -1.642   8.966  39.147  1.00  0.00     0.006 C 
BRANCH   4   5
ATOM      5  C   UNL     1      -2.526   7.858  39.737  1.00  0.00     0.053 C 
BRANCH   5   6
ATOM      6  C   UNL     1      -1.952   7.367  41.029  1.00  0.00     0.041 C 
ATOM      7  O   UNL     1      -2.261   6.229  41.468  1.00  0.00    -0.550 OA
ATOM      8  O   UNL     1      -1.034   8.147  41.722  1.00  0.00    -0.550 OA
ENDBRANCH   5   6
ENDBRANCH   4   5
ENDBRANCH   3   4
ENDBRANCH   2   3
ENDBRANCH   1   2
BRANCH   1   9
ATOM      9  C   UNL     1       2.022   9.962  37.222  1.00  0.00     0.000 C 
BRANCH   9  10
ATOM     10  C   UNL     1       2.295   9.262  38.568  1.00  0.00    -0.000 C 
BRANCH  10  11
ATOM     11  C   UNL     1       2.346   7.731  38.445  1.00  0.00    -0.000 C 
BRANCH  11  12
ATOM     12  C   UNL     1       1.425   7.022  39.454  1.00  0.00    -0.000 C 
BRANCH  12  13
ATOM     13  C   UNL     1       0.562   5.907  38.829  1.00  0.00    -0.003 C 
ATOM     14  C   UNL     1       0.760   5.798  37.317  1.00  0.00     0.004 C 
ENDBRANCH  12  13
ENDBRANCH  11  12
ENDBRANCH  10  11
ENDBRANCH   9  10
ENDBRANCH   1   9
TORSDOF 10
ENDMDL
MODEL 8
REMARK VINA RESULT:    -3.295      2.502      4.947
REMARK INTER + INTRA:          -6.493
REMARK INTER:                  -5.135
REMARK INTRA:                  -1.358
REMARK UNBOUND:                -1.272
REMARK SMILES CCCCCCCCCCCC(=O)[O-]
REMARK SMILES IDX 7 1 8 2 9 3 10 4 11 5 12 6 13 7 14 8 6 9 5 10 4 11 3 12 2 13
REMARK SMILES IDX 1 14
REMARK H PARENT
REMARK Flexibility Score: inf
ROOT
ATOM      1  C   UNL     1       1.091   8.739  40.962  1.00  0.00     0.000 C 
ENDROOT
BRANCH   1   2
ATOM      2  C   UNL     1       1.132   9.834  39.878  1.00  0.00     0.000 C 
BRANCH   2   3
ATOM      3  C   UNL     1      -0.154   9.919  39.025  1.00  0.00     0.000 C 
BRANCH   3   4
ATOM      4  C   UNL     1       0.083   9.705  37.520  1.00  0.00     0.006 C 
BRANCH   4   5
ATOM      5  C   UNL     1      -0.228   8.270  37.075  1.00  0.00     0.053 C 
BRANCH   5   6
ATOM      6  C   UNL     1       1.027   7.572  36.656  1.00  0.00     0.041 C 
ATOM      7  O   UNL     1       1.994   7.471  37.456  1.00  0.00    -0.550 OA
ATOM      8  O   UNL     1       1.110   6.987  35.399  1.00  0.00    -0.550 OA
ENDBRANCH   5   6
ENDBRANCH   4   5
ENDBRANCH   3   4
ENDBRANCH   2   3
ENDBRANCH   1   2
BRANCH   1   9
ATOM      9  C   UNL     1       0.218   7.515  40.622  1.00  0.00     0.000 C 
BRANCH   9  10
ATOM     10  C   UNL     1      -0.793   7.113  41.713  1.00  0.00    -0.000 C 
BRANCH  10  11
ATOM     11  C   UNL     1      -2.231   7.543  41.382  1.00  0.00    -0.000 C 
BRANCH  11  12
ATOM     12  C   UNL     1      -2.576   7.369  39.892  1.00  0.00    -0.000 C 
BRANCH  12  13
ATOM     13  C   UNL     1      -2.957   5.923  39.508  1.00  0.00    -0.003 C 
ATOM     14  C   UNL     1      -1.940   5.288  38.559  1.00  0.00     0.004 C 
ENDBRANCH  12  13
ENDBRANCH  11  12
ENDBRANCH  10  11
ENDBRANCH   9  10
ENDBRANCH   1   9
TORSDOF 10
ENDMDL
