MODEL 1
REMARK VINA RESULT:    10.404      0.000      0.000
REMARK INTER + INTRA:          17.336
REMARK INTER:                  15.270
REMARK INTRA:                   2.067
REMARK UNBOUND:                 2.067
REMARK SMILES O=c1c(O[C@H]2O[C@H](CO)[C@@H](O)[C@@H](O)[C@@H]2O)c(-c2ccc(O)c(O)c2)oc2cc(O)cc(O)c12
REMARK SMILES IDX 4 1 3 2 16 3 25 4 2 5 26 6 1 7 33 8 27 9 31 10 28 11 30 12
REMARK SMILES IDX 17 13 18 14 19 15 20 16 24 17 22 18 21 19 23 21 32 23 29 25
REMARK SMILES IDX 5 27 14 28 6 29 12 30 7 31 10 32 15 33 13 35 8 37 9 38 11 40
REMARK H PARENT 21 20 23 22 32 24 29 26 15 34 13 36 9 39 11 41
REMARK Flexibility Score: inf
ROOT
ATOM      1  O   UNL     1      -7.798  -6.421  -9.165  1.00  0.00    -0.454 OA
ENDROOT
BRANCH   1   2
ATOM      2  C   UNL     1      -8.270  -5.246  -9.779  1.00  0.00     0.214 A 
ATOM      3  C   UNL     1      -8.567  -5.285 -11.156  1.00  0.00     0.180 A 
ATOM      4  O   UNL     1      -8.952  -4.183 -11.789  1.00  0.00    -0.452 OA
ATOM      5  C   UNL     1      -8.411  -4.018  -9.098  1.00  0.00     0.239 A 
ATOM      6  C   UNL     1      -9.106  -3.012 -11.185  1.00  0.00     0.146 A 
ATOM      7  O   UNL     1      -8.114  -3.935  -7.876  1.00  0.00    -0.285 OA
ATOM      8  C   UNL     1      -8.851  -2.878  -9.801  1.00  0.00     0.111 A 
ATOM      9  C   UNL     1      -9.527  -1.910 -11.936  1.00  0.00     0.094 A 
ATOM     10  C   UNL     1      -9.029  -1.612  -9.189  1.00  0.00     0.134 A 
ATOM     11  C   UNL     1      -9.703  -0.664 -11.327  1.00  0.00     0.123 A 
ATOM     12  C   UNL     1      -9.455  -0.519  -9.960  1.00  0.00     0.093 A 
BRANCH   3  13
ATOM     13  C   UNL     1      -8.461  -6.537 -11.941  1.00  0.00     0.025 A 
ATOM     14  C   UNL     1      -7.559  -6.648 -13.013  1.00  0.00     0.016 A 
ATOM     15  C   UNL     1      -7.468  -7.838 -13.741  1.00  0.00     0.051 A 
ATOM     16  C   UNL     1      -8.263  -8.939 -13.395  1.00  0.00     0.157 A 
ATOM     17  C   UNL     1      -9.237  -7.650 -11.583  1.00  0.00     0.062 A 
ATOM     18  C   UNL     1      -9.149  -8.845 -12.308  1.00  0.00     0.158 A 
BRANCH  16  19
ATOM     19  O   UNL     1      -8.173 -10.124 -14.124  1.00  0.00    -0.504 OA
ATOM     20  H   UNL     1      -7.303 -10.421 -14.548  1.00  0.00     0.293 HD
ENDBRANCH  16  19
BRANCH  18  21
ATOM     21  O   UNL     1      -9.948  -9.924 -11.934  1.00  0.00    -0.504 OA
ATOM     22  H   UNL     1     -10.689 -10.275 -12.528  1.00  0.00     0.293 HD
ENDBRANCH  18  21
ENDBRANCH   3  13
BRANCH  10  23
ATOM     23  O   UNL     1      -8.789  -1.431  -7.826  1.00  0.00    -0.507 OA
ATOM     24  H   UNL     1      -8.817  -2.205  -7.173  1.00  0.00     0.293 HD
ENDBRANCH  10  23
BRANCH  11  25
ATOM     25  O   UNL     1     -10.124   0.436 -12.069  1.00  0.00    -0.508 OA
ATOM     26  H   UNL     1     -10.708   0.328 -12.891  1.00  0.00     0.293 HD
ENDBRANCH  11  25
ENDBRANCH   1   2
BRANCH   1  27
ATOM     27  C   UNL     1      -6.731  -7.258  -9.626  1.00  0.00     0.339 C 
ATOM     28  C   UNL     1      -7.265  -8.623 -10.120  1.00  0.00     0.214 C 
ATOM     29  O   UNL     1      -5.765  -7.428  -8.600  1.00  0.00    -0.332 OA
ATOM     30  C   UNL     1      -7.798  -9.460  -8.947  1.00  0.00     0.180 C 
ATOM     31  C   UNL     1      -6.314  -8.062  -7.454  1.00  0.00     0.179 C 
ATOM     32  C   UNL     1      -6.763  -9.500  -7.804  1.00  0.00     0.177 C 
BRANCH  28  33
ATOM     33  O   UNL     1      -6.235  -9.330 -10.763  1.00  0.00    -0.384 OA
ATOM     34  H   UNL     1      -5.518  -8.674 -10.963  1.00  0.00     0.211 HD
ENDBRANCH  28  33
BRANCH  30  35
ATOM     35  O   UNL     1      -9.010  -8.909  -8.495  1.00  0.00    -0.387 OA
ATOM     36  H   UNL     1      -8.883  -7.925  -8.446  1.00  0.00     0.211 HD
ENDBRANCH  30  35
BRANCH  31  37
ATOM     37  C   UNL     1      -5.243  -8.055  -6.355  1.00  0.00     0.191 C 
BRANCH  37  38
ATOM     38  O   UNL     1      -5.830  -8.250  -5.098  1.00  0.00    -0.394 OA
ATOM     39  H   UNL     1      -5.108  -8.112  -4.432  1.00  0.00     0.210 HD
ENDBRANCH  37  38
ENDBRANCH  31  37
BRANCH  32  40
ATOM     40  O   UNL     1      -7.320 -10.125  -6.675  1.00  0.00    -0.387 OA
ATOM     41  H   UNL     1      -7.948  -9.470  -6.269  1.00  0.00     0.211 HD
ENDBRANCH  32  40
ENDBRANCH   1  27
TORSDOF 12
ENDMDL
