MODEL 1
REMARK VINA RESULT:    -3.229      0.000      0.000
REMARK INTER + INTRA:          -8.088
REMARK INTER:                  -5.872
REMARK INTRA:                  -2.216
REMARK UNBOUND:                -2.216
REMARK SMILES CCCCCCCCCCCCCCCC(=O)[O-]
REMARK SMILES IDX 9 1 10 2 11 3 12 4 13 5 14 6 15 7 16 8 17 9 18 10 8 11 7 12
REMARK SMILES IDX 6 13 5 14 4 15 3 16 2 17 1 18
REMARK H PARENT
REMARK Flexibility Score: inf
ROOT
ATOM      1  C   UNL     1      54.620  29.241  51.375  1.00  0.00     0.000 C 
ENDROOT
BRANCH   1   2
ATOM      2  C   UNL     1      53.827  28.460  50.311  1.00  0.00     0.000 C 
BRANCH   2   3
ATOM      3  C   UNL     1      53.789  26.950  50.584  1.00  0.00     0.000 C 
BRANCH   3   4
ATOM      4  C   UNL     1      55.036  26.258  50.013  1.00  0.00     0.000 C 
BRANCH   4   5
ATOM      5  C   UNL     1      55.904  25.594  51.098  1.00  0.00     0.000 C 
BRANCH   5   6
ATOM      6  C   UNL     1      55.582  26.022  52.544  1.00  0.00     0.006 C 
BRANCH   6   7
ATOM      7  C   UNL     1      56.807  26.441  53.371  1.00  0.00     0.053 C 
BRANCH   7   8
ATOM      8  C   UNL     1      57.294  25.332  54.252  1.00  0.00     0.041 C 
ATOM      9  O   UNL     1      58.522  25.213  54.504  1.00  0.00    -0.550 OA
ATOM     10  O   UNL     1      56.392  24.408  54.769  1.00  0.00    -0.550 OA
ENDBRANCH   7   8
ENDBRANCH   6   7
ENDBRANCH   5   6
ENDBRANCH   4   5
ENDBRANCH   3   4
ENDBRANCH   2   3
ENDBRANCH   1   2
BRANCH   1  11
ATOM     11  C   UNL     1      55.611  30.284  50.818  1.00  0.00     0.000 C 
BRANCH  11  12
ATOM     12  C   UNL     1      57.076  30.079  51.242  1.00  0.00    -0.000 C 
BRANCH  12  13
ATOM     13  C   UNL     1      57.696  28.805  50.642  1.00  0.00    -0.000 C 
BRANCH  13  14
ATOM     14  C   UNL     1      58.959  29.097  49.816  1.00  0.00    -0.000 C 
BRANCH  14  15
ATOM     15  C   UNL     1      59.893  27.879  49.713  1.00  0.00    -0.000 C 
BRANCH  15  16
ATOM     16  C   UNL     1      59.176  26.563  50.078  1.00  0.00    -0.000 C 
BRANCH  16  17
ATOM     17  C   UNL     1      59.858  25.788  51.219  1.00  0.00    -0.003 C 
ATOM     18  C   UNL     1      59.493  24.305  51.236  1.00  0.00     0.004 C 
ENDBRANCH  16  17
ENDBRANCH  15  16
ENDBRANCH  14  15
ENDBRANCH  13  14
ENDBRANCH  12  13
ENDBRANCH  11  12
ENDBRANCH   1  11
TORSDOF 14
ENDMDL
MODEL 2
REMARK VINA RESULT:    -3.160      1.534      4.321
REMARK INTER + INTRA:          -7.963
REMARK INTER:                  -5.520
REMARK INTRA:                  -2.443
REMARK UNBOUND:                -2.216
REMARK SMILES CCCCCCCCCCCCCCCC(=O)[O-]
REMARK SMILES IDX 9 1 10 2 11 3 12 4 13 5 14 6 15 7 16 8 17 9 18 10 8 11 7 12
REMARK SMILES IDX 6 13 5 14 4 15 3 16 2 17 1 18
REMARK H PARENT
REMARK Flexibility Score: inf
ROOT
ATOM      1  C   UNL     1      54.578  30.368  51.865  1.00  0.00     0.000 C 
ENDROOT
BRANCH   1   2
ATOM      2  C   UNL     1      56.097  30.247  52.083  1.00  0.00     0.000 C 
BRANCH   2   3
ATOM      3  C   UNL     1      56.874  30.045  50.774  1.00  0.00     0.000 C 
BRANCH   3   4
ATOM      4  C   UNL     1      58.147  29.221  51.013  1.00  0.00     0.000 C 
BRANCH   4   5
ATOM      5  C   UNL     1      58.937  28.947  49.720  1.00  0.00     0.000 C 
BRANCH   5   6
ATOM      6  C   UNL     1      59.902  27.745  49.788  1.00  0.00     0.006 C 
BRANCH   6   7
ATOM      7  C   UNL     1      59.211  26.381  49.934  1.00  0.00     0.053 C 
BRANCH   7   8
ATOM      8  C   UNL     1      59.651  25.660  51.170  1.00  0.00     0.041 C 
ATOM      9  O   UNL     1      59.236  24.495  51.408  1.00  0.00    -0.550 OA
ATOM     10  O   UNL     1      60.495  26.288  52.078  1.00  0.00    -0.550 OA
ENDBRANCH   7   8
ENDBRANCH   6   7
ENDBRANCH   5   6
ENDBRANCH   4   5
ENDBRANCH   3   4
ENDBRANCH   2   3
ENDBRANCH   1   2
BRANCH   1  11
ATOM     11  C   UNL     1      54.010  29.503  50.721  1.00  0.00     0.000 C 
BRANCH  11  12
ATOM     12  C   UNL     1      53.720  28.039  51.096  1.00  0.00    -0.000 C 
BRANCH  12  13
ATOM     13  C   UNL     1      54.262  27.041  50.059  1.00  0.00    -0.000 C 
BRANCH  13  14
ATOM     14  C   UNL     1      55.658  26.511  50.423  1.00  0.00    -0.000 C 
BRANCH  14  15
ATOM     15  C   UNL     1      55.675  25.758  51.764  1.00  0.00    -0.000 C 
BRANCH  15  16
ATOM     16  C   UNL     1      56.477  26.511  52.846  1.00  0.00    -0.000 C 
BRANCH  16  17
ATOM     17  C   UNL     1      55.818  26.477  54.236  1.00  0.00    -0.003 C 
ATOM     18  C   UNL     1      55.050  27.754  54.565  1.00  0.00     0.004 C 
ENDBRANCH  16  17
ENDBRANCH  15  16
ENDBRANCH  14  15
ENDBRANCH  13  14
ENDBRANCH  12  13
ENDBRANCH  11  12
ENDBRANCH   1  11
TORSDOF 14
ENDMDL
MODEL 3
REMARK VINA RESULT:    -3.153      1.658      5.244
REMARK INTER + INTRA:          -7.950
REMARK INTER:                  -5.948
REMARK INTRA:                  -2.002
REMARK UNBOUND:                -2.216
REMARK SMILES CCCCCCCCCCCCCCCC(=O)[O-]
REMARK SMILES IDX 9 1 10 2 11 3 12 4 13 5 14 6 15 7 16 8 17 9 18 10 8 11 7 12
REMARK SMILES IDX 6 13 5 14 4 15 3 16 2 17 1 18
REMARK H PARENT
REMARK Flexibility Score: inf
ROOT
ATOM      1  C   UNL     1      57.613  27.875  51.838  1.00  0.00     0.000 C 
ENDROOT
BRANCH   1   2
ATOM      2  C   UNL     1      57.734  28.510  50.442  1.00  0.00     0.000 C 
BRANCH   2   3
ATOM      3  C   UNL     1      59.180  28.873  50.074  1.00  0.00     0.000 C 
BRANCH   3   4
ATOM      4  C   UNL     1      59.979  27.618  49.692  1.00  0.00     0.000 C 
BRANCH   4   5
ATOM      5  C   UNL     1      61.408  27.619  50.263  1.00  0.00     0.000 C 
BRANCH   5   6
ATOM      6  C   UNL     1      61.745  26.425  51.180  1.00  0.00     0.006 C 
BRANCH   6   7
ATOM      7  C   UNL     1      60.650  26.078  52.202  1.00  0.00     0.053 C 
BRANCH   7   8
ATOM      8  C   UNL     1      60.132  24.686  52.016  1.00  0.00     0.041 C 
ATOM      9  O   UNL     1      59.526  24.370  50.958  1.00  0.00    -0.550 OA
ATOM     10  O   UNL     1      60.291  23.744  53.026  1.00  0.00    -0.550 OA
ENDBRANCH   7   8
ENDBRANCH   6   7
ENDBRANCH   5   6
ENDBRANCH   4   5
ENDBRANCH   3   4
ENDBRANCH   2   3
ENDBRANCH   1   2
BRANCH   1  11
ATOM     11  C   UNL     1      56.725  26.615  51.910  1.00  0.00     0.000 C 
BRANCH  11  12
ATOM     12  C   UNL     1      56.476  25.919  50.560  1.00  0.00    -0.000 C 
BRANCH  12  13
ATOM     13  C   UNL     1      55.030  26.087  50.062  1.00  0.00    -0.000 C 
BRANCH  13  14
ATOM     14  C   UNL     1      54.033  26.310  51.210  1.00  0.00    -0.000 C 
BRANCH  14  15
ATOM     15  C   UNL     1      53.221  27.606  51.045  1.00  0.00    -0.000 C 
BRANCH  15  16
ATOM     16  C   UNL     1      54.057  28.741  50.418  1.00  0.00    -0.000 C 
BRANCH  16  17
ATOM     17  C   UNL     1      54.203  29.973  51.328  1.00  0.00    -0.003 C 
ATOM     18  C   UNL     1      55.295  30.934  50.863  1.00  0.00     0.004 C 
ENDBRANCH  16  17
ENDBRANCH  15  16
ENDBRANCH  14  15
ENDBRANCH  13  14
ENDBRANCH  12  13
ENDBRANCH  11  12
ENDBRANCH   1  11
TORSDOF 14
ENDMDL
MODEL 4
REMARK VINA RESULT:    -3.136      2.981      5.062
REMARK INTER + INTRA:          -7.919
REMARK INTER:                  -5.446
REMARK INTRA:                  -2.473
REMARK UNBOUND:                -2.216
REMARK SMILES CCCCCCCCCCCCCCCC(=O)[O-]
REMARK SMILES IDX 9 1 10 2 11 3 12 4 13 5 14 6 15 7 16 8 17 9 18 10 8 11 7 12
REMARK SMILES IDX 6 13 5 14 4 15 3 16 2 17 1 18
REMARK H PARENT
REMARK Flexibility Score: inf
ROOT
ATOM      1  C   UNL     1      56.621  29.816  50.755  1.00  0.00     0.000 C 
ENDROOT
BRANCH   1   2
ATOM      2  C   UNL     1      57.709  29.758  51.842  1.00  0.00     0.000 C 
BRANCH   2   3
ATOM      3  C   UNL     1      59.079  29.333  51.293  1.00  0.00     0.000 C 
BRANCH   3   4
ATOM      4  C   UNL     1      58.946  28.750  49.879  1.00  0.00     0.000 C 
BRANCH   4   5
ATOM      5  C   UNL     1      59.803  27.490  49.666  1.00  0.00     0.000 C 
BRANCH   5   6
ATOM      6  C   UNL     1      61.079  27.415  50.530  1.00  0.00     0.006 C 
BRANCH   6   7
ATOM      7  C   UNL     1      62.373  27.786  49.789  1.00  0.00     0.053 C 
BRANCH   7   8
ATOM      8  C   UNL     1      63.136  28.861  50.499  1.00  0.00     0.041 C 
ATOM      9  O   UNL     1      62.569  29.941  50.812  1.00  0.00    -0.550 OA
ATOM     10  O   UNL     1      64.484  28.683  50.787  1.00  0.00    -0.550 OA
ENDBRANCH   7   8
ENDBRANCH   6   7
ENDBRANCH   5   6
ENDBRANCH   4   5
ENDBRANCH   3   4
ENDBRANCH   2   3
ENDBRANCH   1   2
BRANCH   1  11
ATOM     11  C   UNL     1      55.201  29.439  51.229  1.00  0.00     0.000 C 
BRANCH  11  12
ATOM     12  C   UNL     1      54.972  27.935  51.458  1.00  0.00    -0.000 C 
BRANCH  12  13
ATOM     13  C   UNL     1      55.534  27.067  50.319  1.00  0.00    -0.000 C 
BRANCH  13  14
ATOM     14  C   UNL     1      56.510  25.992  50.822  1.00  0.00    -0.000 C 
BRANCH  14  15
ATOM     15  C   UNL     1      56.846  26.150  52.315  1.00  0.00    -0.000 C 
BRANCH  15  16
ATOM     16  C   UNL     1      58.321  25.814  52.619  1.00  0.00    -0.000 C 
BRANCH  16  17
ATOM     17  C   UNL     1      58.669  24.330  52.408  1.00  0.00    -0.003 C 
ATOM     18  C   UNL     1      59.753  24.114  51.354  1.00  0.00     0.004 C 
ENDBRANCH  16  17
ENDBRANCH  15  16
ENDBRANCH  14  15
ENDBRANCH  13  14
ENDBRANCH  12  13
ENDBRANCH  11  12
ENDBRANCH   1  11
TORSDOF 14
ENDMDL
MODEL 5
REMARK VINA RESULT:    -3.121      2.751      4.782
REMARK INTER + INTRA:          -7.891
REMARK INTER:                  -5.447
REMARK INTRA:                  -2.444
REMARK UNBOUND:                -2.216
REMARK SMILES CCCCCCCCCCCCCCCC(=O)[O-]
REMARK SMILES IDX 9 1 10 2 11 3 12 4 13 5 14 6 15 7 16 8 17 9 18 10 8 11 7 12
REMARK SMILES IDX 6 13 5 14 4 15 3 16 2 17 1 18
REMARK H PARENT
REMARK Flexibility Score: inf
ROOT
ATOM      1  C   UNL     1      58.609  26.172  53.432  1.00  0.00     0.000 C 
ENDROOT
BRANCH   1   2
ATOM      2  C   UNL     1      57.432  25.376  52.840  1.00  0.00     0.000 C 
BRANCH   2   3
ATOM      3  C   UNL     1      56.280  26.276  52.368  1.00  0.00     0.000 C 
BRANCH   3   4
ATOM      4  C   UNL     1      55.975  26.041  50.882  1.00  0.00     0.000 C 
BRANCH   4   5
ATOM      5  C   UNL     1      54.653  26.688  50.431  1.00  0.00     0.000 C 
BRANCH   5   6
ATOM      6  C   UNL     1      54.668  28.230  50.374  1.00  0.00     0.006 C 
BRANCH   6   7
ATOM      7  C   UNL     1      53.705  28.913  51.359  1.00  0.00     0.053 C 
BRANCH   7   8
ATOM      8  C   UNL     1      54.034  30.361  51.549  1.00  0.00     0.041 C 
ATOM      9  O   UNL     1      53.412  31.047  52.402  1.00  0.00    -0.550 OA
ATOM     10  O   UNL     1      55.007  30.963  50.759  1.00  0.00    -0.550 OA
ENDBRANCH   7   8
ENDBRANCH   6   7
ENDBRANCH   5   6
ENDBRANCH   4   5
ENDBRANCH   3   4
ENDBRANCH   2   3
ENDBRANCH   1   2
BRANCH   1  11
ATOM     11  C   UNL     1      59.811  26.365  52.484  1.00  0.00     0.000 C 
BRANCH  11  12
ATOM     12  C   UNL     1      59.751  25.544  51.184  1.00  0.00    -0.000 C 
BRANCH  12  13
ATOM     13  C   UNL     1      59.403  26.402  49.955  1.00  0.00    -0.000 C 
BRANCH  13  14
ATOM     14  C   UNL     1      60.108  27.767  49.969  1.00  0.00    -0.000 C 
BRANCH  14  15
ATOM     15  C   UNL     1      59.164  28.925  49.605  1.00  0.00    -0.000 C 
BRANCH  15  16
ATOM     16  C   UNL     1      58.021  29.088  50.628  1.00  0.00    -0.000 C 
BRANCH  16  17
ATOM     17  C   UNL     1      58.478  29.683  51.971  1.00  0.00    -0.003 C 
ATOM     18  C   UNL     1      57.383  29.666  53.036  1.00  0.00     0.004 C 
ENDBRANCH  16  17
ENDBRANCH  15  16
ENDBRANCH  14  15
ENDBRANCH  13  14
ENDBRANCH  12  13
ENDBRANCH  11  12
ENDBRANCH   1  11
TORSDOF 14
ENDMDL
MODEL 6
REMARK VINA RESULT:    -3.105      1.541      5.279
REMARK INTER + INTRA:          -7.862
REMARK INTER:                  -5.660
REMARK INTRA:                  -2.203
REMARK UNBOUND:                -2.216
REMARK SMILES CCCCCCCCCCCCCCCC(=O)[O-]
REMARK SMILES IDX 9 1 10 2 11 3 12 4 13 5 14 6 15 7 16 8 17 9 18 10 8 11 7 12
REMARK SMILES IDX 6 13 5 14 4 15 3 16 2 17 1 18
REMARK H PARENT
REMARK Flexibility Score: inf
ROOT
ATOM      1  C   UNL     1      59.697  25.929  51.492  1.00  0.00     0.000 C 
ENDROOT
BRANCH   1   2
ATOM      2  C   UNL     1      60.543  26.972  50.741  1.00  0.00     0.000 C 
BRANCH   2   3
ATOM      3  C   UNL     1      59.769  27.665  49.610  1.00  0.00     0.000 C 
BRANCH   3   4
ATOM      4  C   UNL     1      59.485  29.133  49.960  1.00  0.00     0.000 C 
BRANCH   4   5
ATOM      5  C   UNL     1      58.232  29.309  50.837  1.00  0.00     0.000 C 
BRANCH   5   6
ATOM      6  C   UNL     1      58.513  29.558  52.334  1.00  0.00     0.006 C 
BRANCH   6   7
ATOM      7  C   UNL     1      57.314  29.299  53.259  1.00  0.00     0.053 C 
BRANCH   7   8
ATOM      8  C   UNL     1      57.523  28.094  54.122  1.00  0.00     0.041 C 
ATOM      9  O   UNL     1      56.538  27.423  54.527  1.00  0.00    -0.550 OA
ATOM     10  O   UNL     1      58.808  27.729  54.507  1.00  0.00    -0.550 OA
ENDBRANCH   7   8
ENDBRANCH   6   7
ENDBRANCH   5   6
ENDBRANCH   4   5
ENDBRANCH   3   4
ENDBRANCH   2   3
ENDBRANCH   1   2
BRANCH   1  11
ATOM     11  C   UNL     1      58.474  25.396  50.717  1.00  0.00     0.000 C 
BRANCH  11  12
ATOM     12  C   UNL     1      57.119  25.616  51.412  1.00  0.00    -0.000 C 
BRANCH  12  13
ATOM     13  C   UNL     1      56.009  26.036  50.432  1.00  0.00    -0.000 C 
BRANCH  13  14
ATOM     14  C   UNL     1      55.246  27.283  50.904  1.00  0.00    -0.000 C 
BRANCH  14  15
ATOM     15  C   UNL     1      53.974  27.546  50.081  1.00  0.00    -0.000 C 
BRANCH  15  16
ATOM     16  C   UNL     1      53.310  28.889  50.448  1.00  0.00    -0.000 C 
BRANCH  16  17
ATOM     17  C   UNL     1      54.086  29.689  51.508  1.00  0.00    -0.003 C 
ATOM     18  C   UNL     1      54.842  30.881  50.924  1.00  0.00     0.004 C 
ENDBRANCH  16  17
ENDBRANCH  15  16
ENDBRANCH  14  15
ENDBRANCH  13  14
ENDBRANCH  12  13
ENDBRANCH  11  12
ENDBRANCH   1  11
TORSDOF 14
ENDMDL
MODEL 7
REMARK VINA RESULT:    -3.083      3.079      5.458
REMARK INTER + INTRA:          -7.822
REMARK INTER:                  -5.781
REMARK INTRA:                  -2.041
REMARK UNBOUND:                -2.216
REMARK SMILES CCCCCCCCCCCCCCCC(=O)[O-]
REMARK SMILES IDX 9 1 10 2 11 3 12 4 13 5 14 6 15 7 16 8 17 9 18 10 8 11 7 12
REMARK SMILES IDX 6 13 5 14 4 15 3 16 2 17 1 18
REMARK H PARENT
REMARK Flexibility Score: inf
ROOT
ATOM      1  C   UNL     1      57.209  29.979  51.930  1.00  0.00     0.000 C 
ENDROOT
BRANCH   1   2
ATOM      2  C   UNL     1      58.358  28.998  51.635  1.00  0.00     0.000 C 
BRANCH   2   3
ATOM      3  C   UNL     1      58.799  29.021  50.164  1.00  0.00     0.000 C 
BRANCH   3   4
ATOM      4  C   UNL     1      59.518  27.718  49.787  1.00  0.00     0.000 C 
BRANCH   4   5
ATOM      5  C   UNL     1      60.205  27.042  50.988  1.00  0.00     0.000 C 
BRANCH   5   6
ATOM      6  C   UNL     1      61.748  27.055  50.950  1.00  0.00     0.006 C 
BRANCH   6   7
ATOM      7  C   UNL     1      62.348  27.826  49.764  1.00  0.00     0.053 C 
BRANCH   7   8
ATOM      8  C   UNL     1      63.626  28.513  50.134  1.00  0.00     0.041 C 
ATOM      9  O   UNL     1      64.463  27.940  50.880  1.00  0.00    -0.550 OA
ATOM     10  O   UNL     1      63.880  29.803  49.680  1.00  0.00    -0.550 OA
ENDBRANCH   7   8
ENDBRANCH   6   7
ENDBRANCH   5   6
ENDBRANCH   4   5
ENDBRANCH   3   4
ENDBRANCH   2   3
ENDBRANCH   1   2
BRANCH   1  11
ATOM     11  C   UNL     1      56.336  30.350  50.713  1.00  0.00     0.000 C 
BRANCH  11  12
ATOM     12  C   UNL     1      54.822  30.378  50.985  1.00  0.00    -0.000 C 
BRANCH  12  13
ATOM     13  C   UNL     1      54.269  29.009  51.417  1.00  0.00    -0.000 C 
BRANCH  13  14
ATOM     14  C   UNL     1      54.092  28.045  50.234  1.00  0.00    -0.000 C 
BRANCH  14  15
ATOM     15  C   UNL     1      54.502  26.603  50.579  1.00  0.00    -0.000 C 
BRANCH  15  16
ATOM     16  C   UNL     1      56.004  26.350  50.335  1.00  0.00    -0.000 C 
BRANCH  16  17
ATOM     17  C   UNL     1      56.729  25.737  51.546  1.00  0.00    -0.003 C 
ATOM     18  C   UNL     1      56.070  26.089  52.878  1.00  0.00     0.004 C 
ENDBRANCH  16  17
ENDBRANCH  15  16
ENDBRANCH  14  15
ENDBRANCH  13  14
ENDBRANCH  12  13
ENDBRANCH  11  12
ENDBRANCH   1  11
TORSDOF 14
ENDMDL
MODEL 8
REMARK VINA RESULT:    -3.078      2.870      5.310
REMARK INTER + INTRA:          -7.813
REMARK INTER:                  -5.656
REMARK INTRA:                  -2.157
REMARK UNBOUND:                -2.216
REMARK SMILES CCCCCCCCCCCCCCCC(=O)[O-]
REMARK SMILES IDX 9 1 10 2 11 3 12 4 13 5 14 6 15 7 16 8 17 9 18 10 8 11 7 12
REMARK SMILES IDX 6 13 5 14 4 15 3 16 2 17 1 18
REMARK H PARENT
REMARK Flexibility Score: inf
ROOT
ATOM      1  C   UNL     1      56.794  27.096  52.870  1.00  0.00     0.000 C 
ENDROOT
BRANCH   1   2
ATOM      2  C   UNL     1      57.978  26.114  52.845  1.00  0.00     0.000 C 
BRANCH   2   3
ATOM      3  C   UNL     1      57.927  25.147  51.654  1.00  0.00     0.000 C 
BRANCH   3   4
ATOM      4  C   UNL     1      58.272  25.871  50.345  1.00  0.00     0.000 C 
BRANCH   4   5
ATOM      5  C   UNL     1      59.711  26.418  50.322  1.00  0.00     0.000 C 
BRANCH   5   6
ATOM      6  C   UNL     1      59.844  27.884  49.859  1.00  0.00     0.006 C 
BRANCH   6   7
ATOM      7  C   UNL     1      60.687  28.771  50.788  1.00  0.00     0.053 C 
BRANCH   7   8
ATOM      8  C   UNL     1      62.102  28.893  50.314  1.00  0.00     0.041 C 
ATOM      9  O   UNL     1      62.734  29.970  50.470  1.00  0.00    -0.550 OA
ATOM     10  O   UNL     1      62.713  27.824  49.668  1.00  0.00    -0.550 OA
ENDBRANCH   7   8
ENDBRANCH   6   7
ENDBRANCH   5   6
ENDBRANCH   4   5
ENDBRANCH   3   4
ENDBRANCH   2   3
ENDBRANCH   1   2
BRANCH   1  11
ATOM     11  C   UNL     1      57.174  28.576  53.090  1.00  0.00     0.000 C 
BRANCH  11  12
ATOM     12  C   UNL     1      57.175  29.441  51.817  1.00  0.00    -0.000 C 
BRANCH  12  13
ATOM     13  C   UNL     1      56.130  28.985  50.786  1.00  0.00    -0.000 C 
BRANCH  13  14
ATOM     14  C   UNL     1      54.857  29.845  50.815  1.00  0.00    -0.000 C 
BRANCH  14  15
ATOM     15  C   UNL     1      53.595  29.049  50.439  1.00  0.00    -0.000 C 
BRANCH  15  16
ATOM     16  C   UNL     1      53.618  27.617  51.013  1.00  0.00    -0.000 C 
BRANCH  16  17
ATOM     17  C   UNL     1      53.433  26.524  49.946  1.00  0.00    -0.003 C 
ATOM     18  C   UNL     1      54.659  25.628  49.789  1.00  0.00     0.004 C 
ENDBRANCH  16  17
ENDBRANCH  15  16
ENDBRANCH  14  15
ENDBRANCH  13  14
ENDBRANCH  12  13
ENDBRANCH  11  12
ENDBRANCH   1  11
TORSDOF 14
ENDMDL
MODEL 9
REMARK VINA RESULT:    -3.066      1.376      4.267
REMARK INTER + INTRA:          -7.791
REMARK INTER:                  -6.060
REMARK INTRA:                  -1.731
REMARK UNBOUND:                -2.216
REMARK SMILES CCCCCCCCCCCCCCCC(=O)[O-]
REMARK SMILES IDX 9 1 10 2 11 3 12 4 13 5 14 6 15 7 16 8 17 9 18 10 8 11 7 12
REMARK SMILES IDX 6 13 5 14 4 15 3 16 2 17 1 18
REMARK H PARENT
REMARK Flexibility Score: inf
ROOT
ATOM      1  C   UNL     1      56.987  29.125  50.795  1.00  0.00     0.000 C 
ENDROOT
BRANCH   1   2
ATOM      2  C   UNL     1      58.510  29.012  50.991  1.00  0.00     0.000 C 
BRANCH   2   3
ATOM      3  C   UNL     1      59.262  28.757  49.676  1.00  0.00     0.000 C 
BRANCH   3   4
ATOM      4  C   UNL     1      60.031  27.429  49.733  1.00  0.00     0.000 C 
BRANCH   4   5
ATOM      5  C   UNL     1      59.134  26.230  50.092  1.00  0.00     0.000 C 
BRANCH   5   6
ATOM      6  C   UNL     1      59.663  25.338  51.233  1.00  0.00     0.006 C 
BRANCH   6   7
ATOM      7  C   UNL     1      60.586  26.058  52.228  1.00  0.00     0.053 C 
BRANCH   7   8
ATOM      8  C   UNL     1      59.879  26.394  53.505  1.00  0.00     0.041 C 
ATOM      9  O   UNL     1      60.534  26.571  54.566  1.00  0.00    -0.550 OA
ATOM     10  O   UNL     1      58.492  26.480  53.530  1.00  0.00    -0.550 OA
ENDBRANCH   7   8
ENDBRANCH   6   7
ENDBRANCH   5   6
ENDBRANCH   4   5
ENDBRANCH   3   4
ENDBRANCH   2   3
ENDBRANCH   1   2
BRANCH   1  11
ATOM     11  C   UNL     1      56.332  30.356  51.458  1.00  0.00     0.000 C 
BRANCH  11  12
ATOM     12  C   UNL     1      54.958  30.747  50.885  1.00  0.00    -0.000 C 
BRANCH  12  13
ATOM     13  C   UNL     1      53.832  29.806  51.347  1.00  0.00    -0.000 C 
BRANCH  13  14
ATOM     14  C   UNL     1      53.438  28.785  50.268  1.00  0.00    -0.000 C 
BRANCH  14  15
ATOM     15  C   UNL     1      53.254  27.366  50.835  1.00  0.00    -0.000 C 
BRANCH  15  16
ATOM     16  C   UNL     1      53.749  26.280  49.857  1.00  0.00    -0.000 C 
BRANCH  16  17
ATOM     17  C   UNL     1      55.248  25.964  49.997  1.00  0.00    -0.003 C 
ATOM     18  C   UNL     1      55.664  25.664  51.435  1.00  0.00     0.004 C 
ENDBRANCH  16  17
ENDBRANCH  15  16
ENDBRANCH  14  15
ENDBRANCH  13  14
ENDBRANCH  12  13
ENDBRANCH  11  12
ENDBRANCH   1  11
TORSDOF 14
ENDMDL
