MODEL 1
REMARK VINA RESULT:    -6.966      0.000      0.000
REMARK INTER + INTRA:          -8.717
REMARK INTER:                  -8.391
REMARK INTRA:                  -0.326
REMARK UNBOUND:                -0.326
REMARK SMILES O=c1c(O)c(-c2ccc(O)c(O)c2)oc2cc(O)cc(O)c12
REMARK SMILES IDX 5 1 3 2 2 3 1 4 22 5 20 6 19 7 17 8 16 9 15 10 14 11 6 12
REMARK SMILES IDX 7 13 8 14 9 15 13 16 11 17 10 18 12 20 4 22 21 24 18 26
REMARK H PARENT 10 19 12 21 4 23 21 25 18 27
REMARK Flexibility Score: inf
ROOT
ATOM      1  C   UNL     1       8.608   3.204  -3.619  1.00  0.00     0.180 A 
ATOM      2  C   UNL     1       9.102   4.513  -3.757  1.00  0.00     0.208 A 
ATOM      3  C   UNL     1       9.164   5.341  -2.624  1.00  0.00     0.238 A 
ATOM      4  O   UNL     1       9.676   6.485  -2.741  1.00  0.00    -0.285 OA
ATOM      5  C   UNL     1       8.680   4.870  -1.380  1.00  0.00     0.111 A 
ATOM      6  C   UNL     1       8.653   5.638  -0.176  1.00  0.00     0.134 A 
ATOM      7  C   UNL     1       8.250   5.031   1.021  1.00  0.00     0.093 A 
ATOM      8  C   UNL     1       7.814   3.707   1.047  1.00  0.00     0.123 A 
ATOM      9  C   UNL     1       7.785   2.965  -0.134  1.00  0.00     0.094 A 
ATOM     10  C   UNL     1       8.216   3.529  -1.336  1.00  0.00     0.146 A 
ATOM     11  O   UNL     1       8.192   2.780  -2.431  1.00  0.00    -0.452 OA
ENDROOT
BRANCH   1  12
ATOM     12  C   UNL     1       8.525   2.268  -4.763  1.00  0.00     0.025 A 
ATOM     13  C   UNL     1       9.630   1.492  -5.156  1.00  0.00     0.016 A 
ATOM     14  C   UNL     1       9.519   0.597  -6.223  1.00  0.00     0.051 A 
ATOM     15  C   UNL     1       8.304   0.454  -6.904  1.00  0.00     0.157 A 
ATOM     16  C   UNL     1       7.303   2.105  -5.435  1.00  0.00     0.062 A 
ATOM     17  C   UNL     1       7.192   1.208  -6.507  1.00  0.00     0.158 A 
BRANCH  15  18
ATOM     18  O   UNL     1       8.191  -0.436  -7.971  1.00  0.00    -0.504 OA
ATOM     19  H   UNL     1       8.075  -0.109  -8.923  1.00  0.00     0.293 HD
ENDBRANCH  15  18
BRANCH  17  20
ATOM     20  O   UNL     1       5.981   1.059  -7.180  1.00  0.00    -0.504 OA
ATOM     21  H   UNL     1       5.626   0.145  -7.438  1.00  0.00     0.293 HD
ENDBRANCH  17  20
ENDBRANCH   1  12
BRANCH   2  22
ATOM     22  O   UNL     1       9.503   4.985  -5.010  1.00  0.00    -0.502 OA
ATOM     23  H   UNL     1      10.392   5.449  -5.158  1.00  0.00     0.293 HD
ENDBRANCH   2  22
BRANCH   6  24
ATOM     24  O   UNL     1       8.983   6.994  -0.105  1.00  0.00    -0.507 OA
ATOM     25  H   UNL     1       9.034   7.534   0.746  1.00  0.00     0.293 HD
ENDBRANCH   6  24
BRANCH   8  26
ATOM     26  O   UNL     1       7.404   3.144   2.253  1.00  0.00    -0.508 OA
ATOM     27  H   UNL     1       7.266   2.144   2.350  1.00  0.00     0.293 HD
ENDBRANCH   8  26
TORSDOF 6
ENDMDL
MODEL 2
REMARK VINA RESULT:    -6.959      3.028      8.589
REMARK INTER + INTRA:          -8.709
REMARK INTER:                  -8.378
REMARK INTRA:                  -0.331
REMARK UNBOUND:                -0.326
REMARK SMILES O=c1c(O)c(-c2ccc(O)c(O)c2)oc2cc(O)cc(O)c12
REMARK SMILES IDX 5 1 3 2 2 3 1 4 22 5 20 6 19 7 17 8 16 9 15 10 14 11 6 12
REMARK SMILES IDX 7 13 8 14 9 15 13 16 11 17 10 18 12 20 4 22 21 24 18 26
REMARK H PARENT 10 19 12 21 4 23 21 25 18 27
REMARK Flexibility Score: inf
ROOT
ATOM      1  C   UNL     1       8.578   5.650   1.413  1.00  0.00     0.180 A 
ATOM      2  C   UNL     1       8.016   4.376   1.221  1.00  0.00     0.208 A 
ATOM      3  C   UNL     1       7.959   3.845  -0.078  1.00  0.00     0.238 A 
ATOM      4  O   UNL     1       7.523   2.674  -0.232  1.00  0.00    -0.285 OA
ATOM      5  C   UNL     1       8.415   4.615  -1.175  1.00  0.00     0.111 A 
ATOM      6  C   UNL     1       8.365   4.194  -2.539  1.00  0.00     0.134 A 
ATOM      7  C   UNL     1       8.943   4.997  -3.531  1.00  0.00     0.093 A 
ATOM      8  C   UNL     1       9.511   6.232  -3.218  1.00  0.00     0.123 A 
ATOM      9  C   UNL     1       9.516   6.677  -1.896  1.00  0.00     0.094 A 
ATOM     10  C   UNL     1       8.982   5.882  -0.879  1.00  0.00     0.146 A 
ATOM     11  O   UNL     1       9.027   6.335   0.367  1.00  0.00    -0.452 OA
ENDROOT
BRANCH   1  12
ATOM     12  C   UNL     1       8.685   6.271   2.753  1.00  0.00     0.025 A 
ATOM     13  C   UNL     1       9.826   6.091   3.554  1.00  0.00     0.016 A 
ATOM     14  C   UNL     1       9.914   6.708   4.805  1.00  0.00     0.051 A 
ATOM     15  C   UNL     1       8.873   7.522   5.267  1.00  0.00     0.157 A 
ATOM     16  C   UNL     1       7.653   7.106   3.211  1.00  0.00     0.062 A 
ATOM     17  C   UNL     1       7.741   7.724   4.467  1.00  0.00     0.158 A 
BRANCH  15  18
ATOM     18  O   UNL     1       8.956   8.137   6.515  1.00  0.00    -0.504 OA
ATOM     19  H   UNL     1       8.291   8.845   6.802  1.00  0.00     0.293 HD
ENDBRANCH  15  18
BRANCH  17  20
ATOM     20  O   UNL     1       6.709   8.541   4.925  1.00  0.00    -0.504 OA
ATOM     21  H   UNL     1       6.887   9.478   5.267  1.00  0.00     0.293 HD
ENDBRANCH  17  20
ENDBRANCH   1  12
BRANCH   2  22
ATOM     22  O   UNL     1       7.501   3.664   2.308  1.00  0.00    -0.502 OA
ATOM     23  H   UNL     1       6.534   3.366   2.354  1.00  0.00     0.293 HD
ENDBRANCH   2  22
BRANCH   6  24
ATOM     24  O   UNL     1       7.743   3.021  -2.974  1.00  0.00    -0.507 OA
ATOM     25  H   UNL     1       7.008   2.538  -2.480  1.00  0.00     0.293 HD
ENDBRANCH   6  24
BRANCH   8  26
ATOM     26  O   UNL     1      10.061   7.011  -4.233  1.00  0.00    -0.508 OA
ATOM     27  H   UNL     1       9.610   7.863  -4.550  1.00  0.00     0.293 HD
ENDBRANCH   8  26
TORSDOF 6
ENDMDL
MODEL 3
REMARK VINA RESULT:    -6.956      1.825      7.177
REMARK INTER + INTRA:          -8.706
REMARK INTER:                  -8.513
REMARK INTRA:                  -0.193
REMARK UNBOUND:                -0.326
REMARK SMILES O=c1c(O)c(-c2ccc(O)c(O)c2)oc2cc(O)cc(O)c12
REMARK SMILES IDX 5 1 3 2 2 3 1 4 22 5 20 6 19 7 17 8 16 9 15 10 14 11 6 12
REMARK SMILES IDX 7 13 8 14 9 15 13 16 11 17 10 18 12 20 4 22 21 24 18 26
REMARK H PARENT 10 19 12 21 4 23 21 25 18 27
REMARK Flexibility Score: inf
ROOT
ATOM      1  C   UNL     1       8.691   3.616  -1.821  1.00  0.00     0.180 A 
ATOM      2  C   UNL     1       8.280   2.296  -2.073  1.00  0.00     0.208 A 
ATOM      3  C   UNL     1       8.263   1.828  -3.397  1.00  0.00     0.238 A 
ATOM      4  O   UNL     1       7.965   0.623  -3.606  1.00  0.00    -0.285 OA
ATOM      5  C   UNL     1       8.606   2.701  -4.457  1.00  0.00     0.111 A 
ATOM      6  C   UNL     1       8.583   2.346  -5.841  1.00  0.00     0.134 A 
ATOM      7  C   UNL     1       9.045   3.261  -6.796  1.00  0.00     0.093 A 
ATOM      8  C   UNL     1       9.469   4.537  -6.425  1.00  0.00     0.123 A 
ATOM      9  C   UNL     1       9.444   4.913  -5.082  1.00  0.00     0.094 A 
ATOM     10  C   UNL     1       9.025   4.009  -4.102  1.00  0.00     0.146 A 
ATOM     11  O   UNL     1       9.039   4.401  -2.834  1.00  0.00    -0.452 OA
ENDROOT
BRANCH   1  12
ATOM     12  C   UNL     1       8.748   4.177  -0.452  1.00  0.00     0.025 A 
ATOM     13  C   UNL     1       9.971   4.532   0.144  1.00  0.00     0.016 A 
ATOM     14  C   UNL     1       9.997   5.083   1.428  1.00  0.00     0.051 A 
ATOM     15  C   UNL     1       8.803   5.298   2.129  1.00  0.00     0.157 A 
ATOM     16  C   UNL     1       7.554   4.415   0.247  1.00  0.00     0.062 A 
ATOM     17  C   UNL     1       7.579   4.967   1.536  1.00  0.00     0.158 A 
BRANCH  15  18
ATOM     18  O   UNL     1       8.826   5.845   3.411  1.00  0.00    -0.504 OA
ATOM     19  H   UNL     1       9.238   6.752   3.593  1.00  0.00     0.293 HD
ENDBRANCH  15  18
BRANCH  17  20
ATOM     20  O   UNL     1       6.392   5.189   2.232  1.00  0.00    -0.504 OA
ATOM     21  H   UNL     1       5.511   5.324   1.749  1.00  0.00     0.293 HD
ENDBRANCH  17  20
ENDBRANCH   1  12
BRANCH   2  22
ATOM     22  O   UNL     1       7.872   1.473  -1.018  1.00  0.00    -0.502 OA
ATOM     23  H   UNL     1       8.496   1.199  -0.269  1.00  0.00     0.293 HD
ENDBRANCH   2  22
BRANCH   6  24
ATOM     24  O   UNL     1       8.095   1.131  -6.329  1.00  0.00    -0.507 OA
ATOM     25  H   UNL     1       7.826   0.958  -7.286  1.00  0.00     0.293 HD
ENDBRANCH   6  24
BRANCH   8  26
ATOM     26  O   UNL     1       9.905   5.426  -7.405  1.00  0.00    -0.508 OA
ATOM     27  H   UNL     1      10.876   5.714  -7.465  1.00  0.00     0.293 HD
ENDBRANCH   8  26
TORSDOF 6
ENDMDL
MODEL 4
REMARK VINA RESULT:    -6.746      1.598      6.730
REMARK INTER + INTRA:          -8.452
REMARK INTER:                  -8.224
REMARK INTRA:                  -0.228
REMARK UNBOUND:                -0.326
REMARK SMILES O=c1c(O)c(-c2ccc(O)c(O)c2)oc2cc(O)cc(O)c12
REMARK SMILES IDX 5 1 3 2 2 3 1 4 22 5 20 6 19 7 17 8 16 9 15 10 14 11 6 12
REMARK SMILES IDX 7 13 8 14 9 15 13 16 11 17 10 18 12 20 4 22 21 24 18 26
REMARK H PARENT 10 19 12 21 4 23 21 25 18 27
REMARK Flexibility Score: inf
ROOT
ATOM      1  C   UNL     1       8.948   4.173  -1.730  1.00  0.00     0.180 A 
ATOM      2  C   UNL     1       9.293   5.063  -2.762  1.00  0.00     0.208 A 
ATOM      3  C   UNL     1       9.311   4.596  -4.087  1.00  0.00     0.238 A 
ATOM      4  O   UNL     1       9.549   5.417  -5.012  1.00  0.00    -0.285 OA
ATOM      5  C   UNL     1       9.036   3.234  -4.359  1.00  0.00     0.111 A 
ATOM      6  C   UNL     1       9.068   2.643  -5.658  1.00  0.00     0.134 A 
ATOM      7  C   UNL     1       8.674   1.308  -5.819  1.00  0.00     0.093 A 
ATOM      8  C   UNL     1       8.311   0.527  -4.723  1.00  0.00     0.123 A 
ATOM      9  C   UNL     1       8.329   1.079  -3.442  1.00  0.00     0.094 A 
ATOM     10  C   UNL     1       8.680   2.418  -3.254  1.00  0.00     0.146 A 
ATOM     11  O   UNL     1       8.662   2.908  -2.020  1.00  0.00    -0.452 OA
ENDROOT
BRANCH   1  12
ATOM     12  C   UNL     1       8.893   4.593  -0.312  1.00  0.00     0.025 A 
ATOM     13  C   UNL     1      10.063   4.893   0.408  1.00  0.00     0.016 A 
ATOM     14  C   UNL     1       9.984   5.313   1.739  1.00  0.00     0.051 A 
ATOM     15  C   UNL     1       8.738   5.449   2.365  1.00  0.00     0.157 A 
ATOM     16  C   UNL     1       7.646   4.753   0.313  1.00  0.00     0.062 A 
ATOM     17  C   UNL     1       7.567   5.172   1.649  1.00  0.00     0.158 A 
BRANCH  15  18
ATOM     18  O   UNL     1       8.656   5.864   3.693  1.00  0.00    -0.504 OA
ATOM     19  H   UNL     1       7.844   5.660   4.262  1.00  0.00     0.293 HD
ENDBRANCH  15  18
BRANCH  17  20
ATOM     20  O   UNL     1       6.328   5.317   2.271  1.00  0.00    -0.504 OA
ATOM     21  H   UNL     1       6.246   5.397   3.278  1.00  0.00     0.293 HD
ENDBRANCH  17  20
ENDBRANCH   1  12
BRANCH   2  22
ATOM     22  O   UNL     1       9.637   6.385  -2.465  1.00  0.00    -0.502 OA
ATOM     23  H   UNL     1       9.161   7.177  -2.881  1.00  0.00     0.293 HD
ENDBRANCH   2  22
BRANCH   6  24
ATOM     24  O   UNL     1       9.500   3.307  -6.810  1.00  0.00    -0.507 OA
ATOM     25  H   UNL     1      10.461   3.520  -7.029  1.00  0.00     0.293 HD
ENDBRANCH   6  24
BRANCH   8  26
ATOM     26  O   UNL     1       7.942  -0.802  -4.920  1.00  0.00    -0.508 OA
ATOM     27  H   UNL     1       8.466  -1.411  -5.539  1.00  0.00     0.293 HD
ENDBRANCH   8  26
TORSDOF 6
ENDMDL
MODEL 5
REMARK VINA RESULT:    -6.298      3.131      5.618
REMARK INTER + INTRA:          -7.913
REMARK INTER:                  -7.947
REMARK INTRA:                   0.034
REMARK UNBOUND:                -0.326
REMARK SMILES O=c1c(O)c(-c2ccc(O)c(O)c2)oc2cc(O)cc(O)c12
REMARK SMILES IDX 5 1 3 2 2 3 1 4 22 5 20 6 19 7 17 8 16 9 15 10 14 11 6 12
REMARK SMILES IDX 7 13 8 14 9 15 13 16 11 17 10 18 12 20 4 22 21 24 18 26
REMARK H PARENT 10 19 12 21 4 23 21 25 18 27
REMARK Flexibility Score: inf
ROOT
ATOM      1  C   UNL     1       8.160   5.517   1.318  1.00  0.00     0.180 A 
ATOM      2  C   UNL     1       9.152   6.456   1.648  1.00  0.00     0.208 A 
ATOM      3  C   UNL     1       9.136   7.046   2.922  1.00  0.00     0.238 A 
ATOM      4  O   UNL     1      10.070   7.829   3.236  1.00  0.00    -0.285 OA
ATOM      5  C   UNL     1       8.097   6.731   3.831  1.00  0.00     0.111 A 
ATOM      6  C   UNL     1       7.957   7.302   5.133  1.00  0.00     0.134 A 
ATOM      7  C   UNL     1       6.949   6.835   5.987  1.00  0.00     0.093 A 
ATOM      8  C   UNL     1       6.039   5.866   5.565  1.00  0.00     0.123 A 
ATOM      9  C   UNL     1       6.133   5.342   4.276  1.00  0.00     0.094 A 
ATOM     10  C   UNL     1       7.151   5.759   3.414  1.00  0.00     0.146 A 
ATOM     11  O   UNL     1       7.217   5.217   2.204  1.00  0.00    -0.452 OA
ENDROOT
BRANCH   1  12
ATOM     12  C   UNL     1       8.118   4.843   0.000  1.00  0.00     0.025 A 
ATOM     13  C   UNL     1       8.240   5.568  -1.198  1.00  0.00     0.016 A 
ATOM     14  C   UNL     1       8.223   4.906  -2.428  1.00  0.00     0.051 A 
ATOM     15  C   UNL     1       8.098   3.512  -2.479  1.00  0.00     0.157 A 
ATOM     16  C   UNL     1       8.015   3.443  -0.056  1.00  0.00     0.062 A 
ATOM     17  C   UNL     1       7.997   2.779  -1.291  1.00  0.00     0.158 A 
BRANCH  15  18
ATOM     18  O   UNL     1       8.078   2.849  -3.705  1.00  0.00    -0.504 OA
ATOM     19  H   UNL     1       8.792   2.173  -3.953  1.00  0.00     0.293 HD
ENDBRANCH  15  18
BRANCH  17  20
ATOM     20  O   UNL     1       7.880   1.391  -1.343  1.00  0.00    -0.504 OA
ATOM     21  H   UNL     1       7.124   0.941  -1.846  1.00  0.00     0.293 HD
ENDBRANCH  17  20
ENDBRANCH   1  12
BRANCH   2  22
ATOM     22  O   UNL     1      10.125   6.811   0.708  1.00  0.00    -0.502 OA
ATOM     23  H   UNL     1       9.909   7.353  -0.120  1.00  0.00     0.293 HD
ENDBRANCH   2  22
BRANCH   6  24
ATOM     24  O   UNL     1       8.756   8.338   5.624  1.00  0.00    -0.507 OA
ATOM     25  H   UNL     1       8.411   9.220   5.972  1.00  0.00     0.293 HD
ENDBRANCH   6  24
BRANCH   8  26
ATOM     26  O   UNL     1       5.039   5.439   6.435  1.00  0.00    -0.508 OA
ATOM     27  H   UNL     1       5.232   5.254   7.413  1.00  0.00     0.293 HD
ENDBRANCH   8  26
TORSDOF 6
ENDMDL
MODEL 6
REMARK VINA RESULT:    -6.275      1.333      2.955
REMARK INTER + INTRA:          -7.885
REMARK INTER:                  -7.564
REMARK INTRA:                  -0.322
REMARK UNBOUND:                -0.326
REMARK SMILES O=c1c(O)c(-c2ccc(O)c(O)c2)oc2cc(O)cc(O)c12
REMARK SMILES IDX 5 1 3 2 2 3 1 4 22 5 20 6 19 7 17 8 16 9 15 10 14 11 6 12
REMARK SMILES IDX 7 13 8 14 9 15 13 16 11 17 10 18 12 20 4 22 21 24 18 26
REMARK H PARENT 10 19 12 21 4 23 21 25 18 27
REMARK Flexibility Score: inf
ROOT
ATOM      1  C   UNL     1       8.727   3.217  -2.699  1.00  0.00     0.180 A 
ATOM      2  C   UNL     1       8.293   2.627  -1.499  1.00  0.00     0.208 A 
ATOM      3  C   UNL     1       8.312   3.389  -0.319  1.00  0.00     0.238 A 
ATOM      4  O   UNL     1       7.853   2.878   0.736  1.00  0.00    -0.285 OA
ATOM      5  C   UNL     1       8.813   4.713  -0.343  1.00  0.00     0.111 A 
ATOM      6  C   UNL     1       8.919   5.562   0.801  1.00  0.00     0.134 A 
ATOM      7  C   UNL     1       9.332   6.891   0.639  1.00  0.00     0.093 A 
ATOM      8  C   UNL     1       9.703   7.382  -0.612  1.00  0.00     0.123 A 
ATOM      9  C   UNL     1       9.655   6.546  -1.727  1.00  0.00     0.094 A 
ATOM     10  C   UNL     1       9.211   5.227  -1.604  1.00  0.00     0.146 A 
ATOM     11  O   UNL     1       9.161   4.472  -2.695  1.00  0.00    -0.452 OA
ENDROOT
BRANCH   1  12
ATOM     12  C   UNL     1       8.724   2.483  -3.985  1.00  0.00     0.025 A 
ATOM     13  C   UNL     1       9.847   1.754  -4.414  1.00  0.00     0.016 A 
ATOM     14  C   UNL     1       9.810   1.049  -5.620  1.00  0.00     0.051 A 
ATOM     15  C   UNL     1       8.651   1.051  -6.406  1.00  0.00     0.157 A 
ATOM     16  C   UNL     1       7.557   2.464  -4.766  1.00  0.00     0.062 A 
ATOM     17  C   UNL     1       7.521   1.757  -5.976  1.00  0.00     0.158 A 
BRANCH  15  18
ATOM     18  O   UNL     1       8.612   0.350  -7.610  1.00  0.00    -0.504 OA
ATOM     19  H   UNL     1       8.003  -0.449  -7.739  1.00  0.00     0.293 HD
ENDBRANCH  15  18
BRANCH  17  20
ATOM     20  O   UNL     1       6.365   1.751  -6.756  1.00  0.00    -0.504 OA
ATOM     21  H   UNL     1       5.884   0.889  -6.984  1.00  0.00     0.293 HD
ENDBRANCH  17  20
ENDBRANCH   1  12
BRANCH   2  22
ATOM     22  O   UNL     1       7.874   1.294  -1.482  1.00  0.00    -0.502 OA
ATOM     23  H   UNL     1       8.294   0.599  -0.876  1.00  0.00     0.293 HD
ENDBRANCH   2  22
BRANCH   6  24
ATOM     24  O   UNL     1       8.660   5.147   2.110  1.00  0.00    -0.507 OA
ATOM     25  H   UNL     1       9.329   5.161   2.865  1.00  0.00     0.293 HD
ENDBRANCH   6  24
BRANCH   8  26
ATOM     26  O   UNL     1      10.125   8.704  -0.732  1.00  0.00    -0.508 OA
ATOM     27  H   UNL     1      10.370   9.103  -1.632  1.00  0.00     0.293 HD
ENDBRANCH   8  26
TORSDOF 6
ENDMDL
MODEL 7
REMARK VINA RESULT:    -6.029      2.339      4.759
REMARK INTER + INTRA:          -7.589
REMARK INTER:                  -8.012
REMARK INTRA:                   0.423
REMARK UNBOUND:                -0.326
REMARK SMILES O=c1c(O)c(-c2ccc(O)c(O)c2)oc2cc(O)cc(O)c12
REMARK SMILES IDX 5 1 3 2 2 3 1 4 22 5 20 6 19 7 17 8 16 9 15 10 14 11 6 12
REMARK SMILES IDX 7 13 8 14 9 15 13 16 11 17 10 18 12 20 4 22 21 24 18 26
REMARK H PARENT 10 19 12 21 4 23 21 25 18 27
REMARK Flexibility Score: inf
ROOT
ATOM      1  C   UNL     1       8.540   5.100  -0.284  1.00  0.00     0.180 A 
ATOM      2  C   UNL     1       7.750   4.350   0.605  1.00  0.00     0.208 A 
ATOM      3  C   UNL     1       7.578   4.812   1.920  1.00  0.00     0.238 A 
ATOM      4  O   UNL     1       6.810   4.174   2.687  1.00  0.00    -0.285 OA
ATOM      5  C   UNL     1       8.241   5.988   2.346  1.00  0.00     0.111 A 
ATOM      6  C   UNL     1       8.173   6.525   3.668  1.00  0.00     0.134 A 
ATOM      7  C   UNL     1       8.785   7.753   3.947  1.00  0.00     0.093 A 
ATOM      8  C   UNL     1       9.515   8.433   2.972  1.00  0.00     0.123 A 
ATOM      9  C   UNL     1       9.633   7.890   1.692  1.00  0.00     0.094 A 
ATOM     10  C   UNL     1       9.002   6.686   1.372  1.00  0.00     0.146 A 
ATOM     11  O   UNL     1       9.123   6.217   0.136  1.00  0.00    -0.452 OA
ENDROOT
BRANCH   1  12
ATOM     12  C   UNL     1       8.757   4.685  -1.689  1.00  0.00     0.025 A 
ATOM     13  C   UNL     1       9.886   5.110  -2.412  1.00  0.00     0.016 A 
ATOM     14  C   UNL     1      10.081   4.684  -3.728  1.00  0.00     0.051 A 
ATOM     15  C   UNL     1       9.161   3.821  -4.336  1.00  0.00     0.157 A 
ATOM     16  C   UNL     1       7.849   3.802  -2.295  1.00  0.00     0.062 A 
ATOM     17  C   UNL     1       8.045   3.376  -3.617  1.00  0.00     0.158 A 
BRANCH  15  18
ATOM     18  O   UNL     1       9.351   3.397  -5.650  1.00  0.00    -0.504 OA
ATOM     19  H   UNL     1       8.625   2.908  -6.160  1.00  0.00     0.293 HD
ENDBRANCH  15  18
BRANCH  17  20
ATOM     20  O   UNL     1       7.134   2.510  -4.221  1.00  0.00    -0.504 OA
ATOM     21  H   UNL     1       6.673   1.776  -3.697  1.00  0.00     0.293 HD
ENDBRANCH  17  20
ENDBRANCH   1  12
BRANCH   2  22
ATOM     22  O   UNL     1       7.167   3.150   0.186  1.00  0.00    -0.502 OA
ATOM     23  H   UNL     1       7.295   2.279   0.687  1.00  0.00     0.293 HD
ENDBRANCH   2  22
BRANCH   6  24
ATOM     24  O   UNL     1       7.546   5.885   4.741  1.00  0.00    -0.507 OA
ATOM     25  H   UNL     1       7.913   5.836   5.680  1.00  0.00     0.293 HD
ENDBRANCH   6  24
BRANCH   8  26
ATOM     26  O   UNL     1      10.125   9.644   3.290  1.00  0.00    -0.508 OA
ATOM     27  H   UNL     1       9.881  10.502   2.809  1.00  0.00     0.293 HD
ENDBRANCH   8  26
TORSDOF 6
ENDMDL
MODEL 8
REMARK VINA RESULT:    -5.998      2.934      8.222
REMARK INTER + INTRA:          -7.551
REMARK INTER:                  -7.298
REMARK INTRA:                  -0.253
REMARK UNBOUND:                -0.326
REMARK SMILES O=c1c(O)c(-c2ccc(O)c(O)c2)oc2cc(O)cc(O)c12
REMARK SMILES IDX 5 1 3 2 2 3 1 4 22 5 20 6 19 7 17 8 16 9 15 10 14 11 6 12
REMARK SMILES IDX 7 13 8 14 9 15 13 16 11 17 10 18 12 20 4 22 21 24 18 26
REMARK H PARENT 10 19 12 21 4 23 21 25 18 27
REMARK Flexibility Score: inf
ROOT
ATOM      1  C   UNL     1       8.962   5.756   1.572  1.00  0.00     0.180 A 
ATOM      2  C   UNL     1       9.378   6.649   0.569  1.00  0.00     0.208 A 
ATOM      3  C   UNL     1       9.377   6.221  -0.768  1.00  0.00     0.238 A 
ATOM      4  O   UNL     1       9.680   7.049  -1.667  1.00  0.00    -0.285 OA
ATOM      5  C   UNL     1       9.013   4.889  -1.082  1.00  0.00     0.111 A 
ATOM      6  C   UNL     1       9.018   4.334  -2.398  1.00  0.00     0.134 A 
ATOM      7  C   UNL     1       8.535   3.035  -2.601  1.00  0.00     0.093 A 
ATOM      8  C   UNL     1       8.108   2.249  -1.532  1.00  0.00     0.123 A 
ATOM      9  C   UNL     1       8.151   2.762  -0.235  1.00  0.00     0.094 A 
ATOM     10  C   UNL     1       8.591   4.068  -0.004  1.00  0.00     0.146 A 
ATOM     11  O   UNL     1       8.594   4.523   1.243  1.00  0.00    -0.452 OA
ENDROOT
BRANCH   1  12
ATOM     12  C   UNL     1       8.922   6.138   3.002  1.00  0.00     0.025 A 
ATOM     13  C   UNL     1      10.101   6.277   3.755  1.00  0.00     0.016 A 
ATOM     14  C   UNL     1      10.038   6.664   5.097  1.00  0.00     0.051 A 
ATOM     15  C   UNL     1       8.802   6.928   5.700  1.00  0.00     0.157 A 
ATOM     16  C   UNL     1       7.687   6.425   3.605  1.00  0.00     0.062 A 
ATOM     17  C   UNL     1       7.624   6.812   4.951  1.00  0.00     0.158 A 
BRANCH  15  18
ATOM     18  O   UNL     1       8.736   7.311   7.038  1.00  0.00    -0.504 OA
ATOM     19  H   UNL     1       8.009   6.965   7.653  1.00  0.00     0.293 HD
ENDBRANCH  15  18
BRANCH  17  20
ATOM     20  O   UNL     1       6.395   7.083   5.551  1.00  0.00    -0.504 OA
ATOM     21  H   UNL     1       6.291   7.106   6.559  1.00  0.00     0.293 HD
ENDBRANCH  17  20
ENDBRANCH   1  12
BRANCH   2  22
ATOM     22  O   UNL     1       9.808   7.936   0.908  1.00  0.00    -0.502 OA
ATOM     23  H   UNL     1       9.857   8.257   1.867  1.00  0.00     0.293 HD
ENDBRANCH   2  22
BRANCH   6  24
ATOM     24  O   UNL     1       9.506   5.000  -3.526  1.00  0.00    -0.507 OA
ATOM     25  H   UNL     1       9.065   5.793  -3.966  1.00  0.00     0.293 HD
ENDBRANCH   6  24
BRANCH   8  26
ATOM     26  O   UNL     1       7.652   0.955  -1.770  1.00  0.00    -0.508 OA
ATOM     27  H   UNL     1       7.038   0.745  -2.550  1.00  0.00     0.293 HD
ENDBRANCH   8  26
TORSDOF 6
ENDMDL
MODEL 9
REMARK VINA RESULT:    -5.970      5.965      8.986
REMARK INTER + INTRA:          -7.518
REMARK INTER:                  -7.989
REMARK INTRA:                   0.471
REMARK UNBOUND:                -0.326
REMARK SMILES O=c1c(O)c(-c2ccc(O)c(O)c2)oc2cc(O)cc(O)c12
REMARK SMILES IDX 5 1 3 2 2 3 1 4 22 5 20 6 19 7 17 8 16 9 15 10 14 11 6 12
REMARK SMILES IDX 7 13 8 14 9 15 13 16 11 17 10 18 12 20 4 22 21 24 18 26
REMARK H PARENT 10 19 12 21 4 23 21 25 18 27
REMARK Flexibility Score: inf
ROOT
ATOM      1  C   UNL     1       4.223   1.490  -8.959  1.00  0.00     0.180 A 
ATOM      2  C   UNL     1       3.858   0.207  -9.402  1.00  0.00     0.208 A 
ATOM      3  C   UNL     1       4.709  -0.876  -9.129  1.00  0.00     0.238 A 
ATOM      4  O   UNL     1       4.339  -2.032  -9.463  1.00  0.00    -0.285 OA
ATOM      5  C   UNL     1       5.939  -0.656  -8.464  1.00  0.00     0.111 A 
ATOM      6  C   UNL     1       6.899  -1.674  -8.173  1.00  0.00     0.134 A 
ATOM      7  C   UNL     1       8.034  -1.356  -7.416  1.00  0.00     0.093 A 
ATOM      8  C   UNL     1       8.276  -0.050  -6.994  1.00  0.00     0.123 A 
ATOM      9  C   UNL     1       7.373   0.962  -7.319  1.00  0.00     0.094 A 
ATOM     10  C   UNL     1       6.212   0.670  -8.040  1.00  0.00     0.146 A 
ATOM     11  O   UNL     1       5.369   1.660  -8.308  1.00  0.00    -0.452 OA
ENDROOT
BRANCH   1  12
ATOM     12  C   UNL     1       3.373   2.679  -9.196  1.00  0.00     0.025 A 
ATOM     13  C   UNL     1       2.180   2.589  -9.935  1.00  0.00     0.016 A 
ATOM     14  C   UNL     1       1.382   3.721 -10.124  1.00  0.00     0.051 A 
ATOM     15  C   UNL     1       1.755   4.951  -9.569  1.00  0.00     0.157 A 
ATOM     16  C   UNL     1       3.732   3.909  -8.624  1.00  0.00     0.062 A 
ATOM     17  C   UNL     1       2.931   5.045  -8.815  1.00  0.00     0.158 A 
BRANCH  15  18
ATOM     18  O   UNL     1       0.963   6.082  -9.758  1.00  0.00    -0.504 OA
ATOM     19  H   UNL     1       1.276   6.860 -10.327  1.00  0.00     0.293 HD
ENDBRANCH  15  18
BRANCH  17  20
ATOM     20  O   UNL     1       3.297   6.269  -8.256  1.00  0.00    -0.504 OA
ATOM     21  H   UNL     1       2.606   6.910  -7.886  1.00  0.00     0.293 HD
ENDBRANCH  17  20
ENDBRANCH   1  12
BRANCH   2  22
ATOM     22  O   UNL     1       2.675   0.023 -10.124  1.00  0.00    -0.502 OA
ATOM     23  H   UNL     1       1.831   0.548  -9.928  1.00  0.00     0.293 HD
ENDBRANCH   2  22
BRANCH   6  24
ATOM     24  O   UNL     1       6.801  -2.994  -8.623  1.00  0.00    -0.507 OA
ATOM     25  H   UNL     1       6.738  -3.805  -8.027  1.00  0.00     0.293 HD
ENDBRANCH   6  24
BRANCH   8  26
ATOM     26  O   UNL     1       9.425   0.231  -6.258  1.00  0.00    -0.508 OA
ATOM     27  H   UNL     1       9.645  -0.274  -5.407  1.00  0.00     0.293 HD
ENDBRANCH   8  26
TORSDOF 6
ENDMDL
