MODEL 1
REMARK VINA RESULT:    -3.568      0.000      0.000
REMARK INTER + INTRA:          -6.528
REMARK INTER:                  -5.654
REMARK INTRA:                  -0.874
REMARK UNBOUND:                -0.874
REMARK SMILES CCCCCCCCCCCC(=O)[O-]
REMARK SMILES IDX 7 1 8 2 9 3 10 4 11 5 12 6 13 7 14 8 6 9 5 10 4 11 3 12 2 13
REMARK SMILES IDX 1 14
REMARK H PARENT
REMARK Flexibility Score: inf
ROOT
ATOM      1  C   UNL     1     -16.084 -15.963   6.052  1.00  0.00     0.000 C 
ENDROOT
BRANCH   1   2
ATOM      2  C   UNL     1     -15.637 -15.175   4.811  1.00  0.00     0.000 C 
BRANCH   2   3
ATOM      3  C   UNL     1     -14.233 -14.591   5.010  1.00  0.00     0.000 C 
BRANCH   3   4
ATOM      4  C   UNL     1     -14.305 -13.122   5.452  1.00  0.00     0.006 C 
BRANCH   4   5
ATOM      5  C   UNL     1     -12.951 -12.411   5.327  1.00  0.00     0.053 C 
BRANCH   5   6
ATOM      6  C   UNL     1     -12.817 -11.700   4.016  1.00  0.00     0.041 C 
ATOM      7  O   UNL     1     -13.000 -10.456   3.947  1.00  0.00    -0.550 OA
ATOM      8  O   UNL     1     -12.456 -12.405   2.876  1.00  0.00    -0.550 OA
ENDBRANCH   5   6
ENDBRANCH   4   5
ENDBRANCH   3   4
ENDBRANCH   2   3
ENDBRANCH   1   2
BRANCH   1   9
ATOM      9  C   UNL     1     -15.901 -17.481   5.891  1.00  0.00     0.000 C 
BRANCH   9  10
ATOM     10  C   UNL     1     -14.832 -18.051   6.838  1.00  0.00    -0.000 C 
BRANCH  10  11
ATOM     11  C   UNL     1     -13.873 -19.022   6.130  1.00  0.00    -0.000 C 
BRANCH  11  12
ATOM     12  C   UNL     1     -13.773 -18.756   4.618  1.00  0.00    -0.000 C 
BRANCH  12  13
ATOM     13  C   UNL     1     -12.471 -18.035   4.232  1.00  0.00    -0.003 C 
ATOM     14  C   UNL     1     -11.261 -18.530   5.025  1.00  0.00     0.004 C 
ENDBRANCH  12  13
ENDBRANCH  11  12
ENDBRANCH  10  11
ENDBRANCH   9  10
ENDBRANCH   1   9
TORSDOF 10
ENDMDL
MODEL 2
REMARK VINA RESULT:    -3.544      2.599      5.635
REMARK INTER + INTRA:          -6.490
REMARK INTER:                  -5.653
REMARK INTRA:                  -0.836
REMARK UNBOUND:                -0.874
REMARK SMILES CCCCCCCCCCCC(=O)[O-]
REMARK SMILES IDX 7 1 8 2 9 3 10 4 11 5 12 6 13 7 14 8 6 9 5 10 4 11 3 12 2 13
REMARK SMILES IDX 1 14
REMARK H PARENT
REMARK Flexibility Score: inf
ROOT
ATOM      1  C   UNL     1     -15.389 -16.283   4.978  1.00  0.00     0.000 C 
ENDROOT
BRANCH   1   2
ATOM      2  C   UNL     1     -15.714 -16.688   6.424  1.00  0.00     0.000 C 
BRANCH   2   3
ATOM      3  C   UNL     1     -15.045 -18.021   6.783  1.00  0.00     0.000 C 
BRANCH   3   4
ATOM      4  C   UNL     1     -14.459 -18.697   5.535  1.00  0.00     0.006 C 
BRANCH   4   5
ATOM      5  C   UNL     1     -13.023 -19.188   5.761  1.00  0.00     0.053 C 
BRANCH   5   6
ATOM      6  C   UNL     1     -12.048 -18.482   4.869  1.00  0.00     0.041 C 
ATOM      7  O   UNL     1     -12.447 -17.909   3.821  1.00  0.00    -0.550 OA
ATOM      8  O   UNL     1     -10.704 -18.428   5.214  1.00  0.00    -0.550 OA
ENDBRANCH   5   6
ENDBRANCH   4   5
ENDBRANCH   3   4
ENDBRANCH   2   3
ENDBRANCH   1   2
BRANCH   1   9
ATOM      9  C   UNL     1     -14.579 -14.979   4.894  1.00  0.00     0.000 C 
BRANCH   9  10
ATOM     10  C   UNL     1     -15.447 -13.728   5.112  1.00  0.00    -0.000 C 
BRANCH  10  11
ATOM     11  C   UNL     1     -14.672 -12.580   5.778  1.00  0.00    -0.000 C 
BRANCH  11  12
ATOM     12  C   UNL     1     -13.171 -12.606   5.439  1.00  0.00    -0.000 C 
BRANCH  12  13
ATOM     13  C   UNL     1     -12.815 -11.671   4.272  1.00  0.00    -0.003 C 
ATOM     14  C   UNL     1     -12.759 -12.395   2.927  1.00  0.00     0.004 C 
ENDBRANCH  12  13
ENDBRANCH  11  12
ENDBRANCH  10  11
ENDBRANCH   9  10
ENDBRANCH   1   9
TORSDOF 10
ENDMDL
MODEL 3
REMARK VINA RESULT:    -3.457      1.548      1.924
REMARK INTER + INTRA:          -6.352
REMARK INTER:                  -5.433
REMARK INTRA:                  -0.918
REMARK UNBOUND:                -0.874
REMARK SMILES CCCCCCCCCCCC(=O)[O-]
REMARK SMILES IDX 7 1 8 2 9 3 10 4 11 5 12 6 13 7 14 8 6 9 5 10 4 11 3 12 2 13
REMARK SMILES IDX 1 14
REMARK H PARENT
REMARK Flexibility Score: inf
ROOT
ATOM      1  C   UNL     1     -14.244 -15.476   4.677  1.00  0.00     0.000 C 
ENDROOT
BRANCH   1   2
ATOM      2  C   UNL     1     -14.123 -15.994   3.235  1.00  0.00     0.000 C 
BRANCH   2   3
ATOM      3  C   UNL     1     -13.376 -14.986   2.352  1.00  0.00     0.000 C 
BRANCH   3   4
ATOM      4  C   UNL     1     -13.844 -13.551   2.637  1.00  0.00     0.006 C 
BRANCH   4   5
ATOM      5  C   UNL     1     -12.668 -12.582   2.817  1.00  0.00     0.053 C 
BRANCH   5   6
ATOM      6  C   UNL     1     -12.838 -11.722   4.031  1.00  0.00     0.041 C 
ATOM      7  O   UNL     1     -12.836 -12.237   5.179  1.00  0.00    -0.550 OA
ATOM      8  O   UNL     1     -12.967 -10.346   3.895  1.00  0.00    -0.550 OA
ENDBRANCH   5   6
ENDBRANCH   4   5
ENDBRANCH   3   4
ENDBRANCH   2   3
ENDBRANCH   1   2
BRANCH   1   9
ATOM      9  C   UNL     1     -15.057 -16.418   5.580  1.00  0.00     0.000 C 
BRANCH   9  10
ATOM     10  C   UNL     1     -14.920 -17.894   5.169  1.00  0.00    -0.000 C 
BRANCH  10  11
ATOM     11  C   UNL     1     -13.977 -18.680   6.095  1.00  0.00    -0.000 C 
BRANCH  11  12
ATOM     12  C   UNL     1     -13.051 -19.636   5.322  1.00  0.00    -0.000 C 
BRANCH  12  13
ATOM     13  C   UNL     1     -12.031 -18.889   4.447  1.00  0.00    -0.003 C 
ATOM     14  C   UNL     1     -10.793 -18.445   5.226  1.00  0.00     0.004 C 
ENDBRANCH  12  13
ENDBRANCH  11  12
ENDBRANCH  10  11
ENDBRANCH   9  10
ENDBRANCH   1   9
TORSDOF 10
ENDMDL
MODEL 4
REMARK VINA RESULT:    -3.444      3.340      6.220
REMARK INTER + INTRA:          -6.330
REMARK INTER:                  -5.093
REMARK INTRA:                  -1.238
REMARK UNBOUND:                -0.874
REMARK SMILES CCCCCCCCCCCC(=O)[O-]
REMARK SMILES IDX 7 1 8 2 9 3 10 4 11 5 12 6 13 7 14 8 6 9 5 10 4 11 3 12 2 13
REMARK SMILES IDX 1 14
REMARK H PARENT
REMARK Flexibility Score: inf
ROOT
ATOM      1  C   UNL     1     -12.919 -14.817   1.695  1.00  0.00     0.000 C 
ENDROOT
BRANCH   1   2
ATOM      2  C   UNL     1     -14.345 -14.883   2.263  1.00  0.00     0.000 C 
BRANCH   2   3
ATOM      3  C   UNL     1     -14.593 -16.222   2.967  1.00  0.00     0.000 C 
BRANCH   3   4
ATOM      4  C   UNL     1     -13.436 -16.569   3.916  1.00  0.00     0.006 C 
BRANCH   4   5
ATOM      5  C   UNL     1     -12.896 -17.985   3.681  1.00  0.00     0.053 C 
BRANCH   5   6
ATOM      6  C   UNL     1     -12.281 -18.558   4.921  1.00  0.00     0.041 C 
ATOM      7  O   UNL     1     -11.038 -18.477   5.108  1.00  0.00    -0.550 OA
ATOM      8  O   UNL     1     -13.084 -19.152   5.884  1.00  0.00    -0.550 OA
ENDBRANCH   5   6
ENDBRANCH   4   5
ENDBRANCH   3   4
ENDBRANCH   2   3
ENDBRANCH   1   2
BRANCH   1   9
ATOM      9  C   UNL     1     -12.366 -13.383   1.641  1.00  0.00     0.000 C 
BRANCH   9  10
ATOM     10  C   UNL     1     -13.225 -12.389   2.441  1.00  0.00    -0.000 C 
BRANCH  10  11
ATOM     11  C   UNL     1     -12.544 -11.934   3.742  1.00  0.00    -0.000 C 
BRANCH  11  12
ATOM     12  C   UNL     1     -13.525 -11.846   4.924  1.00  0.00    -0.000 C 
BRANCH  12  13
ATOM     13  C   UNL     1     -13.787 -13.214   5.574  1.00  0.00    -0.003 C 
ATOM     14  C   UNL     1     -15.272 -13.579   5.612  1.00  0.00     0.004 C 
ENDBRANCH  12  13
ENDBRANCH  11  12
ENDBRANCH  10  11
ENDBRANCH   9  10
ENDBRANCH   1   9
TORSDOF 10
ENDMDL
MODEL 5
REMARK VINA RESULT:    -3.418      3.261      5.841
REMARK INTER + INTRA:          -6.289
REMARK INTER:                  -5.291
REMARK INTRA:                  -0.998
REMARK UNBOUND:                -0.874
REMARK SMILES CCCCCCCCCCCC(=O)[O-]
REMARK SMILES IDX 7 1 8 2 9 3 10 4 11 5 12 6 13 7 14 8 6 9 5 10 4 11 3 12 2 13
REMARK SMILES IDX 1 14
REMARK H PARENT
REMARK Flexibility Score: inf
ROOT
ATOM      1  C   UNL     1     -15.312 -15.125   4.777  1.00  0.00     0.000 C 
ENDROOT
BRANCH   1   2
ATOM      2  C   UNL     1     -13.909 -15.701   4.531  1.00  0.00     0.000 C 
BRANCH   2   3
ATOM      3  C   UNL     1     -13.846 -16.434   3.185  1.00  0.00     0.000 C 
BRANCH   3   4
ATOM      4  C   UNL     1     -13.866 -17.957   3.386  1.00  0.00     0.006 C 
BRANCH   4   5
ATOM      5  C   UNL     1     -12.454 -18.549   3.475  1.00  0.00     0.053 C 
BRANCH   5   6
ATOM      6  C   UNL     1     -11.999 -18.690   4.895  1.00  0.00     0.041 C 
ATOM      7  O   UNL     1     -12.804 -19.078   5.783  1.00  0.00    -0.550 OA
ATOM      8  O   UNL     1     -10.679 -18.426   5.232  1.00  0.00    -0.550 OA
ENDBRANCH   5   6
ENDBRANCH   4   5
ENDBRANCH   3   4
ENDBRANCH   2   3
ENDBRANCH   1   2
BRANCH   1   9
ATOM      9  C   UNL     1     -15.278 -13.676   5.290  1.00  0.00     0.000 C 
BRANCH   9  10
ATOM     10  C   UNL     1     -13.847 -13.175   5.551  1.00  0.00    -0.000 C 
BRANCH  10  11
ATOM     11  C   UNL     1     -13.597 -11.774   4.969  1.00  0.00    -0.000 C 
BRANCH  11  12
ATOM     12  C   UNL     1     -12.587 -11.787   3.808  1.00  0.00    -0.000 C 
BRANCH  12  13
ATOM     13  C   UNL     1     -13.216 -12.259   2.487  1.00  0.00    -0.003 C 
ATOM     14  C   UNL     1     -12.363 -13.301   1.763  1.00  0.00     0.004 C 
ENDBRANCH  12  13
ENDBRANCH  11  12
ENDBRANCH  10  11
ENDBRANCH   9  10
ENDBRANCH   1   9
TORSDOF 10
ENDMDL
MODEL 6
REMARK VINA RESULT:    -3.404      3.125      5.972
REMARK INTER + INTRA:          -6.267
REMARK INTER:                  -5.306
REMARK INTRA:                  -0.961
REMARK UNBOUND:                -0.874
REMARK SMILES CCCCCCCCCCCC(=O)[O-]
REMARK SMILES IDX 7 1 8 2 9 3 10 4 11 5 12 6 13 7 14 8 6 9 5 10 4 11 3 12 2 13
REMARK SMILES IDX 1 14
REMARK H PARENT
REMARK Flexibility Score: inf
ROOT
ATOM      1  C   UNL     1     -14.571 -13.532   4.994  1.00  0.00     0.000 C 
ENDROOT
BRANCH   1   2
ATOM      2  C   UNL     1     -14.174 -14.959   4.587  1.00  0.00     0.000 C 
BRANCH   2   3
ATOM      3  C   UNL     1     -15.031 -15.998   5.321  1.00  0.00     0.000 C 
BRANCH   3   4
ATOM      4  C   UNL     1     -14.553 -17.424   5.013  1.00  0.00     0.006 C 
BRANCH   4   5
ATOM      5  C   UNL     1     -13.169 -17.443   4.352  1.00  0.00     0.053 C 
BRANCH   5   6
ATOM      6  C   UNL     1     -12.346 -18.603   4.819  1.00  0.00     0.041 C 
ATOM      7  O   UNL     1     -12.852 -19.754   4.885  1.00  0.00    -0.550 OA
ATOM      8  O   UNL     1     -11.009 -18.421   5.149  1.00  0.00    -0.550 OA
ENDBRANCH   5   6
ENDBRANCH   4   5
ENDBRANCH   3   4
ENDBRANCH   2   3
ENDBRANCH   1   2
BRANCH   1   9
ATOM      9  C   UNL     1     -13.369 -12.687   5.445  1.00  0.00     0.000 C 
BRANCH   9  10
ATOM     10  C   UNL     1     -12.720 -11.916   4.282  1.00  0.00    -0.000 C 
BRANCH  10  11
ATOM     11  C   UNL     1     -13.743 -11.476   3.222  1.00  0.00    -0.000 C 
BRANCH  11  12
ATOM     12  C   UNL     1     -13.422 -12.035   1.824  1.00  0.00    -0.000 C 
BRANCH  12  13
ATOM     13  C   UNL     1     -12.256 -13.037   1.844  1.00  0.00    -0.003 C 
ATOM     14  C   UNL     1     -12.633 -14.398   1.259  1.00  0.00     0.004 C 
ENDBRANCH  12  13
ENDBRANCH  11  12
ENDBRANCH  10  11
ENDBRANCH   9  10
ENDBRANCH   1   9
TORSDOF 10
ENDMDL
MODEL 7
REMARK VINA RESULT:    -3.369      1.452      2.312
REMARK INTER + INTRA:          -6.212
REMARK INTER:                  -4.919
REMARK INTRA:                  -1.292
REMARK UNBOUND:                -0.874
REMARK SMILES CCCCCCCCCCCC(=O)[O-]
REMARK SMILES IDX 7 1 8 2 9 3 10 4 11 5 12 6 13 7 14 8 6 9 5 10 4 11 3 12 2 13
REMARK SMILES IDX 1 14
REMARK H PARENT
REMARK Flexibility Score: inf
ROOT
ATOM      1  C   UNL     1     -15.078 -18.064   6.669  1.00  0.00     0.000 C 
ENDROOT
BRANCH   1   2
ATOM      2  C   UNL     1     -15.706 -16.749   6.184  1.00  0.00     0.000 C 
BRANCH   2   3
ATOM      3  C   UNL     1     -15.364 -16.487   4.712  1.00  0.00     0.000 C 
BRANCH   3   4
ATOM      4  C   UNL     1     -14.286 -15.401   4.581  1.00  0.00     0.006 C 
BRANCH   4   5
ATOM      5  C   UNL     1     -14.626 -14.145   5.393  1.00  0.00     0.053 C 
BRANCH   5   6
ATOM      6  C   UNL     1     -13.647 -13.040   5.143  1.00  0.00     0.041 C 
ATOM      7  O   UNL     1     -13.634 -12.442   4.035  1.00  0.00    -0.550 OA
ATOM      8  O   UNL     1     -12.769 -12.647   6.145  1.00  0.00    -0.550 OA
ENDBRANCH   5   6
ENDBRANCH   4   5
ENDBRANCH   3   4
ENDBRANCH   2   3
ENDBRANCH   1   2
BRANCH   1   9
ATOM      9  C   UNL     1     -15.251 -19.212   5.661  1.00  0.00     0.000 C 
BRANCH   9  10
ATOM     10  C   UNL     1     -13.910 -19.851   5.258  1.00  0.00    -0.000 C 
BRANCH  10  11
ATOM     11  C   UNL     1     -12.702 -18.983   5.647  1.00  0.00    -0.000 C 
BRANCH  11  12
ATOM     12  C   UNL     1     -11.876 -18.538   4.428  1.00  0.00    -0.000 C 
BRANCH  12  13
ATOM     13  C   UNL     1     -12.444 -19.076   3.104  1.00  0.00    -0.003 C 
ATOM     14  C   UNL     1     -12.951 -17.968   2.182  1.00  0.00     0.004 C 
ENDBRANCH  12  13
ENDBRANCH  11  12
ENDBRANCH  10  11
ENDBRANCH   9  10
ENDBRANCH   1   9
TORSDOF 10
ENDMDL
MODEL 8
REMARK VINA RESULT:    -3.353      3.096      5.870
REMARK INTER + INTRA:          -6.187
REMARK INTER:                  -5.255
REMARK INTRA:                  -0.932
REMARK UNBOUND:                -0.874
REMARK SMILES CCCCCCCCCCCC(=O)[O-]
REMARK SMILES IDX 7 1 8 2 9 3 10 4 11 5 12 6 13 7 14 8 6 9 5 10 4 11 3 12 2 13
REMARK SMILES IDX 1 14
REMARK H PARENT
REMARK Flexibility Score: inf
ROOT
ATOM      1  C   UNL     1     -14.279 -15.290   4.635  1.00  0.00     0.000 C 
ENDROOT
BRANCH   1   2
ATOM      2  C   UNL     1     -15.107 -16.276   5.474  1.00  0.00     0.000 C 
BRANCH   2   3
ATOM      3  C   UNL     1     -14.869 -17.720   5.017  1.00  0.00     0.000 C 
BRANCH   3   4
ATOM      4  C   UNL     1     -14.139 -18.528   6.101  1.00  0.00     0.006 C 
BRANCH   4   5
ATOM      5  C   UNL     1     -13.216 -19.598   5.505  1.00  0.00     0.053 C 
BRANCH   5   6
ATOM      6  C   UNL     1     -12.124 -18.992   4.679  1.00  0.00     0.041 C 
ATOM      7  O   UNL     1     -11.164 -18.396   5.235  1.00  0.00    -0.550 OA
ATOM      8  O   UNL     1     -12.149 -19.112   3.296  1.00  0.00    -0.550 OA
ENDBRANCH   5   6
ENDBRANCH   4   5
ENDBRANCH   3   4
ENDBRANCH   2   3
ENDBRANCH   1   2
BRANCH   1   9
ATOM      9  C   UNL     1     -13.842 -15.881   3.285  1.00  0.00     0.000 C 
BRANCH   9  10
ATOM     10  C   UNL     1     -14.064 -14.907   2.115  1.00  0.00    -0.000 C 
BRANCH  10  11
ATOM     11  C   UNL     1     -12.762 -14.580   1.365  1.00  0.00    -0.000 C 
BRANCH  11  12
ATOM     12  C   UNL     1     -12.197 -13.198   1.736  1.00  0.00    -0.000 C 
BRANCH  12  13
ATOM     13  C   UNL     1     -13.210 -12.335   2.506  1.00  0.00    -0.003 C 
ATOM     14  C   UNL     1     -12.673 -11.848   3.852  1.00  0.00     0.004 C 
ENDBRANCH  12  13
ENDBRANCH  11  12
ENDBRANCH  10  11
ENDBRANCH   9  10
ENDBRANCH   1   9
TORSDOF 10
ENDMDL
MODEL 9
REMARK VINA RESULT:    -3.319      3.313      6.089
REMARK INTER + INTRA:          -6.133
REMARK INTER:                  -5.163
REMARK INTRA:                  -0.970
REMARK UNBOUND:                -0.874
REMARK SMILES CCCCCCCCCCCC(=O)[O-]
REMARK SMILES IDX 7 1 8 2 9 3 10 4 11 5 12 6 13 7 14 8 6 9 5 10 4 11 3 12 2 13
REMARK SMILES IDX 1 14
REMARK H PARENT
REMARK Flexibility Score: inf
ROOT
ATOM      1  C   UNL     1     -13.882 -15.503   3.079  1.00  0.00     0.000 C 
ENDROOT
BRANCH   1   2
ATOM      2  C   UNL     1     -13.245 -16.697   2.354  1.00  0.00     0.000 C 
BRANCH   2   3
ATOM      3  C   UNL     1     -13.597 -18.016   3.053  1.00  0.00     0.000 C 
BRANCH   3   4
ATOM      4  C   UNL     1     -12.329 -18.777   3.467  1.00  0.00     0.006 C 
BRANCH   4   5
ATOM      5  C   UNL     1     -12.114 -18.765   4.985  1.00  0.00     0.053 C 
BRANCH   5   6
ATOM      6  C   UNL     1     -13.264 -19.389   5.714  1.00  0.00     0.041 C 
ATOM      7  O   UNL     1     -13.917 -18.722   6.559  1.00  0.00    -0.550 OA
ATOM      8  O   UNL     1     -13.636 -20.698   5.436  1.00  0.00    -0.550 OA
ENDBRANCH   5   6
ENDBRANCH   4   5
ENDBRANCH   3   4
ENDBRANCH   2   3
ENDBRANCH   1   2
BRANCH   1   9
ATOM      9  C   UNL     1     -14.251 -15.821   4.537  1.00  0.00     0.000 C 
BRANCH   9  10
ATOM     10  C   UNL     1     -15.330 -14.874   5.093  1.00  0.00    -0.000 C 
BRANCH  10  11
ATOM     11  C   UNL     1     -15.213 -13.450   4.527  1.00  0.00    -0.000 C 
BRANCH  11  12
ATOM     12  C   UNL     1     -14.581 -12.466   5.527  1.00  0.00    -0.000 C 
BRANCH  12  13
ATOM     13  C   UNL     1     -13.061 -12.332   5.341  1.00  0.00    -0.003 C 
ATOM     14  C   UNL     1     -12.675 -11.832   3.949  1.00  0.00     0.004 C 
ENDBRANCH  12  13
ENDBRANCH  11  12
ENDBRANCH  10  11
ENDBRANCH   9  10
ENDBRANCH   1   9
TORSDOF 10
ENDMDL
