MODEL 1
REMARK VINA RESULT:    -5.021      0.000      0.000
REMARK INTER + INTRA:         -11.845
REMARK INTER:                  -9.717
REMARK INTRA:                  -2.128
REMARK UNBOUND:                -2.128
REMARK SMILES CCCCCCCCCCCCCCCCCC(=O)[O-]
REMARK SMILES IDX 10 1 11 2 12 3 13 4 14 5 15 6 16 7 17 8 18 9 19 10 20 11
REMARK SMILES IDX 9 12 8 13 7 14 6 15 5 16 4 17 3 18 2 19 1 20
REMARK H PARENT
REMARK Flexibility Score: inf
ROOT
ATOM      1  C   UNL     1      25.939  10.631  31.134  1.00  0.00     0.000 C 
ENDROOT
BRANCH   1   2
ATOM      2  C   UNL     1      25.115  11.893  30.825  1.00  0.00     0.000 C 
BRANCH   2   3
ATOM      3  C   UNL     1      24.083  12.206  31.920  1.00  0.00     0.000 C 
BRANCH   3   4
ATOM      4  C   UNL     1      22.892  11.236  31.908  1.00  0.00     0.000 C 
BRANCH   4   5
ATOM      5  C   UNL     1      21.673  11.853  32.610  1.00  0.00     0.000 C 
BRANCH   5   6
ATOM      6  C   UNL     1      22.004  13.209  33.269  1.00  0.00     0.000 C 
BRANCH   6   7
ATOM      7  C   UNL     1      20.888  13.738  34.186  1.00  0.00     0.006 C 
BRANCH   7   8
ATOM      8  C   UNL     1      20.716  12.902  35.460  1.00  0.00     0.053 C 
BRANCH   8   9
ATOM      9  C   UNL     1      19.297  12.448  35.600  1.00  0.00     0.041 C 
ATOM     10  O   UNL     1      18.659  12.043  34.592  1.00  0.00    -0.550 OA
ATOM     11  O   UNL     1      18.696  12.421  36.852  1.00  0.00    -0.550 OA
ENDBRANCH   8   9
ENDBRANCH   7   8
ENDBRANCH   6   7
ENDBRANCH   5   6
ENDBRANCH   4   5
ENDBRANCH   3   4
ENDBRANCH   2   3
ENDBRANCH   1   2
BRANCH   1  12
ATOM     12  C   UNL     1      27.422  10.785  30.759  1.00  0.00     0.000 C 
BRANCH  12  13
ATOM     13  C   UNL     1      27.710  12.091  30.001  1.00  0.00    -0.000 C 
BRANCH  13  14
ATOM     14  C   UNL     1      28.658  12.992  30.802  1.00  0.00    -0.000 C 
BRANCH  14  15
ATOM     15  C   UNL     1      28.618  12.639  32.297  1.00  0.00    -0.000 C 
BRANCH  15  16
ATOM     16  C   UNL     1      27.654  13.534  33.092  1.00  0.00    -0.000 C 
BRANCH  16  17
ATOM     17  C   UNL     1      27.681  13.242  34.600  1.00  0.00    -0.000 C 
BRANCH  17  18
ATOM     18  C   UNL     1      27.306  11.780  34.882  1.00  0.00    -0.000 C 
BRANCH  18  19
ATOM     19  C   UNL     1      25.794  11.527  34.783  1.00  0.00    -0.003 C 
ATOM     20  C   UNL     1      24.977  12.487  35.648  1.00  0.00     0.004 C 
ENDBRANCH  18  19
ENDBRANCH  17  18
ENDBRANCH  16  17
ENDBRANCH  15  16
ENDBRANCH  14  15
ENDBRANCH  13  14
ENDBRANCH  12  13
ENDBRANCH   1  12
TORSDOF 16
ENDMDL
MODEL 2
REMARK VINA RESULT:    -4.983      1.469      3.662
REMARK INTER + INTRA:         -11.773
REMARK INTER:                  -9.437
REMARK INTRA:                  -2.335
REMARK UNBOUND:                -2.128
REMARK SMILES CCCCCCCCCCCCCCCCCC(=O)[O-]
REMARK SMILES IDX 10 1 11 2 12 3 13 4 14 5 15 6 16 7 17 8 18 9 19 10 20 11
REMARK SMILES IDX 9 12 8 13 7 14 6 15 5 16 4 17 3 18 2 19 1 20
REMARK H PARENT
REMARK Flexibility Score: inf
ROOT
ATOM      1  C   UNL     1      27.470  13.346  34.416  1.00  0.00     0.000 C 
ENDROOT
BRANCH   1   2
ATOM      2  C   UNL     1      27.572  11.829  34.643  1.00  0.00     0.000 C 
BRANCH   2   3
ATOM      3  C   UNL     1      26.209  11.182  34.933  1.00  0.00     0.000 C 
BRANCH   3   4
ATOM      4  C   UNL     1      25.029  12.066  34.499  1.00  0.00     0.000 C 
BRANCH   4   5
ATOM      5  C   UNL     1      24.177  12.479  35.708  1.00  0.00     0.000 C 
BRANCH   5   6
ATOM      6  C   UNL     1      22.680  12.602  35.353  1.00  0.00     0.000 C 
BRANCH   6   7
ATOM      7  C   UNL     1      22.402  12.594  33.840  1.00  0.00     0.006 C 
BRANCH   7   8
ATOM      8  C   UNL     1      21.211  13.477  33.448  1.00  0.00     0.053 C 
BRANCH   8   9
ATOM      9  C   UNL     1      19.982  12.644  33.264  1.00  0.00     0.041 C 
ATOM     10  O   UNL     1      18.863  13.196  33.086  1.00  0.00    -0.550 OA
ATOM     11  O   UNL     1      20.078  11.259  33.233  1.00  0.00    -0.550 OA
ENDBRANCH   8   9
ENDBRANCH   7   8
ENDBRANCH   6   7
ENDBRANCH   5   6
ENDBRANCH   4   5
ENDBRANCH   3   4
ENDBRANCH   2   3
ENDBRANCH   1   2
BRANCH   1  12
ATOM     12  C   UNL     1      27.916  13.766  33.006  1.00  0.00     0.000 C 
BRANCH  12  13
ATOM     13  C   UNL     1      28.622  12.633  32.245  1.00  0.00    -0.000 C 
BRANCH  13  14
ATOM     14  C   UNL     1      28.715  12.953  30.748  1.00  0.00    -0.000 C 
BRANCH  14  15
ATOM     15  C   UNL     1      28.536  11.682  29.903  1.00  0.00    -0.000 C 
BRANCH  15  16
ATOM     16  C   UNL     1      27.628  10.643  30.579  1.00  0.00    -0.000 C 
BRANCH  16  17
ATOM     17  C   UNL     1      26.204  10.634  30.003  1.00  0.00    -0.000 C 
BRANCH  17  18
ATOM     18  C   UNL     1      25.177  11.026  31.075  1.00  0.00    -0.000 C 
BRANCH  18  19
ATOM     19  C   UNL     1      24.739  12.495  30.966  1.00  0.00    -0.003 C 
ATOM     20  C   UNL     1      25.094  13.118  29.616  1.00  0.00     0.004 C 
ENDBRANCH  18  19
ENDBRANCH  17  18
ENDBRANCH  16  17
ENDBRANCH  15  16
ENDBRANCH  14  15
ENDBRANCH  13  14
ENDBRANCH  12  13
ENDBRANCH   1  12
TORSDOF 16
ENDMDL
MODEL 3
REMARK VINA RESULT:    -4.977      1.199      1.616
REMARK INTER + INTRA:         -11.761
REMARK INTER:                  -9.643
REMARK INTRA:                  -2.118
REMARK UNBOUND:                -2.128
REMARK SMILES CCCCCCCCCCCCCCCCCC(=O)[O-]
REMARK SMILES IDX 10 1 11 2 12 3 13 4 14 5 15 6 16 7 17 8 18 9 19 10 20 11
REMARK SMILES IDX 9 12 8 13 7 14 6 15 5 16 4 17 3 18 2 19 1 20
REMARK H PARENT
REMARK Flexibility Score: inf
ROOT
ATOM      1  C   UNL     1      24.375  10.686  31.501  1.00  0.00     0.000 C 
ENDROOT
BRANCH   1   2
ATOM      2  C   UNL     1      24.024  12.182  31.424  1.00  0.00     0.000 C 
BRANCH   2   3
ATOM      3  C   UNL     1      22.511  12.438  31.508  1.00  0.00     0.000 C 
BRANCH   3   4
ATOM      4  C   UNL     1      21.906  11.983  32.846  1.00  0.00     0.000 C 
BRANCH   4   5
ATOM      5  C   UNL     1      22.068  13.069  33.920  1.00  0.00     0.000 C 
BRANCH   5   6
ATOM      6  C   UNL     1      21.496  12.630  35.284  1.00  0.00     0.000 C 
BRANCH   6   7
ATOM      7  C   UNL     1      20.032  13.049  35.503  1.00  0.00     0.006 C 
BRANCH   7   8
ATOM      8  C   UNL     1      19.201  11.969  36.207  1.00  0.00     0.053 C 
BRANCH   8   9
ATOM      9  C   UNL     1      19.304  10.669  35.472  1.00  0.00     0.041 C 
ATOM     10  O   UNL     1      18.915  10.584  34.278  1.00  0.00    -0.550 OA
ATOM     11  O   UNL     1      19.881   9.566  36.089  1.00  0.00    -0.550 OA
ENDBRANCH   8   9
ENDBRANCH   7   8
ENDBRANCH   6   7
ENDBRANCH   5   6
ENDBRANCH   4   5
ENDBRANCH   3   4
ENDBRANCH   2   3
ENDBRANCH   1   2
BRANCH   1  12
ATOM     12  C   UNL     1      25.871  10.416  31.276  1.00  0.00     0.000 C 
BRANCH  12  13
ATOM     13  C   UNL     1      26.555  11.516  30.449  1.00  0.00    -0.000 C 
BRANCH  13  14
ATOM     14  C   UNL     1      28.065  11.541  30.714  1.00  0.00    -0.000 C 
BRANCH  14  15
ATOM     15  C   UNL     1      28.489  12.874  31.351  1.00  0.00    -0.000 C 
BRANCH  15  16
ATOM     16  C   UNL     1      27.982  13.029  32.794  1.00  0.00    -0.000 C 
BRANCH  16  17
ATOM     17  C   UNL     1      28.388  11.853  33.695  1.00  0.00    -0.000 C 
BRANCH  17  18
ATOM     18  C   UNL     1      27.316  11.585  34.762  1.00  0.00    -0.000 C 
BRANCH  18  19
ATOM     19  C   UNL     1      25.983  12.280  34.449  1.00  0.00    -0.003 C 
ATOM     20  C   UNL     1      25.140  12.532  35.699  1.00  0.00     0.004 C 
ENDBRANCH  18  19
ENDBRANCH  17  18
ENDBRANCH  16  17
ENDBRANCH  15  16
ENDBRANCH  14  15
ENDBRANCH  13  14
ENDBRANCH  12  13
ENDBRANCH   1  12
TORSDOF 16
ENDMDL
MODEL 4
REMARK VINA RESULT:    -4.918      0.910      3.437
REMARK INTER + INTRA:         -11.646
REMARK INTER:                  -9.561
REMARK INTRA:                  -2.085
REMARK UNBOUND:                -2.128
REMARK SMILES CCCCCCCCCCCCCCCCCC(=O)[O-]
REMARK SMILES IDX 10 1 11 2 12 3 13 4 14 5 15 6 16 7 17 8 18 9 19 10 20 11
REMARK SMILES IDX 9 12 8 13 7 14 6 15 5 16 4 17 3 18 2 19 1 20
REMARK H PARENT
REMARK Flexibility Score: inf
ROOT
ATOM      1  C   UNL     1      27.629  13.382  34.671  1.00  0.00     0.000 C 
ENDROOT
BRANCH   1   2
ATOM      2  C   UNL     1      27.038  11.985  34.926  1.00  0.00     0.000 C 
BRANCH   2   3
ATOM      3  C   UNL     1      25.511  11.949  34.748  1.00  0.00     0.000 C 
BRANCH   3   4
ATOM      4  C   UNL     1      24.765  12.676  35.878  1.00  0.00     0.000 C 
BRANCH   4   5
ATOM      5  C   UNL     1      23.245  12.526  35.718  1.00  0.00     0.000 C 
BRANCH   5   6
ATOM      6  C   UNL     1      22.791  12.711  34.255  1.00  0.00     0.000 C 
BRANCH   6   7
ATOM      7  C   UNL     1      21.327  12.310  34.007  1.00  0.00     0.006 C 
BRANCH   7   8
ATOM      8  C   UNL     1      20.703  11.568  35.195  1.00  0.00     0.053 C 
BRANCH   8   9
ATOM      9  C   UNL     1      19.307  12.049  35.437  1.00  0.00     0.041 C 
ATOM     10  O   UNL     1      18.949  12.398  36.594  1.00  0.00    -0.550 OA
ATOM     11  O   UNL     1      18.418  12.165  34.377  1.00  0.00    -0.550 OA
ENDBRANCH   8   9
ENDBRANCH   7   8
ENDBRANCH   6   7
ENDBRANCH   5   6
ENDBRANCH   4   5
ENDBRANCH   3   4
ENDBRANCH   2   3
ENDBRANCH   1   2
BRANCH   1  12
ATOM     12  C   UNL     1      27.710  13.727  33.176  1.00  0.00     0.000 C 
BRANCH  12  13
ATOM     13  C   UNL     1      28.550  12.719  32.377  1.00  0.00    -0.000 C 
BRANCH  13  14
ATOM     14  C   UNL     1      28.295  12.863  30.872  1.00  0.00    -0.000 C 
BRANCH  14  15
ATOM     15  C   UNL     1      28.265  11.488  30.186  1.00  0.00    -0.000 C 
BRANCH  15  16
ATOM     16  C   UNL     1      26.837  11.001  29.895  1.00  0.00    -0.000 C 
BRANCH  16  17
ATOM     17  C   UNL     1      26.225  10.223  31.069  1.00  0.00    -0.000 C 
BRANCH  17  18
ATOM     18  C   UNL     1      24.859  10.807  31.462  1.00  0.00    -0.000 C 
BRANCH  18  19
ATOM     19  C   UNL     1      24.650  12.232  30.926  1.00  0.00    -0.003 C 
ATOM     20  C   UNL     1      23.184  12.539  30.622  1.00  0.00     0.004 C 
ENDBRANCH  18  19
ENDBRANCH  17  18
ENDBRANCH  16  17
ENDBRANCH  15  16
ENDBRANCH  14  15
ENDBRANCH  13  14
ENDBRANCH  12  13
ENDBRANCH   1  12
TORSDOF 16
ENDMDL
MODEL 5
REMARK VINA RESULT:    -4.877      2.744      6.179
REMARK INTER + INTRA:         -11.567
REMARK INTER:                  -9.534
REMARK INTRA:                  -2.033
REMARK UNBOUND:                -2.128
REMARK SMILES CCCCCCCCCCCCCCCCCC(=O)[O-]
REMARK SMILES IDX 10 1 11 2 12 3 13 4 14 5 15 6 16 7 17 8 18 9 19 10 20 11
REMARK SMILES IDX 9 12 8 13 7 14 6 15 5 16 4 17 3 18 2 19 1 20
REMARK H PARENT
REMARK Flexibility Score: inf
ROOT
ATOM      1  C   UNL     1      24.509  11.753  31.954  1.00  0.00     0.000 C 
ENDROOT
BRANCH   1   2
ATOM      2  C   UNL     1      25.357  10.490  31.725  1.00  0.00     0.000 C 
BRANCH   2   3
ATOM      3  C   UNL     1      26.130  10.531  30.397  1.00  0.00     0.000 C 
BRANCH   3   4
ATOM      4  C   UNL     1      27.637  10.753  30.594  1.00  0.00     0.000 C 
BRANCH   4   5
ATOM      5  C   UNL     1      28.048  12.166  30.155  1.00  0.00     0.000 C 
BRANCH   5   6
ATOM      6  C   UNL     1      28.765  12.942  31.281  1.00  0.00     0.000 C 
BRANCH   6   7
ATOM      7  C   UNL     1      27.892  13.168  32.527  1.00  0.00     0.006 C 
BRANCH   7   8
ATOM      8  C   UNL     1      28.358  12.350  33.738  1.00  0.00     0.053 C 
BRANCH   8   9
ATOM      9  C   UNL     1      27.194  11.999  34.610  1.00  0.00     0.041 C 
ATOM     10  O   UNL     1      26.944  10.794  34.878  1.00  0.00    -0.550 OA
ATOM     11  O   UNL     1      26.418  13.005  35.172  1.00  0.00    -0.550 OA
ENDBRANCH   8   9
ENDBRANCH   7   8
ENDBRANCH   6   7
ENDBRANCH   5   6
ENDBRANCH   4   5
ENDBRANCH   3   4
ENDBRANCH   2   3
ENDBRANCH   1   2
BRANCH   1  12
ATOM     12  C   UNL     1      24.351  12.600  30.681  1.00  0.00     0.000 C 
BRANCH  12  13
ATOM     13  C   UNL     1      22.893  13.005  30.414  1.00  0.00    -0.000 C 
BRANCH  13  14
ATOM     14  C   UNL     1      21.992  12.617  31.592  1.00  0.00    -0.000 C 
BRANCH  14  15
ATOM     15  C   UNL     1      21.193  13.830  32.095  1.00  0.00    -0.000 C 
BRANCH  15  16
ATOM     16  C   UNL     1      21.061  13.859  33.626  1.00  0.00    -0.000 C 
BRANCH  16  17
ATOM     17  C   UNL     1      22.089  12.958  34.328  1.00  0.00    -0.000 C 
BRANCH  17  18
ATOM     18  C   UNL     1      21.512  12.378  35.628  1.00  0.00    -0.000 C 
BRANCH  18  19
ATOM     19  C   UNL     1      20.184  11.639  35.407  1.00  0.00    -0.003 C 
ATOM     20  C   UNL     1      19.037  12.225  36.231  1.00  0.00     0.004 C 
ENDBRANCH  18  19
ENDBRANCH  17  18
ENDBRANCH  16  17
ENDBRANCH  15  16
ENDBRANCH  14  15
ENDBRANCH  13  14
ENDBRANCH  12  13
ENDBRANCH   1  12
TORSDOF 16
ENDMDL
MODEL 6
REMARK VINA RESULT:    -4.828      1.236      3.351
REMARK INTER + INTRA:         -11.472
REMARK INTER:                  -9.544
REMARK INTRA:                  -1.927
REMARK UNBOUND:                -2.128
REMARK SMILES CCCCCCCCCCCCCCCCCC(=O)[O-]
REMARK SMILES IDX 10 1 11 2 12 3 13 4 14 5 15 6 16 7 17 8 18 9 19 10 20 11
REMARK SMILES IDX 9 12 8 13 7 14 6 15 5 16 4 17 3 18 2 19 1 20
REMARK H PARENT
REMARK Flexibility Score: inf
ROOT
ATOM      1  C   UNL     1      25.545  12.274  34.621  1.00  0.00     0.000 C 
ENDROOT
BRANCH   1   2
ATOM      2  C   UNL     1      24.568  12.481  35.791  1.00  0.00     0.000 C 
BRANCH   2   3
ATOM      3  C   UNL     1      23.114  12.647  35.322  1.00  0.00     0.000 C 
BRANCH   3   4
ATOM      4  C   UNL     1      22.946  12.411  33.813  1.00  0.00     0.000 C 
BRANCH   4   5
ATOM      5  C   UNL     1      21.760  13.215  33.259  1.00  0.00     0.000 C 
BRANCH   5   6
ATOM      6  C   UNL     1      20.969  13.931  34.375  1.00  0.00     0.000 C 
BRANCH   6   7
ATOM      7  C   UNL     1      19.561  13.355  34.600  1.00  0.00     0.006 C 
BRANCH   7   8
ATOM      8  C   UNL     1      19.492  12.400  35.798  1.00  0.00     0.053 C 
BRANCH   8   9
ATOM      9  C   UNL     1      19.491  10.978  35.332  1.00  0.00     0.041 C 
ATOM     10  O   UNL     1      18.890  10.659  34.272  1.00  0.00    -0.550 OA
ATOM     11  O   UNL     1      20.201  10.014  36.038  1.00  0.00    -0.550 OA
ENDBRANCH   8   9
ENDBRANCH   7   8
ENDBRANCH   6   7
ENDBRANCH   5   6
ENDBRANCH   4   5
ENDBRANCH   3   4
ENDBRANCH   2   3
ENDBRANCH   1   2
BRANCH   1  12
ATOM     12  C   UNL     1      26.934  12.871  34.896  1.00  0.00     0.000 C 
BRANCH  12  13
ATOM     13  C   UNL     1      27.549  13.540  33.657  1.00  0.00    -0.000 C 
BRANCH  13  14
ATOM     14  C   UNL     1      28.316  12.520  32.806  1.00  0.00    -0.000 C 
BRANCH  14  15
ATOM     15  C   UNL     1      28.740  13.133  31.462  1.00  0.00    -0.000 C 
BRANCH  15  16
ATOM     16  C   UNL     1      28.108  12.418  30.258  1.00  0.00    -0.000 C 
BRANCH  16  17
ATOM     17  C   UNL     1      26.864  13.144  29.723  1.00  0.00    -0.000 C 
BRANCH  17  18
ATOM     18  C   UNL     1      25.667  12.185  29.633  1.00  0.00    -0.000 C 
BRANCH  18  19
ATOM     19  C   UNL     1      25.091  11.828  31.012  1.00  0.00    -0.003 C 
ATOM     20  C   UNL     1      25.322  10.364  31.387  1.00  0.00     0.004 C 
ENDBRANCH  18  19
ENDBRANCH  17  18
ENDBRANCH  16  17
ENDBRANCH  15  16
ENDBRANCH  14  15
ENDBRANCH  13  14
ENDBRANCH  12  13
ENDBRANCH   1  12
TORSDOF 16
ENDMDL
MODEL 7
REMARK VINA RESULT:    -4.744      3.641      7.522
REMARK INTER + INTRA:         -11.308
REMARK INTER:                  -9.737
REMARK INTRA:                  -1.572
REMARK UNBOUND:                -2.128
REMARK SMILES CCCCCCCCCCCCCCCCCC(=O)[O-]
REMARK SMILES IDX 10 1 11 2 12 3 13 4 14 5 15 6 16 7 17 8 18 9 19 10 20 11
REMARK SMILES IDX 9 12 8 13 7 14 6 15 5 16 4 17 3 18 2 19 1 20
REMARK H PARENT
REMARK Flexibility Score: inf
ROOT
ATOM      1  C   UNL     1      22.291  11.967  32.822  1.00  0.00     0.000 C 
ENDROOT
BRANCH   1   2
ATOM      2  C   UNL     1      23.687  12.206  33.422  1.00  0.00     0.000 C 
BRANCH   2   3
ATOM      3  C   UNL     1      23.643  12.448  34.939  1.00  0.00     0.000 C 
BRANCH   3   4
ATOM      4  C   UNL     1      25.038  12.435  35.582  1.00  0.00     0.000 C 
BRANCH   4   5
ATOM      5  C   UNL     1      26.061  11.752  34.662  1.00  0.00     0.000 C 
BRANCH   5   6
ATOM      6  C   UNL     1      27.486  12.314  34.856  1.00  0.00     0.000 C 
BRANCH   6   7
ATOM      7  C   UNL     1      28.176  12.712  33.540  1.00  0.00     0.006 C 
BRANCH   7   8
ATOM      8  C   UNL     1      27.182  13.058  32.425  1.00  0.00     0.053 C 
BRANCH   8   9
ATOM      9  C   UNL     1      27.604  12.428  31.135  1.00  0.00     0.041 C 
ATOM     10  O   UNL     1      27.933  11.213  31.101  1.00  0.00    -0.550 OA
ATOM     11  O   UNL     1      27.580  13.169  29.960  1.00  0.00    -0.550 OA
ENDBRANCH   8   9
ENDBRANCH   7   8
ENDBRANCH   6   7
ENDBRANCH   5   6
ENDBRANCH   4   5
ENDBRANCH   3   4
ENDBRANCH   2   3
ENDBRANCH   1   2
BRANCH   1  12
ATOM     12  C   UNL     1      21.766  13.184  32.042  1.00  0.00     0.000 C 
BRANCH  12  13
ATOM     13  C   UNL     1      20.895  14.111  32.904  1.00  0.00    -0.000 C 
BRANCH  13  14
ATOM     14  C   UNL     1      19.863  13.307  33.704  1.00  0.00    -0.000 C 
BRANCH  14  15
ATOM     15  C   UNL     1      20.042  13.531  35.214  1.00  0.00    -0.000 C 
BRANCH  15  16
ATOM     16  C   UNL     1      19.438  12.398  36.059  1.00  0.00    -0.000 C 
BRANCH  16  17
ATOM     17  C   UNL     1      19.316  11.079  35.281  1.00  0.00    -0.000 C 
BRANCH  17  18
ATOM     18  C   UNL     1      19.807   9.896  36.128  1.00  0.00    -0.000 C 
BRANCH  18  19
ATOM     19  C   UNL     1      18.908   8.657  35.992  1.00  0.00    -0.003 C 
ATOM     20  C   UNL     1      19.052   7.691  37.168  1.00  0.00     0.004 C 
ENDBRANCH  18  19
ENDBRANCH  17  18
ENDBRANCH  16  17
ENDBRANCH  15  16
ENDBRANCH  14  15
ENDBRANCH  13  14
ENDBRANCH  12  13
ENDBRANCH   1  12
TORSDOF 16
ENDMDL
MODEL 8
REMARK VINA RESULT:    -4.737      2.569      6.858
REMARK INTER + INTRA:         -11.296
REMARK INTER:                  -9.680
REMARK INTRA:                  -1.616
REMARK UNBOUND:                -2.128
REMARK SMILES CCCCCCCCCCCCCCCCCC(=O)[O-]
REMARK SMILES IDX 10 1 11 2 12 3 13 4 14 5 15 6 16 7 17 8 18 9 19 10 20 11
REMARK SMILES IDX 9 12 8 13 7 14 6 15 5 16 4 17 3 18 2 19 1 20
REMARK H PARENT
REMARK Flexibility Score: inf
ROOT
ATOM      1  C   UNL     1      26.133  11.786  34.194  1.00  0.00     0.000 C 
ENDROOT
BRANCH   1   2
ATOM      2  C   UNL     1      26.999  12.888  34.829  1.00  0.00     0.000 C 
BRANCH   2   3
ATOM      3  C   UNL     1      28.041  13.456  33.852  1.00  0.00     0.000 C 
BRANCH   3   4
ATOM      4  C   UNL     1      28.575  12.398  32.873  1.00  0.00     0.000 C 
BRANCH   4   5
ATOM      5  C   UNL     1      28.602  12.941  31.437  1.00  0.00     0.000 C 
BRANCH   5   6
ATOM      6  C   UNL     1      28.159  11.882  30.405  1.00  0.00     0.000 C 
BRANCH   6   7
ATOM      7  C   UNL     1      26.633  11.781  30.240  1.00  0.00     0.006 C 
BRANCH   7   8
ATOM      8  C   UNL     1      26.067  10.445  30.737  1.00  0.00     0.053 C 
BRANCH   8   9
ATOM      9  C   UNL     1      24.625  10.316  30.360  1.00  0.00     0.041 C 
ATOM     10  O   UNL     1      23.748  10.170  31.251  1.00  0.00    -0.550 OA
ATOM     11  O   UNL     1      24.244  10.411  29.027  1.00  0.00    -0.550 OA
ENDBRANCH   8   9
ENDBRANCH   7   8
ENDBRANCH   6   7
ENDBRANCH   5   6
ENDBRANCH   4   5
ENDBRANCH   3   4
ENDBRANCH   2   3
ENDBRANCH   1   2
BRANCH   1  12
ATOM     12  C   UNL     1      24.643  12.158  34.147  1.00  0.00     0.000 C 
BRANCH  12  13
ATOM     13  C   UNL     1      24.066  12.477  35.536  1.00  0.00    -0.000 C 
BRANCH  13  14
ATOM     14  C   UNL     1      22.533  12.516  35.497  1.00  0.00    -0.000 C 
BRANCH  14  15
ATOM     15  C   UNL     1      22.031  13.008  34.130  1.00  0.00    -0.000 C 
BRANCH  15  16
ATOM     16  C   UNL     1      20.840  13.971  34.247  1.00  0.00    -0.000 C 
BRANCH  16  17
ATOM     17  C   UNL     1      19.486  13.265  34.074  1.00  0.00    -0.000 C 
BRANCH  17  18
ATOM     18  C   UNL     1      18.651  13.360  35.360  1.00  0.00    -0.000 C 
BRANCH  18  19
ATOM     19  C   UNL     1      19.026  12.283  36.389  1.00  0.00    -0.003 C 
ATOM     20  C   UNL     1      19.269  10.915  35.752  1.00  0.00     0.004 C 
ENDBRANCH  18  19
ENDBRANCH  17  18
ENDBRANCH  16  17
ENDBRANCH  15  16
ENDBRANCH  14  15
ENDBRANCH  13  14
ENDBRANCH  12  13
ENDBRANCH   1  12
TORSDOF 16
ENDMDL
MODEL 9
REMARK VINA RESULT:    -4.723      1.531      3.033
REMARK INTER + INTRA:         -11.268
REMARK INTER:                  -9.691
REMARK INTRA:                  -1.577
REMARK UNBOUND:                -2.128
REMARK SMILES CCCCCCCCCCCCCCCCCC(=O)[O-]
REMARK SMILES IDX 10 1 11 2 12 3 13 4 14 5 15 6 16 7 17 8 18 9 19 10 20 11
REMARK SMILES IDX 9 12 8 13 7 14 6 15 5 16 4 17 3 18 2 19 1 20
REMARK H PARENT
REMARK Flexibility Score: inf
ROOT
ATOM      1  C   UNL     1      24.098  12.132  33.168  1.00  0.00     0.000 C 
ENDROOT
BRANCH   1   2
ATOM      2  C   UNL     1      22.620  12.273  33.568  1.00  0.00     0.000 C 
BRANCH   2   3
ATOM      3  C   UNL     1      21.848  13.230  32.646  1.00  0.00     0.000 C 
BRANCH   3   4
ATOM      4  C   UNL     1      20.905  14.166  33.417  1.00  0.00     0.000 C 
BRANCH   4   5
ATOM      5  C   UNL     1      20.741  13.704  34.873  1.00  0.00     0.000 C 
BRANCH   5   6
ATOM      6  C   UNL     1      19.268  13.410  35.229  1.00  0.00     0.000 C 
BRANCH   6   7
ATOM      7  C   UNL     1      19.087  12.190  36.148  1.00  0.00     0.006 C 
BRANCH   7   8
ATOM      8  C   UNL     1      20.094  11.071  35.860  1.00  0.00     0.053 C 
BRANCH   8   9
ATOM      9  C   UNL     1      19.385   9.769  35.655  1.00  0.00     0.041 C 
ATOM     10  O   UNL     1      19.420   8.881  36.548  1.00  0.00    -0.550 OA
ATOM     11  O   UNL     1      18.639   9.558  34.502  1.00  0.00    -0.550 OA
ENDBRANCH   8   9
ENDBRANCH   7   8
ENDBRANCH   6   7
ENDBRANCH   5   6
ENDBRANCH   4   5
ENDBRANCH   3   4
ENDBRANCH   2   3
ENDBRANCH   1   2
BRANCH   1  12
ATOM     12  C   UNL     1      24.277  11.746  31.691  1.00  0.00     0.000 C 
BRANCH  12  13
ATOM     13  C   UNL     1      25.260  10.580  31.497  1.00  0.00    -0.000 C 
BRANCH  13  14
ATOM     14  C   UNL     1      26.271  10.894  30.387  1.00  0.00    -0.000 C 
BRANCH  14  15
ATOM     15  C   UNL     1      26.785  12.337  30.505  1.00  0.00    -0.000 C 
BRANCH  15  16
ATOM     16  C   UNL     1      28.239  12.411  30.998  1.00  0.00    -0.000 C 
BRANCH  16  17
ATOM     17  C   UNL     1      28.361  13.045  32.392  1.00  0.00    -0.000 C 
BRANCH  17  18
ATOM     18  C   UNL     1      27.999  12.031  33.488  1.00  0.00    -0.000 C 
BRANCH  18  19
ATOM     19  C   UNL     1      27.834  12.686  34.868  1.00  0.00    -0.003 C 
ATOM     20  C   UNL     1      27.662  14.202  34.785  1.00  0.00     0.004 C 
ENDBRANCH  18  19
ENDBRANCH  17  18
ENDBRANCH  16  17
ENDBRANCH  15  16
ENDBRANCH  14  15
ENDBRANCH  13  14
ENDBRANCH  12  13
ENDBRANCH   1  12
TORSDOF 16
ENDMDL
