MODEL 1
REMARK VINA RESULT:    -4.783      0.000      0.000
REMARK INTER + INTRA:          -6.176
REMARK INTER:                  -5.762
REMARK INTRA:                  -0.415
REMARK UNBOUND:                -0.415
REMARK SMILES O=c1c(O)c(-c2ccc(O)cc2O)oc2cc(O)cc(O)c12
REMARK SMILES IDX 5 1 3 2 2 3 1 4 22 5 20 6 19 7 17 8 16 9 15 10 14 11 6 12
REMARK SMILES IDX 8 13 7 14 9 15 11 16 12 17 10 18 13 20 4 22 21 24 18 26
REMARK H PARENT 10 19 13 21 4 23 21 25 18 27
REMARK Flexibility Score: inf
ROOT
ATOM      1  C   UNL     1      48.180  15.372  67.406  1.00  0.00     0.184 A 
ATOM      2  C   UNL     1      49.194  15.872  66.575  1.00  0.00     0.208 A 
ATOM      3  C   UNL     1      49.246  15.451  65.236  1.00  0.00     0.238 A 
ATOM      4  O   UNL     1      50.125  15.944  64.482  1.00  0.00    -0.285 OA
ATOM      5  C   UNL     1      48.292  14.524  64.753  1.00  0.00     0.111 A 
ATOM      6  C   UNL     1      48.273  13.998  63.426  1.00  0.00     0.134 A 
ATOM      7  C   UNL     1      47.207  13.186  63.020  1.00  0.00     0.093 A 
ATOM      8  C   UNL     1      46.194  12.829  63.909  1.00  0.00     0.123 A 
ATOM      9  C   UNL     1      46.233  13.289  65.225  1.00  0.00     0.094 A 
ATOM     10  C   UNL     1      47.265  14.129  65.651  1.00  0.00     0.146 A 
ATOM     11  O   UNL     1      47.260  14.554  66.909  1.00  0.00    -0.451 OA
ENDROOT
BRANCH   1  12
ATOM     12  C   UNL     1      48.078  15.761  68.828  1.00  0.00     0.063 A 
ATOM     13  C   UNL     1      47.147  17.245  70.514  1.00  0.00     0.047 A 
ATOM     14  C   UNL     1      47.269  16.853  69.179  1.00  0.00     0.020 A 
ATOM     15  C   UNL     1      47.821  16.540  71.518  1.00  0.00     0.119 A 
ATOM     16  C   UNL     1      48.610  15.436  71.181  1.00  0.00     0.093 A 
ATOM     17  C   UNL     1      48.734  15.032  69.843  1.00  0.00     0.130 A 
BRANCH  15  18
ATOM     18  O   UNL     1      47.710  16.922  72.852  1.00  0.00    -0.508 OA
ATOM     19  H   UNL     1      47.687  17.899  73.123  1.00  0.00     0.293 HD
ENDBRANCH  15  18
BRANCH  17  20
ATOM     20  O   UNL     1      49.485  13.901  69.525  1.00  0.00    -0.507 OA
ATOM     21  H   UNL     1      50.138  13.493  70.184  1.00  0.00     0.293 HD
ENDBRANCH  17  20
ENDBRANCH   1  12
BRANCH   2  22
ATOM     22  O   UNL     1      50.112  16.800  67.073  1.00  0.00    -0.502 OA
ATOM     23  H   UNL     1      49.944  17.799  67.047  1.00  0.00     0.293 HD
ENDBRANCH   2  22
BRANCH   6  24
ATOM     24  O   UNL     1      49.283  14.218  62.485  1.00  0.00    -0.507 OA
ATOM     25  H   UNL     1      50.260  14.337  62.707  1.00  0.00     0.293 HD
ENDBRANCH   6  24
BRANCH   8  26
ATOM     26  O   UNL     1      45.157  12.006  63.474  1.00  0.00    -0.508 OA
ATOM     27  H   UNL     1      44.229  12.372  63.299  1.00  0.00     0.293 HD
ENDBRANCH   8  26
TORSDOF 6
ENDMDL
MODEL 2
REMARK VINA RESULT:    -4.604      1.847      6.914
REMARK INTER + INTRA:          -5.961
REMARK INTER:                  -5.548
REMARK INTRA:                  -0.413
REMARK UNBOUND:                -0.415
REMARK SMILES O=c1c(O)c(-c2ccc(O)cc2O)oc2cc(O)cc(O)c12
REMARK SMILES IDX 5 1 3 2 2 3 1 4 22 5 20 6 19 7 17 8 16 9 15 10 14 11 6 12
REMARK SMILES IDX 8 13 7 14 9 15 11 16 12 17 10 18 13 20 4 22 21 24 18 26
REMARK H PARENT 10 19 13 21 4 23 21 25 18 27
REMARK Flexibility Score: inf
ROOT
ATOM      1  C   UNL     1      48.713  15.625  68.587  1.00  0.00     0.184 A 
ATOM      2  C   UNL     1      49.306  16.852  68.924  1.00  0.00     0.208 A 
ATOM      3  C   UNL     1      49.544  17.145  70.276  1.00  0.00     0.238 A 
ATOM      4  O   UNL     1      50.125  18.223  70.567  1.00  0.00    -0.285 OA
ATOM      5  C   UNL     1      49.171  16.212  71.274  1.00  0.00     0.111 A 
ATOM      6  C   UNL     1      49.329  16.421  72.677  1.00  0.00     0.134 A 
ATOM      7  C   UNL     1      49.044  15.377  73.566  1.00  0.00     0.093 A 
ATOM      8  C   UNL     1      48.548  14.157  73.110  1.00  0.00     0.123 A 
ATOM      9  C   UNL     1      48.334  13.962  71.745  1.00  0.00     0.094 A 
ATOM     10  C   UNL     1      48.642  14.972  70.830  1.00  0.00     0.146 A 
ATOM     11  O   UNL     1      48.434  14.743  69.538  1.00  0.00    -0.451 OA
ENDROOT
BRANCH   1  12
ATOM     12  C   UNL     1      48.420  15.263  67.185  1.00  0.00     0.063 A 
ATOM     13  C   UNL     1      49.218  14.429  65.045  1.00  0.00     0.047 A 
ATOM     14  C   UNL     1      49.461  14.786  66.373  1.00  0.00     0.020 A 
ATOM     15  C   UNL     1      47.927  14.532  64.515  1.00  0.00     0.119 A 
ATOM     16  C   UNL     1      46.879  14.984  65.322  1.00  0.00     0.093 A 
ATOM     17  C   UNL     1      47.113  15.339  66.660  1.00  0.00     0.130 A 
BRANCH  15  18
ATOM     18  O   UNL     1      47.672  14.183  63.191  1.00  0.00    -0.508 OA
ATOM     19  H   UNL     1      46.862  13.632  62.935  1.00  0.00     0.293 HD
ENDBRANCH  15  18
BRANCH  17  20
ATOM     20  O   UNL     1      46.051  15.742  67.467  1.00  0.00    -0.507 OA
ATOM     21  H   UNL     1      45.338  15.090  67.774  1.00  0.00     0.293 HD
ENDBRANCH  17  20
ENDBRANCH   1  12
BRANCH   2  22
ATOM     22  O   UNL     1      49.681  17.747  67.917  1.00  0.00    -0.502 OA
ATOM     23  H   UNL     1      50.019  17.438  67.014  1.00  0.00     0.293 HD
ENDBRANCH   2  22
BRANCH   6  24
ATOM     24  O   UNL     1      49.731  17.633  73.246  1.00  0.00    -0.507 OA
ATOM     25  H   UNL     1      49.121  18.418  73.418  1.00  0.00     0.293 HD
ENDBRANCH   6  24
BRANCH   8  26
ATOM     26  O   UNL     1      48.261  13.146  74.026  1.00  0.00    -0.508 OA
ATOM     27  H   UNL     1      47.594  12.414  73.814  1.00  0.00     0.293 HD
ENDBRANCH   8  26
TORSDOF 6
ENDMDL
MODEL 3
REMARK VINA RESULT:    -4.569      3.999      6.595
REMARK INTER + INTRA:          -5.919
REMARK INTER:                  -5.571
REMARK INTRA:                  -0.348
REMARK UNBOUND:                -0.415
REMARK SMILES O=c1c(O)c(-c2ccc(O)cc2O)oc2cc(O)cc(O)c12
REMARK SMILES IDX 5 1 3 2 2 3 1 4 22 5 20 6 19 7 17 8 16 9 15 10 14 11 6 12
REMARK SMILES IDX 8 13 7 14 9 15 11 16 12 17 10 18 13 20 4 22 21 24 18 26
REMARK H PARENT 10 19 13 21 4 23 21 25 18 27
REMARK Flexibility Score: inf
ROOT
ATOM      1  C   UNL     1      49.077  17.081  70.065  1.00  0.00     0.184 A 
ATOM      2  C   UNL     1      49.237  16.044  69.133  1.00  0.00     0.208 A 
ATOM      3  C   UNL     1      49.299  14.719  69.593  1.00  0.00     0.238 A 
ATOM      4  O   UNL     1      49.388  13.790  68.748  1.00  0.00    -0.285 OA
ATOM      5  C   UNL     1      49.217  14.452  70.981  1.00  0.00     0.111 A 
ATOM      6  C   UNL     1      49.308  13.151  71.562  1.00  0.00     0.134 A 
ATOM      7  C   UNL     1      49.084  12.991  72.935  1.00  0.00     0.093 A 
ATOM      8  C   UNL     1      48.836  14.089  73.757  1.00  0.00     0.123 A 
ATOM      9  C   UNL     1      48.802  15.372  73.209  1.00  0.00     0.094 A 
ATOM     10  C   UNL     1      48.987  15.561  71.838  1.00  0.00     0.146 A 
ATOM     11  O   UNL     1      48.937  16.796  71.354  1.00  0.00    -0.451 OA
ENDROOT
BRANCH   1  12
ATOM     12  C   UNL     1      49.022  18.498  69.650  1.00  0.00     0.063 A 
ATOM     13  C   UNL     1      50.104  20.391  68.573  1.00  0.00     0.047 A 
ATOM     14  C   UNL     1      50.125  19.056  68.984  1.00  0.00     0.020 A 
ATOM     15  C   UNL     1      48.973  21.181  68.808  1.00  0.00     0.119 A 
ATOM     16  C   UNL     1      47.861  20.628  69.450  1.00  0.00     0.093 A 
ATOM     17  C   UNL     1      47.871  19.286  69.861  1.00  0.00     0.130 A 
BRANCH  15  18
ATOM     18  O   UNL     1      48.942  22.514  68.406  1.00  0.00    -0.508 OA
ATOM     19  H   UNL     1      48.072  22.974  68.165  1.00  0.00     0.293 HD
ENDBRANCH  15  18
BRANCH  17  20
ATOM     20  O   UNL     1      46.738  18.734  70.456  1.00  0.00    -0.507 OA
ATOM     21  H   UNL     1      46.724  17.777  70.789  1.00  0.00     0.293 HD
ENDBRANCH  17  20
ENDBRANCH   1  12
BRANCH   2  22
ATOM     22  O   UNL     1      49.297  16.335  67.767  1.00  0.00    -0.502 OA
ATOM     23  H   UNL     1      49.434  15.618  67.064  1.00  0.00     0.293 HD
ENDBRANCH   2  22
BRANCH   6  24
ATOM     24  O   UNL     1      49.641  11.998  70.845  1.00  0.00    -0.507 OA
ATOM     25  H   UNL     1      50.374  11.353  71.103  1.00  0.00     0.293 HD
ENDBRANCH   6  24
BRANCH   8  26
ATOM     26  O   UNL     1      48.633  13.894  75.122  1.00  0.00    -0.508 OA
ATOM     27  H   UNL     1      47.801  13.434  75.473  1.00  0.00     0.293 HD
ENDBRANCH   8  26
TORSDOF 6
ENDMDL
MODEL 4
REMARK VINA RESULT:    -4.551      1.832      6.606
REMARK INTER + INTRA:          -5.897
REMARK INTER:                  -5.487
REMARK INTRA:                  -0.410
REMARK UNBOUND:                -0.415
REMARK SMILES O=c1c(O)c(-c2ccc(O)cc2O)oc2cc(O)cc(O)c12
REMARK SMILES IDX 5 1 3 2 2 3 1 4 22 5 20 6 19 7 17 8 16 9 15 10 14 11 6 12
REMARK SMILES IDX 8 13 7 14 9 15 11 16 12 17 10 18 13 20 4 22 21 24 18 26
REMARK H PARENT 10 19 13 21 4 23 21 25 18 27
REMARK Flexibility Score: inf
ROOT
ATOM      1  C   UNL     1      48.111  15.343  68.059  1.00  0.00     0.184 A 
ATOM      2  C   UNL     1      48.893  16.502  67.931  1.00  0.00     0.208 A 
ATOM      3  C   UNL     1      49.380  17.126  69.090  1.00  0.00     0.238 A 
ATOM      4  O   UNL     1      50.125  18.133  68.967  1.00  0.00    -0.285 OA
ATOM      5  C   UNL     1      49.064  16.590  70.363  1.00  0.00     0.111 A 
ATOM      6  C   UNL     1      49.470  17.162  71.606  1.00  0.00     0.134 A 
ATOM      7  C   UNL     1      49.210  16.476  72.799  1.00  0.00     0.093 A 
ATOM      8  C   UNL     1      48.505  15.274  72.800  1.00  0.00     0.123 A 
ATOM      9  C   UNL     1      48.052  14.735  71.595  1.00  0.00     0.094 A 
ATOM     10  C   UNL     1      48.325  15.378  70.385  1.00  0.00     0.146 A 
ATOM     11  O   UNL     1      47.886  14.826  69.260  1.00  0.00    -0.451 OA
ENDROOT
BRANCH   1  12
ATOM     12  C   UNL     1      47.554  14.649  66.880  1.00  0.00     0.063 A 
ATOM     13  C   UNL     1      45.733  14.392  65.288  1.00  0.00     0.047 A 
ATOM     14  C   UNL     1      46.288  15.025  66.403  1.00  0.00     0.020 A 
ATOM     15  C   UNL     1      46.444  13.385  64.626  1.00  0.00     0.119 A 
ATOM     16  C   UNL     1      47.715  13.019  65.079  1.00  0.00     0.093 A 
ATOM     17  C   UNL     1      48.282  13.654  66.195  1.00  0.00     0.130 A 
BRANCH  15  18
ATOM     18  O   UNL     1      45.900  12.745  63.515  1.00  0.00    -0.508 OA
ATOM     19  H   UNL     1      46.456  12.550  62.691  1.00  0.00     0.293 HD
ENDBRANCH  15  18
BRANCH  17  20
ATOM     20  O   UNL     1      49.570  13.313  66.606  1.00  0.00    -0.507 OA
ATOM     21  H   UNL     1      50.341  13.256  65.951  1.00  0.00     0.293 HD
ENDBRANCH  17  20
ENDBRANCH   1  12
BRANCH   2  22
ATOM     22  O   UNL     1      49.204  16.999  66.662  1.00  0.00    -0.502 OA
ATOM     23  H   UNL     1      49.610  16.420  65.936  1.00  0.00     0.293 HD
ENDBRANCH   2  22
BRANCH   6  24
ATOM     24  O   UNL     1      50.102  18.404  71.725  1.00  0.00    -0.507 OA
ATOM     25  H   UNL     1      49.865  19.223  71.185  1.00  0.00     0.293 HD
ENDBRANCH   6  24
BRANCH   8  26
ATOM     26  O   UNL     1      48.251  14.627  74.008  1.00  0.00    -0.508 OA
ATOM     27  H   UNL     1      47.738  15.082  74.754  1.00  0.00     0.293 HD
ENDBRANCH   8  26
TORSDOF 6
ENDMDL
MODEL 5
REMARK VINA RESULT:    -4.500      3.885      6.862
REMARK INTER + INTRA:          -5.836
REMARK INTER:                  -5.623
REMARK INTRA:                  -0.213
REMARK UNBOUND:                -0.415
REMARK SMILES O=c1c(O)c(-c2ccc(O)cc2O)oc2cc(O)cc(O)c12
REMARK SMILES IDX 5 1 3 2 2 3 1 4 22 5 20 6 19 7 17 8 16 9 15 10 14 11 6 12
REMARK SMILES IDX 8 13 7 14 9 15 11 16 12 17 10 18 13 20 4 22 21 24 18 26
REMARK H PARENT 10 19 13 21 4 23 21 25 18 27
REMARK Flexibility Score: inf
ROOT
ATOM      1  C   UNL     1      48.794  13.556  73.043  1.00  0.00     0.184 A 
ATOM      2  C   UNL     1      49.392  12.977  71.913  1.00  0.00     0.208 A 
ATOM      3  C   UNL     1      49.271  13.623  70.672  1.00  0.00     0.238 A 
ATOM      4  O   UNL     1      49.856  13.127  69.674  1.00  0.00    -0.285 OA
ATOM      5  C   UNL     1      48.539  14.831  70.577  1.00  0.00     0.111 A 
ATOM      6  C   UNL     1      48.317  15.549  69.364  1.00  0.00     0.134 A 
ATOM      7  C   UNL     1      47.688  16.800  69.407  1.00  0.00     0.093 A 
ATOM      8  C   UNL     1      47.216  17.327  70.608  1.00  0.00     0.123 A 
ATOM      9  C   UNL     1      47.375  16.606  71.792  1.00  0.00     0.094 A 
ATOM     10  C   UNL     1      48.029  15.372  71.786  1.00  0.00     0.146 A 
ATOM     11  O   UNL     1      48.169  14.722  72.936  1.00  0.00    -0.451 OA
ENDROOT
BRANCH   1  12
ATOM     12  C   UNL     1      48.869  12.920  74.374  1.00  0.00     0.063 A 
ATOM     13  C   UNL     1      48.590  10.930  75.744  1.00  0.00     0.047 A 
ATOM     14  C   UNL     1      48.525  11.564  74.501  1.00  0.00     0.020 A 
ATOM     15  C   UNL     1      49.014  11.640  76.874  1.00  0.00     0.119 A 
ATOM     16  C   UNL     1      49.381  12.983  76.753  1.00  0.00     0.093 A 
ATOM     17  C   UNL     1      49.324  13.626  75.507  1.00  0.00     0.130 A 
BRANCH  15  18
ATOM     18  O   UNL     1      49.079  11.019  78.119  1.00  0.00    -0.508 OA
ATOM     19  H   UNL     1      49.876  11.144  78.732  1.00  0.00     0.293 HD
ENDBRANCH  15  18
BRANCH  17  20
ATOM     20  O   UNL     1      49.739  14.952  75.391  1.00  0.00    -0.507 OA
ATOM     21  H   UNL     1      49.099  15.725  75.533  1.00  0.00     0.293 HD
ENDBRANCH  17  20
ENDBRANCH   1  12
BRANCH   2  22
ATOM     22  O   UNL     1      50.125  11.793  72.040  1.00  0.00    -0.502 OA
ATOM     23  H   UNL     1      49.813  11.020  72.616  1.00  0.00     0.293 HD
ENDBRANCH   2  22
BRANCH   6  24
ATOM     24  O   UNL     1      48.668  15.071  68.097  1.00  0.00    -0.507 OA
ATOM     25  H   UNL     1      48.023  14.658  67.440  1.00  0.00     0.293 HD
ENDBRANCH   6  24
BRANCH   8  26
ATOM     26  O   UNL     1      46.581  18.568  70.611  1.00  0.00    -0.508 OA
ATOM     27  H   UNL     1      46.342  19.042  69.748  1.00  0.00     0.293 HD
ENDBRANCH   8  26
TORSDOF 6
ENDMDL
MODEL 6
REMARK VINA RESULT:    -4.488      1.854      2.891
REMARK INTER + INTRA:          -5.821
REMARK INTER:                  -5.403
REMARK INTRA:                  -0.418
REMARK UNBOUND:                -0.415
REMARK SMILES O=c1c(O)c(-c2ccc(O)cc2O)oc2cc(O)cc(O)c12
REMARK SMILES IDX 5 1 3 2 2 3 1 4 22 5 20 6 19 7 17 8 16 9 15 10 14 11 6 12
REMARK SMILES IDX 8 13 7 14 9 15 11 16 12 17 10 18 13 20 4 22 21 24 18 26
REMARK H PARENT 10 19 13 21 4 23 21 25 18 27
REMARK Flexibility Score: inf
ROOT
ATOM      1  C   UNL     1      48.176  15.127  67.715  1.00  0.00     0.184 A 
ATOM      2  C   UNL     1      46.874  15.313  67.226  1.00  0.00     0.208 A 
ATOM      3  C   UNL     1      46.461  14.591  66.095  1.00  0.00     0.238 A 
ATOM      4  O   UNL     1      45.276  14.722  65.694  1.00  0.00    -0.285 OA
ATOM      5  C   UNL     1      47.364  13.704  65.460  1.00  0.00     0.111 A 
ATOM      6  C   UNL     1      47.067  12.951  64.284  1.00  0.00     0.134 A 
ATOM      7  C   UNL     1      47.991  12.007  63.817  1.00  0.00     0.093 A 
ATOM      8  C   UNL     1      49.224  11.836  64.443  1.00  0.00     0.123 A 
ATOM      9  C   UNL     1      49.549  12.608  65.558  1.00  0.00     0.094 A 
ATOM     10  C   UNL     1      48.635  13.533  66.069  1.00  0.00     0.146 A 
ATOM     11  O   UNL     1      48.979  14.241  67.139  1.00  0.00    -0.451 OA
ENDROOT
BRANCH   1  12
ATOM     12  C   UNL     1      48.678  15.869  68.890  1.00  0.00     0.063 A 
ATOM     13  C   UNL     1      48.698  16.169  71.304  1.00  0.00     0.047 A 
ATOM     14  C   UNL     1      48.240  15.493  70.170  1.00  0.00     0.020 A 
ATOM     15  C   UNL     1      49.612  17.222  71.172  1.00  0.00     0.119 A 
ATOM     16  C   UNL     1      50.071  17.588  69.904  1.00  0.00     0.093 A 
ATOM     17  C   UNL     1      49.621  16.910  68.761  1.00  0.00     0.130 A 
BRANCH  15  18
ATOM     18  O   UNL     1      50.073  17.906  72.294  1.00  0.00    -0.508 OA
ATOM     19  H   UNL     1      50.556  17.427  73.045  1.00  0.00     0.293 HD
ENDBRANCH  15  18
BRANCH  17  20
ATOM     20  O   UNL     1      50.124  17.254  67.507  1.00  0.00    -0.507 OA
ATOM     21  H   UNL     1      51.067  17.010  67.226  1.00  0.00     0.293 HD
ENDBRANCH  17  20
ENDBRANCH   1  12
BRANCH   2  22
ATOM     22  O   UNL     1      45.998  16.182  67.884  1.00  0.00    -0.502 OA
ATOM     23  H   UNL     1      46.318  17.007  68.377  1.00  0.00     0.293 HD
ENDBRANCH   2  22
BRANCH   6  24
ATOM     24  O   UNL     1      45.901  13.110  63.529  1.00  0.00    -0.507 OA
ATOM     25  H   UNL     1      45.868  13.502  62.600  1.00  0.00     0.293 HD
ENDBRANCH   6  24
BRANCH   8  26
ATOM     26  O   UNL     1      50.125  10.898  63.941  1.00  0.00    -0.508 OA
ATOM     27  H   UNL     1      51.115  10.949  64.152  1.00  0.00     0.293 HD
ENDBRANCH   8  26
TORSDOF 6
ENDMDL
MODEL 7
REMARK VINA RESULT:    -4.369      1.779      7.025
REMARK INTER + INTRA:          -5.678
REMARK INTER:                  -5.281
REMARK INTRA:                  -0.397
REMARK UNBOUND:                -0.415
REMARK SMILES O=c1c(O)c(-c2ccc(O)cc2O)oc2cc(O)cc(O)c12
REMARK SMILES IDX 5 1 3 2 2 3 1 4 22 5 20 6 19 7 17 8 16 9 15 10 14 11 6 12
REMARK SMILES IDX 8 13 7 14 9 15 11 16 12 17 10 18 13 20 4 22 21 24 18 26
REMARK H PARENT 10 19 13 21 4 23 21 25 18 27
REMARK Flexibility Score: inf
ROOT
ATOM      1  C   UNL     1      48.756  14.442  68.570  1.00  0.00     0.184 A 
ATOM      2  C   UNL     1      49.412  13.478  69.351  1.00  0.00     0.208 A 
ATOM      3  C   UNL     1      49.312  13.551  70.750  1.00  0.00     0.238 A 
ATOM      4  O   UNL     1      49.858  12.653  71.442  1.00  0.00    -0.285 OA
ATOM      5  C   UNL     1      48.568  14.597  71.347  1.00  0.00     0.111 A 
ATOM      6  C   UNL     1      48.432  14.792  72.755  1.00  0.00     0.134 A 
ATOM      7  C   UNL     1      47.566  15.784  73.234  1.00  0.00     0.093 A 
ATOM      8  C   UNL     1      46.884  16.628  72.360  1.00  0.00     0.123 A 
ATOM      9  C   UNL     1      47.055  16.485  70.982  1.00  0.00     0.094 A 
ATOM     10  C   UNL     1      47.884  15.482  70.473  1.00  0.00     0.146 A 
ATOM     11  O   UNL     1      48.012  15.372  69.156  1.00  0.00    -0.451 OA
ENDROOT
BRANCH   1  12
ATOM     12  C   UNL     1      48.835  14.432  67.095  1.00  0.00     0.063 A 
ATOM     13  C   UNL     1      48.224  13.381  64.989  1.00  0.00     0.047 A 
ATOM     14  C   UNL     1      48.173  13.418  66.384  1.00  0.00     0.020 A 
ATOM     15  C   UNL     1      48.925  14.367  64.285  1.00  0.00     0.119 A 
ATOM     16  C   UNL     1      49.568  15.394  64.983  1.00  0.00     0.093 A 
ATOM     17  C   UNL     1      49.517  15.442  66.384  1.00  0.00     0.130 A 
BRANCH  15  18
ATOM     18  O   UNL     1      48.986  14.340  62.894  1.00  0.00    -0.508 OA
ATOM     19  H   UNL     1      48.202  14.637  62.324  1.00  0.00     0.293 HD
ENDBRANCH  15  18
BRANCH  17  20
ATOM     20  O   UNL     1      50.122  16.498  67.065  1.00  0.00    -0.507 OA
ATOM     21  H   UNL     1      50.609  17.238  66.574  1.00  0.00     0.293 HD
ENDBRANCH  17  20
ENDBRANCH   1  12
BRANCH   2  22
ATOM     22  O   UNL     1      50.125  12.445  68.734  1.00  0.00    -0.502 OA
ATOM     23  H   UNL     1      49.754  11.922  67.950  1.00  0.00     0.293 HD
ENDBRANCH   2  22
BRANCH   6  24
ATOM     24  O   UNL     1      49.138  14.063  73.716  1.00  0.00    -0.507 OA
ATOM     25  H   UNL     1      50.130  14.147  73.887  1.00  0.00     0.293 HD
ENDBRANCH   6  24
BRANCH   8  26
ATOM     26  O   UNL     1      46.043  17.614  72.873  1.00  0.00    -0.508 OA
ATOM     27  H   UNL     1      45.961  18.522  72.430  1.00  0.00     0.293 HD
ENDBRANCH   8  26
TORSDOF 6
ENDMDL
MODEL 8
REMARK VINA RESULT:    -4.098      3.456      6.143
REMARK INTER + INTRA:          -5.352
REMARK INTER:                  -4.992
REMARK INTRA:                  -0.360
REMARK UNBOUND:                -0.415
REMARK SMILES O=c1c(O)c(-c2ccc(O)cc2O)oc2cc(O)cc(O)c12
REMARK SMILES IDX 5 1 3 2 2 3 1 4 22 5 20 6 19 7 17 8 16 9 15 10 14 11 6 12
REMARK SMILES IDX 8 13 7 14 9 15 11 16 12 17 10 18 13 20 4 22 21 24 18 26
REMARK H PARENT 10 19 13 21 4 23 21 25 18 27
REMARK Flexibility Score: inf
ROOT
ATOM      1  C   UNL     1      48.644  14.020  72.408  1.00  0.00     0.184 A 
ATOM      2  C   UNL     1      47.630  14.987  72.488  1.00  0.00     0.208 A 
ATOM      3  C   UNL     1      47.323  15.748  71.350  1.00  0.00     0.238 A 
ATOM      4  O   UNL     1      46.377  16.576  71.413  1.00  0.00    -0.285 OA
ATOM      5  C   UNL     1      48.047  15.541  70.150  1.00  0.00     0.111 A 
ATOM      6  C   UNL     1      47.847  16.282  68.946  1.00  0.00     0.134 A 
ATOM      7  C   UNL     1      48.530  15.905  67.783  1.00  0.00     0.093 A 
ATOM      8  C   UNL     1      49.449  14.858  67.794  1.00  0.00     0.123 A 
ATOM      9  C   UNL     1      49.695  14.164  68.980  1.00  0.00     0.094 A 
ATOM     10  C   UNL     1      49.005  14.493  70.148  1.00  0.00     0.146 A 
ATOM     11  O   UNL     1      49.260  13.802  71.253  1.00  0.00    -0.451 OA
ENDROOT
BRANCH   1  12
ATOM     12  C   UNL     1      49.027  13.197  73.574  1.00  0.00     0.063 A 
ATOM     13  C   UNL     1      49.911  13.086  75.837  1.00  0.00     0.047 A 
ATOM     14  C   UNL     1      49.543  13.833  74.715  1.00  0.00     0.020 A 
ATOM     15  C   UNL     1      49.754  11.695  75.838  1.00  0.00     0.119 A 
ATOM     16  C   UNL     1      49.220  11.056  74.716  1.00  0.00     0.093 A 
ATOM     17  C   UNL     1      48.842  11.799  73.587  1.00  0.00     0.130 A 
BRANCH  15  18
ATOM     18  O   UNL     1      50.121  10.940  76.949  1.00  0.00    -0.508 OA
ATOM     19  H   UNL     1      50.461   9.990  76.855  1.00  0.00     0.293 HD
ENDBRANCH  15  18
BRANCH  17  20
ATOM     20  O   UNL     1      48.265  11.155  72.493  1.00  0.00    -0.507 OA
ATOM     21  H   UNL     1      48.794  10.959  71.651  1.00  0.00     0.293 HD
ENDBRANCH  17  20
ENDBRANCH   1  12
BRANCH   2  22
ATOM     22  O   UNL     1      46.920  15.158  73.681  1.00  0.00    -0.502 OA
ATOM     23  H   UNL     1      46.324  14.435  74.067  1.00  0.00     0.293 HD
ENDBRANCH   2  22
BRANCH   6  24
ATOM     24  O   UNL     1      47.019  17.404  68.848  1.00  0.00    -0.507 OA
ATOM     25  H   UNL     1      46.078  17.393  68.484  1.00  0.00     0.293 HD
ENDBRANCH   6  24
BRANCH   8  26
ATOM     26  O   UNL     1      50.122  14.521  66.621  1.00  0.00    -0.508 OA
ATOM     27  H   UNL     1      51.122  14.359  66.612  1.00  0.00     0.293 HD
ENDBRANCH   8  26
TORSDOF 6
ENDMDL
MODEL 9
REMARK VINA RESULT:    -3.831      2.115      7.094
REMARK INTER + INTRA:          -5.030
REMARK INTER:                  -4.811
REMARK INTRA:                  -0.219
REMARK UNBOUND:                -0.415
REMARK SMILES O=c1c(O)c(-c2ccc(O)cc2O)oc2cc(O)cc(O)c12
REMARK SMILES IDX 5 1 3 2 2 3 1 4 22 5 20 6 19 7 17 8 16 9 15 10 14 11 6 12
REMARK SMILES IDX 8 13 7 14 9 15 11 16 12 17 10 18 13 20 4 22 21 24 18 26
REMARK H PARENT 10 19 13 21 4 23 21 25 18 27
REMARK Flexibility Score: inf
ROOT
ATOM      1  C   UNL     1      48.748  14.554  68.367  1.00  0.00     0.184 A 
ATOM      2  C   UNL     1      47.864  15.644  68.369  1.00  0.00     0.208 A 
ATOM      3  C   UNL     1      47.542  16.256  69.590  1.00  0.00     0.238 A 
ATOM      4  O   UNL     1      46.791  17.266  69.580  1.00  0.00    -0.285 OA
ATOM      5  C   UNL     1      48.097  15.759  70.794  1.00  0.00     0.111 A 
ATOM      6  C   UNL     1      47.810  16.277  72.093  1.00  0.00     0.134 A 
ATOM      7  C   UNL     1      48.516  15.792  73.202  1.00  0.00     0.093 A 
ATOM      8  C   UNL     1      49.450  14.766  73.068  1.00  0.00     0.123 A 
ATOM      9  C   UNL     1      49.696  14.212  71.812  1.00  0.00     0.094 A 
ATOM     10  C   UNL     1      49.034  14.698  70.682  1.00  0.00     0.146 A 
ATOM     11  O   UNL     1      49.305  14.151  69.502  1.00  0.00    -0.451 OA
ENDROOT
BRANCH   1  12
ATOM     12  C   UNL     1      49.115  13.854  67.119  1.00  0.00     0.063 A 
ATOM     13  C   UNL     1      49.057  11.823  65.782  1.00  0.00     0.047 A 
ATOM     14  C   UNL     1      48.731  12.513  66.952  1.00  0.00     0.020 A 
ATOM     15  C   UNL     1      49.759  12.468  64.757  1.00  0.00     0.119 A 
ATOM     16  C   UNL     1      50.125  13.809  64.904  1.00  0.00     0.093 A 
ATOM     17  C   UNL     1      49.796  14.512  66.074  1.00  0.00     0.130 A 
BRANCH  15  18
ATOM     18  O   UNL     1      50.092  11.789  63.588  1.00  0.00    -0.508 OA
ATOM     19  H   UNL     1      50.868  12.085  63.007  1.00  0.00     0.293 HD
ENDBRANCH  15  18
BRANCH  17  20
ATOM     20  O   UNL     1      50.125  15.862  66.187  1.00  0.00    -0.507 OA
ATOM     21  H   UNL     1      51.070  16.195  66.036  1.00  0.00     0.293 HD
ENDBRANCH  17  20
ENDBRANCH   1  12
BRANCH   2  22
ATOM     22  O   UNL     1      47.344  16.125  67.164  1.00  0.00    -0.502 OA
ATOM     23  H   UNL     1      46.377  16.411  67.065  1.00  0.00     0.293 HD
ENDBRANCH   2  22
BRANCH   6  24
ATOM     24  O   UNL     1      46.829  17.240  72.351  1.00  0.00    -0.507 OA
ATOM     25  H   UNL     1      46.677  17.680  73.246  1.00  0.00     0.293 HD
ENDBRANCH   6  24
BRANCH   8  26
ATOM     26  O   UNL     1      50.122  14.298  74.196  1.00  0.00    -0.508 OA
ATOM     27  H   UNL     1      49.771  13.515  74.734  1.00  0.00     0.293 HD
ENDBRANCH   8  26
TORSDOF 6
ENDMDL
