MODEL 1
REMARK VINA RESULT:    -5.938      0.000      0.000
REMARK INTER + INTRA:          -6.632
REMARK INTER:                  -7.153
REMARK INTRA:                   0.521
REMARK UNBOUND:                 0.521
REMARK SMILES O=c1c(O)c(-c2ccc(O)c(O)c2)oc2cc(O)cc(O)c12
REMARK SMILES IDX 5 1 3 2 2 3 1 4 22 5 20 6 19 7 17 8 16 9 15 10 14 11 6 12
REMARK SMILES IDX 7 13 8 14 9 15 13 16 11 17 10 18 12 20 4 22 21 24 18 26
REMARK H PARENT 10 19 12 21 4 23 21 25 18 27
REMARK Flexibility Score: inf
ROOT
ATOM      1  C   UNL     1      80.325  98.332  -4.994  1.00  0.00     0.180 A 
ATOM      2  C   UNL     1      81.626  98.849  -4.871  1.00  0.00     0.208 A 
ATOM      3  C   UNL     1      82.713  97.962  -4.867  1.00  0.00     0.238 A 
ATOM      4  O   UNL     1      83.871  98.427  -4.701  1.00  0.00    -0.285 OA
ATOM      5  C   UNL     1      82.489  96.571  -5.002  1.00  0.00     0.111 A 
ATOM      6  C   UNL     1      83.519  95.585  -5.051  1.00  0.00     0.134 A 
ATOM      7  C   UNL     1      83.176  94.227  -5.055  1.00  0.00     0.093 A 
ATOM      8  C   UNL     1      81.839  93.822  -5.079  1.00  0.00     0.123 A 
ATOM      9  C   UNL     1      80.827  94.779  -5.091  1.00  0.00     0.094 A 
ATOM     10  C   UNL     1      81.137  96.140  -5.050  1.00  0.00     0.146 A 
ATOM     11  O   UNL     1      80.141  97.018  -5.053  1.00  0.00    -0.452 OA
ENDROOT
BRANCH   1  12
ATOM     12  C   UNL     1      79.130  99.206  -5.031  1.00  0.00     0.025 A 
ATOM     13  C   UNL     1      79.293 100.598  -5.109  1.00  0.00     0.016 A 
ATOM     14  C   UNL     1      78.180 101.442  -5.125  1.00  0.00     0.051 A 
ATOM     15  C   UNL     1      76.888 100.911  -5.049  1.00  0.00     0.157 A 
ATOM     16  C   UNL     1      77.831  98.675  -4.934  1.00  0.00     0.062 A 
ATOM     17  C   UNL     1      76.712  99.520  -4.948  1.00  0.00     0.158 A 
BRANCH  15  18
ATOM     18  O   UNL     1      75.797 101.778  -5.069  1.00  0.00    -0.504 OA
ATOM     19  H   UNL     1      75.906 102.777  -5.191  1.00  0.00     0.293 HD
ENDBRANCH  15  18
BRANCH  17  20
ATOM     20  O   UNL     1      75.428  98.985  -4.857  1.00  0.00    -0.504 OA
ATOM     21  H   UNL     1      75.116  98.246  -5.475  1.00  0.00     0.293 HD
ENDBRANCH  17  20
ENDBRANCH   1  12
BRANCH   2  22
ATOM     22  O   UNL     1      81.823 100.224  -4.716  1.00  0.00    -0.502 OA
ATOM     23  H   UNL     1      81.096 100.903  -4.904  1.00  0.00     0.293 HD
ENDBRANCH   2  22
BRANCH   6  24
ATOM     24  O   UNL     1      84.883  95.884  -5.125  1.00  0.00    -0.507 OA
ATOM     25  H   UNL     1      85.468  95.701  -5.925  1.00  0.00     0.293 HD
ENDBRANCH   6  24
BRANCH   8  26
ATOM     26  O   UNL     1      81.506  92.469  -5.099  1.00  0.00    -0.508 OA
ATOM     27  H   UNL     1      80.868  92.071  -4.419  1.00  0.00     0.293 HD
ENDBRANCH   8  26
TORSDOF 6
ENDMDL
MODEL 2
REMARK VINA RESULT:    -5.817     17.303     18.543
REMARK INTER + INTRA:          -6.486
REMARK INTER:                  -6.170
REMARK INTRA:                  -0.316
REMARK UNBOUND:                 0.521
REMARK SMILES O=c1c(O)c(-c2ccc(O)c(O)c2)oc2cc(O)cc(O)c12
REMARK SMILES IDX 5 1 3 2 2 3 1 4 22 5 20 6 19 7 17 8 16 9 15 10 14 11 6 12
REMARK SMILES IDX 7 13 8 14 9 15 13 16 11 17 10 18 12 20 4 22 21 24 18 26
REMARK H PARENT 10 19 12 21 4 23 21 25 18 27
REMARK Flexibility Score: inf
ROOT
ATOM      1  C   UNL     1      76.343  88.778  10.853  1.00  0.00     0.180 A 
ATOM      2  C   UNL     1      77.244  88.218  11.775  1.00  0.00     0.208 A 
ATOM      3  C   UNL     1      78.279  87.397  11.302  1.00  0.00     0.238 A 
ATOM      4  O   UNL     1      79.049  86.854  12.138  1.00  0.00    -0.285 OA
ATOM      5  C   UNL     1      78.413  87.160   9.913  1.00  0.00     0.111 A 
ATOM      6  C   UNL     1      79.449  86.378   9.320  1.00  0.00     0.134 A 
ATOM      7  C   UNL     1      79.408  86.103   7.948  1.00  0.00     0.093 A 
ATOM      8  C   UNL     1      78.403  86.637   7.136  1.00  0.00     0.123 A 
ATOM      9  C   UNL     1      77.421  87.451   7.696  1.00  0.00     0.094 A 
ATOM     10  C   UNL     1      77.415  87.712   9.068  1.00  0.00     0.146 A 
ATOM     11  O   UNL     1      76.455  88.485   9.562  1.00  0.00    -0.452 OA
ENDROOT
BRANCH   1  12
ATOM     12  C   UNL     1      75.241  89.674  11.272  1.00  0.00     0.025 A 
ATOM     13  C   UNL     1      73.935  89.166  11.367  1.00  0.00     0.016 A 
ATOM     14  C   UNL     1      72.877  89.997  11.741  1.00  0.00     0.051 A 
ATOM     15  C   UNL     1      73.102  91.351  12.010  1.00  0.00     0.157 A 
ATOM     16  C   UNL     1      75.462  91.039  11.523  1.00  0.00     0.062 A 
ATOM     17  C   UNL     1      74.400  91.877  11.897  1.00  0.00     0.158 A 
BRANCH  15  18
ATOM     18  O   UNL     1      72.027  92.156  12.383  1.00  0.00    -0.504 OA
ATOM     19  H   UNL     1      72.156  93.031  12.877  1.00  0.00     0.293 HD
ENDBRANCH  15  18
BRANCH  17  20
ATOM     20  O   UNL     1      74.629  93.229  12.150  1.00  0.00    -0.504 OA
ATOM     21  H   UNL     1      73.887  93.915  12.082  1.00  0.00     0.293 HD
ENDBRANCH  17  20
ENDBRANCH   1  12
BRANCH   2  22
ATOM     22  O   UNL     1      77.080  88.447  13.144  1.00  0.00    -0.502 OA
ATOM     23  H   UNL     1      77.863  88.508  13.783  1.00  0.00     0.293 HD
ENDBRANCH   2  22
BRANCH   6  24
ATOM     24  O   UNL     1      80.548  85.875  10.024  1.00  0.00    -0.507 OA
ATOM     25  H   UNL     1      80.951  86.305  10.842  1.00  0.00     0.293 HD
ENDBRANCH   6  24
BRANCH   8  26
ATOM     26  O   UNL     1      78.378  86.372   5.769  1.00  0.00    -0.508 OA
ATOM     27  H   UNL     1      77.576  86.612   5.198  1.00  0.00     0.293 HD
ENDBRANCH   8  26
TORSDOF 6
ENDMDL
MODEL 3
REMARK VINA RESULT:    -5.693     18.362     20.257
REMARK INTER + INTRA:          -6.337
REMARK INTER:                  -6.260
REMARK INTRA:                  -0.077
REMARK UNBOUND:                 0.521
REMARK SMILES O=c1c(O)c(-c2ccc(O)c(O)c2)oc2cc(O)cc(O)c12
REMARK SMILES IDX 5 1 3 2 2 3 1 4 22 5 20 6 19 7 17 8 16 9 15 10 14 11 6 12
REMARK SMILES IDX 7 13 8 14 9 15 13 16 11 17 10 18 12 20 4 22 21 24 18 26
REMARK H PARENT 10 19 12 21 4 23 21 25 18 27
REMARK Flexibility Score: inf
ROOT
ATOM      1  C   UNL     1      75.600  89.963  11.790  1.00  0.00     0.180 A 
ATOM      2  C   UNL     1      75.949  90.647  12.967  1.00  0.00     0.208 A 
ATOM      3  C   UNL     1      75.064  91.605  13.486  1.00  0.00     0.238 A 
ATOM      4  O   UNL     1      75.407  92.253  14.509  1.00  0.00    -0.285 OA
ATOM      5  C   UNL     1      73.833  91.855  12.832  1.00  0.00     0.111 A 
ATOM      6  C   UNL     1      72.844  92.774  13.292  1.00  0.00     0.134 A 
ATOM      7  C   UNL     1      71.722  93.037  12.496  1.00  0.00     0.093 A 
ATOM      8  C   UNL     1      71.523  92.365  11.287  1.00  0.00     0.123 A 
ATOM      9  C   UNL     1      72.455  91.422  10.859  1.00  0.00     0.094 A 
ATOM     10  C   UNL     1      73.601  91.165  11.613  1.00  0.00     0.146 A 
ATOM     11  O   UNL     1      74.469  90.266  11.163  1.00  0.00    -0.452 OA
ENDROOT
BRANCH   1  12
ATOM     12  C   UNL     1      76.469  88.922  11.196  1.00  0.00     0.025 A 
ATOM     13  C   UNL     1      75.983  87.612  11.056  1.00  0.00     0.016 A 
ATOM     14  C   UNL     1      76.794  86.610  10.517  1.00  0.00     0.051 A 
ATOM     15  C   UNL     1      78.105  86.895  10.124  1.00  0.00     0.157 A 
ATOM     16  C   UNL     1      77.795  89.202  10.820  1.00  0.00     0.062 A 
ATOM     17  C   UNL     1      78.612  88.197  10.280  1.00  0.00     0.158 A 
BRANCH  15  18
ATOM     18  O   UNL     1      78.889  85.875   9.588  1.00  0.00    -0.504 OA
ATOM     19  H   UNL     1      78.500  85.152   8.995  1.00  0.00     0.293 HD
ENDBRANCH  15  18
BRANCH  17  20
ATOM     20  O   UNL     1      79.923  88.485   9.904  1.00  0.00    -0.504 OA
ATOM     21  H   UNL     1      80.623  87.757   9.822  1.00  0.00     0.293 HD
ENDBRANCH  17  20
ENDBRANCH   1  12
BRANCH   2  22
ATOM     22  O   UNL     1      77.179  90.401  13.584  1.00  0.00    -0.502 OA
ATOM     23  H   UNL     1      77.717  89.562  13.408  1.00  0.00     0.293 HD
ENDBRANCH   2  22
BRANCH   6  24
ATOM     24  O   UNL     1      72.899  93.429  14.526  1.00  0.00    -0.507 OA
ATOM     25  H   UNL     1      72.378  93.156  15.345  1.00  0.00     0.293 HD
ENDBRANCH   6  24
BRANCH   8  26
ATOM     26  O   UNL     1      70.397  92.620  10.508  1.00  0.00    -0.508 OA
ATOM     27  H   UNL     1      70.136  92.013   9.739  1.00  0.00     0.293 HD
ENDBRANCH   8  26
TORSDOF 6
ENDMDL
MODEL 4
REMARK VINA RESULT:    -5.670     18.329     20.483
REMARK INTER + INTRA:          -6.310
REMARK INTER:                  -6.084
REMARK INTRA:                  -0.226
REMARK UNBOUND:                 0.521
REMARK SMILES O=c1c(O)c(-c2ccc(O)c(O)c2)oc2cc(O)cc(O)c12
REMARK SMILES IDX 5 1 3 2 2 3 1 4 22 5 20 6 19 7 17 8 16 9 15 10 14 11 6 12
REMARK SMILES IDX 7 13 8 14 9 15 13 16 11 17 10 18 12 20 4 22 21 24 18 26
REMARK H PARENT 10 19 12 21 4 23 21 25 18 27
REMARK Flexibility Score: inf
ROOT
ATOM      1  C   UNL     1      74.940  88.437  10.891  1.00  0.00     0.180 A 
ATOM      2  C   UNL     1      74.236  87.552  11.725  1.00  0.00     0.208 A 
ATOM      3  C   UNL     1      73.092  88.013  12.395  1.00  0.00     0.238 A 
ATOM      4  O   UNL     1      72.498  87.231  13.183  1.00  0.00    -0.285 OA
ATOM      5  C   UNL     1      72.656  89.347  12.210  1.00  0.00     0.111 A 
ATOM      6  C   UNL     1      71.488  89.908  12.808  1.00  0.00     0.134 A 
ATOM      7  C   UNL     1      71.225  91.275  12.660  1.00  0.00     0.093 A 
ATOM      8  C   UNL     1      72.053  92.088  11.881  1.00  0.00     0.123 A 
ATOM      9  C   UNL     1      73.163  91.537  11.245  1.00  0.00     0.094 A 
ATOM     10  C   UNL     1      73.471  90.184  11.405  1.00  0.00     0.146 A 
ATOM     11  O   UNL     1      74.545  89.701  10.789  1.00  0.00    -0.452 OA
ENDROOT
BRANCH   1  12
ATOM     12  C   UNL     1      76.140  88.019  10.132  1.00  0.00     0.025 A 
ATOM     13  C   UNL     1      76.001  87.136   9.049  1.00  0.00     0.016 A 
ATOM     14  C   UNL     1      77.123  86.711   8.332  1.00  0.00     0.051 A 
ATOM     15  C   UNL     1      78.401  87.150   8.694  1.00  0.00     0.157 A 
ATOM     16  C   UNL     1      77.428  88.442  10.507  1.00  0.00     0.062 A 
ATOM     17  C   UNL     1      78.556  88.016   9.789  1.00  0.00     0.158 A 
BRANCH  15  18
ATOM     18  O   UNL     1      79.500  86.711   7.958  1.00  0.00    -0.504 OA
ATOM     19  H   UNL     1      79.445  86.530   6.963  1.00  0.00     0.293 HD
ENDBRANCH  15  18
BRANCH  17  20
ATOM     20  O   UNL     1      79.829  88.445  10.163  1.00  0.00    -0.504 OA
ATOM     21  H   UNL     1      80.661  87.929   9.902  1.00  0.00     0.293 HD
ENDBRANCH  17  20
ENDBRANCH   1  12
BRANCH   2  22
ATOM     22  O   UNL     1      74.696  86.246  11.911  1.00  0.00    -0.502 OA
ATOM     23  H   UNL     1      75.088  85.695  11.157  1.00  0.00     0.293 HD
ENDBRANCH   2  22
BRANCH   6  24
ATOM     24  O   UNL     1      70.546  89.166  13.527  1.00  0.00    -0.507 OA
ATOM     25  H   UNL     1      70.049  89.501  14.338  1.00  0.00     0.293 HD
ENDBRANCH   6  24
BRANCH   8  26
ATOM     26  O   UNL     1      71.776  93.445  11.726  1.00  0.00    -0.508 OA
ATOM     27  H   UNL     1      72.468  94.154  11.937  1.00  0.00     0.293 HD
ENDBRANCH   8  26
TORSDOF 6
ENDMDL
MODEL 5
REMARK VINA RESULT:    -5.650     17.822     20.007
REMARK INTER + INTRA:          -6.285
REMARK INTER:                  -5.952
REMARK INTRA:                  -0.333
REMARK UNBOUND:                 0.521
REMARK SMILES O=c1c(O)c(-c2ccc(O)c(O)c2)oc2cc(O)cc(O)c12
REMARK SMILES IDX 5 1 3 2 2 3 1 4 22 5 20 6 19 7 17 8 16 9 15 10 14 11 6 12
REMARK SMILES IDX 7 13 8 14 9 15 13 16 11 17 10 18 12 20 4 22 21 24 18 26
REMARK H PARENT 10 19 12 21 4 23 21 25 18 27
REMARK Flexibility Score: inf
ROOT
ATOM      1  C   UNL     1      75.656  88.450  10.638  1.00  0.00     0.180 A 
ATOM      2  C   UNL     1      74.645  87.602  11.122  1.00  0.00     0.208 A 
ATOM      3  C   UNL     1      73.542  88.166  11.782  1.00  0.00     0.238 A 
ATOM      4  O   UNL     1      72.668  87.397  12.262  1.00  0.00    -0.285 OA
ATOM      5  C   UNL     1      73.453  89.571  11.935  1.00  0.00     0.111 A 
ATOM      6  C   UNL     1      72.362  90.251  12.551  1.00  0.00     0.134 A 
ATOM      7  C   UNL     1      72.441  91.633  12.764  1.00  0.00     0.093 A 
ATOM      8  C   UNL     1      73.545  92.367  12.324  1.00  0.00     0.123 A 
ATOM      9  C   UNL     1      74.590  91.720  11.668  1.00  0.00     0.094 A 
ATOM     10  C   UNL     1      74.556  90.337  11.474  1.00  0.00     0.146 A 
ATOM     11  O   UNL     1      75.577  89.759  10.853  1.00  0.00    -0.452 OA
ENDROOT
BRANCH   1  12
ATOM     12  C   UNL     1      76.837  87.933   9.910  1.00  0.00     0.025 A 
ATOM     13  C   UNL     1      78.028  87.686  10.611  1.00  0.00     0.016 A 
ATOM     14  C   UNL     1      79.161  87.217   9.941  1.00  0.00     0.051 A 
ATOM     15  C   UNL     1      79.127  87.003   8.559  1.00  0.00     0.157 A 
ATOM     16  C   UNL     1      76.812  87.737   8.518  1.00  0.00     0.062 A 
ATOM     17  C   UNL     1      77.948  87.268   7.842  1.00  0.00     0.158 A 
BRANCH  15  18
ATOM     18  O   UNL     1      80.272  86.533   7.918  1.00  0.00    -0.504 OA
ATOM     19  H   UNL     1      81.103  87.103   7.816  1.00  0.00     0.293 HD
ENDBRANCH  15  18
BRANCH  17  20
ATOM     20  O   UNL     1      77.912  87.071   6.462  1.00  0.00    -0.504 OA
ATOM     21  H   UNL     1      77.535  87.771   5.836  1.00  0.00     0.293 HD
ENDBRANCH  17  20
ENDBRANCH   1  12
BRANCH   2  22
ATOM     22  O   UNL     1      74.763  86.217  10.981  1.00  0.00    -0.502 OA
ATOM     23  H   UNL     1      74.670  85.752  10.086  1.00  0.00     0.293 HD
ENDBRANCH   2  22
BRANCH   6  24
ATOM     24  O   UNL     1      71.173  89.627  12.943  1.00  0.00    -0.507 OA
ATOM     25  H   UNL     1      70.738  88.861  12.452  1.00  0.00     0.293 HD
ENDBRANCH   6  24
BRANCH   8  26
ATOM     26  O   UNL     1      73.610  93.745  12.525  1.00  0.00    -0.508 OA
ATOM     27  H   UNL     1      73.403  94.399  11.779  1.00  0.00     0.293 HD
ENDBRANCH   8  26
TORSDOF 6
ENDMDL
MODEL 6
REMARK VINA RESULT:    -5.650     16.808     17.717
REMARK INTER + INTRA:          -6.285
REMARK INTER:                  -6.037
REMARK INTRA:                  -0.248
REMARK UNBOUND:                 0.521
REMARK SMILES O=c1c(O)c(-c2ccc(O)c(O)c2)oc2cc(O)cc(O)c12
REMARK SMILES IDX 5 1 3 2 2 3 1 4 22 5 20 6 19 7 17 8 16 9 15 10 14 11 6 12
REMARK SMILES IDX 7 13 8 14 9 15 13 16 11 17 10 18 12 20 4 22 21 24 18 26
REMARK H PARENT 10 19 12 21 4 23 21 25 18 27
REMARK Flexibility Score: inf
ROOT
ATOM      1  C   UNL     1      67.999 100.791   7.161  1.00  0.00     0.180 A 
ATOM      2  C   UNL     1      68.561 101.545   8.205  1.00  0.00     0.208 A 
ATOM      3  C   UNL     1      69.314 100.889   9.191  1.00  0.00     0.238 A 
ATOM      4  O   UNL     1      69.767 101.562  10.153  1.00  0.00    -0.285 OA
ATOM      5  C   UNL     1      69.511  99.489   9.112  1.00  0.00     0.111 A 
ATOM      6  C   UNL     1      70.290  98.727  10.033  1.00  0.00     0.134 A 
ATOM      7  C   UNL     1      70.308  97.330   9.932  1.00  0.00     0.093 A 
ATOM      8  C   UNL     1      69.629  96.673   8.903  1.00  0.00     0.123 A 
ATOM      9  C   UNL     1      68.915  97.413   7.963  1.00  0.00     0.094 A 
ATOM     10  C   UNL     1      68.847  98.805   8.060  1.00  0.00     0.146 A 
ATOM     11  O   UNL     1      68.147  99.471   7.149  1.00  0.00    -0.452 OA
ENDROOT
BRANCH   1  12
ATOM     12  C   UNL     1      67.214 101.415   6.071  1.00  0.00     0.025 A 
ATOM     13  C   UNL     1      65.838 101.154   5.974  1.00  0.00     0.016 A 
ATOM     14  C   UNL     1      65.082 101.716   4.942  1.00  0.00     0.051 A 
ATOM     15  C   UNL     1      65.690 102.533   3.984  1.00  0.00     0.157 A 
ATOM     16  C   UNL     1      67.827 102.220   5.095  1.00  0.00     0.062 A 
ATOM     17  C   UNL     1      67.071 102.783   4.056  1.00  0.00     0.158 A 
BRANCH  15  18
ATOM     18  O   UNL     1      64.909 103.081   2.967  1.00  0.00    -0.504 OA
ATOM     19  H   UNL     1      64.417 102.504   2.296  1.00  0.00     0.293 HD
ENDBRANCH  15  18
BRANCH  17  20
ATOM     20  O   UNL     1      67.685 103.585   3.096  1.00  0.00    -0.504 OA
ATOM     21  H   UNL     1      68.645 103.431   2.811  1.00  0.00     0.293 HD
ENDBRANCH  17  20
ENDBRANCH   1  12
BRANCH   2  22
ATOM     22  O   UNL     1      68.335 102.922   8.277  1.00  0.00    -0.502 OA
ATOM     23  H   UNL     1      68.524 103.462   9.112  1.00  0.00     0.293 HD
ENDBRANCH   2  22
BRANCH   6  24
ATOM     24  O   UNL     1      71.079  99.290  11.040  1.00  0.00    -0.507 OA
ATOM     25  H   UNL     1      70.866 100.148  11.525  1.00  0.00     0.293 HD
ENDBRANCH   6  24
BRANCH   8  26
ATOM     26  O   UNL     1      69.666  95.284   8.799  1.00  0.00    -0.508 OA
ATOM     27  H   UNL     1      69.606  94.819   7.901  1.00  0.00     0.293 HD
ENDBRANCH   8  26
TORSDOF 6
ENDMDL
MODEL 7
REMARK VINA RESULT:    -5.647     17.775     18.903
REMARK INTER + INTRA:          -6.282
REMARK INTER:                  -6.000
REMARK INTRA:                  -0.282
REMARK UNBOUND:                 0.521
REMARK SMILES O=c1c(O)c(-c2ccc(O)c(O)c2)oc2cc(O)cc(O)c12
REMARK SMILES IDX 5 1 3 2 2 3 1 4 22 5 20 6 19 7 17 8 16 9 15 10 14 11 6 12
REMARK SMILES IDX 7 13 8 14 9 15 13 16 11 17 10 18 12 20 4 22 21 24 18 26
REMARK H PARENT 10 19 12 21 4 23 21 25 18 27
REMARK Flexibility Score: inf
ROOT
ATOM      1  C   UNL     1      75.515  89.197  11.268  1.00  0.00     0.180 A 
ATOM      2  C   UNL     1      76.275  88.621  12.300  1.00  0.00     0.208 A 
ATOM      3  C   UNL     1      77.322  87.747  11.968  1.00  0.00     0.238 A 
ATOM      4  O   UNL     1      77.963  87.191  12.898  1.00  0.00    -0.285 OA
ATOM      5  C   UNL     1      77.608  87.474  10.608  1.00  0.00     0.111 A 
ATOM      6  C   UNL     1      78.671  86.636  10.156  1.00  0.00     0.134 A 
ATOM      7  C   UNL     1      78.779  86.332   8.794  1.00  0.00     0.093 A 
ATOM      8  C   UNL     1      77.902  86.889   7.859  1.00  0.00     0.123 A 
ATOM      9  C   UNL     1      76.897  87.755   8.285  1.00  0.00     0.094 A 
ATOM     10  C   UNL     1      76.741  88.048   9.641  1.00  0.00     0.146 A 
ATOM     11  O   UNL     1      75.764  88.871  10.005  1.00  0.00    -0.452 OA
ENDROOT
BRANCH   1  12
ATOM     12  C   UNL     1      74.411  90.147  11.538  1.00  0.00     0.025 A 
ATOM     13  C   UNL     1      73.082  89.729  11.364  1.00  0.00     0.016 A 
ATOM     14  C   UNL     1      72.025  90.615  11.594  1.00  0.00     0.051 A 
ATOM     15  C   UNL     1      72.280  91.933  11.984  1.00  0.00     0.157 A 
ATOM     16  C   UNL     1      74.665  91.478  11.910  1.00  0.00     0.062 A 
ATOM     17  C   UNL     1      73.607  92.370  12.139  1.00  0.00     0.158 A 
BRANCH  15  18
ATOM     18  O   UNL     1      71.206  92.793  12.207  1.00  0.00    -0.504 OA
ATOM     19  H   UNL     1      70.245  92.480  12.148  1.00  0.00     0.293 HD
ENDBRANCH  15  18
BRANCH  17  20
ATOM     20  O   UNL     1      73.868  93.687  12.515  1.00  0.00    -0.504 OA
ATOM     21  H   UNL     1      74.815  94.030  12.623  1.00  0.00     0.293 HD
ENDBRANCH  17  20
ENDBRANCH   1  12
BRANCH   2  22
ATOM     22  O   UNL     1      75.961  88.886  13.635  1.00  0.00    -0.502 OA
ATOM     23  H   UNL     1      76.474  89.561  14.191  1.00  0.00     0.293 HD
ENDBRANCH   2  22
BRANCH   6  24
ATOM     24  O   UNL     1      79.656  86.104  10.994  1.00  0.00    -0.507 OA
ATOM     25  H   UNL     1      80.061  85.186  10.893  1.00  0.00     0.293 HD
ENDBRANCH   6  24
BRANCH   8  26
ATOM     26  O   UNL     1      78.026  86.595   6.503  1.00  0.00    -0.508 OA
ATOM     27  H   UNL     1      78.449  85.730   6.186  1.00  0.00     0.293 HD
ENDBRANCH   8  26
TORSDOF 6
ENDMDL
MODEL 8
REMARK VINA RESULT:    -5.478     16.636     18.378
REMARK INTER + INTRA:          -6.078
REMARK INTER:                  -5.804
REMARK INTRA:                  -0.274
REMARK UNBOUND:                 0.521
REMARK SMILES O=c1c(O)c(-c2ccc(O)c(O)c2)oc2cc(O)cc(O)c12
REMARK SMILES IDX 5 1 3 2 2 3 1 4 22 5 20 6 19 7 17 8 16 9 15 10 14 11 6 12
REMARK SMILES IDX 7 13 8 14 9 15 13 16 11 17 10 18 12 20 4 22 21 24 18 26
REMARK H PARENT 10 19 12 21 4 23 21 25 18 27
REMARK Flexibility Score: inf
ROOT
ATOM      1  C   UNL     1      68.206 101.421   7.248  1.00  0.00     0.180 A 
ATOM      2  C   UNL     1      69.095 100.338   7.145  1.00  0.00     0.208 A 
ATOM      3  C   UNL     1      69.841  99.958   8.272  1.00  0.00     0.238 A 
ATOM      4  O   UNL     1      70.675  99.023   8.158  1.00  0.00    -0.285 OA
ATOM      5  C   UNL     1      69.676 100.655   9.494  1.00  0.00     0.111 A 
ATOM      6  C   UNL     1      70.350 100.331  10.709  1.00  0.00     0.134 A 
ATOM      7  C   UNL     1      70.209 101.170  11.821  1.00  0.00     0.093 A 
ATOM      8  C   UNL     1      69.367 102.284  11.781  1.00  0.00     0.123 A 
ATOM      9  C   UNL     1      68.659 102.575  10.618  1.00  0.00     0.094 A 
ATOM     10  C   UNL     1      68.808 101.778   9.480  1.00  0.00     0.146 A 
ATOM     11  O   UNL     1      68.122 102.097   8.388  1.00  0.00    -0.452 OA
ENDROOT
BRANCH   1  12
ATOM     12  C   UNL     1      67.368 101.865   6.111  1.00  0.00     0.025 A 
ATOM     13  C   UNL     1      66.018 101.482   6.056  1.00  0.00     0.016 A 
ATOM     14  C   UNL     1      65.215 101.872   4.982  1.00  0.00     0.051 A 
ATOM     15  C   UNL     1      65.749 102.636   3.940  1.00  0.00     0.157 A 
ATOM     16  C   UNL     1      67.909 102.616   5.052  1.00  0.00     0.062 A 
ATOM     17  C   UNL     1      67.104 103.007   3.971  1.00  0.00     0.158 A 
BRANCH  15  18
ATOM     18  O   UNL     1      64.922 103.012   2.882  1.00  0.00    -0.504 OA
ATOM     19  H   UNL     1      63.971 102.674   2.796  1.00  0.00     0.293 HD
ENDBRANCH  15  18
BRANCH  17  20
ATOM     20  O   UNL     1      67.646 103.756   2.928  1.00  0.00    -0.504 OA
ATOM     21  H   UNL     1      67.100 104.000   2.110  1.00  0.00     0.293 HD
ENDBRANCH  17  20
ENDBRANCH   1  12
BRANCH   2  22
ATOM     22  O   UNL     1      69.259  99.678   5.924  1.00  0.00    -0.502 OA
ATOM     23  H   UNL     1      68.486  99.249   5.429  1.00  0.00     0.293 HD
ENDBRANCH   2  22
BRANCH   6  24
ATOM     24  O   UNL     1      71.140  99.191  10.883  1.00  0.00    -0.507 OA
ATOM     25  H   UNL     1      70.784  98.277  11.116  1.00  0.00     0.293 HD
ENDBRANCH   6  24
BRANCH   8  26
ATOM     26  O   UNL     1      69.220 103.105  12.898  1.00  0.00    -0.508 OA
ATOM     27  H   UNL     1      69.477 104.085  12.872  1.00  0.00     0.293 HD
ENDBRANCH   8  26
TORSDOF 6
ENDMDL
MODEL 9
REMARK VINA RESULT:    -5.350     18.147     20.011
REMARK INTER + INTRA:          -5.924
REMARK INTER:                  -5.739
REMARK INTRA:                  -0.185
REMARK UNBOUND:                 0.521
REMARK SMILES O=c1c(O)c(-c2ccc(O)c(O)c2)oc2cc(O)cc(O)c12
REMARK SMILES IDX 5 1 3 2 2 3 1 4 22 5 20 6 19 7 17 8 16 9 15 10 14 11 6 12
REMARK SMILES IDX 7 13 8 14 9 15 13 16 11 17 10 18 12 20 4 22 21 24 18 26
REMARK H PARENT 10 19 12 21 4 23 21 25 18 27
REMARK Flexibility Score: inf
ROOT
ATOM      1  C   UNL     1      75.911  89.148  11.087  1.00  0.00     0.180 A 
ATOM      2  C   UNL     1      76.310  90.345  11.707  1.00  0.00     0.208 A 
ATOM      3  C   UNL     1      75.358  91.095  12.416  1.00  0.00     0.238 A 
ATOM      4  O   UNL     1      75.708  92.193  12.921  1.00  0.00    -0.285 OA
ATOM      5  C   UNL     1      74.023  90.631  12.511  1.00  0.00     0.111 A 
ATOM      6  C   UNL     1      72.986  91.289  13.236  1.00  0.00     0.134 A 
ATOM      7  C   UNL     1      71.673  90.810  13.153  1.00  0.00     0.093 A 
ATOM      8  C   UNL     1      71.372  89.657  12.423  1.00  0.00     0.123 A 
ATOM      9  C   UNL     1      72.389  88.974  11.759  1.00  0.00     0.094 A 
ATOM     10  C   UNL     1      73.702  89.449  11.794  1.00  0.00     0.146 A 
ATOM     11  O   UNL     1      74.638  88.772  11.139  1.00  0.00    -0.452 OA
ENDROOT
BRANCH   1  12
ATOM     12  C   UNL     1      76.862  88.291  10.344  1.00  0.00     0.025 A 
ATOM     13  C   UNL     1      77.905  87.653  11.035  1.00  0.00     0.016 A 
ATOM     14  C   UNL     1      78.826  86.856  10.351  1.00  0.00     0.051 A 
ATOM     15  C   UNL     1      78.729  86.696   8.965  1.00  0.00     0.157 A 
ATOM     16  C   UNL     1      76.780  88.145   8.948  1.00  0.00     0.062 A 
ATOM     17  C   UNL     1      77.704  87.347   8.258  1.00  0.00     0.158 A 
BRANCH  15  18
ATOM     18  O   UNL     1      79.661  85.893   8.309  1.00  0.00    -0.504 OA
ATOM     19  H   UNL     1      79.973  85.009   8.692  1.00  0.00     0.293 HD
ENDBRANCH  15  18
BRANCH  17  20
ATOM     20  O   UNL     1      77.611  87.202   6.874  1.00  0.00    -0.504 OA
ATOM     21  H   UNL     1      77.824  86.324   6.417  1.00  0.00     0.293 HD
ENDBRANCH  17  20
ENDBRANCH   1  12
BRANCH   2  22
ATOM     22  O   UNL     1      77.627  90.796  11.582  1.00  0.00    -0.502 OA
ATOM     23  H   UNL     1      78.416  90.277  11.946  1.00  0.00     0.293 HD
ENDBRANCH   2  22
BRANCH   6  24
ATOM     24  O   UNL     1      73.196  92.392  14.070  1.00  0.00    -0.507 OA
ATOM     25  H   UNL     1      72.680  93.257  14.018  1.00  0.00     0.293 HD
ENDBRANCH   6  24
BRANCH   8  26
ATOM     26  O   UNL     1      70.066  89.177  12.358  1.00  0.00    -0.508 OA
ATOM     27  H   UNL     1      69.839  88.329  11.852  1.00  0.00     0.293 HD
ENDBRANCH   8  26
TORSDOF 6
ENDMDL
