MODEL 1
REMARK VINA RESULT:    -4.560      0.000      0.000
REMARK INTER + INTRA:         -14.262
REMARK INTER:                 -10.425
REMARK INTRA:                  -3.837
REMARK UNBOUND:                -3.837
REMARK SMILES CCCCCCCCCCCCCCCCCCCCCCCC(=O)[O-]
REMARK SMILES IDX 13 1 14 2 15 3 16 4 17 5 18 6 19 7 20 8 21 9 22 10 23 11
REMARK SMILES IDX 24 12 25 13 26 14 12 15 11 16 10 17 9 18 8 19 7 20 6 21 5 22
REMARK SMILES IDX 4 23 3 24 2 25 1 26
REMARK H PARENT
REMARK Flexibility Score: inf
ROOT
ATOM      1  C   UNL     1     -13.773   1.639  23.116  1.00  0.00     0.000 C 
ENDROOT
BRANCH   1   2
ATOM      2  C   UNL     1     -13.100   2.990  23.440  1.00  0.00     0.000 C 
BRANCH   2   3
ATOM      3  C   UNL     1     -13.049   3.956  22.244  1.00  0.00     0.000 C 
BRANCH   3   4
ATOM      4  C   UNL     1     -13.688   3.372  20.974  1.00  0.00     0.000 C 
BRANCH   4   5
ATOM      5  C   UNL     1     -13.680   4.372  19.799  1.00  0.00     0.000 C 
BRANCH   5   6
ATOM      6  C   UNL     1     -12.365   4.374  19.000  1.00  0.00     0.000 C 
BRANCH   6   7
ATOM      7  C   UNL     1     -12.568   4.027  17.517  1.00  0.00     0.000 C 
BRANCH   7   8
ATOM      8  C   UNL     1     -11.647   2.891  17.043  1.00  0.00     0.000 C 
BRANCH   8   9
ATOM      9  C   UNL     1     -10.506   3.395  16.142  1.00  0.00     0.000 C 
BRANCH   9  10
ATOM     10  C   UNL     1      -9.427   2.325  15.890  1.00  0.00     0.006 C 
BRANCH  10  11
ATOM     11  C   UNL     1      -9.967   0.891  15.776  1.00  0.00     0.053 C 
BRANCH  11  12
ATOM     12  C   UNL     1     -10.188   0.483  14.351  1.00  0.00     0.041 C 
ATOM     13  O   UNL     1      -9.230   0.487  13.535  1.00  0.00    -0.550 OA
ATOM     14  O   UNL     1     -11.444   0.055  13.936  1.00  0.00    -0.550 OA
ENDBRANCH  11  12
ENDBRANCH  10  11
ENDBRANCH   9  10
ENDBRANCH   8   9
ENDBRANCH   7   8
ENDBRANCH   6   7
ENDBRANCH   5   6
ENDBRANCH   4   5
ENDBRANCH   3   4
ENDBRANCH   2   3
ENDBRANCH   1   2
BRANCH   1  15
ATOM     15  C   UNL     1     -12.777   0.469  23.139  1.00  0.00     0.000 C 
BRANCH  15  16
ATOM     16  C   UNL     1     -12.309   0.171  24.568  1.00  0.00     0.000 C 
BRANCH  16  17
ATOM     17  C   UNL     1     -10.783   0.294  24.685  1.00  0.00     0.000 C 
BRANCH  17  18
ATOM     18  C   UNL     1     -10.120   0.684  23.353  1.00  0.00    -0.000 C 
BRANCH  18  19
ATOM     19  C   UNL     1      -9.416   2.051  23.423  1.00  0.00    -0.000 C 
BRANCH  19  20
ATOM     20  C   UNL     1      -9.494   2.820  22.094  1.00  0.00    -0.000 C 
BRANCH  20  21
ATOM     21  C   UNL     1     -10.144   1.992  20.971  1.00  0.00    -0.000 C 
BRANCH  21  22
ATOM     22  C   UNL     1      -9.242   1.895  19.722  1.00  0.00    -0.000 C 
BRANCH  22  23
ATOM     23  C   UNL     1      -9.093   0.463  19.176  1.00  0.00    -0.000 C 
BRANCH  23  24
ATOM     24  C   UNL     1      -9.003  -0.593  20.289  1.00  0.00    -0.000 C 
BRANCH  24  25
ATOM     25  C   UNL     1     -10.050  -1.707  20.132  1.00  0.00    -0.003 C 
ATOM     26  C   UNL     1     -11.481  -1.174  20.074  1.00  0.00     0.004 C 
ENDBRANCH  24  25
ENDBRANCH  23  24
ENDBRANCH  22  23
ENDBRANCH  21  22
ENDBRANCH  20  21
ENDBRANCH  19  20
ENDBRANCH  18  19
ENDBRANCH  17  18
ENDBRANCH  16  17
ENDBRANCH  15  16
ENDBRANCH   1  15
TORSDOF 22
ENDMDL
MODEL 2
REMARK VINA RESULT:    -4.556      3.204      5.776
REMARK INTER + INTRA:         -14.253
REMARK INTER:                 -10.881
REMARK INTRA:                  -3.372
REMARK UNBOUND:                -3.837
REMARK SMILES CCCCCCCCCCCCCCCCCCCCCCCC(=O)[O-]
REMARK SMILES IDX 13 1 14 2 15 3 16 4 17 5 18 6 19 7 20 8 21 9 22 10 23 11
REMARK SMILES IDX 24 12 25 13 26 14 12 15 11 16 10 17 9 18 8 19 7 20 6 21 5 22
REMARK SMILES IDX 4 23 3 24 2 25 1 26
REMARK H PARENT
REMARK Flexibility Score: inf
ROOT
ATOM      1  C   UNL     1     -11.398   0.564  22.149  1.00  0.00     0.000 C 
ENDROOT
BRANCH   1   2
ATOM      2  C   UNL     1      -9.901   0.519  22.521  1.00  0.00     0.000 C 
BRANCH   2   3
ATOM      3  C   UNL     1      -9.160  -0.704  21.954  1.00  0.00     0.000 C 
BRANCH   3   4
ATOM      4  C   UNL     1      -9.657  -1.111  20.558  1.00  0.00     0.000 C 
BRANCH   4   5
ATOM      5  C   UNL     1      -8.829  -0.465  19.428  1.00  0.00     0.000 C 
BRANCH   5   6
ATOM      6  C   UNL     1      -9.531   0.728  18.755  1.00  0.00     0.000 C 
BRANCH   6   7
ATOM      7  C   UNL     1      -9.000   2.085  19.246  1.00  0.00     0.000 C 
BRANCH   7   8
ATOM      8  C   UNL     1      -8.274   2.870  18.142  1.00  0.00     0.000 C 
BRANCH   8   9
ATOM      9  C   UNL     1      -7.689   4.199  18.653  1.00  0.00     0.000 C 
BRANCH   9  10
ATOM     10  C   UNL     1      -6.384   4.010  19.449  1.00  0.00     0.006 C 
BRANCH  10  11
ATOM     11  C   UNL     1      -5.111   3.989  18.588  1.00  0.00     0.053 C 
BRANCH  11  12
ATOM     12  C   UNL     1      -4.581   5.368  18.331  1.00  0.00     0.041 C 
ATOM     13  O   UNL     1      -4.584   6.229  19.249  1.00  0.00    -0.550 OA
ATOM     14  O   UNL     1      -4.044   5.686  17.089  1.00  0.00    -0.550 OA
ENDBRANCH  11  12
ENDBRANCH  10  11
ENDBRANCH   9  10
ENDBRANCH   8   9
ENDBRANCH   7   8
ENDBRANCH   6   7
ENDBRANCH   5   6
ENDBRANCH   4   5
ENDBRANCH   3   4
ENDBRANCH   2   3
ENDBRANCH   1   2
BRANCH   1  15
ATOM     15  C   UNL     1     -11.985   1.980  22.256  1.00  0.00     0.000 C 
BRANCH  15  16
ATOM     16  C   UNL     1     -12.394   2.513  20.878  1.00  0.00     0.000 C 
BRANCH  16  17
ATOM     17  C   UNL     1     -11.606   3.783  20.523  1.00  0.00     0.000 C 
BRANCH  17  18
ATOM     18  C   UNL     1     -12.302   4.625  19.442  1.00  0.00    -0.000 C 
BRANCH  18  19
ATOM     19  C   UNL     1     -11.303   5.280  18.471  1.00  0.00    -0.000 C 
BRANCH  19  20
ATOM     20  C   UNL     1     -11.364   4.664  17.064  1.00  0.00    -0.000 C 
BRANCH  20  21
ATOM     21  C   UNL     1     -12.475   3.607  16.930  1.00  0.00    -0.000 C 
BRANCH  21  22
ATOM     22  C   UNL     1     -11.929   2.247  16.442  1.00  0.00    -0.000 C 
BRANCH  22  23
ATOM     23  C   UNL     1     -10.767   2.370  15.440  1.00  0.00    -0.000 C 
BRANCH  23  24
ATOM     24  C   UNL     1      -9.940   1.079  15.326  1.00  0.00    -0.000 C 
BRANCH  24  25
ATOM     25  C   UNL     1     -10.197   0.327  14.011  1.00  0.00    -0.003 C 
ATOM     26  C   UNL     1     -11.676   0.017  13.783  1.00  0.00     0.004 C 
ENDBRANCH  24  25
ENDBRANCH  23  24
ENDBRANCH  22  23
ENDBRANCH  21  22
ENDBRANCH  20  21
ENDBRANCH  19  20
ENDBRANCH  18  19
ENDBRANCH  17  18
ENDBRANCH  16  17
ENDBRANCH  15  16
ENDBRANCH   1  15
TORSDOF 22
ENDMDL
MODEL 3
REMARK VINA RESULT:    -4.539      2.481      5.359
REMARK INTER + INTRA:         -14.213
REMARK INTER:                  -9.482
REMARK INTRA:                  -4.730
REMARK UNBOUND:                -3.837
REMARK SMILES CCCCCCCCCCCCCCCCCCCCCCCC(=O)[O-]
REMARK SMILES IDX 13 1 14 2 15 3 16 4 17 5 18 6 19 7 20 8 21 9 22 10 23 11
REMARK SMILES IDX 24 12 25 13 26 14 12 15 11 16 10 17 9 18 8 19 7 20 6 21 5 22
REMARK SMILES IDX 4 23 3 24 2 25 1 26
REMARK H PARENT
REMARK Flexibility Score: inf
ROOT
ATOM      1  C   UNL     1     -10.753   2.821  23.183  1.00  0.00     0.000 C 
ENDROOT
BRANCH   1   2
ATOM      2  C   UNL     1      -9.591   1.805  23.214  1.00  0.00     0.000 C 
BRANCH   2   3
ATOM      3  C   UNL     1     -10.054   0.339  23.231  1.00  0.00     0.000 C 
BRANCH   3   4
ATOM      4  C   UNL     1      -9.060  -0.612  22.547  1.00  0.00     0.000 C 
BRANCH   4   5
ATOM      5  C   UNL     1      -9.531  -1.044  21.143  1.00  0.00     0.000 C 
BRANCH   5   6
ATOM      6  C   UNL     1     -10.935  -0.529  20.778  1.00  0.00     0.000 C 
BRANCH   6   7
ATOM      7  C   UNL     1     -10.915   0.486  19.625  1.00  0.00     0.000 C 
BRANCH   7   8
ATOM      8  C   UNL     1      -9.592   0.468  18.842  1.00  0.00     0.000 C 
BRANCH   8   9
ATOM      9  C   UNL     1      -8.707   1.687  19.155  1.00  0.00     0.000 C 
BRANCH   9  10
ATOM     10  C   UNL     1      -9.525   2.942  19.515  1.00  0.00     0.006 C 
BRANCH  10  11
ATOM     11  C   UNL     1      -8.732   4.027  20.261  1.00  0.00     0.053 C 
BRANCH  11  12
ATOM     12  C   UNL     1      -8.404   5.194  19.379  1.00  0.00     0.041 C 
ATOM     13  O   UNL     1      -8.460   5.077  18.127  1.00  0.00    -0.550 OA
ATOM     14  O   UNL     1      -8.081   6.422  19.943  1.00  0.00    -0.550 OA
ENDBRANCH  11  12
ENDBRANCH  10  11
ENDBRANCH   9  10
ENDBRANCH   8   9
ENDBRANCH   7   8
ENDBRANCH   6   7
ENDBRANCH   5   6
ENDBRANCH   4   5
ENDBRANCH   3   4
ENDBRANCH   2   3
ENDBRANCH   1   2
BRANCH   1  15
ATOM     15  C   UNL     1     -12.127   2.141  23.285  1.00  0.00     0.000 C 
BRANCH  15  16
ATOM     16  C   UNL     1     -12.972   2.416  22.035  1.00  0.00     0.000 C 
BRANCH  16  17
ATOM     17  C   UNL     1     -12.580   3.753  21.389  1.00  0.00     0.000 C 
BRANCH  17  18
ATOM     18  C   UNL     1     -13.275   3.980  20.037  1.00  0.00    -0.000 C 
BRANCH  18  19
ATOM     19  C   UNL     1     -12.718   5.203  19.286  1.00  0.00    -0.000 C 
BRANCH  19  20
ATOM     20  C   UNL     1     -12.082   4.825  17.938  1.00  0.00    -0.000 C 
BRANCH  20  21
ATOM     21  C   UNL     1     -12.812   3.658  17.248  1.00  0.00    -0.000 C 
BRANCH  21  22
ATOM     22  C   UNL     1     -11.830   2.662  16.596  1.00  0.00    -0.000 C 
BRANCH  22  23
ATOM     23  C   UNL     1     -10.643   3.337  15.885  1.00  0.00    -0.000 C 
BRANCH  23  24
ATOM     24  C   UNL     1      -9.466   2.378  15.646  1.00  0.00    -0.000 C 
BRANCH  24  25
ATOM     25  C   UNL     1      -9.927   0.952  15.304  1.00  0.00    -0.003 C 
ATOM     26  C   UNL     1      -9.732   0.602  13.829  1.00  0.00     0.004 C 
ENDBRANCH  24  25
ENDBRANCH  23  24
ENDBRANCH  22  23
ENDBRANCH  21  22
ENDBRANCH  20  21
ENDBRANCH  19  20
ENDBRANCH  18  19
ENDBRANCH  17  18
ENDBRANCH  16  17
ENDBRANCH  15  16
ENDBRANCH   1  15
TORSDOF 22
ENDMDL
MODEL 4
REMARK VINA RESULT:    -4.416     10.539     13.888
REMARK INTER + INTRA:         -13.932
REMARK INTER:                  -9.740
REMARK INTRA:                  -4.192
REMARK UNBOUND:                -3.837
REMARK SMILES CCCCCCCCCCCCCCCCCCCCCCCC(=O)[O-]
REMARK SMILES IDX 13 1 14 2 15 3 16 4 17 5 18 6 19 7 20 8 21 9 22 10 23 11
REMARK SMILES IDX 24 12 25 13 26 14 12 15 11 16 10 17 9 18 8 19 7 20 6 21 5 22
REMARK SMILES IDX 4 23 3 24 2 25 1 26
REMARK H PARENT
REMARK Flexibility Score: inf
ROOT
ATOM      1  C   UNL     1      -2.873  -7.846  21.028  1.00  0.00     0.000 C 
ENDROOT
BRANCH   1   2
ATOM      2  C   UNL     1      -2.848  -9.296  20.500  1.00  0.00     0.000 C 
BRANCH   2   3
ATOM      3  C   UNL     1      -1.434  -9.893  20.404  1.00  0.00     0.000 C 
BRANCH   3   4
ATOM      4  C   UNL     1      -0.328  -8.862  20.682  1.00  0.00     0.000 C 
BRANCH   4   5
ATOM      5  C   UNL     1       0.358  -8.373  19.389  1.00  0.00     0.000 C 
BRANCH   5   6
ATOM      6  C   UNL     1       0.393  -9.432  18.272  1.00  0.00     0.000 C 
BRANCH   6   7
ATOM      7  C   UNL     1      -0.075  -8.881  16.916  1.00  0.00     0.000 C 
BRANCH   7   8
ATOM      8  C   UNL     1      -0.707  -9.963  16.024  1.00  0.00     0.000 C 
BRANCH   8   9
ATOM      9  C   UNL     1      -1.545 -10.972  16.828  1.00  0.00     0.000 C 
BRANCH   9  10
ATOM     10  C   UNL     1      -2.990 -10.494  17.065  1.00  0.00     0.006 C 
BRANCH  10  11
ATOM     11  C   UNL     1      -3.617  -9.747  15.876  1.00  0.00     0.053 C 
BRANCH  11  12
ATOM     12  C   UNL     1      -4.805 -10.470  15.318  1.00  0.00     0.041 C 
ATOM     13  O   UNL     1      -5.960 -10.217  15.749  1.00  0.00    -0.550 OA
ATOM     14  O   UNL     1      -4.640 -11.392  14.291  1.00  0.00    -0.550 OA
ENDBRANCH  11  12
ENDBRANCH  10  11
ENDBRANCH   9  10
ENDBRANCH   8   9
ENDBRANCH   7   8
ENDBRANCH   6   7
ENDBRANCH   5   6
ENDBRANCH   4   5
ENDBRANCH   3   4
ENDBRANCH   2   3
ENDBRANCH   1   2
BRANCH   1  15
ATOM     15  C   UNL     1      -3.498  -6.867  20.021  1.00  0.00     0.000 C 
BRANCH  15  16
ATOM     16  C   UNL     1      -3.072  -7.207  18.587  1.00  0.00     0.000 C 
BRANCH  16  17
ATOM     17  C   UNL     1      -2.262  -6.059  17.967  1.00  0.00     0.000 C 
BRANCH  17  18
ATOM     18  C   UNL     1      -1.743  -5.068  19.022  1.00  0.00    -0.000 C 
BRANCH  18  19
ATOM     19  C   UNL     1      -0.227  -4.829  18.910  1.00  0.00    -0.000 C 
BRANCH  19  20
ATOM     20  C   UNL     1       0.434  -4.604  20.279  1.00  0.00    -0.000 C 
BRANCH  20  21
ATOM     21  C   UNL     1      -0.411  -5.157  21.441  1.00  0.00    -0.000 C 
BRANCH  21  22
ATOM     22  C   UNL     1      -0.318  -4.272  22.702  1.00  0.00    -0.000 C 
BRANCH  22  23
ATOM     23  C   UNL     1      -1.240  -3.040  22.664  1.00  0.00    -0.000 C 
BRANCH  23  24
ATOM     24  C   UNL     1      -2.621  -3.348  22.062  1.00  0.00    -0.000 C 
BRANCH  24  25
ATOM     25  C   UNL     1      -3.640  -2.226  22.319  1.00  0.00    -0.003 C 
ATOM     26  C   UNL     1      -3.113  -1.150  23.267  1.00  0.00     0.004 C 
ENDBRANCH  24  25
ENDBRANCH  23  24
ENDBRANCH  22  23
ENDBRANCH  21  22
ENDBRANCH  20  21
ENDBRANCH  19  20
ENDBRANCH  18  19
ENDBRANCH  17  18
ENDBRANCH  16  17
ENDBRANCH  15  16
ENDBRANCH   1  15
TORSDOF 22
ENDMDL
MODEL 5
REMARK VINA RESULT:    -4.321      1.961      3.666
REMARK INTER + INTRA:         -13.715
REMARK INTER:                 -10.428
REMARK INTRA:                  -3.287
REMARK UNBOUND:                -3.837
REMARK SMILES CCCCCCCCCCCCCCCCCCCCCCCC(=O)[O-]
REMARK SMILES IDX 13 1 14 2 15 3 16 4 17 5 18 6 19 7 20 8 21 9 22 10 23 11
REMARK SMILES IDX 24 12 25 13 26 14 12 15 11 16 10 17 9 18 8 19 7 20 6 21 5 22
REMARK SMILES IDX 4 23 3 24 2 25 1 26
REMARK H PARENT
REMARK Flexibility Score: inf
ROOT
ATOM      1  C   UNL     1     -11.134   0.347  23.039  1.00  0.00     0.000 C 
ENDROOT
BRANCH   1   2
ATOM      2  C   UNL     1     -11.988   1.282  22.156  1.00  0.00     0.000 C 
BRANCH   2   3
ATOM      3  C   UNL     1     -12.897   2.229  22.958  1.00  0.00     0.000 C 
BRANCH   3   4
ATOM      4  C   UNL     1     -13.131   3.574  22.253  1.00  0.00     0.000 C 
BRANCH   4   5
ATOM      5  C   UNL     1     -12.859   3.499  20.736  1.00  0.00     0.000 C 
BRANCH   5   6
ATOM      6  C   UNL     1     -13.330   4.743  19.963  1.00  0.00     0.000 C 
BRANCH   6   7
ATOM      7  C   UNL     1     -12.701   4.850  18.565  1.00  0.00     0.000 C 
BRANCH   7   8
ATOM      8  C   UNL     1     -12.415   3.475  17.938  1.00  0.00     0.000 C 
BRANCH   8   9
ATOM      9  C   UNL     1     -11.675   3.584  16.594  1.00  0.00     0.000 C 
BRANCH   9  10
ATOM     10  C   UNL     1     -11.633   2.249  15.826  1.00  0.00     0.006 C 
BRANCH  10  11
ATOM     11  C   UNL     1     -10.257   1.897  15.237  1.00  0.00     0.053 C 
BRANCH  11  12
ATOM     12  C   UNL     1     -10.325   0.725  14.305  1.00  0.00     0.041 C 
ATOM     13  O   UNL     1     -11.431   0.176  14.057  1.00  0.00    -0.550 OA
ATOM     14  O   UNL     1      -9.174   0.268  13.676  1.00  0.00    -0.550 OA
ENDBRANCH  11  12
ENDBRANCH  10  11
ENDBRANCH   9  10
ENDBRANCH   8   9
ENDBRANCH   7   8
ENDBRANCH   6   7
ENDBRANCH   5   6
ENDBRANCH   4   5
ENDBRANCH   3   4
ENDBRANCH   2   3
ENDBRANCH   1   2
BRANCH   1  15
ATOM     15  C   UNL     1      -9.635   0.442  22.713  1.00  0.00     0.000 C 
BRANCH  15  16
ATOM     16  C   UNL     1      -9.116  -0.871  22.115  1.00  0.00     0.000 C 
BRANCH  16  17
ATOM     17  C   UNL     1      -9.721  -1.120  20.726  1.00  0.00     0.000 C 
BRANCH  17  18
ATOM     18  C   UNL     1      -8.916  -0.444  19.604  1.00  0.00    -0.000 C 
BRANCH  18  19
ATOM     19  C   UNL     1      -9.732   0.622  18.852  1.00  0.00    -0.000 C 
BRANCH  19  20
ATOM     20  C   UNL     1      -8.975   1.953  18.714  1.00  0.00    -0.000 C 
BRANCH  20  21
ATOM     21  C   UNL     1      -9.074   2.822  19.981  1.00  0.00    -0.000 C 
BRANCH  21  22
ATOM     22  C   UNL     1      -9.268   4.317  19.647  1.00  0.00    -0.000 C 
BRANCH  22  23
ATOM     23  C   UNL     1      -8.006   5.169  19.870  1.00  0.00    -0.000 C 
BRANCH  23  24
ATOM     24  C   UNL     1      -6.934   4.940  18.792  1.00  0.00    -0.000 C 
BRANCH  24  25
ATOM     25  C   UNL     1      -5.650   4.314  19.360  1.00  0.00    -0.003 C 
ATOM     26  C   UNL     1      -4.566   4.115  18.301  1.00  0.00     0.004 C 
ENDBRANCH  24  25
ENDBRANCH  23  24
ENDBRANCH  22  23
ENDBRANCH  21  22
ENDBRANCH  20  21
ENDBRANCH  19  20
ENDBRANCH  18  19
ENDBRANCH  17  18
ENDBRANCH  16  17
ENDBRANCH  15  16
ENDBRANCH   1  15
TORSDOF 22
ENDMDL
MODEL 6
REMARK VINA RESULT:    -4.303      2.035      4.898
REMARK INTER + INTRA:         -13.674
REMARK INTER:                  -9.636
REMARK INTRA:                  -4.038
REMARK UNBOUND:                -3.837
REMARK SMILES CCCCCCCCCCCCCCCCCCCCCCCC(=O)[O-]
REMARK SMILES IDX 13 1 14 2 15 3 16 4 17 5 18 6 19 7 20 8 21 9 22 10 23 11
REMARK SMILES IDX 24 12 25 13 26 14 12 15 11 16 10 17 9 18 8 19 7 20 6 21 5 22
REMARK SMILES IDX 4 23 3 24 2 25 1 26
REMARK H PARENT
REMARK Flexibility Score: inf
ROOT
ATOM      1  C   UNL     1      -9.781   2.224  21.984  1.00  0.00     0.000 C 
ENDROOT
BRANCH   1   2
ATOM      2  C   UNL     1     -10.013   1.464  23.308  1.00  0.00     0.000 C 
BRANCH   2   3
ATOM      3  C   UNL     1      -9.754  -0.048  23.205  1.00  0.00     0.000 C 
BRANCH   3   4
ATOM      4  C   UNL     1      -9.126  -0.459  21.864  1.00  0.00     0.000 C 
BRANCH   4   5
ATOM      5  C   UNL     1     -10.112  -1.234  20.966  1.00  0.00     0.000 C 
BRANCH   5   6
ATOM      6  C   UNL     1      -9.806  -1.108  19.462  1.00  0.00     0.000 C 
BRANCH   6   7
ATOM      7  C   UNL     1      -8.737  -0.047  19.159  1.00  0.00     0.000 C 
BRANCH   7   8
ATOM      8  C   UNL     1      -9.317   1.200  18.473  1.00  0.00     0.000 C 
BRANCH   8   9
ATOM      9  C   UNL     1     -10.750   0.975  17.959  1.00  0.00     0.000 C 
BRANCH   9  10
ATOM     10  C   UNL     1     -11.066   1.794  16.693  1.00  0.00     0.006 C 
BRANCH  10  11
ATOM     11  C   UNL     1     -12.212   1.229  15.839  1.00  0.00     0.053 C 
BRANCH  11  12
ATOM     12  C   UNL     1     -11.715   0.585  14.580  1.00  0.00     0.041 C 
ATOM     13  O   UNL     1     -10.502   0.676  14.258  1.00  0.00    -0.550 OA
ATOM     14  O   UNL     1     -12.584  -0.155  13.788  1.00  0.00    -0.550 OA
ENDBRANCH  11  12
ENDBRANCH  10  11
ENDBRANCH   9  10
ENDBRANCH   8   9
ENDBRANCH   7   8
ENDBRANCH   6   7
ENDBRANCH   5   6
ENDBRANCH   4   5
ENDBRANCH   3   4
ENDBRANCH   2   3
ENDBRANCH   1   2
BRANCH   1  15
ATOM     15  C   UNL     1     -10.898   3.238  21.690  1.00  0.00     0.000 C 
BRANCH  15  16
ATOM     16  C   UNL     1     -11.974   2.626  20.784  1.00  0.00     0.000 C 
BRANCH  16  17
ATOM     17  C   UNL     1     -13.036   3.669  20.409  1.00  0.00     0.000 C 
BRANCH  17  18
ATOM     18  C   UNL     1     -12.937   4.107  18.938  1.00  0.00    -0.000 C 
BRANCH  18  19
ATOM     19  C   UNL     1     -12.066   5.362  18.753  1.00  0.00    -0.000 C 
BRANCH  19  20
ATOM     20  C   UNL     1     -11.385   5.407  17.376  1.00  0.00    -0.000 C 
BRANCH  20  21
ATOM     21  C   UNL     1      -9.851   5.482  17.479  1.00  0.00    -0.000 C 
BRANCH  21  22
ATOM     22  C   UNL     1      -9.299   4.601  18.620  1.00  0.00    -0.000 C 
BRANCH  22  23
ATOM     23  C   UNL     1      -8.378   5.356  19.595  1.00  0.00    -0.000 C 
BRANCH  23  24
ATOM     24  C   UNL     1      -7.209   4.495  20.100  1.00  0.00    -0.000 C 
BRANCH  24  25
ATOM     25  C   UNL     1      -6.555   3.672  18.979  1.00  0.00    -0.003 C 
ATOM     26  C   UNL     1      -5.127   4.118  18.668  1.00  0.00     0.004 C 
ENDBRANCH  24  25
ENDBRANCH  23  24
ENDBRANCH  22  23
ENDBRANCH  21  22
ENDBRANCH  20  21
ENDBRANCH  19  20
ENDBRANCH  18  19
ENDBRANCH  17  18
ENDBRANCH  16  17
ENDBRANCH  15  16
ENDBRANCH   1  15
TORSDOF 22
ENDMDL
MODEL 7
REMARK VINA RESULT:    -4.299      3.427      5.514
REMARK INTER + INTRA:         -13.666
REMARK INTER:                  -9.586
REMARK INTRA:                  -4.080
REMARK UNBOUND:                -3.837
REMARK SMILES CCCCCCCCCCCCCCCCCCCCCCCC(=O)[O-]
REMARK SMILES IDX 13 1 14 2 15 3 16 4 17 5 18 6 19 7 20 8 21 9 22 10 23 11
REMARK SMILES IDX 24 12 25 13 26 14 12 15 11 16 10 17 9 18 8 19 7 20 6 21 5 22
REMARK SMILES IDX 4 23 3 24 2 25 1 26
REMARK H PARENT
REMARK Flexibility Score: inf
ROOT
ATOM      1  C   UNL     1     -11.560   0.391  21.845  1.00  0.00     0.000 C 
ENDROOT
BRANCH   1   2
ATOM      2  C   UNL     1     -11.385  -0.049  20.376  1.00  0.00     0.000 C 
BRANCH   2   3
ATOM      3  C   UNL     1     -10.053  -0.767  20.101  1.00  0.00     0.000 C 
BRANCH   3   4
ATOM      4  C   UNL     1      -9.172  -0.027  19.083  1.00  0.00     0.000 C 
BRANCH   4   5
ATOM      5  C   UNL     1      -9.432   1.494  19.076  1.00  0.00     0.000 C 
BRANCH   5   6
ATOM      6  C   UNL     1      -8.197   2.328  18.690  1.00  0.00     0.000 C 
BRANCH   6   7
ATOM      7  C   UNL     1      -8.566   3.680  18.059  1.00  0.00     0.000 C 
BRANCH   7   8
ATOM      8  C   UNL     1      -7.736   4.844  18.626  1.00  0.00     0.000 C 
BRANCH   8   9
ATOM      9  C   UNL     1      -6.626   4.366  19.578  1.00  0.00     0.000 C 
BRANCH   9  10
ATOM     10  C   UNL     1      -5.260   4.226  18.880  1.00  0.00     0.006 C 
BRANCH  10  11
ATOM     11  C   UNL     1      -4.399   5.499  18.906  1.00  0.00     0.053 C 
BRANCH  11  12
ATOM     12  C   UNL     1      -4.455   6.245  17.607  1.00  0.00     0.041 C 
ATOM     13  O   UNL     1      -5.366   7.089  17.400  1.00  0.00    -0.550 OA
ATOM     14  O   UNL     1      -3.474   6.040  16.644  1.00  0.00    -0.550 OA
ENDBRANCH  11  12
ENDBRANCH  10  11
ENDBRANCH   9  10
ENDBRANCH   8   9
ENDBRANCH   7   8
ENDBRANCH   6   7
ENDBRANCH   5   6
ENDBRANCH   4   5
ENDBRANCH   3   4
ENDBRANCH   2   3
ENDBRANCH   1   2
BRANCH   1  15
ATOM     15  C   UNL     1     -10.249   0.301  22.642  1.00  0.00     0.000 C 
BRANCH  15  16
ATOM     16  C   UNL     1      -9.620   1.688  22.827  1.00  0.00     0.000 C 
BRANCH  16  17
ATOM     17  C   UNL     1     -10.633   2.798  22.508  1.00  0.00     0.000 C 
BRANCH  17  18
ATOM     18  C   UNL     1     -10.043   3.890  21.601  1.00  0.00    -0.000 C 
BRANCH  18  19
ATOM     19  C   UNL     1     -11.104   4.540  20.695  1.00  0.00    -0.000 C 
BRANCH  19  20
ATOM     20  C   UNL     1     -12.389   3.702  20.600  1.00  0.00    -0.000 C 
BRANCH  20  21
ATOM     21  C   UNL     1     -13.092   3.853  19.239  1.00  0.00    -0.000 C 
BRANCH  21  22
ATOM     22  C   UNL     1     -12.088   4.056  18.084  1.00  0.00    -0.000 C 
BRANCH  22  23
ATOM     23  C   UNL     1     -12.563   3.471  16.742  1.00  0.00    -0.000 C 
BRANCH  23  24
ATOM     24  C   UNL     1     -11.913   2.116  16.418  1.00  0.00    -0.000 C 
BRANCH  24  25
ATOM     25  C   UNL     1     -10.646   2.259  15.561  1.00  0.00    -0.003 C 
ATOM     26  C   UNL     1      -9.945   0.924  15.309  1.00  0.00     0.004 C 
ENDBRANCH  24  25
ENDBRANCH  23  24
ENDBRANCH  22  23
ENDBRANCH  21  22
ENDBRANCH  20  21
ENDBRANCH  19  20
ENDBRANCH  18  19
ENDBRANCH  17  18
ENDBRANCH  16  17
ENDBRANCH  15  16
ENDBRANCH   1  15
TORSDOF 22
ENDMDL
MODEL 8
REMARK VINA RESULT:    -4.265      1.426      3.841
REMARK INTER + INTRA:         -13.587
REMARK INTER:                  -9.118
REMARK INTRA:                  -4.469
REMARK UNBOUND:                -3.837
REMARK SMILES CCCCCCCCCCCCCCCCCCCCCCCC(=O)[O-]
REMARK SMILES IDX 13 1 14 2 15 3 16 4 17 5 18 6 19 7 20 8 21 9 22 10 23 11
REMARK SMILES IDX 24 12 25 13 26 14 12 15 11 16 10 17 9 18 8 19 7 20 6 21 5 22
REMARK SMILES IDX 4 23 3 24 2 25 1 26
REMARK H PARENT
REMARK Flexibility Score: inf
ROOT
ATOM      1  C   UNL     1      -9.136   0.644  19.122  1.00  0.00     0.000 C 
ENDROOT
BRANCH   1   2
ATOM      2  C   UNL     1      -9.107   2.165  19.385  1.00  0.00     0.000 C 
BRANCH   2   3
ATOM      3  C   UNL     1      -8.228   2.946  18.395  1.00  0.00     0.000 C 
BRANCH   3   4
ATOM      4  C   UNL     1      -8.615   4.430  18.291  1.00  0.00     0.000 C 
BRANCH   4   5
ATOM      5  C   UNL     1      -9.257   4.962  19.589  1.00  0.00     0.000 C 
BRANCH   5   6
ATOM      6  C   UNL     1     -10.696   5.475  19.400  1.00  0.00     0.000 C 
BRANCH   6   7
ATOM      7  C   UNL     1     -11.290   5.091  18.036  1.00  0.00     0.000 C 
BRANCH   7   8
ATOM      8  C   UNL     1     -12.141   3.813  18.099  1.00  0.00     0.000 C 
BRANCH   8   9
ATOM      9  C   UNL     1     -12.462   3.250  16.703  1.00  0.00     0.000 C 
BRANCH   9  10
ATOM     10  C   UNL     1     -11.212   2.732  15.967  1.00  0.00     0.006 C 
BRANCH  10  11
ATOM     11  C   UNL     1     -11.101   1.200  15.900  1.00  0.00     0.053 C 
BRANCH  11  12
ATOM     12  C   UNL     1     -10.663   0.724  14.549  1.00  0.00     0.041 C 
ATOM     13  O   UNL     1      -9.457   0.823  14.202  1.00  0.00    -0.550 OA
ATOM     14  O   UNL     1     -11.579   0.129  13.690  1.00  0.00    -0.550 OA
ENDBRANCH  11  12
ENDBRANCH  10  11
ENDBRANCH   9  10
ENDBRANCH   8   9
ENDBRANCH   7   8
ENDBRANCH   6   7
ENDBRANCH   5   6
ENDBRANCH   4   5
ENDBRANCH   3   4
ENDBRANCH   2   3
ENDBRANCH   1   2
BRANCH   1  15
ATOM     15  C   UNL     1     -10.518   0.030  19.392  1.00  0.00     0.000 C 
BRANCH  15  16
ATOM     16  C   UNL     1     -10.610  -0.511  20.825  1.00  0.00     0.000 C 
BRANCH  16  17
ATOM     17  C   UNL     1      -9.240  -1.000  21.317  1.00  0.00     0.000 C 
BRANCH  17  18
ATOM     18  C   UNL     1      -8.919  -0.516  22.741  1.00  0.00    -0.000 C 
BRANCH  18  19
ATOM     19  C   UNL     1     -10.136   0.123  23.435  1.00  0.00    -0.000 C 
BRANCH  19  20
ATOM     20  C   UNL     1      -9.817   1.506  24.023  1.00  0.00    -0.000 C 
BRANCH  20  21
ATOM     21  C   UNL     1      -9.510   2.553  22.937  1.00  0.00    -0.000 C 
BRANCH  21  22
ATOM     22  C   UNL     1     -10.734   3.439  22.620  1.00  0.00    -0.000 C 
BRANCH  22  23
ATOM     23  C   UNL     1     -11.771   2.758  21.709  1.00  0.00    -0.000 C 
BRANCH  23  24
ATOM     24  C   UNL     1     -13.209   2.898  22.234  1.00  0.00    -0.000 C 
BRANCH  24  25
ATOM     25  C   UNL     1     -13.700   1.633  22.955  1.00  0.00    -0.003 C 
ATOM     26  C   UNL     1     -13.530   1.709  24.472  1.00  0.00     0.004 C 
ENDBRANCH  24  25
ENDBRANCH  23  24
ENDBRANCH  22  23
ENDBRANCH  21  22
ENDBRANCH  20  21
ENDBRANCH  19  20
ENDBRANCH  18  19
ENDBRANCH  17  18
ENDBRANCH  16  17
ENDBRANCH  15  16
ENDBRANCH   1  15
TORSDOF 22
ENDMDL
MODEL 9
REMARK VINA RESULT:    -4.237      1.711      3.700
REMARK INTER + INTRA:         -13.523
REMARK INTER:                  -9.722
REMARK INTRA:                  -3.801
REMARK UNBOUND:                -3.837
REMARK SMILES CCCCCCCCCCCCCCCCCCCCCCCC(=O)[O-]
REMARK SMILES IDX 13 1 14 2 15 3 16 4 17 5 18 6 19 7 20 8 21 9 22 10 23 11
REMARK SMILES IDX 24 12 25 13 26 14 12 15 11 16 10 17 9 18 8 19 7 20 6 21 5 22
REMARK SMILES IDX 4 23 3 24 2 25 1 26
REMARK H PARENT
REMARK Flexibility Score: inf
ROOT
ATOM      1  C   UNL     1     -11.399   0.245  22.056  1.00  0.00     0.000 C 
ENDROOT
BRANCH   1   2
ATOM      2  C   UNL     1     -11.984   1.537  21.445  1.00  0.00     0.000 C 
BRANCH   2   3
ATOM      3  C   UNL     1     -12.851   2.345  22.426  1.00  0.00     0.000 C 
BRANCH   3   4
ATOM      4  C   UNL     1     -12.997   3.820  22.021  1.00  0.00     0.000 C 
BRANCH   4   5
ATOM      5  C   UNL     1     -13.588   3.986  20.605  1.00  0.00     0.000 C 
BRANCH   5   6
ATOM      6  C   UNL     1     -13.074   5.233  19.865  1.00  0.00     0.000 C 
BRANCH   6   7
ATOM      7  C   UNL     1     -12.224   4.886  18.633  1.00  0.00     0.000 C 
BRANCH   7   8
ATOM      8  C   UNL     1     -12.672   3.583  17.952  1.00  0.00     0.000 C 
BRANCH   8   9
ATOM      9  C   UNL     1     -12.490   3.625  16.425  1.00  0.00     0.000 C 
BRANCH   9  10
ATOM     10  C   UNL     1     -11.492   2.568  15.913  1.00  0.00     0.006 C 
BRANCH  10  11
ATOM     11  C   UNL     1     -12.114   1.192  15.625  1.00  0.00     0.053 C 
BRANCH  11  12
ATOM     12  C   UNL     1     -11.540   0.560  14.393  1.00  0.00     0.041 C 
ATOM     13  O   UNL     1     -10.307   0.648  14.152  1.00  0.00    -0.550 OA
ATOM     14  O   UNL     1     -12.359  -0.165  13.536  1.00  0.00    -0.550 OA
ENDBRANCH  11  12
ENDBRANCH  10  11
ENDBRANCH   9  10
ENDBRANCH   8   9
ENDBRANCH   7   8
ENDBRANCH   6   7
ENDBRANCH   5   6
ENDBRANCH   4   5
ENDBRANCH   3   4
ENDBRANCH   2   3
ENDBRANCH   1   2
BRANCH   1  15
ATOM     15  C   UNL     1      -9.894   0.365  22.342  1.00  0.00     0.000 C 
BRANCH  15  16
ATOM     16  C   UNL     1      -9.136  -0.866  21.829  1.00  0.00     0.000 C 
BRANCH  16  17
ATOM     17  C   UNL     1      -9.498  -1.166  20.367  1.00  0.00     0.000 C 
BRANCH  17  18
ATOM     18  C   UNL     1      -8.705  -0.300  19.375  1.00  0.00    -0.000 C 
BRANCH  18  19
ATOM     19  C   UNL     1      -9.618   0.521  18.448  1.00  0.00    -0.000 C 
BRANCH  19  20
ATOM     20  C   UNL     1      -9.642   2.013  18.818  1.00  0.00    -0.000 C 
BRANCH  20  21
ATOM     21  C   UNL     1      -8.243   2.654  18.773  1.00  0.00    -0.000 C 
BRANCH  21  22
ATOM     22  C   UNL     1      -8.029   3.668  19.917  1.00  0.00    -0.000 C 
BRANCH  22  23
ATOM     23  C   UNL     1      -9.159   3.667  20.963  1.00  0.00    -0.000 C 
BRANCH  23  24
ATOM     24  C   UNL     1      -9.120   4.898  21.884  1.00  0.00    -0.000 C 
BRANCH  24  25
ATOM     25  C   UNL     1      -9.815   6.120  21.265  1.00  0.00    -0.003 C 
ATOM     26  C   UNL     1      -9.618   7.395  22.085  1.00  0.00     0.004 C 
ENDBRANCH  24  25
ENDBRANCH  23  24
ENDBRANCH  22  23
ENDBRANCH  21  22
ENDBRANCH  20  21
ENDBRANCH  19  20
ENDBRANCH  18  19
ENDBRANCH  17  18
ENDBRANCH  16  17
ENDBRANCH  15  16
ENDBRANCH   1  15
TORSDOF 22
ENDMDL
