MODEL 1
REMARK VINA RESULT:    -4.615      0.000      0.000
REMARK INTER + INTRA:          -9.290
REMARK INTER:                  -7.853
REMARK INTRA:                  -1.437
REMARK UNBOUND:                -1.437
REMARK SMILES CCCCCCCCCCCCCC(=O)[O-]
REMARK SMILES IDX 8 1 9 2 10 3 11 4 12 5 13 6 14 7 15 8 16 9 7 10 6 11 5 12
REMARK SMILES IDX 4 13 3 14 2 15 1 16
REMARK H PARENT
REMARK Flexibility Score: inf
ROOT
ATOM      1  C   UNL     1      12.538 -20.139 -15.862  1.00  0.00     0.000 C 
ENDROOT
BRANCH   1   2
ATOM      2  C   UNL     1      13.151 -20.646 -14.551  1.00  0.00     0.000 C 
BRANCH   2   3
ATOM      3  C   UNL     1      12.137 -21.476 -13.753  1.00  0.00     0.000 C 
BRANCH   3   4
ATOM      4  C   UNL     1      11.533 -22.589 -14.623  1.00  0.00     0.000 C 
BRANCH   4   5
ATOM      5  C   UNL     1      11.653 -23.977 -13.975  1.00  0.00     0.006 C 
BRANCH   5   6
ATOM      6  C   UNL     1      13.105 -24.468 -13.896  1.00  0.00     0.053 C 
BRANCH   6   7
ATOM      7  C   UNL     1      13.165 -25.950 -14.091  1.00  0.00     0.041 C 
ATOM      8  O   UNL     1      14.227 -26.580 -13.841  1.00  0.00    -0.550 OA
ATOM      9  O   UNL     1      12.034 -26.644 -14.503  1.00  0.00    -0.550 OA
ENDBRANCH   6   7
ENDBRANCH   5   6
ENDBRANCH   4   5
ENDBRANCH   3   4
ENDBRANCH   2   3
ENDBRANCH   1   2
BRANCH   1  10
ATOM     10  C   UNL     1      12.897 -18.669 -16.106  1.00  0.00     0.000 C 
BRANCH  10  11
ATOM     11  C   UNL     1      14.303 -18.351 -15.581  1.00  0.00    -0.000 C 
BRANCH  11  12
ATOM     12  C   UNL     1      14.410 -16.879 -15.156  1.00  0.00    -0.000 C 
BRANCH  12  13
ATOM     13  C   UNL     1      13.454 -16.523 -14.006  1.00  0.00    -0.000 C 
BRANCH  13  14
ATOM     14  C   UNL     1      13.945 -17.041 -12.646  1.00  0.00    -0.000 C 
BRANCH  14  15
ATOM     15  C   UNL     1      12.873 -17.904 -11.969  1.00  0.00    -0.003 C 
ATOM     16  C   UNL     1      11.560 -17.861 -12.744  1.00  0.00     0.004 C 
ENDBRANCH  14  15
ENDBRANCH  13  14
ENDBRANCH  12  13
ENDBRANCH  11  12
ENDBRANCH  10  11
ENDBRANCH   1  10
TORSDOF 12
ENDMDL
MODEL 2
REMARK VINA RESULT:    -4.593      1.639      2.464
REMARK INTER + INTRA:          -9.253
REMARK INTER:                  -8.189
REMARK INTRA:                  -1.064
REMARK UNBOUND:                -1.437
REMARK SMILES CCCCCCCCCCCCCC(=O)[O-]
REMARK SMILES IDX 8 1 9 2 10 3 11 4 12 5 13 6 14 7 15 8 16 9 7 10 6 11 5 12
REMARK SMILES IDX 4 13 3 14 2 15 1 16
REMARK H PARENT
REMARK Flexibility Score: inf
ROOT
ATOM      1  C   UNL     1      12.970 -21.701 -14.786  1.00  0.00     0.000 C 
ENDROOT
BRANCH   1   2
ATOM      2  C   UNL     1      12.715 -22.848 -13.800  1.00  0.00     0.000 C 
BRANCH   2   3
ATOM      3  C   UNL     1      11.303 -23.421 -13.974  1.00  0.00     0.000 C 
BRANCH   3   4
ATOM      4  C   UNL     1      11.348 -24.944 -14.167  1.00  0.00     0.000 C 
BRANCH   4   5
ATOM      5  C   UNL     1      12.766 -25.517 -14.022  1.00  0.00     0.006 C 
BRANCH   5   6
ATOM      6  C   UNL     1      12.856 -26.987 -14.453  1.00  0.00     0.053 C 
BRANCH   6   7
ATOM      7  C   UNL     1      14.283 -27.385 -14.655  1.00  0.00     0.041 C 
ATOM      8  O   UNL     1      14.676 -28.532 -14.311  1.00  0.00    -0.550 OA
ATOM      9  O   UNL     1      15.170 -26.509 -15.269  1.00  0.00    -0.550 OA
ENDBRANCH   6   7
ENDBRANCH   5   6
ENDBRANCH   4   5
ENDBRANCH   3   4
ENDBRANCH   2   3
ENDBRANCH   1   2
BRANCH   1  10
ATOM     10  C   UNL     1      11.656 -21.182 -15.381  1.00  0.00     0.000 C 
BRANCH  10  11
ATOM     11  C   UNL     1      11.832 -19.774 -15.962  1.00  0.00    -0.000 C 
BRANCH  11  12
ATOM     12  C   UNL     1      12.253 -18.778 -14.871  1.00  0.00    -0.000 C 
BRANCH  12  13
ATOM     13  C   UNL     1      11.188 -18.613 -13.776  1.00  0.00    -0.000 C 
BRANCH  13  14
ATOM     14  C   UNL     1      11.767 -18.757 -12.360  1.00  0.00    -0.000 C 
BRANCH  14  15
ATOM     15  C   UNL     1      13.287 -18.561 -12.367  1.00  0.00    -0.003 C 
ATOM     16  C   UNL     1      13.667 -17.176 -11.851  1.00  0.00     0.004 C 
ENDBRANCH  14  15
ENDBRANCH  13  14
ENDBRANCH  12  13
ENDBRANCH  11  12
ENDBRANCH  10  11
ENDBRANCH   1  10
TORSDOF 12
ENDMDL
MODEL 3
REMARK VINA RESULT:    -4.578      3.736      7.770
REMARK INTER + INTRA:          -9.227
REMARK INTER:                  -8.599
REMARK INTRA:                  -0.628
REMARK UNBOUND:                -1.437
REMARK SMILES CCCCCCCCCCCCCC(=O)[O-]
REMARK SMILES IDX 8 1 9 2 10 3 11 4 12 5 13 6 14 7 15 8 16 9 7 10 6 11 5 12
REMARK SMILES IDX 4 13 3 14 2 15 1 16
REMARK H PARENT
REMARK Flexibility Score: inf
ROOT
ATOM      1  C   UNL     1      12.780 -21.279 -14.244  1.00  0.00     0.000 C 
ENDROOT
BRANCH   1   2
ATOM      2  C   UNL     1      11.592 -20.883 -15.129  1.00  0.00     0.000 C 
BRANCH   2   3
ATOM      3  C   UNL     1      11.306 -19.379 -15.029  1.00  0.00     0.000 C 
BRANCH   3   4
ATOM      4  C   UNL     1      12.613 -18.574 -14.968  1.00  0.00     0.000 C 
BRANCH   4   5
ATOM      5  C   UNL     1      12.632 -17.563 -13.810  1.00  0.00     0.006 C 
BRANCH   5   6
ATOM      6  C   UNL     1      13.630 -16.420 -14.042  1.00  0.00     0.053 C 
BRANCH   6   7
ATOM      7  C   UNL     1      14.977 -16.788 -13.507  1.00  0.00     0.041 C 
ATOM      8  O   UNL     1      15.973 -16.838 -14.276  1.00  0.00    -0.550 OA
ATOM      9  O   UNL     1      15.144 -17.028 -12.148  1.00  0.00    -0.550 OA
ENDBRANCH   6   7
ENDBRANCH   5   6
ENDBRANCH   4   5
ENDBRANCH   3   4
ENDBRANCH   2   3
ENDBRANCH   1   2
BRANCH   1  10
ATOM     10  C   UNL     1      12.670 -22.740 -13.795  1.00  0.00     0.000 C 
BRANCH  10  11
ATOM     11  C   UNL     1      11.371 -23.376 -14.305  1.00  0.00    -0.000 C 
BRANCH  11  12
ATOM     12  C   UNL     1      11.368 -24.893 -14.060  1.00  0.00    -0.000 C 
BRANCH  12  13
ATOM     13  C   UNL     1      12.781 -25.498 -14.075  1.00  0.00    -0.000 C 
BRANCH  13  14
ATOM     14  C   UNL     1      12.781 -26.992 -14.428  1.00  0.00    -0.000 C 
BRANCH  14  15
ATOM     15  C   UNL     1      14.206 -27.559 -14.415  1.00  0.00    -0.003 C 
ATOM     16  C   UNL     1      14.750 -27.718 -15.831  1.00  0.00     0.004 C 
ENDBRANCH  14  15
ENDBRANCH  13  14
ENDBRANCH  12  13
ENDBRANCH  11  12
ENDBRANCH  10  11
ENDBRANCH   1  10
TORSDOF 12
ENDMDL
MODEL 4
REMARK VINA RESULT:    -4.524      1.634      2.929
REMARK INTER + INTRA:          -9.136
REMARK INTER:                  -7.788
REMARK INTRA:                  -1.348
REMARK UNBOUND:                -1.437
REMARK SMILES CCCCCCCCCCCCCC(=O)[O-]
REMARK SMILES IDX 8 1 9 2 10 3 11 4 12 5 13 6 14 7 15 8 16 9 7 10 6 11 5 12
REMARK SMILES IDX 4 13 3 14 2 15 1 16
REMARK H PARENT
REMARK Flexibility Score: inf
ROOT
ATOM      1  C   UNL     1      14.249 -18.561 -15.384  1.00  0.00     0.000 C 
ENDROOT
BRANCH   1   2
ATOM      2  C   UNL     1      13.644 -18.519 -16.793  1.00  0.00     0.000 C 
BRANCH   2   3
ATOM      3  C   UNL     1      12.610 -19.636 -16.983  1.00  0.00     0.000 C 
BRANCH   3   4
ATOM      4  C   UNL     1      11.765 -19.825 -15.714  1.00  0.00     0.000 C 
BRANCH   4   5
ATOM      5  C   UNL     1      11.552 -21.305 -15.359  1.00  0.00     0.006 C 
BRANCH   5   6
ATOM      6  C   UNL     1      12.304 -21.721 -14.088  1.00  0.00     0.053 C 
BRANCH   6   7
ATOM      7  C   UNL     1      12.263 -23.207 -13.921  1.00  0.00     0.041 C 
ATOM      8  O   UNL     1      13.332 -23.861 -13.797  1.00  0.00    -0.550 OA
ATOM      9  O   UNL     1      11.041 -23.865 -13.851  1.00  0.00    -0.550 OA
ENDBRANCH   6   7
ENDBRANCH   5   6
ENDBRANCH   4   5
ENDBRANCH   3   4
ENDBRANCH   2   3
ENDBRANCH   1   2
BRANCH   1  10
ATOM     10  C   UNL     1      14.706 -17.167 -14.939  1.00  0.00     0.000 C 
BRANCH  10  11
ATOM     11  C   UNL     1      14.173 -16.833 -13.540  1.00  0.00    -0.000 C 
BRANCH  11  12
ATOM     12  C   UNL     1      12.689 -17.208 -13.415  1.00  0.00    -0.000 C 
BRANCH  12  13
ATOM     13  C   UNL     1      12.406 -18.111 -12.203  1.00  0.00    -0.000 C 
BRANCH  13  14
ATOM     14  C   UNL     1      10.951 -18.600 -12.156  1.00  0.00    -0.000 C 
BRANCH  14  15
ATOM     15  C   UNL     1      10.597 -19.134 -10.763  1.00  0.00    -0.003 C 
ATOM     16  C   UNL     1      11.219 -18.273  -9.668  1.00  0.00     0.004 C 
ENDBRANCH  14  15
ENDBRANCH  13  14
ENDBRANCH  12  13
ENDBRANCH  11  12
ENDBRANCH  10  11
ENDBRANCH   1  10
TORSDOF 12
ENDMDL
MODEL 5
REMARK VINA RESULT:    -4.506      4.591      5.422
REMARK INTER + INTRA:          -9.104
REMARK INTER:                  -7.277
REMARK INTRA:                  -1.827
REMARK UNBOUND:                -1.437
REMARK SMILES CCCCCCCCCCCCCC(=O)[O-]
REMARK SMILES IDX 8 1 9 2 10 3 11 4 12 5 13 6 14 7 15 8 16 9 7 10 6 11 5 12
REMARK SMILES IDX 4 13 3 14 2 15 1 16
REMARK H PARENT
REMARK Flexibility Score: inf
ROOT
ATOM      1  C   UNL     1      12.853 -18.857 -15.933  1.00  0.00     0.000 C 
ENDROOT
BRANCH   1   2
ATOM      2  C   UNL     1      12.122 -19.721 -14.899  1.00  0.00     0.000 C 
BRANCH   2   3
ATOM      3  C   UNL     1      11.328 -18.852 -13.916  1.00  0.00     0.000 C 
BRANCH   3   4
ATOM      4  C   UNL     1      11.367 -19.447 -12.500  1.00  0.00     0.000 C 
BRANCH   4   5
ATOM      5  C   UNL     1      10.709 -18.532 -11.455  1.00  0.00     0.006 C 
BRANCH   5   6
ATOM      6  C   UNL     1      10.599 -19.196 -10.076  1.00  0.00     0.053 C 
BRANCH   6   7
ATOM      7  C   UNL     1      10.905 -18.208  -8.996  1.00  0.00     0.041 C 
ATOM      8  O   UNL     1      10.559 -18.440  -7.807  1.00  0.00    -0.550 OA
ATOM      9  O   UNL     1      11.617 -17.052  -9.292  1.00  0.00    -0.550 OA
ENDBRANCH   6   7
ENDBRANCH   5   6
ENDBRANCH   4   5
ENDBRANCH   3   4
ENDBRANCH   2   3
ENDBRANCH   1   2
BRANCH   1  10
ATOM     10  C   UNL     1      14.181 -18.332 -15.374  1.00  0.00     0.000 C 
BRANCH  10  11
ATOM     11  C   UNL     1      14.153 -16.805 -15.230  1.00  0.00    -0.000 C 
BRANCH  11  12
ATOM     12  C   UNL     1      13.866 -16.396 -13.777  1.00  0.00    -0.000 C 
BRANCH  12  13
ATOM     13  C   UNL     1      14.869 -17.000 -12.782  1.00  0.00    -0.000 C 
BRANCH  13  14
ATOM     14  C   UNL     1      14.241 -17.290 -11.410  1.00  0.00    -0.000 C 
BRANCH  14  15
ATOM     15  C   UNL     1      14.679 -18.662 -10.885  1.00  0.00    -0.003 C 
ATOM     16  C   UNL     1      14.919 -19.640 -12.032  1.00  0.00     0.004 C 
ENDBRANCH  14  15
ENDBRANCH  13  14
ENDBRANCH  12  13
ENDBRANCH  11  12
ENDBRANCH  10  11
ENDBRANCH   1  10
TORSDOF 12
ENDMDL
MODEL 6
REMARK VINA RESULT:    -4.494      1.385      2.469
REMARK INTER + INTRA:          -9.084
REMARK INTER:                  -7.379
REMARK INTRA:                  -1.704
REMARK UNBOUND:                -1.437
REMARK SMILES CCCCCCCCCCCCCC(=O)[O-]
REMARK SMILES IDX 8 1 9 2 10 3 11 4 12 5 13 6 14 7 15 8 16 9 7 10 6 11 5 12
REMARK SMILES IDX 4 13 3 14 2 15 1 16
REMARK H PARENT
REMARK Flexibility Score: inf
ROOT
ATOM      1  C   UNL     1      11.491 -19.091 -13.364  1.00  0.00     0.000 C 
ENDROOT
BRANCH   1   2
ATOM      2  C   UNL     1      11.406 -19.363 -14.871  1.00  0.00     0.000 C 
BRANCH   2   3
ATOM      3  C   UNL     1      11.856 -20.791 -15.200  1.00  0.00     0.000 C 
BRANCH   3   4
ATOM      4  C   UNL     1      11.781 -21.691 -13.957  1.00  0.00     0.000 C 
BRANCH   4   5
ATOM      5  C   UNL     1      12.607 -22.978 -14.108  1.00  0.00     0.006 C 
BRANCH   5   6
ATOM      6  C   UNL     1      11.739 -24.243 -14.084  1.00  0.00     0.053 C 
BRANCH   6   7
ATOM      7  C   UNL     1      12.600 -25.464 -14.015  1.00  0.00     0.041 C 
ATOM      8  O   UNL     1      13.741 -25.407 -13.485  1.00  0.00    -0.550 OA
ATOM      9  O   UNL     1      12.123 -26.679 -14.493  1.00  0.00    -0.550 OA
ENDBRANCH   6   7
ENDBRANCH   5   6
ENDBRANCH   4   5
ENDBRANCH   3   4
ENDBRANCH   2   3
ENDBRANCH   1   2
BRANCH   1  10
ATOM     10  C   UNL     1      11.668 -17.594 -13.083  1.00  0.00     0.000 C 
BRANCH  10  11
ATOM     11  C   UNL     1      13.052 -17.307 -12.486  1.00  0.00    -0.000 C 
BRANCH  11  12
ATOM     12  C   UNL     1      14.033 -16.842 -13.572  1.00  0.00    -0.000 C 
BRANCH  12  13
ATOM     13  C   UNL     1      15.255 -17.766 -13.701  1.00  0.00    -0.000 C 
BRANCH  13  14
ATOM     14  C   UNL     1      14.987 -18.978 -14.606  1.00  0.00    -0.000 C 
BRANCH  14  15
ATOM     15  C   UNL     1      15.426 -20.279 -13.923  1.00  0.00    -0.003 C 
ATOM     16  C   UNL     1      15.023 -20.291 -12.451  1.00  0.00     0.004 C 
ENDBRANCH  14  15
ENDBRANCH  13  14
ENDBRANCH  12  13
ENDBRANCH  11  12
ENDBRANCH  10  11
ENDBRANCH   1  10
TORSDOF 12
ENDMDL
MODEL 7
REMARK VINA RESULT:    -4.494      3.623      6.163
REMARK INTER + INTRA:          -9.083
REMARK INTER:                  -7.865
REMARK INTRA:                  -1.218
REMARK UNBOUND:                -1.437
REMARK SMILES CCCCCCCCCCCCCC(=O)[O-]
REMARK SMILES IDX 8 1 9 2 10 3 11 4 12 5 13 6 14 7 15 8 16 9 7 10 6 11 5 12
REMARK SMILES IDX 4 13 3 14 2 15 1 16
REMARK H PARENT
REMARK Flexibility Score: inf
ROOT
ATOM      1  C   UNL     1      14.132 -18.472 -15.456  1.00  0.00     0.000 C 
ENDROOT
BRANCH   1   2
ATOM      2  C   UNL     1      14.332 -16.970 -15.221  1.00  0.00     0.000 C 
BRANCH   2   3
ATOM      3  C   UNL     1      13.448 -16.469 -14.073  1.00  0.00     0.000 C 
BRANCH   3   4
ATOM      4  C   UNL     1      13.247 -17.564 -13.015  1.00  0.00     0.000 C 
BRANCH   4   5
ATOM      5  C   UNL     1      11.796 -17.648 -12.518  1.00  0.00     0.006 C 
BRANCH   5   6
ATOM      6  C   UNL     1      11.600 -18.732 -11.448  1.00  0.00     0.053 C 
BRANCH   6   7
ATOM      7  C   UNL     1      11.998 -18.214 -10.103  1.00  0.00     0.041 C 
ATOM      8  O   UNL     1      13.033 -18.655  -9.535  1.00  0.00    -0.550 OA
ATOM      9  O   UNL     1      11.256 -17.209  -9.496  1.00  0.00    -0.550 OA
ENDBRANCH   6   7
ENDBRANCH   5   6
ENDBRANCH   4   5
ENDBRANCH   3   4
ENDBRANCH   2   3
ENDBRANCH   1   2
BRANCH   1  10
ATOM     10  C   UNL     1      13.375 -18.729 -16.765  1.00  0.00     0.000 C 
BRANCH  10  11
ATOM     11  C   UNL     1      12.451 -19.947 -16.637  1.00  0.00    -0.000 C 
BRANCH  11  12
ATOM     12  C   UNL     1      11.562 -19.833 -15.390  1.00  0.00    -0.000 C 
BRANCH  12  13
ATOM     13  C   UNL     1      11.832 -20.946 -14.365  1.00  0.00    -0.000 C 
BRANCH  13  14
ATOM     14  C   UNL     1      11.404 -22.332 -14.869  1.00  0.00    -0.000 C 
BRANCH  14  15
ATOM     15  C   UNL     1      11.988 -23.441 -13.986  1.00  0.00    -0.003 C 
ATOM     16  C   UNL     1      11.198 -24.738 -14.137  1.00  0.00     0.004 C 
ENDBRANCH  14  15
ENDBRANCH  13  14
ENDBRANCH  12  13
ENDBRANCH  11  12
ENDBRANCH  10  11
ENDBRANCH   1  10
TORSDOF 12
ENDMDL
MODEL 8
REMARK VINA RESULT:    -4.489      3.708      7.936
REMARK INTER + INTRA:          -9.075
REMARK INTER:                  -8.270
REMARK INTRA:                  -0.805
REMARK UNBOUND:                -1.437
REMARK SMILES CCCCCCCCCCCCCC(=O)[O-]
REMARK SMILES IDX 8 1 9 2 10 3 11 4 12 5 13 6 14 7 15 8 16 9 7 10 6 11 5 12
REMARK SMILES IDX 4 13 3 14 2 15 1 16
REMARK H PARENT
REMARK Flexibility Score: inf
ROOT
ATOM      1  C   UNL     1      11.427 -23.398 -13.852  1.00  0.00     0.000 C 
ENDROOT
BRANCH   1   2
ATOM      2  C   UNL     1      12.877 -22.900 -13.806  1.00  0.00     0.000 C 
BRANCH   2   3
ATOM      3  C   UNL     1      13.020 -21.553 -14.525  1.00  0.00     0.000 C 
BRANCH   3   4
ATOM      4  C   UNL     1      11.732 -21.192 -15.279  1.00  0.00     0.000 C 
BRANCH   4   5
ATOM      5  C   UNL     1      11.457 -19.680 -15.292  1.00  0.00     0.006 C 
BRANCH   5   6
ATOM      6  C   UNL     1      12.554 -18.875 -14.582  1.00  0.00     0.053 C 
BRANCH   6   7
ATOM      7  C   UNL     1      13.366 -18.110 -15.578  1.00  0.00     0.041 C 
ATOM      8  O   UNL     1      13.871 -16.999 -15.265  1.00  0.00    -0.550 OA
ATOM      9  O   UNL     1      13.610 -18.647 -16.836  1.00  0.00    -0.550 OA
ENDBRANCH   6   7
ENDBRANCH   5   6
ENDBRANCH   4   5
ENDBRANCH   3   4
ENDBRANCH   2   3
ENDBRANCH   1   2
BRANCH   1  10
ATOM     10  C   UNL     1      11.368 -24.896 -14.174  1.00  0.00     0.000 C 
BRANCH  10  11
ATOM     11  C   UNL     1      12.754 -25.542 -14.042  1.00  0.00    -0.000 C 
BRANCH  11  12
ATOM     12  C   UNL     1      12.701 -27.033 -14.407  1.00  0.00    -0.000 C 
BRANCH  12  13
ATOM     13  C   UNL     1      14.046 -27.563 -14.928  1.00  0.00    -0.000 C 
BRANCH  13  14
ATOM     14  C   UNL     1      15.248 -26.967 -14.180  1.00  0.00    -0.000 C 
BRANCH  14  15
ATOM     15  C   UNL     1      16.059 -28.064 -13.482  1.00  0.00    -0.003 C 
ATOM     16  C   UNL     1      15.513 -29.450 -13.815  1.00  0.00     0.004 C 
ENDBRANCH  14  15
ENDBRANCH  13  14
ENDBRANCH  12  13
ENDBRANCH  11  12
ENDBRANCH  10  11
ENDBRANCH   1  10
TORSDOF 12
ENDMDL
MODEL 9
REMARK VINA RESULT:    -4.485      1.145      1.751
REMARK INTER + INTRA:          -9.068
REMARK INTER:                  -7.491
REMARK INTRA:                  -1.577
REMARK UNBOUND:                -1.437
REMARK SMILES CCCCCCCCCCCCCC(=O)[O-]
REMARK SMILES IDX 8 1 9 2 10 3 11 4 12 5 13 6 14 7 15 8 16 9 7 10 6 11 5 12
REMARK SMILES IDX 4 13 3 14 2 15 1 16
REMARK H PARENT
REMARK Flexibility Score: inf
ROOT
ATOM      1  C   UNL     1      12.903 -19.221 -16.116  1.00  0.00     0.000 C 
ENDROOT
BRANCH   1   2
ATOM      2  C   UNL     1      11.584 -19.361 -15.347  1.00  0.00     0.000 C 
BRANCH   2   3
ATOM      3  C   UNL     1      11.436 -20.769 -14.757  1.00  0.00     0.000 C 
BRANCH   3   4
ATOM      4  C   UNL     1      12.804 -21.350 -14.373  1.00  0.00     0.000 C 
BRANCH   4   5
ATOM      5  C   UNL     1      12.696 -22.738 -13.721  1.00  0.00     0.006 C 
BRANCH   5   6
ATOM      6  C   UNL     1      11.526 -23.561 -14.277  1.00  0.00     0.053 C 
BRANCH   6   7
ATOM      7  C   UNL     1      11.862 -25.018 -14.266  1.00  0.00     0.041 C 
ATOM      8  O   UNL     1      10.984 -25.874 -14.558  1.00  0.00    -0.550 OA
ATOM      9  O   UNL     1      13.158 -25.431 -13.983  1.00  0.00    -0.550 OA
ENDBRANCH   6   7
ENDBRANCH   5   6
ENDBRANCH   4   5
ENDBRANCH   3   4
ENDBRANCH   2   3
ENDBRANCH   1   2
BRANCH   1  10
ATOM     10  C   UNL     1      13.623 -17.920 -15.744  1.00  0.00     0.000 C 
BRANCH  10  11
ATOM     11  C   UNL     1      14.701 -18.172 -14.682  1.00  0.00    -0.000 C 
BRANCH  11  12
ATOM     12  C   UNL     1      14.615 -17.131 -13.555  1.00  0.00    -0.000 C 
BRANCH  12  13
ATOM     13  C   UNL     1      13.302 -17.225 -12.760  1.00  0.00    -0.000 C 
BRANCH  13  14
ATOM     14  C   UNL     1      13.182 -18.535 -11.968  1.00  0.00    -0.000 C 
BRANCH  14  15
ATOM     15  C   UNL     1      11.983 -18.490 -11.013  1.00  0.00    -0.003 C 
ATOM     16  C   UNL     1      10.673 -18.719 -11.761  1.00  0.00     0.004 C 
ENDBRANCH  14  15
ENDBRANCH  13  14
ENDBRANCH  12  13
ENDBRANCH  11  12
ENDBRANCH  10  11
ENDBRANCH   1  10
TORSDOF 12
ENDMDL
