MODEL 1
REMARK VINA RESULT:    -8.420      0.000      0.000
REMARK INTER + INTRA:         -10.204
REMARK INTER:                  -9.897
REMARK INTRA:                  -0.307
REMARK UNBOUND:                -0.307
REMARK SMILES O=c1cc(-c2ccc(O)c(O)c2)oc2cc(O)cc(O)c12
REMARK SMILES IDX 4 1 3 2 2 3 1 4 21 5 19 6 18 7 16 8 15 9 14 10 13 11 5 12
REMARK SMILES IDX 6 13 7 14 8 15 12 16 10 17 9 18 11 20 20 22 17 24
REMARK H PARENT 9 19 11 21 20 23 17 25
REMARK Flexibility Score: inf
ROOT
ATOM      1  C   UNL     1     -47.956  26.603 -16.552  1.00  0.00     0.138 A 
ATOM      2  C   UNL     1     -48.658  27.748 -16.152  1.00  0.00     0.100 A 
ATOM      3  C   UNL     1     -49.899  27.615 -15.529  1.00  0.00     0.197 A 
ATOM      4  O   UNL     1     -50.476  28.657 -15.125  1.00  0.00    -0.289 OA
ATOM      5  C   UNL     1     -50.454  26.328 -15.336  1.00  0.00     0.107 A 
ATOM      6  C   UNL     1     -51.730  26.072 -14.750  1.00  0.00     0.134 A 
ATOM      7  C   UNL     1     -52.125  24.752 -14.504  1.00  0.00     0.093 A 
ATOM      8  C   UNL     1     -51.319  23.677 -14.877  1.00  0.00     0.123 A 
ATOM      9  C   UNL     1     -50.092  23.914 -15.500  1.00  0.00     0.094 A 
ATOM     10  C   UNL     1     -49.655  25.220 -15.727  1.00  0.00     0.146 A 
ATOM     11  O   UNL     1     -48.475  25.404 -16.310  1.00  0.00    -0.456 OA
ENDROOT
BRANCH   1  12
ATOM     12  C   UNL     1     -46.632  26.688 -17.220  1.00  0.00     0.021 A 
ATOM     13  C   UNL     1     -45.767  27.778 -17.010  1.00  0.00     0.016 A 
ATOM     14  C   UNL     1     -44.531  27.837 -17.659  1.00  0.00     0.051 A 
ATOM     15  C   UNL     1     -44.141  26.814 -18.532  1.00  0.00     0.157 A 
ATOM     16  C   UNL     1     -46.238  25.672 -18.109  1.00  0.00     0.062 A 
ATOM     17  C   UNL     1     -45.000  25.727 -18.759  1.00  0.00     0.158 A 
BRANCH  15  18
ATOM     18  O   UNL     1     -42.906  26.875 -19.177  1.00  0.00    -0.504 OA
ATOM     19  H   UNL     1     -42.239  27.612 -18.979  1.00  0.00     0.293 HD
ENDBRANCH  15  18
BRANCH  17  20
ATOM     20  O   UNL     1     -44.644  24.694 -19.625  1.00  0.00    -0.504 OA
ATOM     21  H   UNL     1     -45.113  24.549 -20.512  1.00  0.00     0.293 HD
ENDBRANCH  17  20
ENDBRANCH   1  12
BRANCH   6  22
ATOM     22  O   UNL     1     -52.651  27.071 -14.416  1.00  0.00    -0.507 OA
ATOM     23  H   UNL     1     -52.423  27.927 -13.935  1.00  0.00     0.293 HD
ENDBRANCH   6  22
BRANCH   8  24
ATOM     24  O   UNL     1     -51.750  22.375 -14.630  1.00  0.00    -0.508 OA
ATOM     25  H   UNL     1     -51.927  22.044 -13.690  1.00  0.00     0.293 HD
ENDBRANCH   8  24
TORSDOF 5
ENDMDL
MODEL 2
REMARK VINA RESULT:    -8.152      1.495      6.780
REMARK INTER + INTRA:          -9.889
REMARK INTER:                  -9.592
REMARK INTRA:                  -0.297
REMARK UNBOUND:                -0.307
REMARK SMILES O=c1cc(-c2ccc(O)c(O)c2)oc2cc(O)cc(O)c12
REMARK SMILES IDX 4 1 3 2 2 3 1 4 21 5 19 6 18 7 16 8 15 9 14 10 13 11 5 12
REMARK SMILES IDX 6 13 7 14 8 15 12 16 10 17 9 18 11 20 20 22 17 24
REMARK H PARENT 9 19 11 21 20 23 17 25
REMARK Flexibility Score: inf
ROOT
ATOM      1  C   UNL     1     -48.424  26.392 -15.833  1.00  0.00     0.138 A 
ATOM      2  C   UNL     1     -47.931  27.515 -15.156  1.00  0.00     0.100 A 
ATOM      3  C   UNL     1     -46.718  28.081 -15.550  1.00  0.00     0.197 A 
ATOM      4  O   UNL     1     -46.331  29.125 -14.964  1.00  0.00    -0.289 OA
ATOM      5  C   UNL     1     -45.979  27.497 -16.606  1.00  0.00     0.107 A 
ATOM      6  C   UNL     1     -44.711  27.963 -17.066  1.00  0.00     0.134 A 
ATOM      7  C   UNL     1     -44.129  27.376 -18.196  1.00  0.00     0.093 A 
ATOM      8  C   UNL     1     -44.738  26.304 -18.847  1.00  0.00     0.123 A 
ATOM      9  C   UNL     1     -45.952  25.805 -18.373  1.00  0.00     0.094 A 
ATOM     10  C   UNL     1     -46.575  26.391 -17.269  1.00  0.00     0.146 A 
ATOM     11  O   UNL     1     -47.738  25.896 -16.858  1.00  0.00    -0.456 OA
ENDROOT
BRANCH   1  12
ATOM     12  C   UNL     1     -49.709  25.750 -15.456  1.00  0.00     0.021 A 
ATOM     13  C   UNL     1     -50.830  26.510 -15.071  1.00  0.00     0.016 A 
ATOM     14  C   UNL     1     -52.024  25.879 -14.712  1.00  0.00     0.051 A 
ATOM     15  C   UNL     1     -52.117  24.482 -14.723  1.00  0.00     0.157 A 
ATOM     16  C   UNL     1     -49.808  24.347 -15.451  1.00  0.00     0.062 A 
ATOM     17  C   UNL     1     -51.003  23.713 -15.093  1.00  0.00     0.158 A 
BRANCH  15  18
ATOM     18  O   UNL     1     -53.311  23.856 -14.365  1.00  0.00    -0.504 OA
ATOM     19  H   UNL     1     -53.440  22.857 -14.474  1.00  0.00     0.293 HD
ENDBRANCH  15  18
BRANCH  17  20
ATOM     20  O   UNL     1     -51.061  22.320 -15.111  1.00  0.00    -0.504 OA
ATOM     21  H   UNL     1     -50.783  21.780 -15.923  1.00  0.00     0.293 HD
ENDBRANCH  17  20
ENDBRANCH   1  12
BRANCH   6  22
ATOM     22  O   UNL     1     -43.975  28.973 -16.439  1.00  0.00    -0.507 OA
ATOM     23  H   UNL     1     -44.280  29.488 -15.627  1.00  0.00     0.293 HD
ENDBRANCH   6  22
BRANCH   8  24
ATOM     24  O   UNL     1     -44.122  25.735 -19.960  1.00  0.00    -0.508 OA
ATOM     25  H   UNL     1     -43.189  26.005 -20.246  1.00  0.00     0.293 HD
ENDBRANCH   8  24
TORSDOF 5
ENDMDL
MODEL 3
REMARK VINA RESULT:    -7.864      1.563      6.992
REMARK INTER + INTRA:          -9.550
REMARK INTER:                  -9.275
REMARK INTRA:                  -0.276
REMARK UNBOUND:                -0.307
REMARK SMILES O=c1cc(-c2ccc(O)c(O)c2)oc2cc(O)cc(O)c12
REMARK SMILES IDX 4 1 3 2 2 3 1 4 21 5 19 6 18 7 16 8 15 9 14 10 13 11 5 12
REMARK SMILES IDX 6 13 7 14 8 15 12 16 10 17 9 18 11 20 20 22 17 24
REMARK H PARENT 9 19 11 21 20 23 17 25
REMARK Flexibility Score: inf
ROOT
ATOM      1  C   UNL     1     -48.043  26.363 -15.861  1.00  0.00     0.138 A 
ATOM      2  C   UNL     1     -47.551  27.454 -15.132  1.00  0.00     0.100 A 
ATOM      3  C   UNL     1     -46.372  28.080 -15.537  1.00  0.00     0.197 A 
ATOM      4  O   UNL     1     -45.989  29.094 -14.899  1.00  0.00    -0.289 OA
ATOM      5  C   UNL     1     -45.665  27.589 -16.660  1.00  0.00     0.107 A 
ATOM      6  C   UNL     1     -44.432  28.121 -17.140  1.00  0.00     0.134 A 
ATOM      7  C   UNL     1     -43.884  27.628 -18.331  1.00  0.00     0.093 A 
ATOM      8  C   UNL     1     -44.491  26.582 -19.025  1.00  0.00     0.123 A 
ATOM      9  C   UNL     1     -45.670  26.018 -18.535  1.00  0.00     0.094 A 
ATOM     10  C   UNL     1     -46.260  26.511 -17.370  1.00  0.00     0.146 A 
ATOM     11  O   UNL     1     -47.390  25.956 -16.944  1.00  0.00    -0.456 OA
ENDROOT
BRANCH   1  12
ATOM     12  C   UNL     1     -49.293  25.659 -15.474  1.00  0.00     0.021 A 
ATOM     13  C   UNL     1     -49.384  24.255 -15.486  1.00  0.00     0.016 A 
ATOM     14  C   UNL     1     -50.575  23.619 -15.127  1.00  0.00     0.051 A 
ATOM     15  C   UNL     1     -51.696  24.373 -14.757  1.00  0.00     0.157 A 
ATOM     16  C   UNL     1     -50.428  26.409 -15.115  1.00  0.00     0.062 A 
ATOM     17  C   UNL     1     -51.621  25.774 -14.753  1.00  0.00     0.158 A 
BRANCH  15  18
ATOM     18  O   UNL     1     -52.883  23.735 -14.398  1.00  0.00    -0.504 OA
ATOM     19  H   UNL     1     -53.301  23.866 -13.485  1.00  0.00     0.293 HD
ENDBRANCH  15  18
BRANCH  17  20
ATOM     20  O   UNL     1     -52.720  26.555 -14.395  1.00  0.00    -0.504 OA
ATOM     21  H   UNL     1     -53.036  26.631 -13.435  1.00  0.00     0.293 HD
ENDBRANCH  17  20
ENDBRANCH   1  12
BRANCH   6  22
ATOM     22  O   UNL     1     -43.697  29.110 -16.478  1.00  0.00    -0.507 OA
ATOM     23  H   UNL     1     -43.309  29.930 -16.918  1.00  0.00     0.293 HD
ENDBRANCH   6  22
BRANCH   8  24
ATOM     24  O   UNL     1     -43.910  26.106 -20.198  1.00  0.00    -0.508 OA
ATOM     25  H   UNL     1     -44.449  25.595 -20.887  1.00  0.00     0.293 HD
ENDBRANCH   8  24
TORSDOF 5
ENDMDL
MODEL 4
REMARK VINA RESULT:    -7.419      1.230      2.680
REMARK INTER + INTRA:          -9.028
REMARK INTER:                  -8.748
REMARK INTRA:                  -0.280
REMARK UNBOUND:                -0.307
REMARK SMILES O=c1cc(-c2ccc(O)c(O)c2)oc2cc(O)cc(O)c12
REMARK SMILES IDX 4 1 3 2 2 3 1 4 21 5 19 6 18 7 16 8 15 9 14 10 13 11 5 12
REMARK SMILES IDX 6 13 7 14 8 15 12 16 10 17 9 18 11 20 20 22 17 24
REMARK H PARENT 9 19 11 21 20 23 17 25
REMARK Flexibility Score: inf
ROOT
ATOM      1  C   UNL     1     -48.212  26.116 -16.657  1.00  0.00     0.138 A 
ATOM      2  C   UNL     1     -48.546  24.861 -16.132  1.00  0.00     0.100 A 
ATOM      3  C   UNL     1     -49.778  24.681 -15.503  1.00  0.00     0.197 A 
ATOM      4  O   UNL     1     -50.074  23.528 -15.097  1.00  0.00    -0.289 OA
ATOM      5  C   UNL     1     -50.666  25.774 -15.370  1.00  0.00     0.107 A 
ATOM      6  C   UNL     1     -51.930  25.719 -14.712  1.00  0.00     0.134 A 
ATOM      7  C   UNL     1     -52.775  26.835 -14.745  1.00  0.00     0.093 A 
ATOM      8  C   UNL     1     -52.378  28.022 -15.359  1.00  0.00     0.123 A 
ATOM      9  C   UNL     1     -51.121  28.105 -15.960  1.00  0.00     0.094 A 
ATOM     10  C   UNL     1     -50.270  26.998 -15.974  1.00  0.00     0.146 A 
ATOM     11  O   UNL     1     -49.087  27.113 -16.569  1.00  0.00    -0.456 OA
ENDROOT
BRANCH   1  12
ATOM     12  C   UNL     1     -46.914  26.363 -17.337  1.00  0.00     0.021 A 
ATOM     13  C   UNL     1     -46.220  27.578 -17.183  1.00  0.00     0.016 A 
ATOM     14  C   UNL     1     -45.006  27.788 -17.842  1.00  0.00     0.051 A 
ATOM     15  C   UNL     1     -44.468  26.794 -18.669  1.00  0.00     0.157 A 
ATOM     16  C   UNL     1     -46.375  25.376 -18.180  1.00  0.00     0.062 A 
ATOM     17  C   UNL     1     -45.158  25.583 -18.840  1.00  0.00     0.158 A 
BRANCH  15  18
ATOM     18  O   UNL     1     -43.256  27.007 -19.324  1.00  0.00    -0.504 OA
ATOM     19  H   UNL     1     -42.390  27.128 -18.813  1.00  0.00     0.293 HD
ENDBRANCH  15  18
BRANCH  17  20
ATOM     20  O   UNL     1     -44.653  24.575 -19.660  1.00  0.00    -0.504 OA
ATOM     21  H   UNL     1     -44.185  23.758 -19.283  1.00  0.00     0.293 HD
ENDBRANCH  17  20
ENDBRANCH   1  12
BRANCH   6  22
ATOM     22  O   UNL     1     -52.391  24.609 -13.995  1.00  0.00    -0.507 OA
ATOM     23  H   UNL     1     -52.278  23.650 -14.284  1.00  0.00     0.293 HD
ENDBRANCH   6  22
BRANCH   8  24
ATOM     24  O   UNL     1     -53.239  29.118 -15.359  1.00  0.00    -0.508 OA
ATOM     25  H   UNL     1     -54.233  29.011 -15.199  1.00  0.00     0.293 HD
ENDBRANCH   8  24
TORSDOF 5
ENDMDL
MODEL 5
REMARK VINA RESULT:    -6.965      2.133      7.344
REMARK INTER + INTRA:          -8.494
REMARK INTER:                  -8.200
REMARK INTRA:                  -0.294
REMARK UNBOUND:                -0.307
REMARK SMILES O=c1cc(-c2ccc(O)c(O)c2)oc2cc(O)cc(O)c12
REMARK SMILES IDX 4 1 3 2 2 3 1 4 21 5 19 6 18 7 16 8 15 9 14 10 13 11 5 12
REMARK SMILES IDX 6 13 7 14 8 15 12 16 10 17 9 18 11 20 20 22 17 24
REMARK H PARENT 9 19 11 21 20 23 17 25
REMARK Flexibility Score: inf
ROOT
ATOM      1  C   UNL     1     -51.231  25.565 -15.098  1.00  0.00     0.138 A 
ATOM      2  C   UNL     1     -51.703  26.804 -15.553  1.00  0.00     0.100 A 
ATOM      3  C   UNL     1     -50.925  27.558 -16.432  1.00  0.00     0.197 A 
ATOM      4  O   UNL     1     -51.402  28.636 -16.871  1.00  0.00    -0.289 OA
ATOM      5  C   UNL     1     -49.653  27.083 -16.831  1.00  0.00     0.107 A 
ATOM      6  C   UNL     1     -48.756  27.786 -17.690  1.00  0.00     0.134 A 
ATOM      7  C   UNL     1     -47.573  27.164 -18.109  1.00  0.00     0.093 A 
ATOM      8  C   UNL     1     -47.226  25.893 -17.654  1.00  0.00     0.123 A 
ATOM      9  C   UNL     1     -48.070  25.219 -16.771  1.00  0.00     0.094 A 
ATOM     10  C   UNL     1     -49.274  25.797 -16.361  1.00  0.00     0.146 A 
ATOM     11  O   UNL     1     -50.057  25.116 -15.531  1.00  0.00    -0.456 OA
ENDROOT
BRANCH   1  12
ATOM     12  C   UNL     1     -52.017  24.721 -14.162  1.00  0.00     0.021 A 
ATOM     13  C   UNL     1     -51.468  23.569 -13.568  1.00  0.00     0.016 A 
ATOM     14  C   UNL     1     -52.233  22.787 -12.699  1.00  0.00     0.051 A 
ATOM     15  C   UNL     1     -53.558  23.138 -12.413  1.00  0.00     0.157 A 
ATOM     16  C   UNL     1     -53.352  25.059 -13.880  1.00  0.00     0.062 A 
ATOM     17  C   UNL     1     -54.120  24.278 -13.008  1.00  0.00     0.158 A 
BRANCH  15  18
ATOM     18  O   UNL     1     -54.319  22.357 -11.544  1.00  0.00    -0.504 OA
ATOM     19  H   UNL     1     -55.031  21.722 -11.885  1.00  0.00     0.293 HD
ENDBRANCH  15  18
BRANCH  17  20
ATOM     20  O   UNL     1     -55.438  24.653 -12.748  1.00  0.00    -0.504 OA
ATOM     21  H   UNL     1     -56.140  23.984 -12.454  1.00  0.00     0.293 HD
ENDBRANCH  17  20
ENDBRANCH   1  12
BRANCH   6  22
ATOM     22  O   UNL     1     -48.965  29.094 -18.137  1.00  0.00    -0.507 OA
ATOM     23  H   UNL     1     -49.866  29.544 -18.200  1.00  0.00     0.293 HD
ENDBRANCH   6  22
BRANCH   8  24
ATOM     24  O   UNL     1     -46.034  25.311 -18.080  1.00  0.00    -0.508 OA
ATOM     25  H   UNL     1     -45.826  24.336 -17.902  1.00  0.00     0.293 HD
ENDBRANCH   8  24
TORSDOF 5
ENDMDL
MODEL 6
REMARK VINA RESULT:    -6.934      2.419      3.714
REMARK INTER + INTRA:          -8.458
REMARK INTER:                  -8.146
REMARK INTRA:                  -0.311
REMARK UNBOUND:                -0.307
REMARK SMILES O=c1cc(-c2ccc(O)c(O)c2)oc2cc(O)cc(O)c12
REMARK SMILES IDX 4 1 3 2 2 3 1 4 21 5 19 6 18 7 16 8 15 9 14 10 13 11 5 12
REMARK SMILES IDX 6 13 7 14 8 15 12 16 10 17 9 18 11 20 20 22 17 24
REMARK H PARENT 9 19 11 21 20 23 17 25
REMARK Flexibility Score: inf
ROOT
ATOM      1  C   UNL     1     -45.015  28.035 -16.893  1.00  0.00     0.138 A 
ATOM      2  C   UNL     1     -44.701  28.299 -15.553  1.00  0.00     0.100 A 
ATOM      3  C   UNL     1     -45.682  28.156 -14.573  1.00  0.00     0.197 A 
ATOM      4  O   UNL     1     -45.354  28.340 -13.372  1.00  0.00    -0.289 OA
ATOM      5  C   UNL     1     -46.995  27.778 -14.942  1.00  0.00     0.107 A 
ATOM      6  C   UNL     1     -48.087  27.641 -14.034  1.00  0.00     0.134 A 
ATOM      7  C   UNL     1     -49.313  27.148 -14.497  1.00  0.00     0.093 A 
ATOM      8  C   UNL     1     -49.505  26.844 -15.845  1.00  0.00     0.123 A 
ATOM      9  C   UNL     1     -48.459  27.025 -16.751  1.00  0.00     0.094 A 
ATOM     10  C   UNL     1     -47.214  27.483 -16.314  1.00  0.00     0.146 A 
ATOM     11  O   UNL     1     -46.241  27.628 -17.206  1.00  0.00    -0.456 OA
ENDROOT
BRANCH   1  12
ATOM     12  C   UNL     1     -44.008  28.172 -17.977  1.00  0.00     0.021 A 
ATOM     13  C   UNL     1     -42.884  29.007 -17.840  1.00  0.00     0.016 A 
ATOM     14  C   UNL     1     -41.958  29.125 -18.880  1.00  0.00     0.051 A 
ATOM     15  C   UNL     1     -42.142  28.418 -20.074  1.00  0.00     0.157 A 
ATOM     16  C   UNL     1     -44.193  27.476 -19.186  1.00  0.00     0.062 A 
ATOM     17  C   UNL     1     -43.266  27.591 -20.228  1.00  0.00     0.158 A 
BRANCH  15  18
ATOM     18  O   UNL     1     -41.216  28.537 -21.110  1.00  0.00    -0.504 OA
ATOM     19  H   UNL     1     -40.324  28.055 -21.083  1.00  0.00     0.293 HD
ENDBRANCH  15  18
BRANCH  17  20
ATOM     20  O   UNL     1     -43.481  26.877 -21.406  1.00  0.00    -0.504 OA
ATOM     21  H   UNL     1     -44.190  26.155 -21.476  1.00  0.00     0.293 HD
ENDBRANCH  17  20
ENDBRANCH   1  12
BRANCH   6  22
ATOM     22  O   UNL     1     -48.029  27.996 -12.682  1.00  0.00    -0.507 OA
ATOM     23  H   UNL     1     -48.624  28.681 -12.240  1.00  0.00     0.293 HD
ENDBRANCH   6  22
BRANCH   8  24
ATOM     24  O   UNL     1     -50.743  26.370 -16.274  1.00  0.00    -0.508 OA
ATOM     25  H   UNL     1     -50.830  25.493 -16.774  1.00  0.00     0.293 HD
ENDBRANCH   8  24
TORSDOF 5
ENDMDL
MODEL 7
REMARK VINA RESULT:    -6.616      2.714      3.318
REMARK INTER + INTRA:          -8.084
REMARK INTER:                  -7.812
REMARK INTRA:                  -0.272
REMARK UNBOUND:                -0.307
REMARK SMILES O=c1cc(-c2ccc(O)c(O)c2)oc2cc(O)cc(O)c12
REMARK SMILES IDX 4 1 3 2 2 3 1 4 21 5 19 6 18 7 16 8 15 9 14 10 13 11 5 12
REMARK SMILES IDX 6 13 7 14 8 15 12 16 10 17 9 18 11 20 20 22 17 24
REMARK H PARENT 9 19 11 21 20 23 17 25
REMARK Flexibility Score: inf
ROOT
ATOM      1  C   UNL     1     -46.370  27.850 -16.141  1.00  0.00     0.138 A 
ATOM      2  C   UNL     1     -45.980  27.938 -14.797  1.00  0.00     0.100 A 
ATOM      3  C   UNL     1     -46.934  28.214 -13.818  1.00  0.00     0.197 A 
ATOM      4  O   UNL     1     -46.565  28.225 -12.615  1.00  0.00    -0.289 OA
ATOM      5  C   UNL     1     -48.281  28.436 -14.191  1.00  0.00     0.107 A 
ATOM      6  C   UNL     1     -49.332  28.765 -13.284  1.00  0.00     0.134 A 
ATOM      7  C   UNL     1     -50.649  28.847 -13.754  1.00  0.00     0.093 A 
ATOM      8  C   UNL     1     -50.944  28.671 -15.105  1.00  0.00     0.123 A 
ATOM      9  C   UNL     1     -49.917  28.402 -16.010  1.00  0.00     0.094 A 
ATOM     10  C   UNL     1     -48.598  28.279 -15.567  1.00  0.00     0.146 A 
ATOM     11  O   UNL     1     -47.650  28.007 -16.458  1.00  0.00    -0.456 OA
ENDROOT
BRANCH   1  12
ATOM     12  C   UNL     1     -45.395  27.559 -17.223  1.00  0.00     0.021 A 
ATOM     13  C   UNL     1     -44.399  28.484 -17.589  1.00  0.00     0.016 A 
ATOM     14  C   UNL     1     -43.502  28.188 -18.618  1.00  0.00     0.051 A 
ATOM     15  C   UNL     1     -43.587  26.970 -19.304  1.00  0.00     0.157 A 
ATOM     16  C   UNL     1     -45.483  26.344 -17.926  1.00  0.00     0.062 A 
ATOM     17  C   UNL     1     -44.584  26.045 -18.956  1.00  0.00     0.158 A 
BRANCH  15  18
ATOM     18  O   UNL     1     -42.689  26.678 -20.330  1.00  0.00    -0.504 OA
ATOM     19  H   UNL     1     -42.086  27.390 -20.726  1.00  0.00     0.293 HD
ENDBRANCH  15  18
BRANCH  17  20
ATOM     20  O   UNL     1     -44.700  24.825 -19.622  1.00  0.00    -0.504 OA
ATOM     21  H   UNL     1     -45.581  24.501 -20.004  1.00  0.00     0.293 HD
ENDBRANCH  17  20
ENDBRANCH   1  12
BRANCH   6  22
ATOM     22  O   UNL     1     -49.135  29.044 -11.928  1.00  0.00    -0.507 OA
ATOM     23  H   UNL     1     -49.755  28.758 -11.185  1.00  0.00     0.293 HD
ENDBRANCH   6  22
BRANCH   8  24
ATOM     24  O   UNL     1     -52.264  28.774 -15.540  1.00  0.00    -0.508 OA
ATOM     25  H   UNL     1     -53.035  28.427 -14.982  1.00  0.00     0.293 HD
ENDBRANCH   8  24
TORSDOF 5
ENDMDL
MODEL 8
REMARK VINA RESULT:    -6.574      2.088      2.910
REMARK INTER + INTRA:          -8.035
REMARK INTER:                  -7.719
REMARK INTRA:                  -0.316
REMARK UNBOUND:                -0.307
REMARK SMILES O=c1cc(-c2ccc(O)c(O)c2)oc2cc(O)cc(O)c12
REMARK SMILES IDX 4 1 3 2 2 3 1 4 21 5 19 6 18 7 16 8 15 9 14 10 13 11 5 12
REMARK SMILES IDX 6 13 7 14 8 15 12 16 10 17 9 18 11 20 20 22 17 24
REMARK H PARENT 9 19 11 21 20 23 17 25
REMARK Flexibility Score: inf
ROOT
ATOM      1  C   UNL     1     -50.655  26.294 -15.650  1.00  0.00     0.138 A 
ATOM      2  C   UNL     1     -51.635  27.263 -15.397  1.00  0.00     0.100 A 
ATOM      3  C   UNL     1     -52.721  26.949 -14.579  1.00  0.00     0.197 A 
ATOM      4  O   UNL     1     -53.552  27.857 -14.320  1.00  0.00    -0.289 OA
ATOM      5  C   UNL     1     -52.842  25.646 -14.040  1.00  0.00     0.107 A 
ATOM      6  C   UNL     1     -53.927  25.200 -13.227  1.00  0.00     0.134 A 
ATOM      7  C   UNL     1     -53.881  23.924 -12.654  1.00  0.00     0.093 A 
ATOM      8  C   UNL     1     -52.821  23.056 -12.911  1.00  0.00     0.123 A 
ATOM      9  C   UNL     1     -51.780  23.461 -13.748  1.00  0.00     0.094 A 
ATOM     10  C   UNL     1     -51.780  24.741 -14.307  1.00  0.00     0.146 A 
ATOM     11  O   UNL     1     -50.764  25.095 -15.087  1.00  0.00    -0.456 OA
ENDROOT
BRANCH   1  12
ATOM     12  C   UNL     1     -49.479  26.574 -16.513  1.00  0.00     0.021 A 
ATOM     13  C   UNL     1     -49.171  27.879 -16.941  1.00  0.00     0.016 A 
ATOM     14  C   UNL     1     -48.064  28.113 -17.761  1.00  0.00     0.051 A 
ATOM     15  C   UNL     1     -47.251  27.049 -18.173  1.00  0.00     0.157 A 
ATOM     16  C   UNL     1     -48.666  25.510 -16.943  1.00  0.00     0.062 A 
ATOM     17  C   UNL     1     -47.556  25.742 -17.763  1.00  0.00     0.158 A 
BRANCH  15  18
ATOM     18  O   UNL     1     -46.147  27.287 -18.990  1.00  0.00    -0.504 OA
ATOM     19  H   UNL     1     -46.219  27.846 -19.832  1.00  0.00     0.293 HD
ENDBRANCH  15  18
BRANCH  17  20
ATOM     20  O   UNL     1     -46.770  24.660 -18.159  1.00  0.00    -0.504 OA
ATOM     21  H   UNL     1     -46.518  23.915 -17.519  1.00  0.00     0.293 HD
ENDBRANCH  17  20
ENDBRANCH   1  12
BRANCH   6  22
ATOM     22  O   UNL     1     -55.076  25.956 -12.974  1.00  0.00    -0.507 OA
ATOM     23  H   UNL     1     -55.121  26.963 -13.001  1.00  0.00     0.293 HD
ENDBRANCH   6  22
BRANCH   8  24
ATOM     24  O   UNL     1     -52.815  21.787 -12.336  1.00  0.00    -0.508 OA
ATOM     25  H   UNL     1     -53.455  21.539 -11.591  1.00  0.00     0.293 HD
ENDBRANCH   8  24
TORSDOF 5
ENDMDL
MODEL 9
REMARK VINA RESULT:    -6.203     14.322     15.673
REMARK INTER + INTRA:          -7.599
REMARK INTER:                  -7.283
REMARK INTRA:                  -0.316
REMARK UNBOUND:                -0.307
REMARK SMILES O=c1cc(-c2ccc(O)c(O)c2)oc2cc(O)cc(O)c12
REMARK SMILES IDX 4 1 3 2 2 3 1 4 21 5 19 6 18 7 16 8 15 9 14 10 13 11 5 12
REMARK SMILES IDX 6 13 7 14 8 15 12 16 10 17 9 18 11 20 20 22 17 24
REMARK H PARENT 9 19 11 21 20 23 17 25
REMARK Flexibility Score: inf
ROOT
ATOM      1  C   UNL     1     -48.373  11.025 -18.538  1.00  0.00     0.138 A 
ATOM      2  C   UNL     1     -49.138  10.041 -17.898  1.00  0.00     0.100 A 
ATOM      3  C   UNL     1     -48.874   9.718 -16.567  1.00  0.00     0.197 A 
ATOM      4  O   UNL     1     -49.617   8.875 -16.001  1.00  0.00    -0.289 OA
ATOM      5  C   UNL     1     -47.814  10.362 -15.884  1.00  0.00     0.107 A 
ATOM      6  C   UNL     1     -47.427  10.083 -14.539  1.00  0.00     0.134 A 
ATOM      7  C   UNL     1     -46.439  10.866 -13.930  1.00  0.00     0.093 A 
ATOM      8  C   UNL     1     -45.782  11.875 -14.633  1.00  0.00     0.123 A 
ATOM      9  C   UNL     1     -46.116  12.121 -15.966  1.00  0.00     0.094 A 
ATOM     10  C   UNL     1     -47.122  11.380 -16.591  1.00  0.00     0.146 A 
ATOM     11  O   UNL     1     -47.420  11.654 -17.857  1.00  0.00    -0.456 OA
ENDROOT
BRANCH   1  12
ATOM     12  C   UNL     1     -48.611  11.408 -19.953  1.00  0.00     0.021 A 
ATOM     13  C   UNL     1     -49.397  10.616 -20.810  1.00  0.00     0.016 A 
ATOM     14  C   UNL     1     -49.597  10.994 -22.140  1.00  0.00     0.051 A 
ATOM     15  C   UNL     1     -49.011  12.165 -22.638  1.00  0.00     0.157 A 
ATOM     16  C   UNL     1     -48.015  12.575 -20.465  1.00  0.00     0.062 A 
ATOM     17  C   UNL     1     -48.215  12.957 -21.796  1.00  0.00     0.158 A 
BRANCH  15  18
ATOM     18  O   UNL     1     -49.213  12.540 -23.966  1.00  0.00    -0.504 OA
ATOM     19  H   UNL     1     -48.764  12.051 -24.731  1.00  0.00     0.293 HD
ENDBRANCH  15  18
BRANCH  17  20
ATOM     20  O   UNL     1     -47.613  14.126 -22.262  1.00  0.00    -0.504 OA
ATOM     21  H   UNL     1     -48.103  15.013 -22.280  1.00  0.00     0.293 HD
ENDBRANCH  17  20
ENDBRANCH   1  12
BRANCH   6  22
ATOM     22  O   UNL     1     -47.958   9.042 -13.772  1.00  0.00    -0.507 OA
ATOM     23  H   UNL     1     -47.460   8.547 -13.048  1.00  0.00     0.293 HD
ENDBRANCH   6  22
BRANCH   8  24
ATOM     24  O   UNL     1     -44.793  12.625 -14.000  1.00  0.00    -0.508 OA
ATOM     25  H   UNL     1     -44.477  12.402 -13.063  1.00  0.00     0.293 HD
ENDBRANCH   8  24
TORSDOF 5
ENDMDL
