MODEL 1
REMARK VINA RESULT:    -5.065      0.000      0.000
REMARK INTER + INTRA:         -15.486
REMARK INTER:                 -11.579
REMARK INTRA:                  -3.907
REMARK UNBOUND:                -3.907
REMARK SMILES CCCCCCCCCCCCCCCCCCCCCCCC(=O)[O-]
REMARK SMILES IDX 13 1 14 2 15 3 16 4 17 5 18 6 19 7 20 8 21 9 22 10 23 11
REMARK SMILES IDX 24 12 25 13 26 14 12 15 11 16 10 17 9 18 8 19 7 20 6 21 5 22
REMARK SMILES IDX 4 23 3 24 2 25 1 26
REMARK H PARENT
REMARK Flexibility Score: inf
ROOT
ATOM      1  C   UNL     1      12.267  11.504 -19.731  1.00  0.00     0.000 C 
ENDROOT
BRANCH   1   2
ATOM      2  C   UNL     1      10.844  12.078 -19.610  1.00  0.00     0.000 C 
BRANCH   2   3
ATOM      3  C   UNL     1      10.705  13.101 -18.470  1.00  0.00     0.000 C 
BRANCH   3   4
ATOM      4  C   UNL     1      10.308  14.504 -18.966  1.00  0.00     0.000 C 
BRANCH   4   5
ATOM      5  C   UNL     1      10.130  15.562 -17.862  1.00  0.00     0.000 C 
BRANCH   5   6
ATOM      6  C   UNL     1      10.793  16.907 -18.205  1.00  0.00     0.000 C 
BRANCH   6   7
ATOM      7  C   UNL     1      12.258  16.978 -17.746  1.00  0.00     0.000 C 
BRANCH   7   8
ATOM      8  C   UNL     1      12.554  16.051 -16.553  1.00  0.00     0.000 C 
BRANCH   8   9
ATOM      9  C   UNL     1      13.677  15.045 -16.852  1.00  0.00     0.000 C 
BRANCH   9  10
ATOM     10  C   UNL     1      15.068  15.703 -16.875  1.00  0.00     0.006 C 
BRANCH  10  11
ATOM     11  C   UNL     1      16.170  14.746 -16.403  1.00  0.00     0.053 C 
BRANCH  11  12
ATOM     12  C   UNL     1      17.066  14.330 -17.529  1.00  0.00     0.041 C 
ATOM     13  O   UNL     1      17.165  15.047 -18.559  1.00  0.00    -0.550 OA
ATOM     14  O   UNL     1      17.771  13.137 -17.451  1.00  0.00    -0.550 OA
ENDBRANCH  11  12
ENDBRANCH  10  11
ENDBRANCH   9  10
ENDBRANCH   8   9
ENDBRANCH   7   8
ENDBRANCH   6   7
ENDBRANCH   5   6
ENDBRANCH   4   5
ENDBRANCH   3   4
ENDBRANCH   2   3
ENDBRANCH   1   2
BRANCH   1  15
ATOM     15  C   UNL     1      12.806  11.392 -21.169  1.00  0.00     0.000 C 
BRANCH  15  16
ATOM     16  C   UNL     1      13.855  12.467 -21.504  1.00  0.00     0.000 C 
BRANCH  16  17
ATOM     17  C   UNL     1      14.219  13.347 -20.294  1.00  0.00     0.000 C 
BRANCH  17  18
ATOM     18  C   UNL     1      13.778  14.818 -20.401  1.00  0.00    -0.000 C 
BRANCH  18  19
ATOM     19  C   UNL     1      12.887  15.090 -21.622  1.00  0.00    -0.000 C 
BRANCH  19  20
ATOM     20  C   UNL     1      12.579  16.589 -21.758  1.00  0.00    -0.000 C 
BRANCH  20  21
ATOM     21  C   UNL     1      11.070  16.892 -21.804  1.00  0.00    -0.000 C 
BRANCH  21  22
ATOM     22  C   UNL     1      10.399  16.685 -23.174  1.00  0.00    -0.000 C 
BRANCH  22  23
ATOM     23  C   UNL     1       8.864  16.648 -23.093  1.00  0.00    -0.000 C 
BRANCH  23  24
ATOM     24  C   UNL     1       8.338  16.871 -21.665  1.00  0.00    -0.000 C 
BRANCH  24  25
ATOM     25  C   UNL     1       7.584  15.656 -21.084  1.00  0.00    -0.003 C 
ATOM     26  C   UNL     1       7.076  14.712 -22.173  1.00  0.00     0.004 C 
ENDBRANCH  24  25
ENDBRANCH  23  24
ENDBRANCH  22  23
ENDBRANCH  21  22
ENDBRANCH  20  21
ENDBRANCH  19  20
ENDBRANCH  18  19
ENDBRANCH  17  18
ENDBRANCH  16  17
ENDBRANCH  15  16
ENDBRANCH   1  15
TORSDOF 22
ENDMDL
MODEL 2
REMARK VINA RESULT:    -5.023      1.816      5.005
REMARK INTER + INTRA:         -15.390
REMARK INTER:                 -11.218
REMARK INTRA:                  -4.173
REMARK UNBOUND:                -3.907
REMARK SMILES CCCCCCCCCCCCCCCCCCCCCCCC(=O)[O-]
REMARK SMILES IDX 13 1 14 2 15 3 16 4 17 5 18 6 19 7 20 8 21 9 22 10 23 11
REMARK SMILES IDX 24 12 25 13 26 14 12 15 11 16 10 17 9 18 8 19 7 20 6 21 5 22
REMARK SMILES IDX 4 23 3 24 2 25 1 26
REMARK H PARENT
REMARK Flexibility Score: inf
ROOT
ATOM      1  C   UNL     1      10.399  13.624 -18.069  1.00  0.00     0.000 C 
ENDROOT
BRANCH   1   2
ATOM      2  C   UNL     1      11.108  12.272 -18.267  1.00  0.00     0.000 C 
BRANCH   2   3
ATOM      3  C   UNL     1      12.277  12.348 -19.264  1.00  0.00     0.000 C 
BRANCH   3   4
ATOM      4  C   UNL     1      12.146  11.342 -20.422  1.00  0.00     0.000 C 
BRANCH   4   5
ATOM      5  C   UNL     1      13.256  11.422 -21.486  1.00  0.00     0.000 C 
BRANCH   5   6
ATOM      6  C   UNL     1      14.150  12.665 -21.332  1.00  0.00     0.000 C 
BRANCH   6   7
ATOM      7  C   UNL     1      15.620  12.382 -21.679  1.00  0.00     0.000 C 
BRANCH   7   8
ATOM      8  C   UNL     1      16.583  12.743 -20.534  1.00  0.00     0.000 C 
BRANCH   8   9
ATOM      9  C   UNL     1      16.040  13.870 -19.640  1.00  0.00     0.000 C 
BRANCH   9  10
ATOM     10  C   UNL     1      17.153  14.791 -19.111  1.00  0.00     0.006 C 
BRANCH  10  11
ATOM     11  C   UNL     1      17.104  14.943 -17.585  1.00  0.00     0.053 C 
BRANCH  11  12
ATOM     12  C   UNL     1      17.239  13.624 -16.890  1.00  0.00     0.041 C 
ATOM     13  O   UNL     1      16.515  13.353 -15.897  1.00  0.00    -0.550 OA
ATOM     14  O   UNL     1      18.185  12.704 -17.323  1.00  0.00    -0.550 OA
ENDBRANCH  11  12
ENDBRANCH  10  11
ENDBRANCH   9  10
ENDBRANCH   8   9
ENDBRANCH   7   8
ENDBRANCH   6   7
ENDBRANCH   5   6
ENDBRANCH   4   5
ENDBRANCH   3   4
ENDBRANCH   2   3
ENDBRANCH   1   2
BRANCH   1  15
ATOM     15  C   UNL     1      10.356  14.529 -19.314  1.00  0.00     0.000 C 
BRANCH  15  16
ATOM     16  C   UNL     1       9.392  15.718 -19.161  1.00  0.00     0.000 C 
BRANCH  16  17
ATOM     17  C   UNL     1      10.081  16.981 -18.611  1.00  0.00     0.000 C 
BRANCH  17  18
ATOM     18  C   UNL     1       9.693  17.361 -17.171  1.00  0.00    -0.000 C 
BRANCH  18  19
ATOM     19  C   UNL     1      10.456  16.551 -16.111  1.00  0.00    -0.000 C 
BRANCH  19  20
ATOM     20  C   UNL     1      11.950  16.910 -16.112  1.00  0.00    -0.000 C 
BRANCH  20  21
ATOM     21  C   UNL     1      12.850  15.736 -16.537  1.00  0.00    -0.000 C 
BRANCH  21  22
ATOM     22  C   UNL     1      13.688  15.975 -17.807  1.00  0.00    -0.000 C 
BRANCH  22  23
ATOM     23  C   UNL     1      13.612  17.425 -18.312  1.00  0.00    -0.000 C 
BRANCH  23  24
ATOM     24  C   UNL     1      13.587  17.521 -19.847  1.00  0.00    -0.000 C 
BRANCH  24  25
ATOM     25  C   UNL     1      13.499  16.152 -20.553  1.00  0.00    -0.003 C 
ATOM     26  C   UNL     1      12.579  16.186 -21.774  1.00  0.00     0.004 C 
ENDBRANCH  24  25
ENDBRANCH  23  24
ENDBRANCH  22  23
ENDBRANCH  21  22
ENDBRANCH  20  21
ENDBRANCH  19  20
ENDBRANCH  18  19
ENDBRANCH  17  18
ENDBRANCH  16  17
ENDBRANCH  15  16
ENDBRANCH   1  15
TORSDOF 22
ENDMDL
MODEL 3
REMARK VINA RESULT:    -5.019      1.206      3.433
REMARK INTER + INTRA:         -15.381
REMARK INTER:                 -11.629
REMARK INTRA:                  -3.751
REMARK UNBOUND:                -3.907
REMARK SMILES CCCCCCCCCCCCCCCCCCCCCCCC(=O)[O-]
REMARK SMILES IDX 13 1 14 2 15 3 16 4 17 5 18 6 19 7 20 8 21 9 22 10 23 11
REMARK SMILES IDX 24 12 25 13 26 14 12 15 11 16 10 17 9 18 8 19 7 20 6 21 5 22
REMARK SMILES IDX 4 23 3 24 2 25 1 26
REMARK H PARENT
REMARK Flexibility Score: inf
ROOT
ATOM      1  C   UNL     1      10.946  11.369 -20.081  1.00  0.00     0.000 C 
ENDROOT
BRANCH   1   2
ATOM      2  C   UNL     1      12.473  11.566 -20.074  1.00  0.00     0.000 C 
BRANCH   2   3
ATOM      3  C   UNL     1      13.112  11.345 -21.456  1.00  0.00     0.000 C 
BRANCH   3   4
ATOM      4  C   UNL     1      13.726  12.629 -22.045  1.00  0.00     0.000 C 
BRANCH   4   5
ATOM      5  C   UNL     1      13.839  13.810 -21.062  1.00  0.00     0.000 C 
BRANCH   5   6
ATOM      6  C   UNL     1      12.855  14.950 -21.374  1.00  0.00     0.000 C 
BRANCH   6   7
ATOM      7  C   UNL     1      12.975  16.121 -20.387  1.00  0.00     0.000 C 
BRANCH   7   8
ATOM      8  C   UNL     1      14.311  16.121 -19.622  1.00  0.00     0.000 C 
BRANCH   8   9
ATOM      9  C   UNL     1      14.120  16.031 -18.100  1.00  0.00     0.000 C 
BRANCH   9  10
ATOM     10  C   UNL     1      14.597  14.687 -17.524  1.00  0.00     0.006 C 
BRANCH  10  11
ATOM     11  C   UNL     1      15.860  14.841 -16.665  1.00  0.00     0.053 C 
BRANCH  11  12
ATOM     12  C   UNL     1      17.093  14.428 -17.410  1.00  0.00     0.041 C 
ATOM     13  O   UNL     1      17.445  15.048 -18.447  1.00  0.00    -0.550 OA
ATOM     14  O   UNL     1      17.838  13.341 -16.972  1.00  0.00    -0.550 OA
ENDBRANCH  11  12
ENDBRANCH  10  11
ENDBRANCH   9  10
ENDBRANCH   8   9
ENDBRANCH   7   8
ENDBRANCH   6   7
ENDBRANCH   5   6
ENDBRANCH   4   5
ENDBRANCH   3   4
ENDBRANCH   2   3
ENDBRANCH   1   2
BRANCH   1  15
ATOM     15  C   UNL     1      10.132  12.551 -19.524  1.00  0.00     0.000 C 
BRANCH  15  16
ATOM     16  C   UNL     1      10.948  13.454 -18.583  1.00  0.00     0.000 C 
BRANCH  16  17
ATOM     17  C   UNL     1      10.191  14.729 -18.170  1.00  0.00     0.000 C 
BRANCH  17  18
ATOM     18  C   UNL     1      10.755  15.452 -16.933  1.00  0.00    -0.000 C 
BRANCH  18  19
ATOM     19  C   UNL     1       9.925  16.679 -16.525  1.00  0.00    -0.000 C 
BRANCH  19  20
ATOM     20  C   UNL     1       9.696  17.614 -17.723  1.00  0.00    -0.000 C 
BRANCH  20  21
ATOM     21  C   UNL     1       8.210  17.759 -18.098  1.00  0.00    -0.000 C 
BRANCH  21  22
ATOM     22  C   UNL     1       7.922  17.893 -19.605  1.00  0.00    -0.000 C 
BRANCH  22  23
ATOM     23  C   UNL     1       9.128  17.520 -20.483  1.00  0.00    -0.000 C 
BRANCH  23  24
ATOM     24  C   UNL     1       8.936  16.186 -21.223  1.00  0.00    -0.000 C 
BRANCH  24  25
ATOM     25  C   UNL     1       7.612  15.471 -20.883  1.00  0.00    -0.003 C 
ATOM     26  C   UNL     1       6.997  14.776 -22.098  1.00  0.00     0.004 C 
ENDBRANCH  24  25
ENDBRANCH  23  24
ENDBRANCH  22  23
ENDBRANCH  21  22
ENDBRANCH  20  21
ENDBRANCH  19  20
ENDBRANCH  18  19
ENDBRANCH  17  18
ENDBRANCH  16  17
ENDBRANCH  15  16
ENDBRANCH   1  15
TORSDOF 22
ENDMDL
MODEL 4
REMARK VINA RESULT:    -5.012      1.345      2.073
REMARK INTER + INTRA:         -15.365
REMARK INTER:                 -11.243
REMARK INTRA:                  -4.122
REMARK UNBOUND:                -3.907
REMARK SMILES CCCCCCCCCCCCCCCCCCCCCCCC(=O)[O-]
REMARK SMILES IDX 13 1 14 2 15 3 16 4 17 5 18 6 19 7 20 8 21 9 22 10 23 11
REMARK SMILES IDX 24 12 25 13 26 14 12 15 11 16 10 17 9 18 8 19 7 20 6 21 5 22
REMARK SMILES IDX 4 23 3 24 2 25 1 26
REMARK H PARENT
REMARK Flexibility Score: inf
ROOT
ATOM      1  C   UNL     1      10.717  12.706 -19.071  1.00  0.00     0.000 C 
ENDROOT
BRANCH   1   2
ATOM      2  C   UNL     1      11.843  12.970 -18.055  1.00  0.00     0.000 C 
BRANCH   2   3
ATOM      3  C   UNL     1      11.919  14.442 -17.614  1.00  0.00     0.000 C 
BRANCH   3   4
ATOM      4  C   UNL     1      10.537  15.050 -17.310  1.00  0.00     0.000 C 
BRANCH   4   5
ATOM      5  C   UNL     1      10.558  16.308 -16.422  1.00  0.00     0.000 C 
BRANCH   5   6
ATOM      6  C   UNL     1      11.936  16.581 -15.796  1.00  0.00     0.000 C 
BRANCH   6   7
ATOM      7  C   UNL     1      12.648  17.783 -16.436  1.00  0.00     0.000 C 
BRANCH   7   8
ATOM      8  C   UNL     1      14.181  17.697 -16.324  1.00  0.00     0.000 C 
BRANCH   8   9
ATOM      9  C   UNL     1      14.838  17.156 -17.604  1.00  0.00     0.000 C 
BRANCH   9  10
ATOM     10  C   UNL     1      15.995  16.186 -17.309  1.00  0.00     0.006 C 
BRANCH  10  11
ATOM     11  C   UNL     1      15.679  14.753 -17.758  1.00  0.00     0.053 C 
BRANCH  11  12
ATOM     12  C   UNL     1      16.924  13.964 -18.020  1.00  0.00     0.041 C 
ATOM     13  O   UNL     1      17.244  13.656 -19.198  1.00  0.00    -0.550 OA
ATOM     14  O   UNL     1      17.719  13.546 -16.961  1.00  0.00    -0.550 OA
ENDBRANCH  11  12
ENDBRANCH  10  11
ENDBRANCH   9  10
ENDBRANCH   8   9
ENDBRANCH   7   8
ENDBRANCH   6   7
ENDBRANCH   5   6
ENDBRANCH   4   5
ENDBRANCH   3   4
ENDBRANCH   2   3
ENDBRANCH   1   2
BRANCH   1  15
ATOM     15  C   UNL     1      11.018  11.608 -20.109  1.00  0.00     0.000 C 
BRANCH  15  16
ATOM     16  C   UNL     1      12.521  11.309 -20.251  1.00  0.00     0.000 C 
BRANCH  16  17
ATOM     17  C   UNL     1      13.008  11.366 -21.710  1.00  0.00     0.000 C 
BRANCH  17  18
ATOM     18  C   UNL     1      14.067  12.445 -22.004  1.00  0.00    -0.000 C 
BRANCH  18  19
ATOM     19  C   UNL     1      14.051  13.594 -20.984  1.00  0.00    -0.000 C 
BRANCH  19  20
ATOM     20  C   UNL     1      13.102  14.716 -21.432  1.00  0.00    -0.000 C 
BRANCH  20  21
ATOM     21  C   UNL     1      13.310  16.027 -20.652  1.00  0.00    -0.000 C 
BRANCH  21  22
ATOM     22  C   UNL     1      12.037  16.860 -20.413  1.00  0.00    -0.000 C 
BRANCH  22  23
ATOM     23  C   UNL     1      10.746  16.095 -20.752  1.00  0.00    -0.000 C 
BRANCH  23  24
ATOM     24  C   UNL     1       9.475  16.894 -20.416  1.00  0.00    -0.000 C 
BRANCH  24  25
ATOM     25  C   UNL     1       8.256  16.010 -20.081  1.00  0.00    -0.003 C 
ATOM     26  C   UNL     1       7.645  15.366 -21.326  1.00  0.00     0.004 C 
ENDBRANCH  24  25
ENDBRANCH  23  24
ENDBRANCH  22  23
ENDBRANCH  21  22
ENDBRANCH  20  21
ENDBRANCH  19  20
ENDBRANCH  18  19
ENDBRANCH  17  18
ENDBRANCH  16  17
ENDBRANCH  15  16
ENDBRANCH   1  15
TORSDOF 22
ENDMDL
MODEL 5
REMARK VINA RESULT:    -4.968      2.968      6.741
REMARK INTER + INTRA:         -15.264
REMARK INTER:                 -11.174
REMARK INTRA:                  -4.090
REMARK UNBOUND:                -3.907
REMARK SMILES CCCCCCCCCCCCCCCCCCCCCCCC(=O)[O-]
REMARK SMILES IDX 13 1 14 2 15 3 16 4 17 5 18 6 19 7 20 8 21 9 22 10 23 11
REMARK SMILES IDX 24 12 25 13 26 14 12 15 11 16 10 17 9 18 8 19 7 20 6 21 5 22
REMARK SMILES IDX 4 23 3 24 2 25 1 26
REMARK H PARENT
REMARK Flexibility Score: inf
ROOT
ATOM      1  C   UNL     1      11.851  12.900 -18.059  1.00  0.00     0.000 C 
ENDROOT
BRANCH   1   2
ATOM      2  C   UNL     1      10.872  12.701 -19.230  1.00  0.00     0.000 C 
BRANCH   2   3
ATOM      3  C   UNL     1      11.130  11.403 -20.013  1.00  0.00     0.000 C 
BRANCH   3   4
ATOM      4  C   UNL     1      12.627  11.139 -20.261  1.00  0.00     0.000 C 
BRANCH   4   5
ATOM      5  C   UNL     1      13.103  11.379 -21.706  1.00  0.00     0.000 C 
BRANCH   5   6
ATOM      6  C   UNL     1      14.321  12.314 -21.791  1.00  0.00     0.000 C 
BRANCH   6   7
ATOM      7  C   UNL     1      14.258  13.460 -20.769  1.00  0.00     0.000 C 
BRANCH   7   8
ATOM      8  C   UNL     1      13.378  14.632 -21.240  1.00  0.00     0.000 C 
BRANCH   8   9
ATOM      9  C   UNL     1      13.607  15.910 -20.419  1.00  0.00     0.000 C 
BRANCH   9  10
ATOM     10  C   UNL     1      12.436  16.902 -20.532  1.00  0.00     0.006 C 
BRANCH  10  11
ATOM     11  C   UNL     1      11.207  16.272 -21.200  1.00  0.00     0.053 C 
BRANCH  11  12
ATOM     12  C   UNL     1      10.856  16.961 -22.483  1.00  0.00     0.041 C 
ATOM     13  O   UNL     1      10.376  18.125 -22.467  1.00  0.00    -0.550 OA
ATOM     14  O   UNL     1      11.035  16.307 -23.694  1.00  0.00    -0.550 OA
ENDBRANCH  11  12
ENDBRANCH  10  11
ENDBRANCH   9  10
ENDBRANCH   8   9
ENDBRANCH   7   8
ENDBRANCH   6   7
ENDBRANCH   5   6
ENDBRANCH   4   5
ENDBRANCH   3   4
ENDBRANCH   2   3
ENDBRANCH   1   2
BRANCH   1  15
ATOM     15  C   UNL     1      12.054  14.361 -17.617  1.00  0.00     0.000 C 
BRANCH  15  16
ATOM     16  C   UNL     1      10.767  15.200 -17.700  1.00  0.00     0.000 C 
BRANCH  16  17
ATOM     17  C   UNL     1      10.521  16.047 -16.438  1.00  0.00     0.000 C 
BRANCH  17  18
ATOM     18  C   UNL     1      11.751  16.808 -15.912  1.00  0.00    -0.000 C 
BRANCH  18  19
ATOM     19  C   UNL     1      12.242  17.896 -16.878  1.00  0.00    -0.000 C 
BRANCH  19  20
ATOM     20  C   UNL     1      13.771  17.854 -17.026  1.00  0.00    -0.000 C 
BRANCH  20  21
ATOM     21  C   UNL     1      14.465  17.084 -15.889  1.00  0.00    -0.000 C 
BRANCH  21  22
ATOM     22  C   UNL     1      15.904  16.625 -16.187  1.00  0.00    -0.000 C 
BRANCH  22  23
ATOM     23  C   UNL     1      16.338  16.911 -17.635  1.00  0.00    -0.000 C 
BRANCH  23  24
ATOM     24  C   UNL     1      16.788  15.644 -18.383  1.00  0.00    -0.000 C 
BRANCH  24  25
ATOM     25  C   UNL     1      16.335  14.332 -17.710  1.00  0.00    -0.003 C 
ATOM     26  C   UNL     1      17.512  13.524 -17.162  1.00  0.00     0.004 C 
ENDBRANCH  24  25
ENDBRANCH  23  24
ENDBRANCH  22  23
ENDBRANCH  21  22
ENDBRANCH  20  21
ENDBRANCH  19  20
ENDBRANCH  18  19
ENDBRANCH  17  18
ENDBRANCH  16  17
ENDBRANCH  15  16
ENDBRANCH   1  15
TORSDOF 22
ENDMDL
MODEL 6
REMARK VINA RESULT:    -4.904      2.999      7.077
REMARK INTER + INTRA:         -15.117
REMARK INTER:                 -10.830
REMARK INTRA:                  -4.287
REMARK UNBOUND:                -3.907
REMARK SMILES CCCCCCCCCCCCCCCCCCCCCCCC(=O)[O-]
REMARK SMILES IDX 13 1 14 2 15 3 16 4 17 5 18 6 19 7 20 8 21 9 22 10 23 11
REMARK SMILES IDX 24 12 25 13 26 14 12 15 11 16 10 17 9 18 8 19 7 20 6 21 5 22
REMARK SMILES IDX 4 23 3 24 2 25 1 26
REMARK H PARENT
REMARK Flexibility Score: inf
ROOT
ATOM      1  C   UNL     1      14.151  16.283 -20.282  1.00  0.00     0.000 C 
ENDROOT
BRANCH   1   2
ATOM      2  C   UNL     1      13.627  14.837 -20.214  1.00  0.00     0.000 C 
BRANCH   2   3
ATOM      3  C   UNL     1      13.387  14.220 -21.602  1.00  0.00     0.000 C 
BRANCH   3   4
ATOM      4  C   UNL     1      14.013  12.821 -21.754  1.00  0.00     0.000 C 
BRANCH   4   5
ATOM      5  C   UNL     1      13.018  11.648 -21.674  1.00  0.00     0.000 C 
BRANCH   5   6
ATOM      6  C   UNL     1      12.670  11.252 -20.229  1.00  0.00     0.000 C 
BRANCH   6   7
ATOM      7  C   UNL     1      11.302  11.791 -19.783  1.00  0.00     0.000 C 
BRANCH   7   8
ATOM      8  C   UNL     1      11.322  12.354 -18.351  1.00  0.00     0.000 C 
BRANCH   8   9
ATOM      9  C   UNL     1      10.403  13.575 -18.184  1.00  0.00     0.000 C 
BRANCH   9  10
ATOM     10  C   UNL     1      10.181  14.331 -19.505  1.00  0.00     0.006 C 
BRANCH  10  11
ATOM     11  C   UNL     1       9.184  15.487 -19.350  1.00  0.00     0.053 C 
BRANCH  11  12
ATOM     12  C   UNL     1       8.557  15.861 -20.659  1.00  0.00     0.041 C 
ATOM     13  O   UNL     1       9.018  16.820 -21.331  1.00  0.00    -0.550 OA
ATOM     14  O   UNL     1       7.448  15.166 -21.122  1.00  0.00    -0.550 OA
ENDBRANCH  11  12
ENDBRANCH  10  11
ENDBRANCH   9  10
ENDBRANCH   8   9
ENDBRANCH   7   8
ENDBRANCH   6   7
ENDBRANCH   5   6
ENDBRANCH   4   5
ENDBRANCH   3   4
ENDBRANCH   2   3
ENDBRANCH   1   2
BRANCH   1  15
ATOM     15  C   UNL     1      13.095  17.344 -20.642  1.00  0.00     0.000 C 
BRANCH  15  16
ATOM     16  C   UNL     1      12.054  17.559 -19.529  1.00  0.00     0.000 C 
BRANCH  16  17
ATOM     17  C   UNL     1      12.692  17.860 -18.161  1.00  0.00     0.000 C 
BRANCH  17  18
ATOM     18  C   UNL     1      11.827  17.491 -16.941  1.00  0.00    -0.000 C 
BRANCH  18  19
ATOM     19  C   UNL     1      12.543  16.548 -15.962  1.00  0.00    -0.000 C 
BRANCH  19  20
ATOM     20  C   UNL     1      13.256  15.412 -16.710  1.00  0.00    -0.000 C 
BRANCH  20  21
ATOM     21  C   UNL     1      14.693  15.171 -16.212  1.00  0.00    -0.000 C 
BRANCH  21  22
ATOM     22  C   UNL     1      15.621  16.399 -16.263  1.00  0.00    -0.000 C 
BRANCH  22  23
ATOM     23  C   UNL     1      16.541  16.406 -17.495  1.00  0.00    -0.000 C 
BRANCH  23  24
ATOM     24  C   UNL     1      17.151  15.026 -17.791  1.00  0.00    -0.000 C 
BRANCH  24  25
ATOM     25  C   UNL     1      17.420  14.774 -19.290  1.00  0.00    -0.003 C 
ATOM     26  C   UNL     1      17.054  13.352 -19.716  1.00  0.00     0.004 C 
ENDBRANCH  24  25
ENDBRANCH  23  24
ENDBRANCH  22  23
ENDBRANCH  21  22
ENDBRANCH  20  21
ENDBRANCH  19  20
ENDBRANCH  18  19
ENDBRANCH  17  18
ENDBRANCH  16  17
ENDBRANCH  15  16
ENDBRANCH   1  15
TORSDOF 22
ENDMDL
MODEL 7
REMARK VINA RESULT:    -4.880      1.083      2.971
REMARK INTER + INTRA:         -15.063
REMARK INTER:                 -11.441
REMARK INTRA:                  -3.622
REMARK UNBOUND:                -3.907
REMARK SMILES CCCCCCCCCCCCCCCCCCCCCCCC(=O)[O-]
REMARK SMILES IDX 13 1 14 2 15 3 16 4 17 5 18 6 19 7 20 8 21 9 22 10 23 11
REMARK SMILES IDX 24 12 25 13 26 14 12 15 11 16 10 17 9 18 8 19 7 20 6 21 5 22
REMARK SMILES IDX 4 23 3 24 2 25 1 26
REMARK H PARENT
REMARK Flexibility Score: inf
ROOT
ATOM      1  C   UNL     1      13.524  13.793 -21.080  1.00  0.00     0.000 C 
ENDROOT
BRANCH   1   2
ATOM      2  C   UNL     1      13.007  14.905 -22.011  1.00  0.00     0.000 C 
BRANCH   2   3
ATOM      3  C   UNL     1      12.965  16.285 -21.331  1.00  0.00     0.000 C 
BRANCH   3   4
ATOM      4  C   UNL     1      12.789  16.196 -19.804  1.00  0.00     0.000 C 
BRANCH   4   5
ATOM      5  C   UNL     1      12.850  17.543 -19.060  1.00  0.00     0.000 C 
BRANCH   5   6
ATOM      6  C   UNL     1      12.551  17.414 -17.557  1.00  0.00     0.000 C 
BRANCH   6   7
ATOM      7  C   UNL     1      12.674  15.968 -17.052  1.00  0.00     0.000 C 
BRANCH   7   8
ATOM      8  C   UNL     1      13.999  15.704 -16.315  1.00  0.00     0.000 C 
BRANCH   8   9
ATOM      9  C   UNL     1      14.776  16.996 -16.017  1.00  0.00     0.000 C 
BRANCH   9  10
ATOM     10  C   UNL     1      16.224  16.946 -16.536  1.00  0.00     0.006 C 
BRANCH  10  11
ATOM     11  C   UNL     1      16.300  16.487 -17.998  1.00  0.00     0.053 C 
BRANCH  11  12
ATOM     12  C   UNL     1      17.103  15.232 -18.147  1.00  0.00     0.041 C 
ATOM     13  O   UNL     1      17.419  14.557 -17.132  1.00  0.00    -0.550 OA
ATOM     14  O   UNL     1      17.525  14.822 -19.404  1.00  0.00    -0.550 OA
ENDBRANCH  11  12
ENDBRANCH  10  11
ENDBRANCH   9  10
ENDBRANCH   8   9
ENDBRANCH   7   8
ENDBRANCH   6   7
ENDBRANCH   5   6
ENDBRANCH   4   5
ENDBRANCH   3   4
ENDBRANCH   2   3
ENDBRANCH   1   2
BRANCH   1  15
ATOM     15  C   UNL     1      13.575  12.387 -21.707  1.00  0.00     0.000 C 
BRANCH  15  16
ATOM     16  C   UNL     1      12.620  11.390 -21.029  1.00  0.00     0.000 C 
BRANCH  16  17
ATOM     17  C   UNL     1      12.157  11.856 -19.637  1.00  0.00     0.000 C 
BRANCH  17  18
ATOM     18  C   UNL     1      10.649  12.139 -19.510  1.00  0.00    -0.000 C 
BRANCH  18  19
ATOM     19  C   UNL     1      10.342  13.386 -18.668  1.00  0.00    -0.000 C 
BRANCH  19  20
ATOM     20  C   UNL     1       9.893  14.556 -19.557  1.00  0.00    -0.000 C 
BRANCH  20  21
ATOM     21  C   UNL     1       9.277  15.719 -18.756  1.00  0.00    -0.000 C 
BRANCH  21  22
ATOM     22  C   UNL     1       8.113  16.450 -19.449  1.00  0.00    -0.000 C 
BRANCH  22  23
ATOM     23  C   UNL     1       7.698  15.797 -20.778  1.00  0.00    -0.000 C 
BRANCH  23  24
ATOM     24  C   UNL     1       7.888  16.730 -21.986  1.00  0.00    -0.000 C 
BRANCH  24  25
ATOM     25  C   UNL     1       9.356  17.133 -22.234  1.00  0.00    -0.003 C 
ATOM     26  C   UNL     1       9.932  16.485 -23.494  1.00  0.00     0.004 C 
ENDBRANCH  24  25
ENDBRANCH  23  24
ENDBRANCH  22  23
ENDBRANCH  21  22
ENDBRANCH  20  21
ENDBRANCH  19  20
ENDBRANCH  18  19
ENDBRANCH  17  18
ENDBRANCH  16  17
ENDBRANCH  15  16
ENDBRANCH   1  15
TORSDOF 22
ENDMDL
MODEL 8
REMARK VINA RESULT:    -4.879      1.261      5.249
REMARK INTER + INTRA:         -15.061
REMARK INTER:                 -11.013
REMARK INTRA:                  -4.048
REMARK UNBOUND:                -3.907
REMARK SMILES CCCCCCCCCCCCCCCCCCCCCCCC(=O)[O-]
REMARK SMILES IDX 13 1 14 2 15 3 16 4 17 5 18 6 19 7 20 8 21 9 22 10 23 11
REMARK SMILES IDX 24 12 25 13 26 14 12 15 11 16 10 17 9 18 8 19 7 20 6 21 5 22
REMARK SMILES IDX 4 23 3 24 2 25 1 26
REMARK H PARENT
REMARK Flexibility Score: inf
ROOT
ATOM      1  C   UNL     1       7.435  15.583 -21.394  1.00  0.00     0.000 C 
ENDROOT
BRANCH   1   2
ATOM      2  C   UNL     1       7.695  15.887 -22.881  1.00  0.00     0.000 C 
BRANCH   2   3
ATOM      3  C   UNL     1       8.652  17.073 -23.091  1.00  0.00     0.000 C 
BRANCH   3   4
ATOM      4  C   UNL     1      10.114  16.636 -23.294  1.00  0.00     0.000 C 
BRANCH   4   5
ATOM      5  C   UNL     1      11.080  17.042 -22.165  1.00  0.00     0.000 C 
BRANCH   5   6
ATOM      6  C   UNL     1      11.644  15.837 -21.393  1.00  0.00     0.000 C 
BRANCH   6   7
ATOM      7  C   UNL     1      13.180  15.798 -21.398  1.00  0.00     0.000 C 
BRANCH   7   8
ATOM      8  C   UNL     1      13.809  16.952 -20.596  1.00  0.00     0.000 C 
BRANCH   8   9
ATOM      9  C   UNL     1      14.504  16.469 -19.314  1.00  0.00     0.000 C 
BRANCH   9  10
ATOM     10  C   UNL     1      14.850  14.970 -19.359  1.00  0.00     0.006 C 
BRANCH  10  11
ATOM     11  C   UNL     1      15.059  14.382 -17.957  1.00  0.00     0.053 C 
BRANCH  11  12
ATOM     12  C   UNL     1      16.215  15.022 -17.251  1.00  0.00     0.041 C 
ATOM     13  O   UNL     1      16.014  15.803 -16.285  1.00  0.00    -0.550 OA
ATOM     14  O   UNL     1      17.512  14.776 -17.679  1.00  0.00    -0.550 OA
ENDBRANCH  11  12
ENDBRANCH  10  11
ENDBRANCH   9  10
ENDBRANCH   8   9
ENDBRANCH   7   8
ENDBRANCH   6   7
ENDBRANCH   5   6
ENDBRANCH   4   5
ENDBRANCH   3   4
ENDBRANCH   2   3
ENDBRANCH   1   2
BRANCH   1  15
ATOM     15  C   UNL     1       7.757  16.736 -20.425  1.00  0.00     0.000 C 
BRANCH  15  16
ATOM     16  C   UNL     1       8.631  16.297 -19.237  1.00  0.00     0.000 C 
BRANCH  16  17
ATOM     17  C   UNL     1       9.518  17.432 -18.694  1.00  0.00     0.000 C 
BRANCH  17  18
ATOM     18  C   UNL     1      10.866  16.981 -18.100  1.00  0.00    -0.000 C 
BRANCH  18  19
ATOM     19  C   UNL     1      10.748  15.710 -17.245  1.00  0.00    -0.000 C 
BRANCH  19  20
ATOM     20  C   UNL     1      11.400  14.509 -17.948  1.00  0.00    -0.000 C 
BRANCH  20  21
ATOM     21  C   UNL     1      10.483  13.273 -18.001  1.00  0.00    -0.000 C 
BRANCH  21  22
ATOM     22  C   UNL     1      10.842  12.234 -19.080  1.00  0.00    -0.000 C 
BRANCH  22  23
ATOM     23  C   UNL     1      12.286  12.373 -19.591  1.00  0.00    -0.000 C 
BRANCH  23  24
ATOM     24  C   UNL     1      12.537  11.583 -20.887  1.00  0.00    -0.000 C 
BRANCH  24  25
ATOM     25  C   UNL     1      14.022  11.528 -21.303  1.00  0.00    -0.003 C 
ATOM     26  C   UNL     1      14.340  12.484 -22.453  1.00  0.00     0.004 C 
ENDBRANCH  24  25
ENDBRANCH  23  24
ENDBRANCH  22  23
ENDBRANCH  21  22
ENDBRANCH  20  21
ENDBRANCH  19  20
ENDBRANCH  18  19
ENDBRANCH  17  18
ENDBRANCH  16  17
ENDBRANCH  15  16
ENDBRANCH   1  15
TORSDOF 22
ENDMDL
MODEL 9
REMARK VINA RESULT:    -4.819      1.276      4.162
REMARK INTER + INTRA:         -14.923
REMARK INTER:                 -10.727
REMARK INTRA:                  -4.196
REMARK UNBOUND:                -3.907
REMARK SMILES CCCCCCCCCCCCCCCCCCCCCCCC(=O)[O-]
REMARK SMILES IDX 13 1 14 2 15 3 16 4 17 5 18 6 19 7 20 8 21 9 22 10 23 11
REMARK SMILES IDX 24 12 25 13 26 14 12 15 11 16 10 17 9 18 8 19 7 20 6 21 5 22
REMARK SMILES IDX 4 23 3 24 2 25 1 26
REMARK H PARENT
REMARK Flexibility Score: inf
ROOT
ATOM      1  C   UNL     1       7.700  15.166 -21.026  1.00  0.00     0.000 C 
ENDROOT
BRANCH   1   2
ATOM      2  C   UNL     1       7.772  16.334 -20.026  1.00  0.00     0.000 C 
BRANCH   2   3
ATOM      3  C   UNL     1       9.016  16.275 -19.124  1.00  0.00     0.000 C 
BRANCH   3   4
ATOM      4  C   UNL     1       9.519  17.669 -18.703  1.00  0.00     0.000 C 
BRANCH   4   5
ATOM      5  C   UNL     1      10.748  17.668 -17.775  1.00  0.00     0.000 C 
BRANCH   5   6
ATOM      6  C   UNL     1      10.677  16.586 -16.684  1.00  0.00     0.000 C 
BRANCH   6   7
ATOM      7  C   UNL     1      11.911  16.588 -15.768  1.00  0.00     0.000 C 
BRANCH   7   8
ATOM      8  C   UNL     1      13.186  17.064 -16.488  1.00  0.00     0.000 C 
BRANCH   8   9
ATOM      9  C   UNL     1      14.331  16.043 -16.398  1.00  0.00     0.000 C 
BRANCH   9  10
ATOM     10  C   UNL     1      15.718  16.710 -16.412  1.00  0.00     0.006 C 
BRANCH  10  11
ATOM     11  C   UNL     1      16.358  16.685 -17.806  1.00  0.00     0.053 C 
BRANCH  11  12
ATOM     12  C   UNL     1      16.968  15.352 -18.114  1.00  0.00     0.041 C 
ATOM     13  O   UNL     1      17.511  14.676 -17.202  1.00  0.00    -0.550 OA
ATOM     14  O   UNL     1      16.961  14.869 -19.416  1.00  0.00    -0.550 OA
ENDBRANCH  11  12
ENDBRANCH  10  11
ENDBRANCH   9  10
ENDBRANCH   8   9
ENDBRANCH   7   8
ENDBRANCH   6   7
ENDBRANCH   5   6
ENDBRANCH   4   5
ENDBRANCH   3   4
ENDBRANCH   2   3
ENDBRANCH   1   2
BRANCH   1  15
ATOM     15  C   UNL     1       7.374  15.566 -22.477  1.00  0.00     0.000 C 
BRANCH  15  16
ATOM     16  C   UNL     1       8.054  16.878 -22.907  1.00  0.00     0.000 C 
BRANCH  16  17
ATOM     17  C   UNL     1       9.519  16.681 -23.337  1.00  0.00     0.000 C 
BRANCH  17  18
ATOM     18  C   UNL     1      10.559  17.417 -22.473  1.00  0.00    -0.000 C 
BRANCH  18  19
ATOM     19  C   UNL     1      11.506  16.461 -21.731  1.00  0.00    -0.000 C 
BRANCH  19  20
ATOM     20  C   UNL     1      12.550  17.240 -20.917  1.00  0.00    -0.000 C 
BRANCH  20  21
ATOM     21  C   UNL     1      13.539  16.325 -20.173  1.00  0.00    -0.000 C 
BRANCH  21  22
ATOM     22  C   UNL     1      13.468  14.834 -20.551  1.00  0.00    -0.000 C 
BRANCH  22  23
ATOM     23  C   UNL     1      13.440  13.903 -19.327  1.00  0.00    -0.000 C 
BRANCH  23  24
ATOM     24  C   UNL     1      12.096  13.942 -18.580  1.00  0.00    -0.000 C 
BRANCH  24  25
ATOM     25  C   UNL     1      10.965  13.175 -19.297  1.00  0.00    -0.003 C 
ATOM     26  C   UNL     1      11.437  11.834 -19.859  1.00  0.00     0.004 C 
ENDBRANCH  24  25
ENDBRANCH  23  24
ENDBRANCH  22  23
ENDBRANCH  21  22
ENDBRANCH  20  21
ENDBRANCH  19  20
ENDBRANCH  18  19
ENDBRANCH  17  18
ENDBRANCH  16  17
ENDBRANCH  15  16
ENDBRANCH   1  15
TORSDOF 22
ENDMDL
