MODEL 1
REMARK VINA RESULT:    -4.462      0.000      0.000
REMARK INTER + INTRA:          -8.580
REMARK INTER:                  -7.071
REMARK INTRA:                  -1.509
REMARK UNBOUND:                -1.509
REMARK SMILES CCCCCCCCCCCC(=O)[O-]
REMARK SMILES IDX 7 1 8 2 9 3 10 4 11 5 12 6 13 7 14 8 6 9 5 10 4 11 3 12 2 13
REMARK SMILES IDX 1 14
REMARK H PARENT
REMARK Flexibility Score: inf
ROOT
ATOM      1  C   UNL     1     159.341 158.150 147.928  1.00  0.00     0.000 C 
ENDROOT
BRANCH   1   2
ATOM      2  C   UNL     1     158.326 158.500 149.027  1.00  0.00     0.000 C 
BRANCH   2   3
ATOM      3  C   UNL     1     158.817 158.113 150.431  1.00  0.00     0.000 C 
BRANCH   3   4
ATOM      4  C   UNL     1     160.336 158.273 150.593  1.00  0.00     0.006 C 
BRANCH   4   5
ATOM      5  C   UNL     1     160.666 159.423 151.549  1.00  0.00     0.053 C 
BRANCH   5   6
ATOM      6  C   UNL     1     160.570 158.967 152.971  1.00  0.00     0.041 C 
ATOM      7  O   UNL     1     159.904 159.632 153.807  1.00  0.00    -0.550 OA
ATOM      8  O   UNL     1     161.258 157.832 153.384  1.00  0.00    -0.550 OA
ENDBRANCH   5   6
ENDBRANCH   4   5
ENDBRANCH   3   4
ENDBRANCH   2   3
ENDBRANCH   1   2
BRANCH   1   9
ATOM      9  C   UNL     1     159.691 159.386 147.090  1.00  0.00     0.000 C 
BRANCH   9  10
ATOM     10  C   UNL     1     159.237 160.675 147.792  1.00  0.00    -0.000 C 
BRANCH  10  11
ATOM     11  C   UNL     1     160.415 161.580 148.189  1.00  0.00    -0.000 C 
BRANCH  11  12
ATOM     12  C   UNL     1     160.104 162.452 149.414  1.00  0.00    -0.000 C 
BRANCH  12  13
ATOM     13  C   UNL     1     158.751 162.073 150.028  1.00  0.00    -0.003 C 
ATOM     14  C   UNL     1     158.641 162.563 151.469  1.00  0.00     0.004 C 
ENDBRANCH  12  13
ENDBRANCH  11  12
ENDBRANCH  10  11
ENDBRANCH   9  10
ENDBRANCH   1   9
TORSDOF 10
ENDMDL
MODEL 2
REMARK VINA RESULT:    -4.427      2.220      3.909
REMARK INTER + INTRA:          -8.525
REMARK INTER:                  -7.036
REMARK INTRA:                  -1.489
REMARK UNBOUND:                -1.509
REMARK SMILES CCCCCCCCCCCC(=O)[O-]
REMARK SMILES IDX 7 1 8 2 9 3 10 4 11 5 12 6 13 7 14 8 6 9 5 10 4 11 3 12 2 13
REMARK SMILES IDX 1 14
REMARK H PARENT
REMARK Flexibility Score: inf
ROOT
ATOM      1  C   UNL     1     160.303 162.112 150.287  1.00  0.00     0.000 C 
ENDROOT
BRANCH   1   2
ATOM      2  C   UNL     1     161.268 160.991 150.701  1.00  0.00     0.000 C 
BRANCH   2   3
ATOM      3  C   UNL     1     160.669 160.054 151.761  1.00  0.00     0.000 C 
BRANCH   3   4
ATOM      4  C   UNL     1     159.178 160.323 152.014  1.00  0.00     0.006 C 
BRANCH   4   5
ATOM      5  C   UNL     1     158.907 160.532 153.508  1.00  0.00     0.053 C 
BRANCH   5   6
ATOM      6  C   UNL     1     157.906 161.626 153.710  1.00  0.00     0.041 C 
ATOM      7  O   UNL     1     157.812 162.562 152.873  1.00  0.00    -0.550 OA
ATOM      8  O   UNL     1     157.111 161.639 154.850  1.00  0.00    -0.550 OA
ENDBRANCH   5   6
ENDBRANCH   4   5
ENDBRANCH   3   4
ENDBRANCH   2   3
ENDBRANCH   1   2
BRANCH   1   9
ATOM      9  C   UNL     1     160.230 162.240 148.761  1.00  0.00     0.000 C 
BRANCH   9  10
ATOM     10  C   UNL     1     160.026 160.867 148.102  1.00  0.00    -0.000 C 
BRANCH  10  11
ATOM     11  C   UNL     1     158.597 160.330 148.281  1.00  0.00    -0.000 C 
BRANCH  11  12
ATOM     12  C   UNL     1     158.564 158.824 148.583  1.00  0.00    -0.000 C 
BRANCH  12  13
ATOM     13  C   UNL     1     159.979 158.232 148.575  1.00  0.00    -0.003 C 
ATOM     14  C   UNL     1     160.109 157.096 149.585  1.00  0.00     0.004 C 
ENDBRANCH  12  13
ENDBRANCH  11  12
ENDBRANCH  10  11
ENDBRANCH   9  10
ENDBRANCH   1   9
TORSDOF 10
ENDMDL
MODEL 3
REMARK VINA RESULT:    -4.403      1.869      2.589
REMARK INTER + INTRA:          -8.486
REMARK INTER:                  -6.949
REMARK INTRA:                  -1.537
REMARK UNBOUND:                -1.509
REMARK SMILES CCCCCCCCCCCC(=O)[O-]
REMARK SMILES IDX 7 1 8 2 9 3 10 4 11 5 12 6 13 7 14 8 6 9 5 10 4 11 3 12 2 13
REMARK SMILES IDX 1 14
REMARK H PARENT
REMARK Flexibility Score: inf
ROOT
ATOM      1  C   UNL     1     158.739 158.055 149.014  1.00  0.00     0.000 C 
ENDROOT
BRANCH   1   2
ATOM      2  C   UNL     1     159.743 157.350 149.938  1.00  0.00     0.000 C 
BRANCH   2   3
ATOM      3  C   UNL     1     160.198 158.236 151.108  1.00  0.00     0.000 C 
BRANCH   3   4
ATOM      4  C   UNL     1     159.156 159.302 151.482  1.00  0.00     0.006 C 
BRANCH   4   5
ATOM      5  C   UNL     1     159.736 160.305 152.484  1.00  0.00     0.053 C 
BRANCH   5   6
ATOM      6  C   UNL     1     158.881 161.531 152.553  1.00  0.00     0.041 C 
ATOM      7  O   UNL     1     158.933 162.393 151.637  1.00  0.00    -0.550 OA
ATOM      8  O   UNL     1     158.062 161.746 153.656  1.00  0.00    -0.550 OA
ENDBRANCH   5   6
ENDBRANCH   4   5
ENDBRANCH   3   4
ENDBRANCH   2   3
ENDBRANCH   1   2
BRANCH   1   9
ATOM      9  C   UNL     1     159.244 158.074 147.566  1.00  0.00     0.000 C 
BRANCH   9  10
ATOM     10  C   UNL     1     159.684 159.487 147.154  1.00  0.00    -0.000 C 
BRANCH  10  11
ATOM     11  C   UNL     1     159.009 160.586 147.990  1.00  0.00    -0.000 C 
BRANCH  11  12
ATOM     12  C   UNL     1     159.998 161.665 148.458  1.00  0.00    -0.000 C 
BRANCH  12  13
ATOM     13  C   UNL     1     161.279 161.030 149.013  1.00  0.00    -0.003 C 
ATOM     14  C   UNL     1     162.039 162.008 149.904  1.00  0.00     0.004 C 
ENDBRANCH  12  13
ENDBRANCH  11  12
ENDBRANCH  10  11
ENDBRANCH   9  10
ENDBRANCH   1   9
TORSDOF 10
ENDMDL
MODEL 4
REMARK VINA RESULT:    -4.391      1.494      3.844
REMARK INTER + INTRA:          -8.467
REMARK INTER:                  -7.123
REMARK INTRA:                  -1.344
REMARK UNBOUND:                -1.509
REMARK SMILES CCCCCCCCCCCC(=O)[O-]
REMARK SMILES IDX 7 1 8 2 9 3 10 4 11 5 12 6 13 7 14 8 6 9 5 10 4 11 3 12 2 13
REMARK SMILES IDX 1 14
REMARK H PARENT
REMARK Flexibility Score: inf
ROOT
ATOM      1  C   UNL     1     160.144 161.169 147.809  1.00  0.00     0.000 C 
ENDROOT
BRANCH   1   2
ATOM      2  C   UNL     1     161.154 160.812 148.911  1.00  0.00     0.000 C 
BRANCH   2   3
ATOM      3  C   UNL     1     160.792 161.432 150.270  1.00  0.00     0.000 C 
BRANCH   3   4
ATOM      4  C   UNL     1     159.368 161.075 150.723  1.00  0.00     0.006 C 
BRANCH   4   5
ATOM      5  C   UNL     1     158.818 162.135 151.683  1.00  0.00     0.053 C 
BRANCH   5   6
ATOM      6  C   UNL     1     158.593 161.547 153.040  1.00  0.00     0.041 C 
ATOM      7  O   UNL     1     159.341 160.628 153.465  1.00  0.00    -0.550 OA
ATOM      8  O   UNL     1     157.525 161.981 153.817  1.00  0.00    -0.550 OA
ENDBRANCH   5   6
ENDBRANCH   4   5
ENDBRANCH   3   4
ENDBRANCH   2   3
ENDBRANCH   1   2
BRANCH   1   9
ATOM      9  C   UNL     1     159.710 159.919 147.035  1.00  0.00     0.000 C 
BRANCH   9  10
ATOM     10  C   UNL     1     160.125 158.639 147.778  1.00  0.00    -0.000 C 
BRANCH  10  11
ATOM     11  C   UNL     1     158.922 157.787 148.210  1.00  0.00    -0.000 C 
BRANCH  11  12
ATOM     12  C   UNL     1     159.179 157.018 149.514  1.00  0.00    -0.000 C 
BRANCH  12  13
ATOM     13  C   UNL     1     160.581 157.317 150.060  1.00  0.00    -0.003 C 
ATOM     14  C   UNL     1     160.534 157.659 151.546  1.00  0.00     0.004 C 
ENDBRANCH  12  13
ENDBRANCH  11  12
ENDBRANCH  10  11
ENDBRANCH   9  10
ENDBRANCH   1   9
TORSDOF 10
ENDMDL
MODEL 5
REMARK VINA RESULT:    -4.370      1.169      3.443
REMARK INTER + INTRA:          -8.434
REMARK INTER:                  -6.986
REMARK INTRA:                  -1.448
REMARK UNBOUND:                -1.509
REMARK SMILES CCCCCCCCCCCC(=O)[O-]
REMARK SMILES IDX 7 1 8 2 9 3 10 4 11 5 12 6 13 7 14 8 6 9 5 10 4 11 3 12 2 13
REMARK SMILES IDX 1 14
REMARK H PARENT
REMARK Flexibility Score: inf
ROOT
ATOM      1  C   UNL     1     160.748 161.993 148.492  1.00  0.00     0.000 C 
ENDROOT
BRANCH   1   2
ATOM      2  C   UNL     1     160.647 162.172 150.014  1.00  0.00     0.000 C 
BRANCH   2   3
ATOM      3  C   UNL     1     159.251 161.832 150.560  1.00  0.00     0.000 C 
BRANCH   3   4
ATOM      4  C   UNL     1     159.288 160.738 151.639  1.00  0.00     0.006 C 
BRANCH   4   5
ATOM      5  C   UNL     1     160.598 159.948 151.572  1.00  0.00     0.053 C 
BRANCH   5   6
ATOM      6  C   UNL     1     160.498 158.697 152.386  1.00  0.00     0.041 C 
ATOM      7  O   UNL     1     160.396 158.762 153.639  1.00  0.00    -0.550 OA
ATOM      8  O   UNL     1     160.568 157.455 151.764  1.00  0.00    -0.550 OA
ENDBRANCH   5   6
ENDBRANCH   4   5
ENDBRANCH   3   4
ENDBRANCH   2   3
ENDBRANCH   1   2
BRANCH   1   9
ATOM      9  C   UNL     1     159.806 160.886 148.004  1.00  0.00     0.000 C 
BRANCH   9  10
ATOM     10  C   UNL     1     160.559 159.559 147.829  1.00  0.00    -0.000 C 
BRANCH  10  11
ATOM     11  C   UNL     1     159.700 158.337 148.193  1.00  0.00    -0.000 C 
BRANCH  11  12
ATOM     12  C   UNL     1     158.344 158.726 148.801  1.00  0.00    -0.000 C 
BRANCH  12  13
ATOM     13  C   UNL     1     157.754 157.565 149.611  1.00  0.00    -0.003 C 
ATOM     14  C   UNL     1     158.297 156.223 149.129  1.00  0.00     0.004 C 
ENDBRANCH  12  13
ENDBRANCH  11  12
ENDBRANCH  10  11
ENDBRANCH   9  10
ENDBRANCH   1   9
TORSDOF 10
ENDMDL
MODEL 6
REMARK VINA RESULT:    -4.340      2.468      4.765
REMARK INTER + INTRA:          -8.387
REMARK INTER:                  -7.037
REMARK INTRA:                  -1.350
REMARK UNBOUND:                -1.509
REMARK SMILES CCCCCCCCCCCC(=O)[O-]
REMARK SMILES IDX 7 1 8 2 9 3 10 4 11 5 12 6 13 7 14 8 6 9 5 10 4 11 3 12 2 13
REMARK SMILES IDX 1 14
REMARK H PARENT
REMARK Flexibility Score: inf
ROOT
ATOM      1  C   UNL     1     160.587 159.441 151.852  1.00  0.00     0.000 C 
ENDROOT
BRANCH   1   2
ATOM      2  C   UNL     1     159.207 160.082 152.067  1.00  0.00     0.000 C 
BRANCH   2   3
ATOM      3  C   UNL     1     159.141 161.531 151.558  1.00  0.00     0.000 C 
BRANCH   3   4
ATOM      4  C   UNL     1     158.924 161.616 150.039  1.00  0.00     0.006 C 
BRANCH   4   5
ATOM      5  C   UNL     1     159.978 162.515 149.386  1.00  0.00     0.053 C 
BRANCH   5   6
ATOM      6  C   UNL     1     161.239 161.750 149.137  1.00  0.00     0.041 C 
ATOM      7  O   UNL     1     161.211 160.679 148.475  1.00  0.00    -0.550 OA
ATOM      8  O   UNL     1     162.440 162.194 149.679  1.00  0.00    -0.550 OA
ENDBRANCH   5   6
ENDBRANCH   4   5
ENDBRANCH   3   4
ENDBRANCH   2   3
ENDBRANCH   1   2
BRANCH   1   9
ATOM      9  C   UNL     1     160.640 158.035 152.461  1.00  0.00     0.000 C 
BRANCH   9  10
ATOM     10  C   UNL     1     160.750 156.964 151.365  1.00  0.00    -0.000 C 
BRANCH  10  11
ATOM     11  C   UNL     1     160.789 157.564 149.951  1.00  0.00    -0.000 C 
BRANCH  11  12
ATOM     12  C   UNL     1     159.678 157.014 149.044  1.00  0.00    -0.000 C 
BRANCH  12  13
ATOM     13  C   UNL     1     158.483 157.975 148.997  1.00  0.00    -0.003 C 
ATOM     14  C   UNL     1     157.358 157.502 149.912  1.00  0.00     0.004 C 
ENDBRANCH  12  13
ENDBRANCH  11  12
ENDBRANCH  10  11
ENDBRANCH   9  10
ENDBRANCH   1   9
TORSDOF 10
ENDMDL
MODEL 7
REMARK VINA RESULT:    -4.330      1.296      2.082
REMARK INTER + INTRA:          -8.371
REMARK INTER:                  -7.217
REMARK INTRA:                  -1.155
REMARK UNBOUND:                -1.509
REMARK SMILES CCCCCCCCCCCC(=O)[O-]
REMARK SMILES IDX 7 1 8 2 9 3 10 4 11 5 12 6 13 7 14 8 6 9 5 10 4 11 3 12 2 13
REMARK SMILES IDX 1 14
REMARK H PARENT
REMARK Flexibility Score: inf
ROOT
ATOM      1  C   UNL     1     159.711 159.608 146.958  1.00  0.00     0.000 C 
ENDROOT
BRANCH   1   2
ATOM      2  C   UNL     1     159.560 158.393 147.885  1.00  0.00     0.000 C 
BRANCH   2   3
ATOM      3  C   UNL     1     158.400 158.547 148.882  1.00  0.00     0.000 C 
BRANCH   3   4
ATOM      4  C   UNL     1     158.706 157.917 150.249  1.00  0.00     0.006 C 
BRANCH   4   5
ATOM      5  C   UNL     1     159.943 157.015 150.170  1.00  0.00     0.053 C 
BRANCH   5   6
ATOM      6  C   UNL     1     160.743 157.112 151.431  1.00  0.00     0.041 C 
ATOM      7  O   UNL     1     161.482 156.157 151.788  1.00  0.00    -0.550 OA
ATOM      8  O   UNL     1     160.634 158.238 152.238  1.00  0.00    -0.550 OA
ENDBRANCH   5   6
ENDBRANCH   4   5
ENDBRANCH   3   4
ENDBRANCH   2   3
ENDBRANCH   1   2
BRANCH   1   9
ATOM      9  C   UNL     1     160.102 160.860 147.751  1.00  0.00     0.000 C 
BRANCH   9  10
ATOM     10  C   UNL     1     161.118 160.520 148.852  1.00  0.00    -0.000 C 
BRANCH  10  11
ATOM     11  C   UNL     1     161.049 161.489 150.043  1.00  0.00    -0.000 C 
BRANCH  11  12
ATOM     12  C   UNL     1     160.031 162.619 149.829  1.00  0.00    -0.000 C 
BRANCH  12  13
ATOM     13  C   UNL     1     158.955 162.602 150.922  1.00  0.00    -0.003 C 
ATOM     14  C   UNL     1     159.072 161.355 151.792  1.00  0.00     0.004 C 
ENDBRANCH  12  13
ENDBRANCH  11  12
ENDBRANCH  10  11
ENDBRANCH   9  10
ENDBRANCH   1   9
TORSDOF 10
ENDMDL
MODEL 8
REMARK VINA RESULT:    -4.312      2.283      4.218
REMARK INTER + INTRA:          -8.342
REMARK INTER:                  -6.964
REMARK INTRA:                  -1.378
REMARK UNBOUND:                -1.509
REMARK SMILES CCCCCCCCCCCC(=O)[O-]
REMARK SMILES IDX 7 1 8 2 9 3 10 4 11 5 12 6 13 7 14 8 6 9 5 10 4 11 3 12 2 13
REMARK SMILES IDX 1 14
REMARK H PARENT
REMARK Flexibility Score: inf
ROOT
ATOM      1  C   UNL     1     160.540 161.828 148.210  1.00  0.00     0.000 C 
ENDROOT
BRANCH   1   2
ATOM      2  C   UNL     1     159.568 160.696 147.846  1.00  0.00     0.000 C 
BRANCH   2   3
ATOM      3  C   UNL     1     160.251 159.320 147.794  1.00  0.00     0.000 C 
BRANCH   3   4
ATOM      4  C   UNL     1     159.246 158.159 147.825  1.00  0.00     0.006 C 
BRANCH   4   5
ATOM      5  C   UNL     1     158.252 158.327 148.979  1.00  0.00     0.053 C 
BRANCH   5   6
ATOM      6  C   UNL     1     157.730 156.996 149.419  1.00  0.00     0.041 C 
ATOM      7  O   UNL     1     158.310 155.937 149.062  1.00  0.00    -0.550 OA
ATOM      8  O   UNL     1     156.571 156.922 150.183  1.00  0.00    -0.550 OA
ENDBRANCH   5   6
ENDBRANCH   4   5
ENDBRANCH   3   4
ENDBRANCH   2   3
ENDBRANCH   1   2
BRANCH   1   9
ATOM      9  C   UNL     1     160.480 162.143 149.710  1.00  0.00     0.000 C 
BRANCH   9  10
ATOM     10  C   UNL     1     159.153 161.667 150.320  1.00  0.00    -0.000 C 
BRANCH  10  11
ATOM     11  C   UNL     1     159.347 160.903 151.639  1.00  0.00    -0.000 C 
BRANCH  11  12
ATOM     12  C   UNL     1     160.556 159.956 151.603  1.00  0.00    -0.000 C 
BRANCH  12  13
ATOM     13  C   UNL     1     160.248 158.647 152.340  1.00  0.00    -0.003 C 
ATOM     14  C   UNL     1     160.685 157.436 151.521  1.00  0.00     0.004 C 
ENDBRANCH  12  13
ENDBRANCH  11  12
ENDBRANCH  10  11
ENDBRANCH   9  10
ENDBRANCH   1   9
TORSDOF 10
ENDMDL
MODEL 9
REMARK VINA RESULT:    -4.277      2.436      3.883
REMARK INTER + INTRA:          -8.287
REMARK INTER:                  -6.773
REMARK INTRA:                  -1.514
REMARK UNBOUND:                -1.509
REMARK SMILES CCCCCCCCCCCC(=O)[O-]
REMARK SMILES IDX 7 1 8 2 9 3 10 4 11 5 12 6 13 7 14 8 6 9 5 10 4 11 3 12 2 13
REMARK SMILES IDX 1 14
REMARK H PARENT
REMARK Flexibility Score: inf
ROOT
ATOM      1  C   UNL     1     159.401 157.425 148.628  1.00  0.00     0.000 C 
ENDROOT
BRANCH   1   2
ATOM      2  C   UNL     1     159.710 158.633 147.730  1.00  0.00     0.000 C 
BRANCH   2   3
ATOM      3  C   UNL     1     158.923 159.890 148.135  1.00  0.00     0.000 C 
BRANCH   3   4
ATOM      4  C   UNL     1     159.788 161.160 148.119  1.00  0.00     0.006 C 
BRANCH   4   5
ATOM      5  C   UNL     1     161.123 160.921 148.832  1.00  0.00     0.053 C 
BRANCH   5   6
ATOM      6  C   UNL     1     161.700 162.215 149.311  1.00  0.00     0.041 C 
ATOM      7  O   UNL     1     161.105 163.300 149.078  1.00  0.00    -0.550 OA
ATOM      8  O   UNL     1     162.923 162.228 149.972  1.00  0.00    -0.550 OA
ENDBRANCH   5   6
ENDBRANCH   4   5
ENDBRANCH   3   4
ENDBRANCH   2   3
ENDBRANCH   1   2
BRANCH   1   9
ATOM      9  C   UNL     1     160.363 157.366 149.820  1.00  0.00     0.000 C 
BRANCH   9  10
ATOM     10  C   UNL     1     159.684 157.872 151.102  1.00  0.00    -0.000 C 
BRANCH  10  11
ATOM     11  C   UNL     1     160.680 158.485 152.098  1.00  0.00    -0.000 C 
BRANCH  11  12
ATOM     12  C   UNL     1     160.453 159.989 152.313  1.00  0.00    -0.000 C 
BRANCH  12  13
ATOM     13  C   UNL     1     159.054 160.405 151.843  1.00  0.00    -0.003 C 
ATOM     14  C   UNL     1     158.931 161.923 151.750  1.00  0.00     0.004 C 
ENDBRANCH  12  13
ENDBRANCH  11  12
ENDBRANCH  10  11
ENDBRANCH   9  10
ENDBRANCH   1   9
TORSDOF 10
ENDMDL
