MODEL 1
REMARK VINA RESULT:    73.780      0.000      0.000
REMARK INTER + INTRA:         105.252
REMARK INTER:                 106.129
REMARK INTRA:                  -0.877
REMARK UNBOUND:                -0.877
REMARK SMILES O=c1c(O[C@H]2O[C@H](CO)[C@@H](O)[C@@H](O)[C@@H]2O)c(-c2ccc(O)cc2)oc2cc(O)cc(O)c12
REMARK SMILES IDX 4 1 3 2 16 3 24 4 2 5 25 6 1 7 32 8 26 9 30 10 27 11 29 12
REMARK SMILES IDX 17 13 18 14 19 15 20 16 23 17 22 18 21 19 31 21 28 23 5 25
REMARK SMILES IDX 14 26 6 27 12 28 7 29 10 30 15 31 13 33 8 35 9 36 11 38
REMARK H PARENT 21 20 31 22 28 24 15 32 13 34 9 37 11 39
REMARK Flexibility Score: inf
ROOT
ATOM      1  O   UNL     1     -38.561  31.092 -23.229  1.00  0.00    -0.454 OA
ENDROOT
BRANCH   1   2
ATOM      2  C   UNL     1     -39.780  30.747 -22.634  1.00  0.00     0.214 A 
ATOM      3  C   UNL     1     -39.868  29.676 -21.729  1.00  0.00     0.180 A 
ATOM      4  O   UNL     1     -40.990  29.478 -21.049  1.00  0.00    -0.452 OA
ATOM      5  C   UNL     1     -40.919  31.523 -22.886  1.00  0.00     0.239 A 
ATOM      6  C   UNL     1     -42.086  30.212 -21.224  1.00  0.00     0.146 A 
ATOM      7  O   UNL     1     -40.818  32.503 -23.673  1.00  0.00    -0.285 OA
ATOM      8  C   UNL     1     -42.127  31.240 -22.204  1.00  0.00     0.111 A 
ATOM      9  C   UNL     1     -43.199  29.957 -20.418  1.00  0.00     0.094 A 
ATOM     10  C   UNL     1     -43.347  31.948 -22.393  1.00  0.00     0.134 A 
ATOM     11  C   UNL     1     -44.362  30.708 -20.559  1.00  0.00     0.123 A 
ATOM     12  C   UNL     1     -44.432  31.691 -21.545  1.00  0.00     0.093 A 
BRANCH   3  13
ATOM     13  C   UNL     1     -38.741  28.761 -21.508  1.00  0.00     0.021 A 
ATOM     14  C   UNL     1     -37.686  29.132 -20.662  1.00  0.00     0.016 A 
ATOM     15  C   UNL     1     -36.587  28.276 -20.486  1.00  0.00     0.047 A 
ATOM     16  C   UNL     1     -36.554  27.034 -21.136  1.00  0.00     0.115 A 
ATOM     17  C   UNL     1     -38.692  27.531 -22.175  1.00  0.00     0.016 A 
ATOM     18  C   UNL     1     -37.610  26.664 -21.975  1.00  0.00     0.047 A 
BRANCH  16  19
ATOM     19  O   UNL     1     -35.483  26.157 -20.945  1.00  0.00    -0.508 OA
ATOM     20  H   UNL     1     -35.036  25.678 -21.719  1.00  0.00     0.293 HD
ENDBRANCH  16  19
ENDBRANCH   3  13
BRANCH  10  21
ATOM     21  O   UNL     1     -43.549  32.890 -23.405  1.00  0.00    -0.507 OA
ATOM     22  H   UNL     1     -44.152  32.757 -24.207  1.00  0.00     0.293 HD
ENDBRANCH  10  21
BRANCH  11  23
ATOM     23  O   UNL     1     -45.443  30.462 -19.717  1.00  0.00    -0.508 OA
ATOM     24  H   UNL     1     -46.253  29.942 -20.034  1.00  0.00     0.293 HD
ENDBRANCH  11  23
ENDBRANCH   1   2
BRANCH   1  25
ATOM     25  C   UNL     1     -38.291  30.806 -24.608  1.00  0.00     0.339 C 
ATOM     26  C   UNL     1     -36.809  30.450 -24.827  1.00  0.00     0.214 C 
ATOM     27  O   UNL     1     -38.710  31.870 -25.446  1.00  0.00    -0.332 OA
ATOM     28  C   UNL     1     -35.928  31.693 -24.647  1.00  0.00     0.180 C 
ATOM     29  C   UNL     1     -37.988  33.070 -25.208  1.00  0.00     0.179 C 
ATOM     30  C   UNL     1     -36.467  32.864 -25.479  1.00  0.00     0.177 C 
BRANCH  26  31
ATOM     31  O   UNL     1     -36.635  29.946 -26.124  1.00  0.00    -0.384 OA
ATOM     32  H   UNL     1     -37.541  29.745 -26.480  1.00  0.00     0.211 HD
ENDBRANCH  26  31
BRANCH  28  33
ATOM     33  O   UNL     1     -35.870  32.056 -23.292  1.00  0.00    -0.387 OA
ATOM     34  H   UNL     1     -36.704  32.556 -23.093  1.00  0.00     0.211 HD
ENDBRANCH  28  33
BRANCH  29  35
ATOM     35  C   UNL     1     -38.578  34.166 -26.125  1.00  0.00     0.191 C 
BRANCH  35  36
ATOM     36  O   UNL     1     -39.923  34.395 -25.810  1.00  0.00    -0.394 OA
ATOM     37  H   UNL     1     -39.920  34.977 -25.006  1.00  0.00     0.210 HD
ENDBRANCH  35  36
ENDBRANCH  29  35
BRANCH  30  38
ATOM     38  O   UNL     1     -35.678  34.003 -25.204  1.00  0.00    -0.387 OA
ATOM     39  H   UNL     1     -35.583  34.140 -24.224  1.00  0.00     0.211 HD
ENDBRANCH  30  38
ENDBRANCH   1  25
TORSDOF 11
ENDMDL
