MODEL 1
REMARK VINA RESULT:    -5.372      0.000      0.000
REMARK INTER + INTRA:          -6.445
REMARK INTER:                  -6.157
REMARK INTRA:                  -0.287
REMARK UNBOUND:                -0.287
REMARK SMILES O=C([O-])C=Cc1ccc(O)cc1
REMARK SMILES IDX 6 1 7 2 12 3 8 4 11 5 9 6 5 7 4 8 2 9 1 10 3 11 10 12
REMARK H PARENT 10 13
REMARK Flexibility Score: inf
ROOT
ATOM      1  C   UNL     1       3.526  37.745   4.257  1.00  0.00    -0.025 A 
ATOM      2  C   UNL     1       2.768  37.040   5.204  1.00  0.00     0.012 A 
ATOM      3  C   UNL     1       4.254  37.029   3.290  1.00  0.00     0.012 A 
ATOM      4  C   UNL     1       2.778  35.643   5.220  1.00  0.00     0.047 A 
ATOM      5  C   UNL     1       4.262  35.631   3.307  1.00  0.00     0.047 A 
ATOM      6  C   UNL     1       3.529  34.934   4.272  1.00  0.00     0.115 A 
ENDROOT
BRANCH   1   7
ATOM      7  C   UNL     1       3.458  39.220   4.227  1.00  0.00     0.010 C 
ATOM      8  C   UNL     1       4.344  40.050   4.798  1.00  0.00     0.025 C 
BRANCH   8   9
ATOM      9  C   UNL     1       5.430  39.646   5.712  1.00  0.00     0.064 C 
ATOM     10  O   UNL     1       6.622  39.713   5.318  1.00  0.00    -0.545 OA
ATOM     11  O   UNL     1       5.170  39.261   7.022  1.00  0.00    -0.545 OA
ENDBRANCH   8   9
ENDBRANCH   1   7
BRANCH   6  12
ATOM     12  O   UNL     1       3.548  33.542   4.279  1.00  0.00    -0.508 OA
ATOM     13  H   UNL     1       4.397  33.021   4.093  1.00  0.00     0.293 HD
ENDBRANCH   6  12
TORSDOF 3
ENDMDL
MODEL 2
REMARK VINA RESULT:    -5.156     10.622     12.672
REMARK INTER + INTRA:          -6.197
REMARK INTER:                  -5.905
REMARK INTRA:                  -0.292
REMARK UNBOUND:                -0.287
REMARK SMILES O=C([O-])C=Cc1ccc(O)cc1
REMARK SMILES IDX 6 1 7 2 12 3 8 4 11 5 9 6 5 7 4 8 2 9 1 10 3 11 10 12
REMARK H PARENT 10 13
REMARK Flexibility Score: inf
ROOT
ATOM      1  C   UNL     1       9.969  27.661  -0.381  1.00  0.00    -0.025 A 
ATOM      2  C   UNL     1       9.193  27.239  -1.470  1.00  0.00     0.012 A 
ATOM      3  C   UNL     1       9.430  28.589   0.528  1.00  0.00     0.012 A 
ATOM      4  C   UNL     1       7.919  27.773  -1.680  1.00  0.00     0.047 A 
ATOM      5  C   UNL     1       8.155  29.122   0.318  1.00  0.00     0.047 A 
ATOM      6  C   UNL     1       7.397  28.720  -0.787  1.00  0.00     0.115 A 
ENDROOT
BRANCH   1   7
ATOM      7  C   UNL     1      11.291  27.044  -0.151  1.00  0.00     0.010 C 
ATOM      8  C   UNL     1      12.468  27.565  -0.530  1.00  0.00     0.025 C 
BRANCH   8   9
ATOM      9  C   UNL     1      12.642  28.741  -1.403  1.00  0.00     0.064 C 
ATOM     10  O   UNL     1      12.827  29.872  -0.883  1.00  0.00    -0.545 OA
ATOM     11  O   UNL     1      12.678  28.618  -2.787  1.00  0.00    -0.545 OA
ENDBRANCH   8   9
ENDBRANCH   1   7
BRANCH   6  12
ATOM     12  O   UNL     1       6.129  29.260  -0.986  1.00  0.00    -0.508 OA
ATOM     13  H   UNL     1       5.929  30.232  -0.786  1.00  0.00     0.293 HD
ENDBRANCH   6  12
TORSDOF 3
ENDMDL
MODEL 3
REMARK VINA RESULT:    -5.005      1.614      2.283
REMARK INTER + INTRA:          -6.024
REMARK INTER:                  -5.733
REMARK INTRA:                  -0.291
REMARK UNBOUND:                -0.287
REMARK SMILES O=C([O-])C=Cc1ccc(O)cc1
REMARK SMILES IDX 6 1 7 2 12 3 8 4 11 5 9 6 5 7 4 8 2 9 1 10 3 11 10 12
REMARK H PARENT 10 13
REMARK Flexibility Score: inf
ROOT
ATOM      1  C   UNL     1       3.068  36.939   5.176  1.00  0.00    -0.025 A 
ATOM      2  C   UNL     1       2.939  35.544   5.250  1.00  0.00     0.012 A 
ATOM      3  C   UNL     1       3.755  37.509   4.089  1.00  0.00     0.012 A 
ATOM      4  C   UNL     1       3.533  34.728   4.282  1.00  0.00     0.047 A 
ATOM      5  C   UNL     1       4.347  36.691   3.123  1.00  0.00     0.047 A 
ATOM      6  C   UNL     1       4.242  35.300   3.218  1.00  0.00     0.115 A 
ENDROOT
BRANCH   1   7
ATOM      7  C   UNL     1       2.388  37.782   6.180  1.00  0.00     0.010 C 
ATOM      8  C   UNL     1       2.979  38.364   7.234  1.00  0.00     0.025 C 
BRANCH   8   9
ATOM      9  C   UNL     1       4.361  38.115   7.686  1.00  0.00     0.064 C 
ATOM     10  O   UNL     1       4.608  37.095   8.379  1.00  0.00    -0.545 OA
ATOM     11  O   UNL     1       5.410  38.943   7.303  1.00  0.00    -0.545 OA
ENDBRANCH   8   9
ENDBRANCH   1   7
BRANCH   6  12
ATOM     12  O   UNL     1       4.838  34.497   2.249  1.00  0.00    -0.508 OA
ATOM     13  H   UNL     1       5.033  34.844   1.318  1.00  0.00     0.293 HD
ENDBRANCH   6  12
TORSDOF 3
ENDMDL
MODEL 4
REMARK VINA RESULT:    -4.953      7.428      8.829
REMARK INTER + INTRA:          -5.964
REMARK INTER:                  -5.681
REMARK INTRA:                  -0.282
REMARK UNBOUND:                -0.287
REMARK SMILES O=C([O-])C=Cc1ccc(O)cc1
REMARK SMILES IDX 6 1 7 2 12 3 8 4 11 5 9 6 5 7 4 8 2 9 1 10 3 11 10 12
REMARK H PARENT 10 13
REMARK Flexibility Score: inf
ROOT
ATOM      1  C   UNL     1       0.148  30.189   2.418  1.00  0.00    -0.025 A 
ATOM      2  C   UNL     1       0.647  30.630   3.653  1.00  0.00     0.012 A 
ATOM      3  C   UNL     1      -0.888  30.911   1.799  1.00  0.00     0.012 A 
ATOM      4  C   UNL     1       0.085  31.742   4.286  1.00  0.00     0.047 A 
ATOM      5  C   UNL     1      -1.449  32.023   2.433  1.00  0.00     0.047 A 
ATOM      6  C   UNL     1      -0.968  32.440   3.678  1.00  0.00     0.115 A 
ENDROOT
BRANCH   1   7
ATOM      7  C   UNL     1       0.793  29.043   1.745  1.00  0.00     0.010 C 
ATOM      8  C   UNL     1       1.822  29.125   0.888  1.00  0.00     0.025 C 
BRANCH   8   9
ATOM      9  C   UNL     1       2.367  30.373   0.322  1.00  0.00     0.064 C 
ATOM     10  O   UNL     1       1.846  30.858  -0.715  1.00  0.00    -0.545 OA
ATOM     11  O   UNL     1       3.398  31.064   0.947  1.00  0.00    -0.545 OA
ENDBRANCH   8   9
ENDBRANCH   1   7
BRANCH   6  12
ATOM     12  O   UNL     1      -1.536  33.549   4.300  1.00  0.00    -0.508 OA
ATOM     13  H   UNL     1      -1.000  34.140   4.924  1.00  0.00     0.293 HD
ENDBRANCH   6  12
TORSDOF 3
ENDMDL
MODEL 5
REMARK VINA RESULT:    -4.949      2.756      4.767
REMARK INTER + INTRA:          -5.959
REMARK INTER:                  -5.700
REMARK INTRA:                  -0.259
REMARK UNBOUND:                -0.287
REMARK SMILES O=C([O-])C=Cc1ccc(O)cc1
REMARK SMILES IDX 6 1 7 2 12 3 8 4 11 5 9 6 5 7 4 8 2 9 1 10 3 11 10 12
REMARK H PARENT 10 13
REMARK Flexibility Score: inf
ROOT
ATOM      1  C   UNL     1       4.248  35.233   2.697  1.00  0.00    -0.025 A 
ATOM      2  C   UNL     1       4.260  36.582   3.083  1.00  0.00     0.012 A 
ATOM      3  C   UNL     1       3.529  34.304   3.470  1.00  0.00     0.012 A 
ATOM      4  C   UNL     1       3.610  36.989   4.251  1.00  0.00     0.047 A 
ATOM      5  C   UNL     1       2.879  34.713   4.638  1.00  0.00     0.047 A 
ATOM      6  C   UNL     1       2.919  36.054   5.034  1.00  0.00     0.115 A 
ENDROOT
BRANCH   1   7
ATOM      7  C   UNL     1       4.898  34.836   1.432  1.00  0.00     0.010 C 
ATOM      8  C   UNL     1       6.058  34.170   1.330  1.00  0.00     0.025 C 
BRANCH   8   9
ATOM      9  C   UNL     1       6.981  33.883   2.445  1.00  0.00     0.064 C 
ATOM     10  O   UNL     1       6.849  32.814   3.095  1.00  0.00    -0.545 OA
ATOM     11  O   UNL     1       8.038  34.733   2.748  1.00  0.00    -0.545 OA
ENDBRANCH   8   9
ENDBRANCH   1   7
BRANCH   6  12
ATOM     12  O   UNL     1       2.268  36.448   6.200  1.00  0.00    -0.508 OA
ATOM     13  H   UNL     1       2.210  35.838   7.007  1.00  0.00     0.293 HD
ENDBRANCH   6  12
TORSDOF 3
ENDMDL
MODEL 6
REMARK VINA RESULT:    -4.920      7.334      9.378
REMARK INTER + INTRA:          -5.926
REMARK INTER:                  -5.752
REMARK INTRA:                  -0.175
REMARK UNBOUND:                -0.287
REMARK SMILES O=C([O-])C=Cc1ccc(O)cc1
REMARK SMILES IDX 6 1 7 2 12 3 8 4 11 5 9 6 5 7 4 8 2 9 1 10 3 11 10 12
REMARK H PARENT 10 13
REMARK Flexibility Score: inf
ROOT
ATOM      1  C   UNL     1       7.503  29.610   1.287  1.00  0.00    -0.025 A 
ATOM      2  C   UNL     1       8.757  29.146   0.861  1.00  0.00     0.012 A 
ATOM      3  C   UNL     1       6.357  29.275   0.543  1.00  0.00     0.012 A 
ATOM      4  C   UNL     1       8.872  28.404  -0.318  1.00  0.00     0.047 A 
ATOM      5  C   UNL     1       6.475  28.533  -0.636  1.00  0.00     0.047 A 
ATOM      6  C   UNL     1       7.730  28.099  -1.072  1.00  0.00     0.115 A 
ENDROOT
BRANCH   1   7
ATOM      7  C   UNL     1       7.400  30.346   2.563  1.00  0.00     0.010 C 
ATOM      8  C   UNL     1       7.104  31.649   2.686  1.00  0.00     0.025 C 
BRANCH   8   9
ATOM      9  C   UNL     1       7.018  32.616   1.575  1.00  0.00     0.064 C 
ATOM     10  O   UNL     1       5.966  32.673   0.888  1.00  0.00    -0.545 OA
ATOM     11  O   UNL     1       8.046  33.515   1.315  1.00  0.00    -0.545 OA
ENDBRANCH   8   9
ENDBRANCH   1   7
BRANCH   6  12
ATOM     12  O   UNL     1       7.834  27.361  -2.249  1.00  0.00    -0.508 OA
ATOM     13  H   UNL     1       7.314  27.614  -3.081  1.00  0.00     0.293 HD
ENDBRANCH   6  12
TORSDOF 3
ENDMDL
MODEL 7
REMARK VINA RESULT:    -4.842      7.231      9.564
REMARK INTER + INTRA:          -5.838
REMARK INTER:                  -5.631
REMARK INTRA:                  -0.206
REMARK UNBOUND:                -0.287
REMARK SMILES O=C([O-])C=Cc1ccc(O)cc1
REMARK SMILES IDX 6 1 7 2 12 3 8 4 11 5 9 6 5 7 4 8 2 9 1 10 3 11 10 12
REMARK H PARENT 10 13
REMARK Flexibility Score: inf
ROOT
ATOM      1  C   UNL     1       0.464  30.523   2.019  1.00  0.00    -0.025 A 
ATOM      2  C   UNL     1       1.086  31.152   3.108  1.00  0.00     0.012 A 
ATOM      3  C   UNL     1      -0.843  30.902   1.661  1.00  0.00     0.012 A 
ATOM      4  C   UNL     1       0.396  32.105   3.861  1.00  0.00     0.047 A 
ATOM      5  C   UNL     1      -1.531  31.856   2.415  1.00  0.00     0.047 A 
ATOM      6  C   UNL     1      -0.917  32.458   3.518  1.00  0.00     0.115 A 
ENDROOT
BRANCH   1   7
ATOM      7  C   UNL     1       1.231  29.557   1.206  1.00  0.00     0.010 C 
ATOM      8  C   UNL     1       1.436  28.269   1.520  1.00  0.00     0.025 C 
BRANCH   8   9
ATOM      9  C   UNL     1       1.102  27.638   2.811  1.00  0.00     0.064 C 
ATOM     10  O   UNL     1       0.124  26.850   2.876  1.00  0.00    -0.545 OA
ATOM     11  O   UNL     1       1.885  27.840   3.941  1.00  0.00    -0.545 OA
ENDBRANCH   8   9
ENDBRANCH   1   7
BRANCH   6  12
ATOM     12  O   UNL     1      -1.614  33.406   4.262  1.00  0.00    -0.508 OA
ATOM     13  H   UNL     1      -1.141  34.026   4.909  1.00  0.00     0.293 HD
ENDBRANCH   6  12
TORSDOF 3
ENDMDL
MODEL 8
REMARK VINA RESULT:    -4.827      4.095      5.931
REMARK INTER + INTRA:          -5.820
REMARK INTER:                  -5.562
REMARK INTRA:                  -0.257
REMARK UNBOUND:                -0.287
REMARK SMILES O=C([O-])C=Cc1ccc(O)cc1
REMARK SMILES IDX 6 1 7 2 12 3 8 4 11 5 9 6 5 7 4 8 2 9 1 10 3 11 10 12
REMARK H PARENT 10 13
REMARK Flexibility Score: inf
ROOT
ATOM      1  C   UNL     1       6.613  33.702   1.498  1.00  0.00    -0.025 A 
ATOM      2  C   UNL     1       7.652  34.643   1.464  1.00  0.00     0.012 A 
ATOM      3  C   UNL     1       6.806  32.489   2.183  1.00  0.00     0.012 A 
ATOM      4  C   UNL     1       8.884  34.356   2.058  1.00  0.00     0.047 A 
ATOM      5  C   UNL     1       8.039  32.204   2.777  1.00  0.00     0.047 A 
ATOM      6  C   UNL     1       9.082  33.133   2.714  1.00  0.00     0.115 A 
ENDROOT
BRANCH   1   7
ATOM      7  C   UNL     1       5.303  34.049   0.909  1.00  0.00     0.010 C 
ATOM      8  C   UNL     1       4.389  34.856   1.468  1.00  0.00     0.025 C 
BRANCH   8   9
ATOM      9  C   UNL     1       4.442  35.385   2.844  1.00  0.00     0.064 C 
ATOM     10  O   UNL     1       4.640  36.614   3.024  1.00  0.00    -0.545 OA
ATOM     11  O   UNL     1       4.208  34.569   3.944  1.00  0.00    -0.545 OA
ENDBRANCH   8   9
ENDBRANCH   1   7
BRANCH   6  12
ATOM     12  O   UNL     1      10.306  32.837   3.309  1.00  0.00    -0.508 OA
ATOM     13  H   UNL     1      11.028  32.330   2.812  1.00  0.00     0.293 HD
ENDBRANCH   6  12
TORSDOF 3
ENDMDL
MODEL 9
REMARK VINA RESULT:    -4.753      6.020      8.491
REMARK INTER + INTRA:          -5.735
REMARK INTER:                  -5.448
REMARK INTRA:                  -0.287
REMARK UNBOUND:                -0.287
REMARK SMILES O=C([O-])C=Cc1ccc(O)cc1
REMARK SMILES IDX 6 1 7 2 12 3 8 4 11 5 9 6 5 7 4 8 2 9 1 10 3 11 10 12
REMARK H PARENT 10 13
REMARK Flexibility Score: inf
ROOT
ATOM      1  C   UNL     1       7.581  32.382   2.433  1.00  0.00    -0.025 A 
ATOM      2  C   UNL     1       6.533  33.120   1.863  1.00  0.00     0.012 A 
ATOM      3  C   UNL     1       8.881  32.922   2.432  1.00  0.00     0.012 A 
ATOM      4  C   UNL     1       6.785  34.352   1.254  1.00  0.00     0.047 A 
ATOM      5  C   UNL     1       9.131  34.154   1.823  1.00  0.00     0.047 A 
ATOM      6  C   UNL     1       8.087  34.871   1.229  1.00  0.00     0.115 A 
ENDROOT
BRANCH   1   7
ATOM      7  C   UNL     1       7.282  31.108   3.118  1.00  0.00     0.010 C 
ATOM      8  C   UNL     1       7.427  29.887   2.583  1.00  0.00     0.025 C 
BRANCH   8   9
ATOM      9  C   UNL     1       7.726  29.602   1.167  1.00  0.00     0.064 C 
ATOM     10  O   UNL     1       8.857  29.149   0.855  1.00  0.00    -0.545 OA
ATOM     11  O   UNL     1       6.762  29.756   0.177  1.00  0.00    -0.545 OA
ENDBRANCH   8   9
ENDBRANCH   1   7
BRANCH   6  12
ATOM     12  O   UNL     1       8.350  36.097   0.623  1.00  0.00    -0.508 OA
ATOM     13  H   UNL     1       7.637  36.812   0.542  1.00  0.00     0.293 HD
ENDBRANCH   6  12
TORSDOF 3
ENDMDL
