MODEL 1
REMARK VINA RESULT:    -4.524      0.000      0.000
REMARK INTER + INTRA:          -9.257
REMARK INTER:                  -7.698
REMARK INTRA:                  -1.559
REMARK UNBOUND:                -1.559
REMARK SMILES CCCCCCCCCCCCCC(=O)[O-]
REMARK SMILES IDX 8 1 9 2 10 3 11 4 12 5 13 6 14 7 15 8 16 9 7 10 6 11 5 12
REMARK SMILES IDX 4 13 3 14 2 15 1 16
REMARK H PARENT
REMARK Flexibility Score: inf
ROOT
ATOM      1  C   UNL     1      53.726  23.595  49.112  1.00  0.00     0.000 C 
ENDROOT
BRANCH   1   2
ATOM      2  C   UNL     1      53.456  24.734  50.115  1.00  0.00     0.000 C 
BRANCH   2   3
ATOM      3  C   UNL     1      54.080  24.500  51.508  1.00  0.00     0.000 C 
BRANCH   3   4
ATOM      4  C   UNL     1      55.409  23.726  51.436  1.00  0.00     0.000 C 
BRANCH   4   5
ATOM      5  C   UNL     1      55.428  22.491  52.355  1.00  0.00     0.006 C 
BRANCH   5   6
ATOM      6  C   UNL     1      54.262  21.516  52.127  1.00  0.00     0.053 C 
BRANCH   6   7
ATOM      7  C   UNL     1      53.419  21.349  53.354  1.00  0.00     0.041 C 
ATOM      8  O   UNL     1      52.415  20.590  53.335  1.00  0.00    -0.550 OA
ATOM      9  O   UNL     1      53.727  22.053  54.511  1.00  0.00    -0.550 OA
ENDBRANCH   6   7
ENDBRANCH   5   6
ENDBRANCH   4   5
ENDBRANCH   3   4
ENDBRANCH   2   3
ENDBRANCH   1   2
BRANCH   1  10
ATOM     10  C   UNL     1      53.749  24.023  47.634  1.00  0.00     0.000 C 
BRANCH  10  11
ATOM     11  C   UNL     1      55.029  24.760  47.190  1.00  0.00    -0.000 C 
BRANCH  11  12
ATOM     12  C   UNL     1      56.324  24.310  47.896  1.00  0.00    -0.000 C 
BRANCH  12  13
ATOM     13  C   UNL     1      57.293  23.488  47.028  1.00  0.00    -0.000 C 
BRANCH  13  14
ATOM     14  C   UNL     1      57.115  21.971  47.210  1.00  0.00    -0.000 C 
BRANCH  14  15
ATOM     15  C   UNL     1      56.475  21.613  48.560  1.00  0.00    -0.003 C 
ATOM     16  C   UNL     1      56.256  20.110  48.734  1.00  0.00     0.004 C 
ENDBRANCH  14  15
ENDBRANCH  13  14
ENDBRANCH  12  13
ENDBRANCH  11  12
ENDBRANCH  10  11
ENDBRANCH   1  10
TORSDOF 12
ENDMDL
MODEL 2
REMARK VINA RESULT:    -4.461      1.551      1.936
REMARK INTER + INTRA:          -9.149
REMARK INTER:                  -7.870
REMARK INTRA:                  -1.279
REMARK UNBOUND:                -1.559
REMARK SMILES CCCCCCCCCCCCCC(=O)[O-]
REMARK SMILES IDX 8 1 9 2 10 3 11 4 12 5 13 6 14 7 15 8 16 9 7 10 6 11 5 12
REMARK SMILES IDX 4 13 3 14 2 15 1 16
REMARK H PARENT
REMARK Flexibility Score: inf
ROOT
ATOM      1  C   UNL     1      53.702  23.692  48.735  1.00  0.00     0.000 C 
ENDROOT
BRANCH   1   2
ATOM      2  C   UNL     1      53.399  24.488  50.019  1.00  0.00     0.000 C 
BRANCH   2   3
ATOM      3  C   UNL     1      54.220  24.032  51.245  1.00  0.00     0.000 C 
BRANCH   3   4
ATOM      4  C   UNL     1      53.421  23.103  52.176  1.00  0.00     0.000 C 
BRANCH   4   5
ATOM      5  C   UNL     1      54.112  21.744  52.395  1.00  0.00     0.006 C 
BRANCH   5   6
ATOM      6  C   UNL     1      55.560  21.681  51.884  1.00  0.00     0.053 C 
BRANCH   6   7
ATOM      7  C   UNL     1      56.554  21.694  53.005  1.00  0.00     0.041 C 
ATOM      8  O   UNL     1      56.717  22.733  53.696  1.00  0.00    -0.550 OA
ATOM      9  O   UNL     1      57.320  20.566  53.268  1.00  0.00    -0.550 OA
ENDBRANCH   6   7
ENDBRANCH   5   6
ENDBRANCH   4   5
ENDBRANCH   3   4
ENDBRANCH   2   3
ENDBRANCH   1   2
BRANCH   1  10
ATOM     10  C   UNL     1      53.775  24.536  47.450  1.00  0.00     0.000 C 
BRANCH  10  11
ATOM     11  C   UNL     1      55.194  24.975  47.039  1.00  0.00    -0.000 C 
BRANCH  11  12
ATOM     12  C   UNL     1      56.341  24.313  47.829  1.00  0.00    -0.000 C 
BRANCH  12  13
ATOM     13  C   UNL     1      57.355  23.526  46.977  1.00  0.00    -0.000 C 
BRANCH  13  14
ATOM     14  C   UNL     1      57.161  22.003  47.077  1.00  0.00    -0.000 C 
BRANCH  14  15
ATOM     15  C   UNL     1      56.408  21.589  48.351  1.00  0.00    -0.003 C 
ATOM     16  C   UNL     1      56.453  20.082  48.603  1.00  0.00     0.004 C 
ENDBRANCH  14  15
ENDBRANCH  13  14
ENDBRANCH  12  13
ENDBRANCH  11  12
ENDBRANCH  10  11
ENDBRANCH   1  10
TORSDOF 12
ENDMDL
MODEL 3
REMARK VINA RESULT:    -4.438      0.802      1.172
REMARK INTER + INTRA:          -9.110
REMARK INTER:                  -7.877
REMARK INTRA:                  -1.233
REMARK UNBOUND:                -1.559
REMARK SMILES CCCCCCCCCCCCCC(=O)[O-]
REMARK SMILES IDX 8 1 9 2 10 3 11 4 12 5 13 6 14 7 15 8 16 9 7 10 6 11 5 12
REMARK SMILES IDX 4 13 3 14 2 15 1 16
REMARK H PARENT
REMARK Flexibility Score: inf
ROOT
ATOM      1  C   UNL     1      53.715  23.868  48.507  1.00  0.00     0.000 C 
ENDROOT
BRANCH   1   2
ATOM      2  C   UNL     1      53.378  24.567  49.839  1.00  0.00     0.000 C 
BRANCH   2   3
ATOM      3  C   UNL     1      53.362  23.617  51.056  1.00  0.00     0.000 C 
BRANCH   3   4
ATOM      4  C   UNL     1      54.764  23.084  51.405  1.00  0.00     0.000 C 
BRANCH   4   5
ATOM      5  C   UNL     1      54.746  21.610  51.850  1.00  0.00     0.006 C 
BRANCH   5   6
ATOM      6  C   UNL     1      55.224  21.379  53.292  1.00  0.00     0.053 C 
BRANCH   6   7
ATOM      7  C   UNL     1      54.141  21.642  54.294  1.00  0.00     0.041 C 
ATOM      8  O   UNL     1      54.288  22.538  55.167  1.00  0.00    -0.550 OA
ATOM      9  O   UNL     1      52.981  20.879  54.280  1.00  0.00    -0.550 OA
ENDBRANCH   6   7
ENDBRANCH   5   6
ENDBRANCH   4   5
ENDBRANCH   3   4
ENDBRANCH   2   3
ENDBRANCH   1   2
BRANCH   1  10
ATOM     10  C   UNL     1      53.871  24.811  47.301  1.00  0.00     0.000 C 
BRANCH  10  11
ATOM     11  C   UNL     1      55.328  25.124  46.903  1.00  0.00    -0.000 C 
BRANCH  11  12
ATOM     12  C   UNL     1      56.405  24.371  47.710  1.00  0.00    -0.000 C 
BRANCH  12  13
ATOM     13  C   UNL     1      57.347  23.483  46.877  1.00  0.00    -0.000 C 
BRANCH  13  14
ATOM     14  C   UNL     1      57.137  21.981  47.139  1.00  0.00    -0.000 C 
BRANCH  14  15
ATOM     15  C   UNL     1      56.377  21.714  48.448  1.00  0.00    -0.003 C 
ATOM     16  C   UNL     1      56.235  20.224  48.758  1.00  0.00     0.004 C 
ENDBRANCH  14  15
ENDBRANCH  13  14
ENDBRANCH  12  13
ENDBRANCH  11  12
ENDBRANCH  10  11
ENDBRANCH   1  10
TORSDOF 12
ENDMDL
MODEL 4
REMARK VINA RESULT:    -4.399      1.040      1.610
REMARK INTER + INTRA:          -9.043
REMARK INTER:                  -7.775
REMARK INTRA:                  -1.268
REMARK UNBOUND:                -1.559
REMARK SMILES CCCCCCCCCCCCCC(=O)[O-]
REMARK SMILES IDX 8 1 9 2 10 3 11 4 12 5 13 6 14 7 15 8 16 9 7 10 6 11 5 12
REMARK SMILES IDX 4 13 3 14 2 15 1 16
REMARK H PARENT
REMARK Flexibility Score: inf
ROOT
ATOM      1  C   UNL     1      53.740  24.475  47.642  1.00  0.00     0.000 C 
ENDROOT
BRANCH   1   2
ATOM      2  C   UNL     1      53.519  25.064  49.049  1.00  0.00     0.000 C 
BRANCH   2   3
ATOM      3  C   UNL     1      53.232  24.001  50.132  1.00  0.00     0.000 C 
BRANCH   3   4
ATOM      4  C   UNL     1      54.204  24.097  51.322  1.00  0.00     0.000 C 
BRANCH   4   5
ATOM      5  C   UNL     1      53.907  23.055  52.417  1.00  0.00     0.006 C 
BRANCH   5   6
ATOM      6  C   UNL     1      55.139  22.267  52.890  1.00  0.00     0.053 C 
BRANCH   6   7
ATOM      7  C   UNL     1      54.825  21.377  54.054  1.00  0.00     0.041 C 
ATOM      8  O   UNL     1      53.638  21.254  54.457  1.00  0.00    -0.550 OA
ATOM      9  O   UNL     1      55.847  20.704  54.711  1.00  0.00    -0.550 OA
ENDBRANCH   6   7
ENDBRANCH   5   6
ENDBRANCH   4   5
ENDBRANCH   3   4
ENDBRANCH   2   3
ENDBRANCH   1   2
BRANCH   1  10
ATOM     10  C   UNL     1      55.042  24.918  46.951  1.00  0.00     0.000 C 
BRANCH  10  11
ATOM     11  C   UNL     1      56.326  24.684  47.771  1.00  0.00    -0.000 C 
BRANCH  11  12
ATOM     12  C   UNL     1      57.225  23.535  47.269  1.00  0.00    -0.000 C 
BRANCH  12  13
ATOM     13  C   UNL     1      56.740  22.119  47.629  1.00  0.00    -0.000 C 
BRANCH  13  14
ATOM     14  C   UNL     1      56.049  22.057  49.002  1.00  0.00    -0.000 C 
BRANCH  14  15
ATOM     15  C   UNL     1      55.898  20.618  49.519  1.00  0.00    -0.003 C 
ATOM     16  C   UNL     1      56.350  19.571  48.502  1.00  0.00     0.004 C 
ENDBRANCH  14  15
ENDBRANCH  13  14
ENDBRANCH  12  13
ENDBRANCH  11  12
ENDBRANCH  10  11
ENDBRANCH   1  10
TORSDOF 12
ENDMDL
MODEL 5
REMARK VINA RESULT:    -4.270      1.728      2.787
REMARK INTER + INTRA:          -8.824
REMARK INTER:                  -7.433
REMARK INTRA:                  -1.391
REMARK UNBOUND:                -1.559
REMARK SMILES CCCCCCCCCCCCCC(=O)[O-]
REMARK SMILES IDX 8 1 9 2 10 3 11 4 12 5 13 6 14 7 15 8 16 9 7 10 6 11 5 12
REMARK SMILES IDX 4 13 3 14 2 15 1 16
REMARK H PARENT
REMARK Flexibility Score: inf
ROOT
ATOM      1  C   UNL     1      52.809  23.562  51.426  1.00  0.00     0.000 C 
ENDROOT
BRANCH   1   2
ATOM      2  C   UNL     1      53.464  22.608  52.443  1.00  0.00     0.000 C 
BRANCH   2   3
ATOM      3  C   UNL     1      54.611  21.757  51.851  1.00  0.00     0.000 C 
BRANCH   3   4
ATOM      4  C   UNL     1      55.997  22.229  52.324  1.00  0.00     0.000 C 
BRANCH   4   5
ATOM      5  C   UNL     1      56.754  21.147  53.117  1.00  0.00     0.006 C 
BRANCH   5   6
ATOM      6  C   UNL     1      56.242  20.941  54.552  1.00  0.00     0.053 C 
BRANCH   6   7
ATOM      7  C   UNL     1      56.095  22.237  55.290  1.00  0.00     0.041 C 
ATOM      8  O   UNL     1      57.107  22.942  55.540  1.00  0.00    -0.550 OA
ATOM      9  O   UNL     1      54.843  22.651  55.724  1.00  0.00    -0.550 OA
ENDBRANCH   6   7
ENDBRANCH   5   6
ENDBRANCH   4   5
ENDBRANCH   3   4
ENDBRANCH   2   3
ENDBRANCH   1   2
BRANCH   1  10
ATOM     10  C   UNL     1      53.701  24.727  50.961  1.00  0.00     0.000 C 
BRANCH  10  11
ATOM     11  C   UNL     1      53.678  24.999  49.443  1.00  0.00    -0.000 C 
BRANCH  11  12
ATOM     12  C   UNL     1      53.776  23.746  48.550  1.00  0.00    -0.000 C 
BRANCH  12  13
ATOM     13  C   UNL     1      55.140  23.531  47.869  1.00  0.00    -0.000 C 
BRANCH  13  14
ATOM     14  C   UNL     1      56.088  22.647  48.698  1.00  0.00    -0.000 C 
BRANCH  14  15
ATOM     15  C   UNL     1      56.638  21.460  47.894  1.00  0.00    -0.003 C 
ATOM     16  C   UNL     1      56.507  20.129  48.634  1.00  0.00     0.004 C 
ENDBRANCH  14  15
ENDBRANCH  13  14
ENDBRANCH  12  13
ENDBRANCH  11  12
ENDBRANCH  10  11
ENDBRANCH   1  10
TORSDOF 12
ENDMDL
MODEL 6
REMARK VINA RESULT:    -4.189      1.659      2.484
REMARK INTER + INTRA:          -8.687
REMARK INTER:                  -7.305
REMARK INTRA:                  -1.382
REMARK UNBOUND:                -1.559
REMARK SMILES CCCCCCCCCCCCCC(=O)[O-]
REMARK SMILES IDX 8 1 9 2 10 3 11 4 12 5 13 6 14 7 15 8 16 9 7 10 6 11 5 12
REMARK SMILES IDX 4 13 3 14 2 15 1 16
REMARK H PARENT
REMARK Flexibility Score: inf
ROOT
ATOM      1  C   UNL     1      53.024  23.986  50.904  1.00  0.00     0.000 C 
ENDROOT
BRANCH   1   2
ATOM      2  C   UNL     1      53.964  24.316  52.080  1.00  0.00     0.000 C 
BRANCH   2   3
ATOM      3  C   UNL     1      54.084  23.179  53.120  1.00  0.00     0.000 C 
BRANCH   3   4
ATOM      4  C   UNL     1      53.820  21.792  52.509  1.00  0.00     0.000 C 
BRANCH   4   5
ATOM      5  C   UNL     1      52.759  20.992  53.287  1.00  0.00     0.006 C 
BRANCH   5   6
ATOM      6  C   UNL     1      52.019  21.803  54.363  1.00  0.00     0.053 C 
BRANCH   6   7
ATOM      7  C   UNL     1      50.587  22.050  53.996  1.00  0.00     0.041 C 
ATOM      8  O   UNL     1      49.673  21.848  54.838  1.00  0.00    -0.550 OA
ATOM      9  O   UNL     1      50.260  22.477  52.716  1.00  0.00    -0.550 OA
ENDBRANCH   6   7
ENDBRANCH   5   6
ENDBRANCH   4   5
ENDBRANCH   3   4
ENDBRANCH   2   3
ENDBRANCH   1   2
BRANCH   1  10
ATOM     10  C   UNL     1      53.399  24.652  49.568  1.00  0.00     0.000 C 
BRANCH  10  11
ATOM     11  C   UNL     1      53.750  23.674  48.429  1.00  0.00    -0.000 C 
BRANCH  11  12
ATOM     12  C   UNL     1      55.158  23.848  47.825  1.00  0.00    -0.000 C 
BRANCH  12  13
ATOM     13  C   UNL     1      56.139  22.695  48.107  1.00  0.00    -0.000 C 
BRANCH  13  14
ATOM     14  C   UNL     1      55.998  22.128  49.530  1.00  0.00    -0.000 C 
BRANCH  14  15
ATOM     15  C   UNL     1      55.650  20.631  49.534  1.00  0.00    -0.003 C 
ATOM     16  C   UNL     1      56.518  19.817  48.576  1.00  0.00     0.004 C 
ENDBRANCH  14  15
ENDBRANCH  13  14
ENDBRANCH  12  13
ENDBRANCH  11  12
ENDBRANCH  10  11
ENDBRANCH   1  10
TORSDOF 12
ENDMDL
MODEL 7
REMARK VINA RESULT:    -4.088      1.172      3.334
REMARK INTER + INTRA:          -8.515
REMARK INTER:                  -6.930
REMARK INTRA:                  -1.585
REMARK UNBOUND:                -1.559
REMARK SMILES CCCCCCCCCCCCCC(=O)[O-]
REMARK SMILES IDX 8 1 9 2 10 3 11 4 12 5 13 6 14 7 15 8 16 9 7 10 6 11 5 12
REMARK SMILES IDX 4 13 3 14 2 15 1 16
REMARK H PARENT
REMARK Flexibility Score: inf
ROOT
ATOM      1  C   UNL     1      56.955  20.933  48.609  1.00  0.00     0.000 C 
ENDROOT
BRANCH   1   2
ATOM      2  C   UNL     1      55.711  20.232  49.187  1.00  0.00     0.000 C 
BRANCH   2   3
ATOM      3  C   UNL     1      54.975  21.055  50.267  1.00  0.00     0.000 C 
BRANCH   3   4
ATOM      4  C   UNL     1      55.944  21.835  51.174  1.00  0.00     0.000 C 
BRANCH   4   5
ATOM      5  C   UNL     1      55.671  21.603  52.672  1.00  0.00     0.006 C 
BRANCH   5   6
ATOM      6  C   UNL     1      54.180  21.574  53.046  1.00  0.00     0.053 C 
BRANCH   6   7
ATOM      7  C   UNL     1      53.868  22.490  54.190  1.00  0.00     0.041 C 
ATOM      8  O   UNL     1      53.273  22.051  55.209  1.00  0.00    -0.550 OA
ATOM      9  O   UNL     1      54.211  23.834  54.119  1.00  0.00    -0.550 OA
ENDBRANCH   6   7
ENDBRANCH   5   6
ENDBRANCH   4   5
ENDBRANCH   3   4
ENDBRANCH   2   3
ENDBRANCH   1   2
BRANCH   1  10
ATOM     10  C   UNL     1      56.674  21.889  47.435  1.00  0.00     0.000 C 
BRANCH  10  11
ATOM     11  C   UNL     1      56.977  23.374  47.718  1.00  0.00    -0.000 C 
BRANCH  11  12
ATOM     12  C   UNL     1      55.858  24.359  47.322  1.00  0.00    -0.000 C 
BRANCH  12  13
ATOM     13  C   UNL     1      54.431  23.911  47.688  1.00  0.00    -0.000 C 
BRANCH  13  14
ATOM     14  C   UNL     1      53.658  24.979  48.482  1.00  0.00    -0.000 C 
BRANCH  14  15
ATOM     15  C   UNL     1      53.991  24.950  49.982  1.00  0.00    -0.003 C 
ATOM     16  C   UNL     1      52.979  24.148  50.799  1.00  0.00     0.004 C 
ENDBRANCH  14  15
ENDBRANCH  13  14
ENDBRANCH  12  13
ENDBRANCH  11  12
ENDBRANCH  10  11
ENDBRANCH   1  10
TORSDOF 12
ENDMDL
MODEL 8
REMARK VINA RESULT:    -4.040      2.134      3.938
REMARK INTER + INTRA:          -8.433
REMARK INTER:                  -7.247
REMARK INTRA:                  -1.187
REMARK UNBOUND:                -1.559
REMARK SMILES CCCCCCCCCCCCCC(=O)[O-]
REMARK SMILES IDX 8 1 9 2 10 3 11 4 12 5 13 6 14 7 15 8 16 9 7 10 6 11 5 12
REMARK SMILES IDX 4 13 3 14 2 15 1 16
REMARK H PARENT
REMARK Flexibility Score: inf
ROOT
ATOM      1  C   UNL     1      56.290  20.624  49.350  1.00  0.00     0.000 C 
ENDROOT
BRANCH   1   2
ATOM      2  C   UNL     1      55.255  20.997  50.429  1.00  0.00     0.000 C 
BRANCH   2   3
ATOM      3  C   UNL     1      55.773  22.020  51.463  1.00  0.00     0.000 C 
BRANCH   3   4
ATOM      4  C   UNL     1      56.469  21.348  52.660  1.00  0.00     0.000 C 
BRANCH   4   5
ATOM      5  C   UNL     1      55.651  21.453  53.960  1.00  0.00     0.006 C 
BRANCH   5   6
ATOM      6  C   UNL     1      56.502  21.538  55.237  1.00  0.00     0.053 C 
BRANCH   6   7
ATOM      7  C   UNL     1      56.910  22.946  55.549  1.00  0.00     0.041 C 
ATOM      8  O   UNL     1      57.828  23.171  56.381  1.00  0.00    -0.550 OA
ATOM      9  O   UNL     1      56.259  24.011  54.939  1.00  0.00    -0.550 OA
ENDBRANCH   6   7
ENDBRANCH   5   6
ENDBRANCH   4   5
ENDBRANCH   3   4
ENDBRANCH   2   3
ENDBRANCH   1   2
BRANCH   1  10
ATOM     10  C   UNL     1      56.100  21.332  47.997  1.00  0.00     0.000 C 
BRANCH  10  11
ATOM     11  C   UNL     1      56.813  22.693  47.867  1.00  0.00    -0.000 C 
BRANCH  11  12
ATOM     12  C   UNL     1      55.880  23.910  47.705  1.00  0.00    -0.000 C 
BRANCH  12  13
ATOM     13  C   UNL     1      54.395  23.643  48.010  1.00  0.00    -0.000 C 
BRANCH  13  14
ATOM     14  C   UNL     1      53.668  24.881  48.563  1.00  0.00    -0.000 C 
BRANCH  14  15
ATOM     15  C   UNL     1      53.832  25.028  50.083  1.00  0.00    -0.003 C 
ATOM     16  C   UNL     1      52.978  24.034  50.871  1.00  0.00     0.004 C 
ENDBRANCH  14  15
ENDBRANCH  13  14
ENDBRANCH  12  13
ENDBRANCH  11  12
ENDBRANCH  10  11
ENDBRANCH   1  10
TORSDOF 12
ENDMDL
MODEL 9
REMARK VINA RESULT:    -4.037      2.681      5.988
REMARK INTER + INTRA:          -8.428
REMARK INTER:                  -7.365
REMARK INTRA:                  -1.063
REMARK UNBOUND:                -1.559
REMARK SMILES CCCCCCCCCCCCCC(=O)[O-]
REMARK SMILES IDX 8 1 9 2 10 3 11 4 12 5 13 6 14 7 15 8 16 9 7 10 6 11 5 12
REMARK SMILES IDX 4 13 3 14 2 15 1 16
REMARK H PARENT
REMARK Flexibility Score: inf
ROOT
ATOM      1  C   UNL     1      53.268  23.767  50.888  1.00  0.00     0.000 C 
ENDROOT
BRANCH   1   2
ATOM      2  C   UNL     1      53.701  24.611  49.674  1.00  0.00     0.000 C 
BRANCH   2   3
ATOM      3  C   UNL     1      53.699  23.833  48.340  1.00  0.00     0.000 C 
BRANCH   3   4
ATOM      4  C   UNL     1      55.060  23.891  47.622  1.00  0.00     0.000 C 
BRANCH   4   5
ATOM      5  C   UNL     1      56.195  23.258  48.448  1.00  0.00     0.006 C 
BRANCH   5   6
ATOM      6  C   UNL     1      56.639  21.872  47.952  1.00  0.00     0.053 C 
BRANCH   6   7
ATOM      7  C   UNL     1      56.113  20.768  48.820  1.00  0.00     0.041 C 
ATOM      8  O   UNL     1      55.616  21.030  49.947  1.00  0.00    -0.550 OA
ATOM      9  O   UNL     1      56.195  19.449  48.394  1.00  0.00    -0.550 OA
ENDBRANCH   6   7
ENDBRANCH   5   6
ENDBRANCH   4   5
ENDBRANCH   3   4
ENDBRANCH   2   3
ENDBRANCH   1   2
BRANCH   1  10
ATOM     10  C   UNL     1      54.119  23.968  52.154  1.00  0.00     0.000 C 
BRANCH  10  11
ATOM     11  C   UNL     1      53.714  23.091  53.356  1.00  0.00    -0.000 C 
BRANCH  11  12
ATOM     12  C   UNL     1      53.367  21.628  53.014  1.00  0.00    -0.000 C 
BRANCH  12  13
ATOM     13  C   UNL     1      51.992  21.146  53.511  1.00  0.00    -0.000 C 
BRANCH  13  14
ATOM     14  C   UNL     1      51.127  22.290  54.069  1.00  0.00    -0.000 C 
BRANCH  14  15
ATOM     15  C   UNL     1      49.641  22.129  53.713  1.00  0.00    -0.003 C 
ATOM     16  C   UNL     1      49.311  22.624  52.305  1.00  0.00     0.004 C 
ENDBRANCH  14  15
ENDBRANCH  13  14
ENDBRANCH  12  13
ENDBRANCH  11  12
ENDBRANCH  10  11
ENDBRANCH   1  10
TORSDOF 12
ENDMDL
