MODEL 1
REMARK VINA RESULT:    -6.679      0.000      0.000
REMARK INTER + INTRA:         -10.867
REMARK INTER:                  -9.803
REMARK INTRA:                  -1.064
REMARK UNBOUND:                -1.064
REMARK SMILES O=c1c(O[C@@H]2O[C@@H](CO)[C@@H](O)[C@H](O)[C@@H]2O)c(-c2ccc(O)c(O)c2)oc2cc(O)cc(O)c12
REMARK SMILES IDX 4 1 3 2 16 3 25 4 2 5 26 6 1 7 33 8 27 9 31 10 28 11 30 12
REMARK SMILES IDX 17 13 18 14 19 15 20 16 24 17 22 18 21 19 23 21 32 23 29 25
REMARK SMILES IDX 5 27 14 28 6 29 12 30 7 31 10 32 15 33 13 35 8 37 9 38 11 40
REMARK H PARENT 21 20 23 22 32 24 29 26 15 34 13 36 9 39 11 41
REMARK Flexibility Score: inf
ROOT
ATOM      1  O   UNL     1      -5.636   7.009  14.737  1.00  0.00    -0.454 OA
ENDROOT
BRANCH   1   2
ATOM      2  C   UNL     1      -4.666   6.075  15.129  1.00  0.00     0.214 A 
ATOM      3  C   UNL     1      -3.367   6.132  14.591  1.00  0.00     0.180 A 
ATOM      4  O   UNL     1      -2.471   5.214  14.934  1.00  0.00    -0.452 OA
ATOM      5  C   UNL     1      -4.966   5.081  16.072  1.00  0.00     0.239 A 
ATOM      6  C   UNL     1      -2.727   4.224  15.781  1.00  0.00     0.146 A 
ATOM      7  O   UNL     1      -6.070   5.131  16.675  1.00  0.00    -0.285 OA
ATOM      8  C   UNL     1      -4.008   4.085  16.373  1.00  0.00     0.111 A 
ATOM      9  C   UNL     1      -1.701   3.328  16.090  1.00  0.00     0.094 A 
ATOM     10  C   UNL     1      -4.239   2.981  17.246  1.00  0.00     0.134 A 
ATOM     11  C   UNL     1      -1.919   2.289  16.993  1.00  0.00     0.123 A 
ATOM     12  C   UNL     1      -3.181   2.123  17.568  1.00  0.00     0.093 A 
BRANCH   3  13
ATOM     13  C   UNL     1      -2.961   7.178  13.624  1.00  0.00     0.025 A 
ATOM     14  C   UNL     1      -3.521   7.182  12.337  1.00  0.00     0.016 A 
ATOM     15  C   UNL     1      -3.158   8.161  11.411  1.00  0.00     0.051 A 
ATOM     16  C   UNL     1      -2.220   9.145  11.752  1.00  0.00     0.157 A 
ATOM     17  C   UNL     1      -2.002   8.153  13.956  1.00  0.00     0.062 A 
ATOM     18  C   UNL     1      -1.637   9.136  13.030  1.00  0.00     0.158 A 
BRANCH  16  19
ATOM     19  O   UNL     1      -1.864  10.125  10.827  1.00  0.00    -0.504 OA
ATOM     20  H   UNL     1      -2.367  11.002  10.762  1.00  0.00     0.293 HD
ENDBRANCH  16  19
BRANCH  18  21
ATOM     21  O   UNL     1      -0.689  10.092  13.396  1.00  0.00    -0.504 OA
ATOM     22  H   UNL     1      -0.761  10.616  14.260  1.00  0.00     0.293 HD
ENDBRANCH  18  21
ENDBRANCH   3  13
BRANCH  10  23
ATOM     23  O   UNL     1      -5.488   2.667  17.790  1.00  0.00    -0.507 OA
ATOM     24  H   UNL     1      -6.180   2.089  17.336  1.00  0.00     0.293 HD
ENDBRANCH  10  23
BRANCH  11  25
ATOM     25  O   UNL     1      -0.875   1.420  17.305  1.00  0.00    -0.508 OA
ATOM     26  H   UNL     1      -0.995   0.666  17.971  1.00  0.00     0.293 HD
ENDBRANCH  11  25
ENDBRANCH   1   2
BRANCH   1  27
ATOM     27  C   UNL     1      -6.736   6.707  13.872  1.00  0.00     0.339 C 
ATOM     28  C   UNL     1      -7.430   8.004  13.383  1.00  0.00     0.214 C 
ATOM     29  O   UNL     1      -6.327   5.789  12.859  1.00  0.00    -0.332 OA
ATOM     30  C   UNL     1      -8.638   7.633  12.491  1.00  0.00     0.180 C 
ATOM     31  C   UNL     1      -6.821   6.072  11.557  1.00  0.00     0.179 C 
ATOM     32  C   UNL     1      -8.334   6.428  11.551  1.00  0.00     0.177 C 
BRANCH  28  33
ATOM     33  O   UNL     1      -6.515   8.812  12.683  1.00  0.00    -0.384 OA
ATOM     34  H   UNL     1      -5.605   8.481  12.905  1.00  0.00     0.211 HD
ENDBRANCH  28  33
BRANCH  30  35
ATOM     35  O   UNL     1      -9.100   8.750  11.770  1.00  0.00    -0.387 OA
ATOM     36  H   UNL     1      -9.550   8.418  10.950  1.00  0.00     0.211 HD
ENDBRANCH  30  35
BRANCH  31  37
ATOM     37  C   UNL     1      -6.503   4.890  10.627  1.00  0.00     0.191 C 
BRANCH  37  38
ATOM     38  O   UNL     1      -7.222   3.741  10.990  1.00  0.00    -0.394 OA
ATOM     39  H   UNL     1      -6.910   3.009  10.397  1.00  0.00     0.210 HD
ENDBRANCH  37  38
ENDBRANCH  31  37
BRANCH  32  40
ATOM     40  O   UNL     1      -9.125   5.317  11.898  1.00  0.00    -0.387 OA
ATOM     41  H   UNL     1      -8.663   4.832  12.630  1.00  0.00     0.211 HD
ENDBRANCH  32  40
ENDBRANCH   1  27
TORSDOF 12
ENDMDL
MODEL 2
REMARK VINA RESULT:    -6.097      0.840      2.069
REMARK INTER + INTRA:         -10.012
REMARK INTER:                  -9.408
REMARK INTRA:                  -0.605
REMARK UNBOUND:                -1.064
REMARK SMILES O=c1c(O[C@@H]2O[C@@H](CO)[C@@H](O)[C@H](O)[C@@H]2O)c(-c2ccc(O)c(O)c2)oc2cc(O)cc(O)c12
REMARK SMILES IDX 4 1 3 2 16 3 25 4 2 5 26 6 1 7 33 8 27 9 31 10 28 11 30 12
REMARK SMILES IDX 17 13 18 14 19 15 20 16 24 17 22 18 21 19 23 21 32 23 29 25
REMARK SMILES IDX 5 27 14 28 6 29 12 30 7 31 10 32 15 33 13 35 8 37 9 38 11 40
REMARK H PARENT 21 20 23 22 32 24 29 26 15 34 13 36 9 39 11 41
REMARK Flexibility Score: inf
ROOT
ATOM      1  O   UNL     1      -5.729   6.753  14.437  1.00  0.00    -0.454 OA
ENDROOT
BRANCH   1   2
ATOM      2  C   UNL     1      -4.745   5.882  14.927  1.00  0.00     0.214 A 
ATOM      3  C   UNL     1      -3.405   6.025  14.520  1.00  0.00     0.180 A 
ATOM      4  O   UNL     1      -2.489   5.166  14.954  1.00  0.00    -0.452 OA
ATOM      5  C   UNL     1      -5.071   4.868  15.839  1.00  0.00     0.239 A 
ATOM      6  C   UNL     1      -2.764   4.158  15.774  1.00  0.00     0.146 A 
ATOM      7  O   UNL     1      -6.231   4.844  16.328  1.00  0.00    -0.285 OA
ATOM      8  C   UNL     1      -4.086   3.934  16.236  1.00  0.00     0.111 A 
ATOM      9  C   UNL     1      -1.718   3.329  16.186  1.00  0.00     0.094 A 
ATOM     10  C   UNL     1      -4.330   2.814  17.085  1.00  0.00     0.134 A 
ATOM     11  C   UNL     1      -1.956   2.275  17.066  1.00  0.00     0.123 A 
ATOM     12  C   UNL     1      -3.256   2.026  17.514  1.00  0.00     0.093 A 
BRANCH   3  13
ATOM     13  C   UNL     1      -2.974   7.098  13.596  1.00  0.00     0.025 A 
ATOM     14  C   UNL     1      -3.496   7.138  12.294  1.00  0.00     0.016 A 
ATOM     15  C   UNL     1      -3.109   8.144  11.406  1.00  0.00     0.051 A 
ATOM     16  C   UNL     1      -2.183   9.119  11.802  1.00  0.00     0.157 A 
ATOM     17  C   UNL     1      -2.027   8.065  13.983  1.00  0.00     0.062 A 
ATOM     18  C   UNL     1      -1.637   9.074  13.096  1.00  0.00     0.158 A 
BRANCH  16  19
ATOM     19  O   UNL     1      -1.803  10.125  10.916  1.00  0.00    -0.504 OA
ATOM     20  H   UNL     1      -2.451  10.845  10.620  1.00  0.00     0.293 HD
ENDBRANCH  16  19
BRANCH  18  21
ATOM     21  O   UNL     1      -0.702  10.021  13.516  1.00  0.00    -0.504 OA
ATOM     22  H   UNL     1      -0.102  10.510  12.863  1.00  0.00     0.293 HD
ENDBRANCH  18  21
ENDBRANCH   3  13
BRANCH  10  23
ATOM     23  O   UNL     1      -5.604   2.419  17.503  1.00  0.00    -0.507 OA
ATOM     24  H   UNL     1      -5.796   1.917  18.357  1.00  0.00     0.293 HD
ENDBRANCH  10  23
BRANCH  11  25
ATOM     25  O   UNL     1      -0.895   1.474  17.483  1.00  0.00    -0.508 OA
ATOM     26  H   UNL     1      -0.774   0.531  17.134  1.00  0.00     0.293 HD
ENDBRANCH  11  25
ENDBRANCH   1   2
BRANCH   1  27
ATOM     27  C   UNL     1      -6.238   6.716  13.100  1.00  0.00     0.339 C 
ATOM     28  C   UNL     1      -6.732   5.293  12.733  1.00  0.00     0.214 C 
ATOM     29  O   UNL     1      -7.168   7.779  12.899  1.00  0.00    -0.332 OA
ATOM     30  C   UNL     1      -7.229   5.286  11.269  1.00  0.00     0.180 C 
ATOM     31  C   UNL     1      -8.334   7.426  12.168  1.00  0.00     0.179 C 
ATOM     32  C   UNL     1      -8.020   6.578  10.904  1.00  0.00     0.177 C 
BRANCH  28  33
ATOM     33  O   UNL     1      -7.751   4.889  13.614  1.00  0.00    -0.384 OA
ATOM     34  H   UNL     1      -8.617   5.074  13.164  1.00  0.00     0.211 HD
ENDBRANCH  28  33
BRANCH  30  35
ATOM     35  O   UNL     1      -7.975   4.125  10.991  1.00  0.00    -0.387 OA
ATOM     36  H   UNL     1      -7.785   3.858  10.053  1.00  0.00     0.211 HD
ENDBRANCH  30  35
BRANCH  31  37
ATOM     37  C   UNL     1      -9.123   8.701  11.827  1.00  0.00     0.191 C 
BRANCH  37  38
ATOM     38  O   UNL     1      -8.269   9.749  11.451  1.00  0.00    -0.394 OA
ATOM     39  H   UNL     1      -7.395   9.338  11.224  1.00  0.00     0.210 HD
ENDBRANCH  37  38
ENDBRANCH  31  37
BRANCH  32  40
ATOM     40  O   UNL     1      -7.322   7.331   9.941  1.00  0.00    -0.387 OA
ATOM     41  H   UNL     1      -7.792   7.226   9.073  1.00  0.00     0.211 HD
ENDBRANCH  32  40
ENDBRANCH   1  27
TORSDOF 12
ENDMDL
MODEL 3
REMARK VINA RESULT:    -5.970     12.487     16.337
REMARK INTER + INTRA:          -9.825
REMARK INTER:                  -8.149
REMARK INTRA:                  -1.676
REMARK UNBOUND:                -1.064
REMARK SMILES O=c1c(O[C@@H]2O[C@@H](CO)[C@@H](O)[C@H](O)[C@@H]2O)c(-c2ccc(O)c(O)c2)oc2cc(O)cc(O)c12
REMARK SMILES IDX 4 1 3 2 16 3 25 4 2 5 26 6 1 7 33 8 27 9 31 10 28 11 30 12
REMARK SMILES IDX 17 13 18 14 19 15 20 16 24 17 22 18 21 19 23 21 32 23 29 25
REMARK SMILES IDX 5 27 14 28 6 29 12 30 7 31 10 32 15 33 13 35 8 37 9 38 11 40
REMARK H PARENT 21 20 23 22 32 24 29 26 15 34 13 36 9 39 11 41
REMARK Flexibility Score: inf
ROOT
ATOM      1  O   UNL     1      -4.490  -5.433  22.483  1.00  0.00    -0.454 OA
ENDROOT
BRANCH   1   2
ATOM      2  C   UNL     1      -4.197  -6.276  23.564  1.00  0.00     0.214 A 
ATOM      3  C   UNL     1      -4.312  -7.672  23.428  1.00  0.00     0.180 A 
ATOM      4  O   UNL     1      -4.077  -8.458  24.472  1.00  0.00    -0.452 OA
ATOM      5  C   UNL     1      -3.770  -5.748  24.792  1.00  0.00     0.239 A 
ATOM      6  C   UNL     1      -3.725  -7.999  25.668  1.00  0.00     0.146 A 
ATOM      7  O   UNL     1      -3.509  -4.519  24.864  1.00  0.00    -0.285 OA
ATOM      8  C   UNL     1      -3.585  -6.606  25.901  1.00  0.00     0.111 A 
ATOM      9  C   UNL     1      -3.478  -8.918  26.690  1.00  0.00     0.094 A 
ATOM     10  C   UNL     1      -3.241  -6.167  27.213  1.00  0.00     0.134 A 
ATOM     11  C   UNL     1      -3.082  -8.481  27.952  1.00  0.00     0.123 A 
ATOM     12  C   UNL     1      -2.961  -7.112  28.207  1.00  0.00     0.093 A 
BRANCH   3  13
ATOM     13  C   UNL     1      -4.712  -8.307  22.152  1.00  0.00     0.025 A 
ATOM     14  C   UNL     1      -3.731  -8.618  21.198  1.00  0.00     0.016 A 
ATOM     15  C   UNL     1      -4.083  -9.222  19.990  1.00  0.00     0.051 A 
ATOM     16  C   UNL     1      -5.425  -9.514  19.711  1.00  0.00     0.157 A 
ATOM     17  C   UNL     1      -6.061  -8.580  21.858  1.00  0.00     0.062 A 
ATOM     18  C   UNL     1      -6.418  -9.186  20.649  1.00  0.00     0.158 A 
BRANCH  16  19
ATOM     19  O   UNL     1      -5.774 -10.123  18.506  1.00  0.00    -0.504 OA
ATOM     20  H   UNL     1      -5.370 -11.007  18.222  1.00  0.00     0.293 HD
ENDBRANCH  16  19
BRANCH  18  21
ATOM     21  O   UNL     1      -7.764  -9.449  20.395  1.00  0.00    -0.504 OA
ATOM     22  H   UNL     1      -8.071 -10.313  19.963  1.00  0.00     0.293 HD
ENDBRANCH  18  21
ENDBRANCH   3  13
BRANCH  10  23
ATOM     23  O   UNL     1      -3.196  -4.823  27.596  1.00  0.00    -0.507 OA
ATOM     24  H   UNL     1      -4.006  -4.229  27.694  1.00  0.00     0.293 HD
ENDBRANCH  10  23
BRANCH  11  25
ATOM     25  O   UNL     1      -2.818  -9.416  28.952  1.00  0.00    -0.508 OA
ATOM     26  H   UNL     1      -3.297  -9.386  29.845  1.00  0.00     0.293 HD
ENDBRANCH  11  25
ENDBRANCH   1   2
BRANCH   1  27
ATOM     27  C   UNL     1      -5.730  -4.737  22.323  1.00  0.00     0.339 C 
ATOM     28  C   UNL     1      -5.981  -4.385  20.834  1.00  0.00     0.214 C 
ATOM     29  O   UNL     1      -6.778  -5.439  22.991  1.00  0.00    -0.332 OA
ATOM     30  C   UNL     1      -7.305  -3.595  20.711  1.00  0.00     0.180 C 
ATOM     31  C   UNL     1      -8.003  -5.511  22.276  1.00  0.00     0.179 C 
ATOM     32  C   UNL     1      -8.418  -4.150  21.649  1.00  0.00     0.177 C 
BRANCH  28  33
ATOM     33  O   UNL     1      -6.018  -5.557  20.056  1.00  0.00    -0.384 OA
ATOM     34  H   UNL     1      -5.131  -5.644  19.618  1.00  0.00     0.211 HD
ENDBRANCH  28  33
BRANCH  30  35
ATOM     35  O   UNL     1      -7.738  -3.533  19.373  1.00  0.00    -0.387 OA
ATOM     36  H   UNL     1      -7.320  -4.289  18.882  1.00  0.00     0.211 HD
ENDBRANCH  30  35
BRANCH  31  37
ATOM     37  C   UNL     1      -9.094  -6.078  23.198  1.00  0.00     0.191 C 
BRANCH  37  38
ATOM     38  O   UNL     1      -9.006  -5.541  24.491  1.00  0.00    -0.394 OA
ATOM     39  H   UNL     1      -8.047  -5.565  24.746  1.00  0.00     0.210 HD
ENDBRANCH  37  38
ENDBRANCH  31  37
BRANCH  32  40
ATOM     40  O   UNL     1      -8.746  -3.207  22.641  1.00  0.00    -0.387 OA
ATOM     41  H   UNL     1      -8.683  -3.658  23.523  1.00  0.00     0.211 HD
ENDBRANCH  32  40
ENDBRANCH   1  27
TORSDOF 12
ENDMDL
MODEL 4
REMARK VINA RESULT:    -5.932      1.769      4.946
REMARK INTER + INTRA:          -9.770
REMARK INTER:                  -8.502
REMARK INTRA:                  -1.268
REMARK UNBOUND:                -1.064
REMARK SMILES O=c1c(O[C@@H]2O[C@@H](CO)[C@@H](O)[C@H](O)[C@@H]2O)c(-c2ccc(O)c(O)c2)oc2cc(O)cc(O)c12
REMARK SMILES IDX 4 1 3 2 16 3 25 4 2 5 26 6 1 7 33 8 27 9 31 10 28 11 30 12
REMARK SMILES IDX 17 13 18 14 19 15 20 16 24 17 22 18 21 19 23 21 32 23 29 25
REMARK SMILES IDX 5 27 14 28 6 29 12 30 7 31 10 32 15 33 13 35 8 37 9 38 11 40
REMARK H PARENT 21 20 23 22 32 24 29 26 15 34 13 36 9 39 11 41
REMARK Flexibility Score: inf
ROOT
ATOM      1  O   UNL     1      -3.441   5.591  13.823  1.00  0.00    -0.454 OA
ENDROOT
BRANCH   1   2
ATOM      2  C   UNL     1      -3.779   4.585  14.740  1.00  0.00     0.214 A 
ATOM      3  C   UNL     1      -5.089   4.072  14.781  1.00  0.00     0.180 A 
ATOM      4  O   UNL     1      -5.408   3.153  15.684  1.00  0.00    -0.452 OA
ATOM      5  C   UNL     1      -2.818   4.061  15.618  1.00  0.00     0.239 A 
ATOM      6  C   UNL     1      -4.546   2.669  16.571  1.00  0.00     0.146 A 
ATOM      7  O   UNL     1      -1.614   4.399  15.470  1.00  0.00    -0.285 OA
ATOM      8  C   UNL     1      -3.204   3.126  16.606  1.00  0.00     0.111 A 
ATOM      9  C   UNL     1      -4.985   1.685  17.460  1.00  0.00     0.094 A 
ATOM     10  C   UNL     1      -2.331   2.599  17.603  1.00  0.00     0.134 A 
ATOM     11  C   UNL     1      -4.107   1.132  18.390  1.00  0.00     0.123 A 
ATOM     12  C   UNL     1      -2.787   1.585  18.455  1.00  0.00     0.093 A 
BRANCH   3  13
ATOM     13  C   UNL     1      -6.146   4.542  13.857  1.00  0.00     0.025 A 
ATOM     14  C   UNL     1      -6.134   4.113  12.521  1.00  0.00     0.016 A 
ATOM     15  C   UNL     1      -7.124   4.537  11.632  1.00  0.00     0.051 A 
ATOM     16  C   UNL     1      -8.135   5.407  12.062  1.00  0.00     0.157 A 
ATOM     17  C   UNL     1      -7.148   5.434  14.279  1.00  0.00     0.062 A 
ATOM     18  C   UNL     1      -8.142   5.861  13.392  1.00  0.00     0.158 A 
BRANCH  16  19
ATOM     19  O   UNL     1      -9.125   5.825  11.174  1.00  0.00    -0.504 OA
ATOM     20  H   UNL     1      -9.247   5.385  10.271  1.00  0.00     0.293 HD
ENDBRANCH  16  19
BRANCH  18  21
ATOM     21  O   UNL     1      -9.125   6.740  13.848  1.00  0.00    -0.504 OA
ATOM     22  H   UNL     1      -9.989   6.411  14.263  1.00  0.00     0.293 HD
ENDBRANCH  18  21
ENDBRANCH   3  13
BRANCH  10  23
ATOM     23  O   UNL     1      -1.029   3.059  17.818  1.00  0.00    -0.507 OA
ATOM     24  H   UNL     1      -0.682   3.404  18.701  1.00  0.00     0.293 HD
ENDBRANCH  10  23
BRANCH  11  25
ATOM     25  O   UNL     1      -4.559   0.135  19.253  1.00  0.00    -0.508 OA
ATOM     26  H   UNL     1      -4.556   0.263  20.258  1.00  0.00     0.293 HD
ENDBRANCH  11  25
ENDBRANCH   1   2
BRANCH   1  27
ATOM     27  C   UNL     1      -3.556   6.992  14.093  1.00  0.00     0.339 C 
ATOM     28  C   UNL     1      -2.502   7.800  13.292  1.00  0.00     0.214 C 
ATOM     29  O   UNL     1      -4.913   7.411  13.953  1.00  0.00    -0.332 OA
ATOM     30  C   UNL     1      -2.629   9.299  13.647  1.00  0.00     0.180 C 
ATOM     31  C   UNL     1      -5.091   8.654  13.289  1.00  0.00     0.179 C 
ATOM     32  C   UNL     1      -4.113   9.753  13.792  1.00  0.00     0.177 C 
BRANCH  28  33
ATOM     33  O   UNL     1      -2.675   7.591  11.912  1.00  0.00    -0.384 OA
ATOM     34  H   UNL     1      -2.743   6.610  11.771  1.00  0.00     0.211 HD
ENDBRANCH  28  33
BRANCH  30  35
ATOM     35  O   UNL     1      -1.929  10.101  12.725  1.00  0.00    -0.387 OA
ATOM     36  H   UNL     1      -1.900   9.615  11.859  1.00  0.00     0.211 HD
ENDBRANCH  30  35
BRANCH  31  37
ATOM     37  C   UNL     1      -6.561   9.089  13.417  1.00  0.00     0.191 C 
BRANCH  37  38
ATOM     38  O   UNL     1      -7.039   8.909  14.724  1.00  0.00    -0.394 OA
ATOM     39  H   UNL     1      -7.993   8.650  14.646  1.00  0.00     0.210 HD
ENDBRANCH  37  38
ENDBRANCH  31  37
BRANCH  32  40
ATOM     40  O   UNL     1      -4.391  10.119  15.122  1.00  0.00    -0.387 OA
ATOM     41  H   UNL     1      -4.791  11.027  15.110  1.00  0.00     0.211 HD
ENDBRANCH  32  40
ENDBRANCH   1  27
TORSDOF 12
ENDMDL
MODEL 5
REMARK VINA RESULT:    -5.669     13.551     18.694
REMARK INTER + INTRA:          -9.385
REMARK INTER:                  -8.189
REMARK INTRA:                  -1.196
REMARK UNBOUND:                -1.064
REMARK SMILES O=c1c(O[C@@H]2O[C@@H](CO)[C@@H](O)[C@H](O)[C@@H]2O)c(-c2ccc(O)c(O)c2)oc2cc(O)cc(O)c12
REMARK SMILES IDX 4 1 3 2 16 3 25 4 2 5 26 6 1 7 33 8 27 9 31 10 28 11 30 12
REMARK SMILES IDX 17 13 18 14 19 15 20 16 24 17 22 18 21 19 23 21 32 23 29 25
REMARK SMILES IDX 5 27 14 28 6 29 12 30 7 31 10 32 15 33 13 35 8 37 9 38 11 40
REMARK H PARENT 21 20 23 22 32 24 29 26 15 34 13 36 9 39 11 41
REMARK Flexibility Score: inf
ROOT
ATOM      1  O   UNL     1      -4.943  -9.415  25.258  1.00  0.00    -0.454 OA
ENDROOT
BRANCH   1   2
ATOM      2  C   UNL     1      -4.986  -8.516  24.182  1.00  0.00     0.214 A 
ATOM      3  C   UNL     1      -4.301  -7.289  24.256  1.00  0.00     0.180 A 
ATOM      4  O   UNL     1      -4.387  -6.425  23.250  1.00  0.00    -0.452 OA
ATOM      5  C   UNL     1      -5.694  -8.828  23.012  1.00  0.00     0.239 A 
ATOM      6  C   UNL     1      -5.090  -6.655  22.148  1.00  0.00     0.146 A 
ATOM      7  O   UNL     1      -6.164  -9.988  22.880  1.00  0.00    -0.285 OA
ATOM      8  C   UNL     1      -5.814  -7.864  21.984  1.00  0.00     0.111 A 
ATOM      9  C   UNL     1      -5.091  -5.686  21.142  1.00  0.00     0.094 A 
ATOM     10  C   UNL     1      -6.582  -8.043  20.796  1.00  0.00     0.134 A 
ATOM     11  C   UNL     1      -5.794  -5.897  19.958  1.00  0.00     0.123 A 
ATOM     12  C   UNL     1      -6.531  -7.072  19.788  1.00  0.00     0.093 A 
BRANCH   3  13
ATOM     13  C   UNL     1      -3.496  -6.907  25.438  1.00  0.00     0.025 A 
ATOM     14  C   UNL     1      -2.344  -7.642  25.754  1.00  0.00     0.016 A 
ATOM     15  C   UNL     1      -1.565  -7.297  26.861  1.00  0.00     0.051 A 
ATOM     16  C   UNL     1      -1.933  -6.219  27.677  1.00  0.00     0.157 A 
ATOM     17  C   UNL     1      -3.877  -5.840  26.273  1.00  0.00     0.062 A 
ATOM     18  C   UNL     1      -3.098  -5.491  27.382  1.00  0.00     0.158 A 
BRANCH  16  19
ATOM     19  O   UNL     1      -1.151  -5.874  28.777  1.00  0.00    -0.504 OA
ATOM     20  H   UNL     1      -0.857  -4.919  28.941  1.00  0.00     0.293 HD
ENDBRANCH  16  19
BRANCH  18  21
ATOM     21  O   UNL     1      -3.501  -4.422  28.183  1.00  0.00    -0.504 OA
ATOM     22  H   UNL     1      -3.203  -4.330  29.147  1.00  0.00     0.293 HD
ENDBRANCH  18  21
ENDBRANCH   3  13
BRANCH  10  23
ATOM     23  O   UNL     1      -7.431  -9.131  20.576  1.00  0.00    -0.507 OA
ATOM     24  H   UNL     1      -8.033  -9.538  21.277  1.00  0.00     0.293 HD
ENDBRANCH  10  23
BRANCH  11  25
ATOM     25  O   UNL     1      -5.763  -4.928  18.957  1.00  0.00    -0.508 OA
ATOM     26  H   UNL     1      -4.934  -4.373  18.783  1.00  0.00     0.293 HD
ENDBRANCH  11  25
ENDBRANCH   1   2
BRANCH   1  27
ATOM     27  C   UNL     1      -6.033  -9.638  26.159  1.00  0.00     0.339 C 
ATOM     28  C   UNL     1      -5.523  -9.806  27.614  1.00  0.00     0.214 C 
ATOM     29  O   UNL     1      -7.048  -8.655  25.956  1.00  0.00    -0.332 OA
ATOM     30  C   UNL     1      -6.724 -10.090  28.546  1.00  0.00     0.180 C 
ATOM     31  C   UNL     1      -7.624  -8.133  27.144  1.00  0.00     0.179 C 
ATOM     32  C   UNL     1      -7.975  -9.237  28.181  1.00  0.00     0.177 C 
BRANCH  28  33
ATOM     33  O   UNL     1      -4.828  -8.654  28.023  1.00  0.00    -0.384 OA
ATOM     34  H   UNL     1      -5.503  -8.010  28.362  1.00  0.00     0.211 HD
ENDBRANCH  28  33
BRANCH  30  35
ATOM     35  O   UNL     1      -6.366  -9.933  29.899  1.00  0.00    -0.387 OA
ATOM     36  H   UNL     1      -5.815  -9.110  29.974  1.00  0.00     0.211 HD
ENDBRANCH  30  35
BRANCH  31  37
ATOM     37  C   UNL     1      -8.847  -7.276  26.779  1.00  0.00     0.191 C 
BRANCH  37  38
ATOM     38  O   UNL     1      -8.724  -5.968  27.272  1.00  0.00    -0.394 OA
ATOM     39  H   UNL     1      -9.599  -5.524  27.127  1.00  0.00     0.210 HD
ENDBRANCH  37  38
ENDBRANCH  31  37
BRANCH  32  40
ATOM     40  O   UNL     1      -9.019 -10.061  27.720  1.00  0.00    -0.387 OA
ATOM     41  H   UNL     1      -9.780  -9.970  28.350  1.00  0.00     0.211 HD
ENDBRANCH  32  40
ENDBRANCH   1  27
TORSDOF 12
ENDMDL
MODEL 6
REMARK VINA RESULT:    -5.429      2.794      8.314
REMARK INTER + INTRA:          -9.032
REMARK INTER:                  -8.661
REMARK INTRA:                  -0.371
REMARK UNBOUND:                -1.064
REMARK SMILES O=c1c(O[C@@H]2O[C@@H](CO)[C@@H](O)[C@H](O)[C@@H]2O)c(-c2ccc(O)c(O)c2)oc2cc(O)cc(O)c12
REMARK SMILES IDX 4 1 3 2 16 3 25 4 2 5 26 6 1 7 33 8 27 9 31 10 28 11 30 12
REMARK SMILES IDX 17 13 18 14 19 15 20 16 24 17 22 18 21 19 23 21 32 23 29 25
REMARK SMILES IDX 5 27 14 28 6 29 12 30 7 31 10 32 15 33 13 35 8 37 9 38 11 40
REMARK H PARENT 21 20 23 22 32 24 29 26 15 34 13 36 9 39 11 41
REMARK Flexibility Score: inf
ROOT
ATOM      1  O   UNL     1      -1.444   5.281  15.746  1.00  0.00    -0.454 OA
ENDROOT
BRANCH   1   2
ATOM      2  C   UNL     1      -2.784   5.195  15.343  1.00  0.00     0.214 A 
ATOM      3  C   UNL     1      -3.591   4.131  15.785  1.00  0.00     0.180 A 
ATOM      4  O   UNL     1      -4.846   4.034  15.360  1.00  0.00    -0.452 OA
ATOM      5  C   UNL     1      -3.348   6.172  14.509  1.00  0.00     0.239 A 
ATOM      6  C   UNL     1      -5.403   4.904  14.526  1.00  0.00     0.146 A 
ATOM      7  O   UNL     1      -2.678   7.206  14.250  1.00  0.00    -0.285 OA
ATOM      8  C   UNL     1      -4.667   6.009  14.027  1.00  0.00     0.111 A 
ATOM      9  C   UNL     1      -6.740   4.719  14.163  1.00  0.00     0.094 A 
ATOM     10  C   UNL     1      -5.305   6.892  13.105  1.00  0.00     0.134 A 
ATOM     11  C   UNL     1      -7.371   5.622  13.311  1.00  0.00     0.123 A 
ATOM     12  C   UNL     1      -6.656   6.703  12.791  1.00  0.00     0.093 A 
BRANCH   3  13
ATOM     13  C   UNL     1      -3.082   3.086  16.703  1.00  0.00     0.025 A 
ATOM     14  C   UNL     1      -1.751   2.656  16.588  1.00  0.00     0.016 A 
ATOM     15  C   UNL     1      -1.247   1.677  17.445  1.00  0.00     0.051 A 
ATOM     16  C   UNL     1      -2.069   1.101  18.423  1.00  0.00     0.157 A 
ATOM     17  C   UNL     1      -3.912   2.489  17.670  1.00  0.00     0.062 A 
ATOM     18  C   UNL     1      -3.410   1.507  18.531  1.00  0.00     0.158 A 
BRANCH  16  19
ATOM     19  O   UNL     1      -1.562   0.127  19.282  1.00  0.00    -0.504 OA
ATOM     20  H   UNL     1      -1.045   0.373  20.117  1.00  0.00     0.293 HD
ENDBRANCH  16  19
BRANCH  18  21
ATOM     21  O   UNL     1      -4.259   0.944  19.483  1.00  0.00    -0.504 OA
ATOM     22  H   UNL     1      -4.818   1.513  20.109  1.00  0.00     0.293 HD
ENDBRANCH  18  21
ENDBRANCH   3  13
BRANCH  10  23
ATOM     23  O   UNL     1      -4.649   7.938  12.451  1.00  0.00    -0.507 OA
ATOM     24  H   UNL     1      -4.204   8.715  12.918  1.00  0.00     0.293 HD
ENDBRANCH  10  23
BRANCH  11  25
ATOM     25  O   UNL     1      -8.712   5.432  12.979  1.00  0.00    -0.508 OA
ATOM     26  H   UNL     1      -8.997   5.208  12.033  1.00  0.00     0.293 HD
ENDBRANCH  11  25
ENDBRANCH   1   2
BRANCH   1  27
ATOM     27  C   UNL     1      -0.945   6.257  16.667  1.00  0.00     0.339 C 
ATOM     28  C   UNL     1      -0.696   5.629  18.062  1.00  0.00     0.214 C 
ATOM     29  O   UNL     1       0.152   6.963  16.088  1.00  0.00    -0.332 OA
ATOM     30  C   UNL     1      -0.204   6.724  19.036  1.00  0.00     0.180 C 
ATOM     31  C   UNL     1       1.244   7.200  16.966  1.00  0.00     0.179 C 
ATOM     32  C   UNL     1       0.795   7.713  18.363  1.00  0.00     0.177 C 
BRANCH  28  33
ATOM     33  O   UNL     1       0.238   4.582  17.965  1.00  0.00    -0.384 OA
ATOM     34  H   UNL     1       1.013   4.828  18.536  1.00  0.00     0.211 HD
ENDBRANCH  28  33
BRANCH  30  35
ATOM     35  O   UNL     1       0.336   6.158  20.206  1.00  0.00    -0.387 OA
ATOM     36  H   UNL     1       1.258   6.511  20.318  1.00  0.00     0.211 HD
ENDBRANCH  30  35
BRANCH  31  37
ATOM     37  C   UNL     1       2.237   8.160  16.291  1.00  0.00     0.191 C 
BRANCH  37  38
ATOM     38  O   UNL     1       1.602   9.333  15.855  1.00  0.00    -0.394 OA
ATOM     39  H   UNL     1       2.041   9.597  15.005  1.00  0.00     0.210 HD
ENDBRANCH  37  38
ENDBRANCH  31  37
BRANCH  32  40
ATOM     40  O   UNL     1       0.236   9.002  18.281  1.00  0.00    -0.387 OA
ATOM     41  H   UNL     1       0.792   9.536  17.656  1.00  0.00     0.211 HD
ENDBRANCH  32  40
ENDBRANCH   1  27
TORSDOF 12
ENDMDL
MODEL 7
REMARK VINA RESULT:    -5.055      1.624      5.870
REMARK INTER + INTRA:          -8.482
REMARK INTER:                  -7.423
REMARK INTRA:                  -1.059
REMARK UNBOUND:                -1.064
REMARK SMILES O=c1c(O[C@@H]2O[C@@H](CO)[C@@H](O)[C@H](O)[C@@H]2O)c(-c2ccc(O)c(O)c2)oc2cc(O)cc(O)c12
REMARK SMILES IDX 4 1 3 2 16 3 25 4 2 5 26 6 1 7 33 8 27 9 31 10 28 11 30 12
REMARK SMILES IDX 17 13 18 14 19 15 20 16 24 17 22 18 21 19 23 21 32 23 29 25
REMARK SMILES IDX 5 27 14 28 6 29 12 30 7 31 10 32 15 33 13 35 8 37 9 38 11 40
REMARK H PARENT 21 20 23 22 32 24 29 26 15 34 13 36 9 39 11 41
REMARK Flexibility Score: inf
ROOT
ATOM      1  O   UNL     1      -5.001   5.852  12.823  1.00  0.00    -0.454 OA
ENDROOT
BRANCH   1   2
ATOM      2  C   UNL     1      -3.861   6.539  13.261  1.00  0.00     0.214 A 
ATOM      3  C   UNL     1      -3.357   6.324  14.558  1.00  0.00     0.180 A 
ATOM      4  O   UNL     1      -2.304   7.015  14.979  1.00  0.00    -0.452 OA
ATOM      5  C   UNL     1      -3.193   7.438  12.416  1.00  0.00     0.239 A 
ATOM      6  C   UNL     1      -1.675   7.915  14.233  1.00  0.00     0.146 A 
ATOM      7  O   UNL     1      -3.542   7.506  11.208  1.00  0.00    -0.285 OA
ATOM      8  C   UNL     1      -2.111   8.200  12.913  1.00  0.00     0.111 A 
ATOM      9  C   UNL     1      -0.561   8.567  14.769  1.00  0.00     0.094 A 
ATOM     10  C   UNL     1      -1.421   9.204  12.170  1.00  0.00     0.134 A 
ATOM     11  C   UNL     1       0.143   9.500  14.012  1.00  0.00     0.123 A 
ATOM     12  C   UNL     1      -0.285   9.810  12.718  1.00  0.00     0.093 A 
BRANCH   3  13
ATOM     13  C   UNL     1      -3.979   5.359  15.493  1.00  0.00     0.025 A 
ATOM     14  C   UNL     1      -3.769   3.984  15.305  1.00  0.00     0.016 A 
ATOM     15  C   UNL     1      -4.340   3.055  16.177  1.00  0.00     0.051 A 
ATOM     16  C   UNL     1      -5.141   3.485  17.244  1.00  0.00     0.157 A 
ATOM     17  C   UNL     1      -4.802   5.787  16.550  1.00  0.00     0.062 A 
ATOM     18  C   UNL     1      -5.376   4.858  17.426  1.00  0.00     0.158 A 
BRANCH  16  19
ATOM     19  O   UNL     1      -5.705   2.556  18.116  1.00  0.00    -0.504 OA
ATOM     20  H   UNL     1      -6.100   1.686  17.781  1.00  0.00     0.293 HD
ENDBRANCH  16  19
BRANCH  18  21
ATOM     21  O   UNL     1      -6.180   5.319  18.469  1.00  0.00    -0.504 OA
ATOM     22  H   UNL     1      -6.238   4.836  19.358  1.00  0.00     0.293 HD
ENDBRANCH  18  21
ENDBRANCH   3  13
BRANCH  10  23
ATOM     23  O   UNL     1      -1.830   9.659  10.914  1.00  0.00    -0.507 OA
ATOM     24  H   UNL     1      -1.208  10.021  10.206  1.00  0.00     0.293 HD
ENDBRANCH  10  23
BRANCH  11  25
ATOM     25  O   UNL     1       1.265  10.121  14.557  1.00  0.00    -0.508 OA
ATOM     26  H   UNL     1       1.534  11.060  14.288  1.00  0.00     0.293 HD
ENDBRANCH  11  25
ENDBRANCH   1   2
BRANCH   1  27
ATOM     27  C   UNL     1      -6.234   6.489  12.471  1.00  0.00     0.339 C 
ATOM     28  C   UNL     1      -6.959   5.710  11.343  1.00  0.00     0.214 C 
ATOM     29  O   UNL     1      -7.001   6.757  13.645  1.00  0.00    -0.332 OA
ATOM     30  C   UNL     1      -8.260   6.455  10.962  1.00  0.00     0.180 C 
ATOM     31  C   UNL     1      -8.390   6.488  13.529  1.00  0.00     0.179 C 
ATOM     32  C   UNL     1      -9.002   7.028  12.206  1.00  0.00     0.177 C 
BRANCH  28  33
ATOM     33  O   UNL     1      -7.232   4.394  11.756  1.00  0.00    -0.384 OA
ATOM     34  H   UNL     1      -6.433   4.071  12.249  1.00  0.00     0.211 HD
ENDBRANCH  28  33
BRANCH  30  35
ATOM     35  O   UNL     1      -9.103   5.638  10.185  1.00  0.00    -0.387 OA
ATOM     36  H   UNL     1      -8.534   5.126   9.553  1.00  0.00     0.211 HD
ENDBRANCH  30  35
BRANCH  31  37
ATOM     37  C   UNL     1      -9.117   7.037  14.767  1.00  0.00     0.191 C 
BRANCH  37  38
ATOM     38  O   UNL     1      -8.802   6.299  15.919  1.00  0.00    -0.394 OA
ATOM     39  H   UNL     1      -9.028   5.353  15.723  1.00  0.00     0.210 HD
ENDBRANCH  37  38
ENDBRANCH  31  37
BRANCH  32  40
ATOM     40  O   UNL     1      -9.001   8.436  12.178  1.00  0.00    -0.387 OA
ATOM     41  H   UNL     1      -8.139   8.732  11.787  1.00  0.00     0.211 HD
ENDBRANCH  32  40
ENDBRANCH   1  27
TORSDOF 12
ENDMDL
MODEL 8
REMARK VINA RESULT:    -5.044     12.395     18.677
REMARK INTER + INTRA:          -8.466
REMARK INTER:                  -7.418
REMARK INTRA:                  -1.048
REMARK UNBOUND:                -1.064
REMARK SMILES O=c1c(O[C@@H]2O[C@@H](CO)[C@@H](O)[C@H](O)[C@@H]2O)c(-c2ccc(O)c(O)c2)oc2cc(O)cc(O)c12
REMARK SMILES IDX 4 1 3 2 16 3 25 4 2 5 26 6 1 7 33 8 27 9 31 10 28 11 30 12
REMARK SMILES IDX 17 13 18 14 19 15 20 16 24 17 22 18 21 19 23 21 32 23 29 25
REMARK SMILES IDX 5 27 14 28 6 29 12 30 7 31 10 32 15 33 13 35 8 37 9 38 11 40
REMARK H PARENT 21 20 23 22 32 24 29 26 15 34 13 36 9 39 11 41
REMARK Flexibility Score: inf
ROOT
ATOM      1  O   UNL     1      -4.558  -8.427  24.090  1.00  0.00    -0.454 OA
ENDROOT
BRANCH   1   2
ATOM      2  C   UNL     1      -5.304  -7.424  23.456  1.00  0.00     0.214 A 
ATOM      3  C   UNL     1      -6.633  -7.174  23.846  1.00  0.00     0.180 A 
ATOM      4  O   UNL     1      -7.346  -6.253  23.207  1.00  0.00    -0.452 OA
ATOM      5  C   UNL     1      -4.740  -6.643  22.436  1.00  0.00     0.239 A 
ATOM      6  C   UNL     1      -6.869  -5.530  22.200  1.00  0.00     0.146 A 
ATOM      7  O   UNL     1      -3.507  -6.753  22.202  1.00  0.00    -0.285 OA
ATOM      8  C   UNL     1      -5.541  -5.713  21.736  1.00  0.00     0.111 A 
ATOM      9  C   UNL     1      -7.700  -4.571  21.615  1.00  0.00     0.094 A 
ATOM     10  C   UNL     1      -5.094  -4.934  20.627  1.00  0.00     0.134 A 
ATOM     11  C   UNL     1      -7.233  -3.773  20.573  1.00  0.00     0.123 A 
ATOM     12  C   UNL     1      -5.935  -3.954  20.088  1.00  0.00     0.093 A 
BRANCH   3  13
ATOM     13  C   UNL     1      -7.285  -7.924  24.943  1.00  0.00     0.025 A 
ATOM     14  C   UNL     1      -7.524  -9.298  24.792  1.00  0.00     0.016 A 
ATOM     15  C   UNL     1      -8.132 -10.028  25.815  1.00  0.00     0.051 A 
ATOM     16  C   UNL     1      -8.523  -9.393  27.002  1.00  0.00     0.157 A 
ATOM     17  C   UNL     1      -7.701  -7.284  26.126  1.00  0.00     0.062 A 
ATOM     18  C   UNL     1      -8.310  -8.013  27.153  1.00  0.00     0.158 A 
BRANCH  16  19
ATOM     19  O   UNL     1      -9.125 -10.125  28.023  1.00  0.00    -0.504 OA
ATOM     20  H   UNL     1      -8.702 -10.203  28.941  1.00  0.00     0.293 HD
ENDBRANCH  16  19
BRANCH  18  21
ATOM     21  O   UNL     1      -8.701  -7.347  28.315  1.00  0.00    -0.504 OA
ATOM     22  H   UNL     1      -8.214  -7.471  29.195  1.00  0.00     0.293 HD
ENDBRANCH  18  21
ENDBRANCH   3  13
BRANCH  10  23
ATOM     23  O   UNL     1      -3.856  -5.111  20.004  1.00  0.00    -0.507 OA
ATOM     24  H   UNL     1      -2.994  -4.684  20.312  1.00  0.00     0.293 HD
ENDBRANCH  10  23
BRANCH  11  25
ATOM     25  O   UNL     1      -8.070  -2.806  20.019  1.00  0.00    -0.508 OA
ATOM     26  H   UNL     1      -7.758  -2.203  19.267  1.00  0.00     0.293 HD
ENDBRANCH  11  25
ENDBRANCH   1   2
BRANCH   1  27
ATOM     27  C   UNL     1      -4.116  -8.358  25.450  1.00  0.00     0.339 C 
ATOM     28  C   UNL     1      -2.844  -9.218  25.665  1.00  0.00     0.214 C 
ATOM     29  O   UNL     1      -4.036  -6.997  25.872  1.00  0.00    -0.332 OA
ATOM     30  C   UNL     1      -2.428  -9.153  27.152  1.00  0.00     0.180 C 
ATOM     31  C   UNL     1      -2.890  -6.675  26.648  1.00  0.00     0.179 C 
ATOM     32  C   UNL     1      -2.596  -7.726  27.755  1.00  0.00     0.177 C 
BRANCH  28  33
ATOM     33  O   UNL     1      -1.805  -8.769  24.829  1.00  0.00    -0.384 OA
ATOM     34  H   UNL     1      -0.969  -9.201  25.146  1.00  0.00     0.211 HD
ENDBRANCH  28  33
BRANCH  30  35
ATOM     35  O   UNL     1      -1.121  -9.643  27.336  1.00  0.00    -0.387 OA
ATOM     36  H   UNL     1      -0.857  -9.463  28.277  1.00  0.00     0.211 HD
ENDBRANCH  30  35
BRANCH  31  37
ATOM     37  C   UNL     1      -3.050  -5.259  27.225  1.00  0.00     0.191 C 
BRANCH  37  38
ATOM     38  O   UNL     1      -2.565  -5.181  28.539  1.00  0.00    -0.394 OA
ATOM     39  H   UNL     1      -1.632  -4.847  28.480  1.00  0.00     0.210 HD
ENDBRANCH  37  38
ENDBRANCH  31  37
BRANCH  32  40
ATOM     40  O   UNL     1      -3.596  -7.722  28.745  1.00  0.00    -0.387 OA
ATOM     41  H   UNL     1      -3.623  -6.815  29.147  1.00  0.00     0.211 HD
ENDBRANCH  32  40
ENDBRANCH   1  27
TORSDOF 12
ENDMDL
MODEL 9
REMARK VINA RESULT:    -4.803      1.580      4.219
REMARK INTER + INTRA:          -8.114
REMARK INTER:                  -8.347
REMARK INTRA:                   0.233
REMARK UNBOUND:                -1.064
REMARK SMILES O=c1c(O[C@@H]2O[C@@H](CO)[C@@H](O)[C@H](O)[C@@H]2O)c(-c2ccc(O)c(O)c2)oc2cc(O)cc(O)c12
REMARK SMILES IDX 4 1 3 2 16 3 25 4 2 5 26 6 1 7 33 8 27 9 31 10 28 11 30 12
REMARK SMILES IDX 17 13 18 14 19 15 20 16 24 17 22 18 21 19 23 21 32 23 29 25
REMARK SMILES IDX 5 27 14 28 6 29 12 30 7 31 10 32 15 33 13 35 8 37 9 38 11 40
REMARK H PARENT 21 20 23 22 32 24 29 26 15 34 13 36 9 39 11 41
REMARK Flexibility Score: inf
ROOT
ATOM      1  O   UNL     1      -3.462   6.552  14.335  1.00  0.00    -0.454 OA
ENDROOT
BRANCH   1   2
ATOM      2  C   UNL     1      -3.897   5.492  15.144  1.00  0.00     0.214 A 
ATOM      3  C   UNL     1      -5.250   5.394  15.518  1.00  0.00     0.180 A 
ATOM      4  O   UNL     1      -5.642   4.412  16.322  1.00  0.00    -0.452 OA
ATOM      5  C   UNL     1      -3.000   4.506  15.580  1.00  0.00     0.239 A 
ATOM      6  C   UNL     1      -4.817   3.489  16.803  1.00  0.00     0.146 A 
ATOM      7  O   UNL     1      -1.831   4.501  15.112  1.00  0.00    -0.285 OA
ATOM      8  C   UNL     1      -3.435   3.508  16.482  1.00  0.00     0.111 A 
ATOM      9  C   UNL     1      -5.342   2.486  17.622  1.00  0.00     0.094 A 
ATOM     10  C   UNL     1      -2.589   2.513  17.056  1.00  0.00     0.134 A 
ATOM     11  C   UNL     1      -4.517   1.483  18.128  1.00  0.00     0.123 A 
ATOM     12  C   UNL     1      -3.150   1.498  17.840  1.00  0.00     0.093 A 
BRANCH   3  13
ATOM     13  C   UNL     1      -6.265   6.370  15.062  1.00  0.00     0.025 A 
ATOM     14  C   UNL     1      -6.308   7.644  15.648  1.00  0.00     0.016 A 
ATOM     15  C   UNL     1      -7.253   8.584  15.229  1.00  0.00     0.051 A 
ATOM     16  C   UNL     1      -8.178   8.259  14.228  1.00  0.00     0.157 A 
ATOM     17  C   UNL     1      -7.211   6.039  14.074  1.00  0.00     0.062 A 
ATOM     18  C   UNL     1      -8.159   6.978  13.652  1.00  0.00     0.158 A 
BRANCH  16  19
ATOM     19  O   UNL     1      -9.117   9.201  13.809  1.00  0.00    -0.504 OA
ATOM     20  H   UNL     1     -10.033   8.926  13.477  1.00  0.00     0.293 HD
ENDBRANCH  16  19
BRANCH  18  21
ATOM     21  O   UNL     1      -9.075   6.618  12.664  1.00  0.00    -0.504 OA
ATOM     22  H   UNL     1      -8.895   6.778  11.680  1.00  0.00     0.293 HD
ENDBRANCH  18  21
ENDBRANCH   3  13
BRANCH  10  23
ATOM     23  O   UNL     1      -1.198   2.501  16.915  1.00  0.00    -0.507 OA
ATOM     24  H   UNL     1      -0.548   2.365  17.675  1.00  0.00     0.293 HD
ENDBRANCH  10  23
BRANCH  11  25
ATOM     25  O   UNL     1      -5.065   0.479  18.924  1.00  0.00    -0.508 OA
ATOM     26  H   UNL     1      -5.743   0.687  19.647  1.00  0.00     0.293 HD
ENDBRANCH  11  25
ENDBRANCH   1   2
BRANCH   1  27
ATOM     27  C   UNL     1      -4.266   7.173  13.327  1.00  0.00     0.339 C 
ATOM     28  C   UNL     1      -3.600   8.473  12.807  1.00  0.00     0.214 C 
ATOM     29  O   UNL     1      -4.638   6.215  12.336  1.00  0.00    -0.332 OA
ATOM     30  C   UNL     1      -4.520   9.135  11.756  1.00  0.00     0.180 C 
ATOM     31  C   UNL     1      -4.567   6.679  10.996  1.00  0.00     0.179 C 
ATOM     32  C   UNL     1      -5.191   8.092  10.812  1.00  0.00     0.177 C 
BRANCH  28  33
ATOM     33  O   UNL     1      -2.334   8.188  12.263  1.00  0.00    -0.384 OA
ATOM     34  H   UNL     1      -1.659   8.434  12.949  1.00  0.00     0.211 HD
ENDBRANCH  28  33
BRANCH  30  35
ATOM     35  O   UNL     1      -3.832  10.125  11.029  1.00  0.00    -0.387 OA
ATOM     36  H   UNL     1      -2.902  10.165  11.375  1.00  0.00     0.211 HD
ENDBRANCH  30  35
BRANCH  31  37
ATOM     37  C   UNL     1      -5.212   5.639  10.065  1.00  0.00     0.191 C 
BRANCH  37  38
ATOM     38  O   UNL     1      -6.458   5.215  10.552  1.00  0.00    -0.394 OA
ATOM     39  H   UNL     1      -6.571   5.629  11.446  1.00  0.00     0.210 HD
ENDBRANCH  37  38
ENDBRANCH  31  37
BRANCH  32  40
ATOM     40  O   UNL     1      -6.584   8.068  11.011  1.00  0.00    -0.387 OA
ATOM     41  H   UNL     1      -6.831   8.877  11.529  1.00  0.00     0.211 HD
ENDBRANCH  32  40
ENDBRANCH   1  27
TORSDOF 12
ENDMDL
