MODEL 1
REMARK VINA RESULT:    -3.174      0.000      0.000
REMARK INTER + INTRA:          -8.137
REMARK INTER:                  -5.772
REMARK INTRA:                  -2.364
REMARK UNBOUND:                -2.364
REMARK SMILES CCCCCCCCCCCCCCCC(=O)[O-]
REMARK SMILES IDX 9 1 10 2 11 3 12 4 13 5 14 6 15 7 16 8 17 9 18 10 8 11 7 12
REMARK SMILES IDX 6 13 5 14 4 15 3 16 2 17 1 18
REMARK H PARENT
REMARK Flexibility Score: inf
ROOT
ATOM      1  C   UNL     1      61.347  31.519  58.837  1.00  0.00     0.000 C 
ENDROOT
BRANCH   1   2
ATOM      2  C   UNL     1      60.326  31.503  59.996  1.00  0.00     0.000 C 
BRANCH   2   3
ATOM      3  C   UNL     1      60.974  31.453  61.393  1.00  0.00     0.000 C 
BRANCH   3   4
ATOM      4  C   UNL     1      61.805  30.187  61.678  1.00  0.00     0.000 C 
BRANCH   4   5
ATOM      5  C   UNL     1      63.334  30.394  61.682  1.00  0.00     0.000 C 
BRANCH   5   6
ATOM      6  C   UNL     1      64.113  29.545  60.656  1.00  0.00     0.006 C 
BRANCH   6   7
ATOM      7  C   UNL     1      65.625  29.820  60.622  1.00  0.00     0.053 C 
BRANCH   7   8
ATOM      8  C   UNL     1      66.424  28.597  60.955  1.00  0.00     0.041 C 
ATOM      9  O   UNL     1      66.120  27.485  60.448  1.00  0.00    -0.550 OA
ATOM     10  O   UNL     1      67.524  28.692  61.797  1.00  0.00    -0.550 OA
ENDBRANCH   7   8
ENDBRANCH   6   7
ENDBRANCH   5   6
ENDBRANCH   4   5
ENDBRANCH   3   4
ENDBRANCH   2   3
ENDBRANCH   1   2
BRANCH   1  11
ATOM     11  C   UNL     1      61.336  32.845  58.060  1.00  0.00     0.000 C 
BRANCH  11  12
ATOM     12  C   UNL     1      60.335  33.834  58.674  1.00  0.00    -0.000 C 
BRANCH  12  13
ATOM     13  C   UNL     1      61.004  35.132  59.156  1.00  0.00    -0.000 C 
BRANCH  13  14
ATOM     14  C   UNL     1      61.428  35.068  60.631  1.00  0.00    -0.000 C 
BRANCH  14  15
ATOM     15  C   UNL     1      62.940  35.299  60.777  1.00  0.00    -0.000 C 
BRANCH  15  16
ATOM     16  C   UNL     1      63.721  34.002  61.053  1.00  0.00    -0.000 C 
BRANCH  16  17
ATOM     17  C   UNL     1      64.423  33.394  59.825  1.00  0.00    -0.003 C 
ATOM     18  C   UNL     1      64.689  34.417  58.721  1.00  0.00     0.004 C 
ENDBRANCH  16  17
ENDBRANCH  15  16
ENDBRANCH  14  15
ENDBRANCH  13  14
ENDBRANCH  12  13
ENDBRANCH  11  12
ENDBRANCH   1  11
TORSDOF 14
ENDMDL
MODEL 2
REMARK VINA RESULT:    -3.115     10.264     12.459
REMARK INTER + INTRA:          -8.028
REMARK INTER:                  -6.375
REMARK INTRA:                  -1.654
REMARK UNBOUND:                -2.364
REMARK SMILES CCCCCCCCCCCCCCCC(=O)[O-]
REMARK SMILES IDX 9 1 10 2 11 3 12 4 13 5 14 6 15 7 16 8 17 9 18 10 8 11 7 12
REMARK SMILES IDX 6 13 5 14 4 15 3 16 2 17 1 18
REMARK H PARENT
REMARK Flexibility Score: inf
ROOT
ATOM      1  C   UNL     1      59.409  27.094  49.815  1.00  0.00     0.000 C 
ENDROOT
BRANCH   1   2
ATOM      2  C   UNL     1      60.756  26.352  49.952  1.00  0.00     0.000 C 
BRANCH   2   3
ATOM      3  C   UNL     1      61.807  27.120  50.775  1.00  0.00     0.000 C 
BRANCH   3   4
ATOM      4  C   UNL     1      61.278  27.752  52.077  1.00  0.00     0.000 C 
BRANCH   4   5
ATOM      5  C   UNL     1      61.370  29.291  52.142  1.00  0.00     0.000 C 
BRANCH   5   6
ATOM      6  C   UNL     1      62.187  29.947  51.010  1.00  0.00     0.006 C 
BRANCH   6   7
ATOM      7  C   UNL     1      61.552  31.217  50.422  1.00  0.00     0.053 C 
BRANCH   7   8
ATOM      8  C   UNL     1      62.489  31.937  49.501  1.00  0.00     0.041 C 
ATOM      9  O   UNL     1      62.306  33.154  49.237  1.00  0.00    -0.550 OA
ATOM     10  O   UNL     1      63.582  31.273  48.961  1.00  0.00    -0.550 OA
ENDBRANCH   7   8
ENDBRANCH   6   7
ENDBRANCH   5   6
ENDBRANCH   4   5
ENDBRANCH   3   4
ENDBRANCH   2   3
ENDBRANCH   1   2
BRANCH   1  11
ATOM     11  C   UNL     1      59.525  28.379  48.979  1.00  0.00     0.000 C 
BRANCH  11  12
ATOM     12  C   UNL     1      58.516  29.436  49.453  1.00  0.00    -0.000 C 
BRANCH  12  13
ATOM     13  C   UNL     1      57.828  29.048  50.772  1.00  0.00    -0.000 C 
BRANCH  13  14
ATOM     14  C   UNL     1      56.307  29.261  50.732  1.00  0.00    -0.000 C 
BRANCH  14  15
ATOM     15  C   UNL     1      55.586  27.978  50.291  1.00  0.00    -0.000 C 
BRANCH  15  16
ATOM     16  C   UNL     1      54.059  28.151  50.194  1.00  0.00    -0.000 C 
BRANCH  16  17
ATOM     17  C   UNL     1      53.328  27.033  49.429  1.00  0.00    -0.003 C 
ATOM     18  C   UNL     1      54.145  25.746  49.323  1.00  0.00     0.004 C 
ENDBRANCH  16  17
ENDBRANCH  15  16
ENDBRANCH  14  15
ENDBRANCH  13  14
ENDBRANCH  12  13
ENDBRANCH  11  12
ENDBRANCH   1  11
TORSDOF 14
ENDMDL
MODEL 3
REMARK VINA RESULT:    -3.064      9.642     11.859
REMARK INTER + INTRA:          -7.936
REMARK INTER:                  -5.251
REMARK INTRA:                  -2.685
REMARK UNBOUND:                -2.364
REMARK SMILES CCCCCCCCCCCCCCCC(=O)[O-]
REMARK SMILES IDX 9 1 10 2 11 3 12 4 13 5 14 6 15 7 16 8 17 9 18 10 8 11 7 12
REMARK SMILES IDX 6 13 5 14 4 15 3 16 2 17 1 18
REMARK H PARENT
REMARK Flexibility Score: inf
ROOT
ATOM      1  C   UNL     1      59.955  29.732  51.649  1.00  0.00     0.000 C 
ENDROOT
BRANCH   1   2
ATOM      2  C   UNL     1      58.579  29.950  50.983  1.00  0.00     0.000 C 
BRANCH   2   3
ATOM      3  C   UNL     1      58.462  29.324  49.581  1.00  0.00     0.000 C 
BRANCH   3   4
ATOM      4  C   UNL     1      59.620  28.385  49.190  1.00  0.00     0.000 C 
BRANCH   4   5
ATOM      5  C   UNL     1      59.324  26.879  49.351  1.00  0.00     0.000 C 
BRANCH   5   6
ATOM      6  C   UNL     1      60.417  26.071  50.080  1.00  0.00     0.006 C 
BRANCH   6   7
ATOM      7  C   UNL     1      61.770  26.791  50.195  1.00  0.00     0.053 C 
BRANCH   7   8
ATOM      8  C   UNL     1      62.904  25.828  50.372  1.00  0.00     0.041 C 
ATOM      9  O   UNL     1      64.090  26.203  50.176  1.00  0.00    -0.550 OA
ATOM     10  O   UNL     1      62.654  24.526  50.786  1.00  0.00    -0.550 OA
ENDBRANCH   7   8
ENDBRANCH   6   7
ENDBRANCH   5   6
ENDBRANCH   4   5
ENDBRANCH   3   4
ENDBRANCH   2   3
ENDBRANCH   1   2
BRANCH   1  11
ATOM     11  C   UNL     1      59.877  28.814  52.879  1.00  0.00     0.000 C 
BRANCH  11  12
ATOM     12  C   UNL     1      58.459  28.250  53.054  1.00  0.00    -0.000 C 
BRANCH  12  13
ATOM     13  C   UNL     1      58.432  26.713  53.080  1.00  0.00    -0.000 C 
BRANCH  13  14
ATOM     14  C   UNL     1      57.312  26.124  52.209  1.00  0.00    -0.000 C 
BRANCH  14  15
ATOM     15  C   UNL     1      56.262  27.193  51.871  1.00  0.00    -0.000 C 
BRANCH  15  16
ATOM     16  C   UNL     1      55.748  27.093  50.423  1.00  0.00    -0.000 C 
BRANCH  16  17
ATOM     17  C   UNL     1      54.576  28.031  50.085  1.00  0.00    -0.003 C 
ATOM     18  C   UNL     1      54.765  29.445  50.631  1.00  0.00     0.004 C 
ENDBRANCH  16  17
ENDBRANCH  15  16
ENDBRANCH  14  15
ENDBRANCH  13  14
ENDBRANCH  12  13
ENDBRANCH  11  12
ENDBRANCH   1  11
TORSDOF 14
ENDMDL
MODEL 4
REMARK VINA RESULT:    -3.064     10.745     13.108
REMARK INTER + INTRA:          -7.936
REMARK INTER:                  -5.549
REMARK INTRA:                  -2.387
REMARK UNBOUND:                -2.364
REMARK SMILES CCCCCCCCCCCCCCCC(=O)[O-]
REMARK SMILES IDX 9 1 10 2 11 3 12 4 13 5 14 6 15 7 16 8 17 9 18 10 8 11 7 12
REMARK SMILES IDX 6 13 5 14 4 15 3 16 2 17 1 18
REMARK H PARENT
REMARK Flexibility Score: inf
ROOT
ATOM      1  C   UNL     1      57.890  26.084  52.383  1.00  0.00     0.000 C 
ENDROOT
BRANCH   1   2
ATOM      2  C   UNL     1      56.399  26.438  52.192  1.00  0.00     0.000 C 
BRANCH   2   3
ATOM      3  C   UNL     1      55.793  25.889  50.887  1.00  0.00     0.000 C 
BRANCH   3   4
ATOM      4  C   UNL     1      55.322  26.962  49.887  1.00  0.00     0.000 C 
BRANCH   4   5
ATOM      5  C   UNL     1      53.792  27.103  49.750  1.00  0.00     0.000 C 
BRANCH   5   6
ATOM      6  C   UNL     1      53.230  28.500  50.085  1.00  0.00     0.006 C 
BRANCH   6   7
ATOM      7  C   UNL     1      54.292  29.530  50.501  1.00  0.00     0.053 C 
BRANCH   7   8
ATOM      8  C   UNL     1      54.246  29.821  51.970  1.00  0.00     0.041 C 
ATOM      9  O   UNL     1      53.870  28.933  52.780  1.00  0.00    -0.550 OA
ATOM     10  O   UNL     1      54.648  31.062  52.448  1.00  0.00    -0.550 OA
ENDBRANCH   7   8
ENDBRANCH   6   7
ENDBRANCH   5   6
ENDBRANCH   4   5
ENDBRANCH   3   4
ENDBRANCH   2   3
ENDBRANCH   1   2
BRANCH   1  11
ATOM     11  C   UNL     1      58.461  25.277  51.206  1.00  0.00     0.000 C 
BRANCH  11  12
ATOM     12  C   UNL     1      59.593  26.047  50.509  1.00  0.00    -0.000 C 
BRANCH  12  13
ATOM     13  C   UNL     1      59.081  26.971  49.391  1.00  0.00    -0.000 C 
BRANCH  13  14
ATOM     14  C   UNL     1      59.844  28.303  49.326  1.00  0.00    -0.000 C 
BRANCH  14  15
ATOM     15  C   UNL     1      58.873  29.493  49.376  1.00  0.00    -0.000 C 
BRANCH  15  16
ATOM     16  C   UNL     1      57.888  29.415  50.556  1.00  0.00    -0.000 C 
BRANCH  16  17
ATOM     17  C   UNL     1      58.226  30.332  51.745  1.00  0.00    -0.003 C 
ATOM     18  C   UNL     1      57.837  29.730  53.095  1.00  0.00     0.004 C 
ENDBRANCH  16  17
ENDBRANCH  15  16
ENDBRANCH  14  15
ENDBRANCH  13  14
ENDBRANCH  12  13
ENDBRANCH  11  12
ENDBRANCH   1  11
TORSDOF 14
ENDMDL
MODEL 5
REMARK VINA RESULT:    -3.042      3.524      6.370
REMARK INTER + INTRA:          -7.896
REMARK INTER:                  -5.870
REMARK INTRA:                  -2.026
REMARK UNBOUND:                -2.364
REMARK SMILES CCCCCCCCCCCCCCCC(=O)[O-]
REMARK SMILES IDX 9 1 10 2 11 3 12 4 13 5 14 6 15 7 16 8 17 9 18 10 8 11 7 12
REMARK SMILES IDX 6 13 5 14 4 15 3 16 2 17 1 18
REMARK H PARENT
REMARK Flexibility Score: inf
ROOT
ATOM      1  C   UNL     1      63.218  33.152  59.565  1.00  0.00     0.000 C 
ENDROOT
BRANCH   1   2
ATOM      2  C   UNL     1      63.985  33.238  60.903  1.00  0.00     0.000 C 
BRANCH   2   3
ATOM      3  C   UNL     1      64.196  34.679  61.406  1.00  0.00     0.000 C 
BRANCH   3   4
ATOM      4  C   UNL     1      63.487  35.766  60.576  1.00  0.00     0.000 C 
BRANCH   4   5
ATOM      5  C   UNL     1      62.238  36.385  61.238  1.00  0.00     0.000 C 
BRANCH   5   6
ATOM      6  C   UNL     1      60.892  35.983  60.601  1.00  0.00     0.006 C 
BRANCH   6   7
ATOM      7  C   UNL     1      60.705  36.464  59.154  1.00  0.00     0.053 C 
BRANCH   7   8
ATOM      8  C   UNL     1      60.532  35.320  58.201  1.00  0.00     0.041 C 
ATOM      9  O   UNL     1      59.563  34.528  58.333  1.00  0.00    -0.550 OA
ATOM     10  O   UNL     1      61.422  35.150  57.149  1.00  0.00    -0.550 OA
ENDBRANCH   7   8
ENDBRANCH   6   7
ENDBRANCH   5   6
ENDBRANCH   4   5
ENDBRANCH   3   4
ENDBRANCH   2   3
ENDBRANCH   1   2
BRANCH   1  11
ATOM     11  C   UNL     1      62.033  32.175  59.626  1.00  0.00     0.000 C 
BRANCH  11  12
ATOM     12  C   UNL     1      61.172  32.433  60.871  1.00  0.00    -0.000 C 
BRANCH  12  13
ATOM     13  C   UNL     1      60.862  31.146  61.654  1.00  0.00    -0.000 C 
BRANCH  13  14
ATOM     14  C   UNL     1      62.091  30.238  61.812  1.00  0.00    -0.000 C 
BRANCH  14  15
ATOM     15  C   UNL     1      61.760  28.794  61.405  1.00  0.00    -0.000 C 
BRANCH  15  16
ATOM     16  C   UNL     1      62.261  28.439  59.993  1.00  0.00    -0.000 C 
BRANCH  16  17
ATOM     17  C   UNL     1      63.756  28.713  59.748  1.00  0.00    -0.003 C 
ATOM     18  C   UNL     1      64.673  27.828  60.591  1.00  0.00     0.004 C 
ENDBRANCH  16  17
ENDBRANCH  15  16
ENDBRANCH  14  15
ENDBRANCH  13  14
ENDBRANCH  12  13
ENDBRANCH  11  12
ENDBRANCH   1  11
TORSDOF 14
ENDMDL
MODEL 6
REMARK VINA RESULT:    -3.035      1.221      2.309
REMARK INTER + INTRA:          -7.882
REMARK INTER:                  -6.226
REMARK INTRA:                  -1.657
REMARK UNBOUND:                -2.364
REMARK SMILES CCCCCCCCCCCCCCCC(=O)[O-]
REMARK SMILES IDX 9 1 10 2 11 3 12 4 13 5 14 6 15 7 16 8 17 9 18 10 8 11 7 12
REMARK SMILES IDX 6 13 5 14 4 15 3 16 2 17 1 18
REMARK H PARENT
REMARK Flexibility Score: inf
ROOT
ATOM      1  C   UNL     1      62.226  33.473  60.685  1.00  0.00     0.000 C 
ENDROOT
BRANCH   1   2
ATOM      2  C   UNL     1      61.161  32.412  60.331  1.00  0.00     0.000 C 
BRANCH   2   3
ATOM      3  C   UNL     1      60.680  31.588  61.540  1.00  0.00     0.000 C 
BRANCH   3   4
ATOM      4  C   UNL     1      61.461  30.283  61.788  1.00  0.00     0.000 C 
BRANCH   4   5
ATOM      5  C   UNL     1      62.618  30.015  60.803  1.00  0.00     0.000 C 
BRANCH   5   6
ATOM      6  C   UNL     1      64.033  30.150  61.401  1.00  0.00     0.006 C 
BRANCH   6   7
ATOM      7  C   UNL     1      65.173  29.961  60.388  1.00  0.00     0.053 C 
BRANCH   7   8
ATOM      8  C   UNL     1      66.080  28.831  60.770  1.00  0.00     0.041 C 
ATOM      9  O   UNL     1      65.730  27.640  60.562  1.00  0.00    -0.550 OA
ATOM     10  O   UNL     1      67.326  29.095  61.324  1.00  0.00    -0.550 OA
ENDBRANCH   7   8
ENDBRANCH   6   7
ENDBRANCH   5   6
ENDBRANCH   4   5
ENDBRANCH   3   4
ENDBRANCH   2   3
ENDBRANCH   1   2
BRANCH   1  11
ATOM     11  C   UNL     1      61.716  34.909  60.491  1.00  0.00     0.000 C 
BRANCH  11  12
ATOM     12  C   UNL     1      62.691  35.926  61.101  1.00  0.00    -0.000 C 
BRANCH  12  13
ATOM     13  C   UNL     1      63.996  35.276  61.592  1.00  0.00    -0.000 C 
BRANCH  13  14
ATOM     14  C   UNL     1      65.248  36.034  61.127  1.00  0.00    -0.000 C 
BRANCH  14  15
ATOM     15  C   UNL     1      65.072  36.556  59.693  1.00  0.00    -0.000 C 
BRANCH  15  16
ATOM     16  C   UNL     1      65.620  35.586  58.631  1.00  0.00    -0.000 C 
BRANCH  16  17
ATOM     17  C   UNL     1      64.590  34.589  58.070  1.00  0.00    -0.003 C 
ATOM     18  C   UNL     1      65.011  33.131  58.245  1.00  0.00     0.004 C 
ENDBRANCH  16  17
ENDBRANCH  15  16
ENDBRANCH  14  15
ENDBRANCH  13  14
ENDBRANCH  12  13
ENDBRANCH  11  12
ENDBRANCH   1  11
TORSDOF 14
ENDMDL
MODEL 7
REMARK VINA RESULT:    -3.020      3.605      5.503
REMARK INTER + INTRA:          -7.855
REMARK INTER:                  -5.622
REMARK INTRA:                  -2.234
REMARK UNBOUND:                -2.364
REMARK SMILES CCCCCCCCCCCCCCCC(=O)[O-]
REMARK SMILES IDX 9 1 10 2 11 3 12 4 13 5 14 6 15 7 16 8 17 9 18 10 8 11 7 12
REMARK SMILES IDX 6 13 5 14 4 15 3 16 2 17 1 18
REMARK H PARENT
REMARK Flexibility Score: inf
ROOT
ATOM      1  C   UNL     1      63.165  28.567  60.299  1.00  0.00     0.000 C 
ENDROOT
BRANCH   1   2
ATOM      2  C   UNL     1      62.031  28.458  61.342  1.00  0.00     0.000 C 
BRANCH   2   3
ATOM      3  C   UNL     1      60.872  29.443  61.104  1.00  0.00     0.000 C 
BRANCH   3   4
ATOM      4  C   UNL     1      61.037  30.817  61.782  1.00  0.00     0.000 C 
BRANCH   4   5
ATOM      5  C   UNL     1      60.721  32.032  60.886  1.00  0.00     0.000 C 
BRANCH   5   6
ATOM      6  C   UNL     1      60.555  31.714  59.385  1.00  0.00     0.006 C 
BRANCH   6   7
ATOM      7  C   UNL     1      60.705  32.931  58.458  1.00  0.00     0.053 C 
BRANCH   7   8
ATOM      8  C   UNL     1      59.377  33.467  58.019  1.00  0.00     0.041 C 
ATOM      9  O   UNL     1      59.267  34.669  57.661  1.00  0.00    -0.550 OA
ATOM     10  O   UNL     1      58.269  32.632  57.973  1.00  0.00    -0.550 OA
ENDBRANCH   7   8
ENDBRANCH   6   7
ENDBRANCH   5   6
ENDBRANCH   4   5
ENDBRANCH   3   4
ENDBRANCH   2   3
ENDBRANCH   1   2
BRANCH   1  11
ATOM     11  C   UNL     1      64.491  29.037  60.916  1.00  0.00     0.000 C 
BRANCH  11  12
ATOM     12  C   UNL     1      64.590  30.570  60.906  1.00  0.00    -0.000 C 
BRANCH  12  13
ATOM     13  C   UNL     1      64.229  31.178  59.541  1.00  0.00    -0.000 C 
BRANCH  13  14
ATOM     14  C   UNL     1      64.336  32.710  59.527  1.00  0.00    -0.000 C 
BRANCH  14  15
ATOM     15  C   UNL     1      64.069  33.291  60.924  1.00  0.00    -0.000 C 
BRANCH  15  16
ATOM     16  C   UNL     1      63.914  34.822  60.917  1.00  0.00    -0.000 C 
BRANCH  16  17
ATOM     17  C   UNL     1      62.470  35.327  60.750  1.00  0.00    -0.003 C 
ATOM     18  C   UNL     1      62.269  36.750  61.272  1.00  0.00     0.004 C 
ENDBRANCH  16  17
ENDBRANCH  15  16
ENDBRANCH  14  15
ENDBRANCH  13  14
ENDBRANCH  12  13
ENDBRANCH  11  12
ENDBRANCH   1  11
TORSDOF 14
ENDMDL
MODEL 8
REMARK VINA RESULT:    -2.985      2.127      3.761
REMARK INTER + INTRA:          -7.792
REMARK INTER:                  -6.246
REMARK INTRA:                  -1.546
REMARK UNBOUND:                -2.364
REMARK SMILES CCCCCCCCCCCCCCCC(=O)[O-]
REMARK SMILES IDX 9 1 10 2 11 3 12 4 13 5 14 6 15 7 16 8 17 9 18 10 8 11 7 12
REMARK SMILES IDX 6 13 5 14 4 15 3 16 2 17 1 18
REMARK H PARENT
REMARK Flexibility Score: inf
ROOT
ATOM      1  C   UNL     1      64.044  34.366  60.576  1.00  0.00     0.000 C 
ENDROOT
BRANCH   1   2
ATOM      2  C   UNL     1      63.698  32.912  60.967  1.00  0.00     0.000 C 
BRANCH   2   3
ATOM      3  C   UNL     1      62.559  32.299  60.130  1.00  0.00     0.000 C 
BRANCH   3   4
ATOM      4  C   UNL     1      61.187  32.262  60.830  1.00  0.00     0.000 C 
BRANCH   4   5
ATOM      5  C   UNL     1      61.023  31.154  61.891  1.00  0.00     0.000 C 
BRANCH   5   6
ATOM      6  C   UNL     1      62.067  30.020  61.821  1.00  0.00     0.006 C 
BRANCH   6   7
ATOM      7  C   UNL     1      61.578  28.749  61.109  1.00  0.00     0.053 C 
BRANCH   7   8
ATOM      8  C   UNL     1      62.562  27.626  61.230  1.00  0.00     0.041 C 
ATOM      9  O   UNL     1      62.292  26.620  61.937  1.00  0.00    -0.550 OA
ATOM     10  O   UNL     1      63.763  27.674  60.534  1.00  0.00    -0.550 OA
ENDBRANCH   7   8
ENDBRANCH   6   7
ENDBRANCH   5   6
ENDBRANCH   4   5
ENDBRANCH   3   4
ENDBRANCH   2   3
ENDBRANCH   1   2
BRANCH   1  11
ATOM     11  C   UNL     1      64.519  35.202  61.775  1.00  0.00     0.000 C 
BRANCH  11  12
ATOM     12  C   UNL     1      64.034  36.654  61.659  1.00  0.00    -0.000 C 
BRANCH  12  13
ATOM     13  C   UNL     1      63.004  36.846  60.533  1.00  0.00    -0.000 C 
BRANCH  13  14
ATOM     14  C   UNL     1      61.574  37.031  61.063  1.00  0.00    -0.000 C 
BRANCH  14  15
ATOM     15  C   UNL     1      60.647  35.923  60.539  1.00  0.00    -0.000 C 
BRANCH  15  16
ATOM     16  C   UNL     1      60.346  36.055  59.035  1.00  0.00    -0.000 C 
BRANCH  16  17
ATOM     17  C   UNL     1      60.371  34.731  58.251  1.00  0.00    -0.003 C 
ATOM     18  C   UNL     1      61.457  34.692  57.175  1.00  0.00     0.004 C 
ENDBRANCH  16  17
ENDBRANCH  15  16
ENDBRANCH  14  15
ENDBRANCH  13  14
ENDBRANCH  12  13
ENDBRANCH  11  12
ENDBRANCH   1  11
TORSDOF 14
ENDMDL
MODEL 9
REMARK VINA RESULT:    -2.970      1.288      2.103
REMARK INTER + INTRA:          -7.765
REMARK INTER:                  -5.553
REMARK INTRA:                  -2.212
REMARK UNBOUND:                -2.364
REMARK SMILES CCCCCCCCCCCCCCCC(=O)[O-]
REMARK SMILES IDX 9 1 10 2 11 3 12 4 13 5 14 6 15 7 16 8 17 9 18 10 8 11 7 12
REMARK SMILES IDX 6 13 5 14 4 15 3 16 2 17 1 18
REMARK H PARENT
REMARK Flexibility Score: inf
ROOT
ATOM      1  C   UNL     1      60.450  31.772  60.286  1.00  0.00     0.000 C 
ENDROOT
BRANCH   1   2
ATOM      2  C   UNL     1      60.544  31.126  61.686  1.00  0.00     0.000 C 
BRANCH   2   3
ATOM      3  C   UNL     1      61.862  30.367  61.931  1.00  0.00     0.000 C 
BRANCH   3   4
ATOM      4  C   UNL     1      62.146  29.220  60.942  1.00  0.00     0.000 C 
BRANCH   4   5
ATOM      5  C   UNL     1      63.468  29.345  60.157  1.00  0.00     0.000 C 
BRANCH   5   6
ATOM      6  C   UNL     1      64.701  29.721  61.005  1.00  0.00     0.006 C 
BRANCH   6   7
ATOM      7  C   UNL     1      65.997  29.900  60.199  1.00  0.00     0.053 C 
BRANCH   7   8
ATOM      8  C   UNL     1      67.032  28.881  60.568  1.00  0.00     0.041 C 
ATOM      9  O   UNL     1      66.723  27.663  60.640  1.00  0.00    -0.550 OA
ATOM     10  O   UNL     1      68.344  29.273  60.799  1.00  0.00    -0.550 OA
ENDBRANCH   7   8
ENDBRANCH   6   7
ENDBRANCH   5   6
ENDBRANCH   4   5
ENDBRANCH   3   4
ENDBRANCH   2   3
ENDBRANCH   1   2
BRANCH   1  11
ATOM     11  C   UNL     1      61.315  33.037  60.162  1.00  0.00     0.000 C 
BRANCH  11  12
ATOM     12  C   UNL     1      62.356  32.882  59.043  1.00  0.00    -0.000 C 
BRANCH  12  13
ATOM     13  C   UNL     1      63.801  32.999  59.557  1.00  0.00    -0.000 C 
BRANCH  13  14
ATOM     14  C   UNL     1      63.874  33.469  61.018  1.00  0.00    -0.000 C 
BRANCH  14  15
ATOM     15  C   UNL     1      64.425  34.900  61.106  1.00  0.00    -0.000 C 
BRANCH  15  16
ATOM     16  C   UNL     1      63.333  35.948  61.389  1.00  0.00    -0.000 C 
BRANCH  16  17
ATOM     17  C   UNL     1      63.240  37.083  60.353  1.00  0.00    -0.003 C 
ATOM     18  C   UNL     1      62.528  36.663  59.067  1.00  0.00     0.004 C 
ENDBRANCH  16  17
ENDBRANCH  15  16
ENDBRANCH  14  15
ENDBRANCH  13  14
ENDBRANCH  12  13
ENDBRANCH  11  12
ENDBRANCH   1  11
TORSDOF 14
ENDMDL
