MODEL 1
REMARK VINA RESULT:     6.693      0.000      0.000
REMARK INTER + INTRA:          15.783
REMARK INTER:                  16.867
REMARK INTRA:                  -1.084
REMARK UNBOUND:                -1.084
REMARK SMILES CCCCCCCCCCCCCCCCCCCCCCCCCCCC(=O)[O-]
REMARK SMILES IDX 15 1 16 2 17 3 18 4 19 5 20 6 21 7 22 8 23 9 24 10 25 11
REMARK SMILES IDX 26 12 27 13 28 14 29 15 30 16 14 17 13 18 12 19 11 20 10 21
REMARK SMILES IDX 9 22 8 23 7 24 6 25 5 26 4 27 3 28 2 29 1 30
REMARK H PARENT
REMARK Flexibility Score: inf
ROOT
ATOM      1  C   UNL     1      11.901 -15.495  -0.851  1.00  0.00     0.000 C 
ENDROOT
BRANCH   1   2
ATOM      2  C   UNL     1      13.403 -15.345  -0.550  1.00  0.00     0.000 C 
BRANCH   2   3
ATOM      3  C   UNL     1      14.041 -16.636  -0.007  1.00  0.00     0.000 C 
BRANCH   3   4
ATOM      4  C   UNL     1      15.124 -16.365   1.053  1.00  0.00     0.000 C 
BRANCH   4   5
ATOM      5  C   UNL     1      15.116 -17.324   2.258  1.00  0.00     0.000 C 
BRANCH   5   6
ATOM      6  C   UNL     1      14.188 -16.856   3.392  1.00  0.00     0.000 C 
BRANCH   6   7
ATOM      7  C   UNL     1      14.964 -16.201   4.556  1.00  0.00     0.000 C 
BRANCH   7   8
ATOM      8  C   UNL     1      14.500 -16.661   5.952  1.00  0.00     0.000 C 
BRANCH   8   9
ATOM      9  C   UNL     1      13.001 -16.992   6.067  1.00  0.00     0.000 C 
BRANCH   9  10
ATOM     10  C   UNL     1      12.548 -18.241   5.288  1.00  0.00     0.000 C 
BRANCH  10  11
ATOM     11  C   UNL     1      11.135 -18.706   5.672  1.00  0.00     0.000 C 
BRANCH  11  12
ATOM     12  C   UNL     1      10.563 -19.656   4.609  1.00  0.00     0.006 C 
BRANCH  12  13
ATOM     13  C   UNL     1      10.117 -20.997   5.207  1.00  0.00     0.053 C 
BRANCH  13  14
ATOM     14  C   UNL     1      10.999 -22.123   4.762  1.00  0.00     0.041 C 
ATOM     15  O   UNL     1      11.963 -22.498   5.481  1.00  0.00    -0.550 OA
ATOM     16  O   UNL     1      10.735 -22.781   3.566  1.00  0.00    -0.550 OA
ENDBRANCH  13  14
ENDBRANCH  12  13
ENDBRANCH  11  12
ENDBRANCH  10  11
ENDBRANCH   9  10
ENDBRANCH   8   9
ENDBRANCH   7   8
ENDBRANCH   6   7
ENDBRANCH   5   6
ENDBRANCH   4   5
ENDBRANCH   3   4
ENDBRANCH   2   3
ENDBRANCH   1   2
BRANCH   1  17
ATOM     17  C   UNL     1      11.160 -14.184  -1.174  1.00  0.00     0.000 C 
BRANCH  17  18
ATOM     18  C   UNL     1      11.227 -13.805  -2.661  1.00  0.00     0.000 C 
BRANCH  18  19
ATOM     19  C   UNL     1      12.562 -13.125  -2.996  1.00  0.00     0.000 C 
BRANCH  19  20
ATOM     20  C   UNL     1      12.394 -11.875  -3.880  1.00  0.00     0.000 C 
BRANCH  20  21
ATOM     21  C   UNL     1      13.119 -11.937  -5.239  1.00  0.00     0.000 C 
BRANCH  21  22
ATOM     22  C   UNL     1      14.434 -12.742  -5.245  1.00  0.00    -0.000 C 
BRANCH  22  23
ATOM     23  C   UNL     1      14.313 -14.186  -5.764  1.00  0.00    -0.000 C 
BRANCH  23  24
ATOM     24  C   UNL     1      14.580 -15.236  -4.672  1.00  0.00    -0.000 C 
BRANCH  24  25
ATOM     25  C   UNL     1      13.433 -16.252  -4.525  1.00  0.00    -0.000 C 
BRANCH  25  26
ATOM     26  C   UNL     1      13.536 -17.194  -3.308  1.00  0.00    -0.000 C 
BRANCH  26  27
ATOM     27  C   UNL     1      13.729 -18.683  -3.646  1.00  0.00    -0.000 C 
BRANCH  27  28
ATOM     28  C   UNL     1      14.894 -19.324  -2.877  1.00  0.00    -0.000 C 
BRANCH  28  29
ATOM     29  C   UNL     1      14.547 -19.492  -1.393  1.00  0.00    -0.003 C 
ATOM     30  C   UNL     1      13.699 -20.741  -1.164  1.00  0.00     0.004 C 
ENDBRANCH  28  29
ENDBRANCH  27  28
ENDBRANCH  26  27
ENDBRANCH  25  26
ENDBRANCH  24  25
ENDBRANCH  23  24
ENDBRANCH  22  23
ENDBRANCH  21  22
ENDBRANCH  20  21
ENDBRANCH  19  20
ENDBRANCH  18  19
ENDBRANCH  17  18
ENDBRANCH   1  17
TORSDOF 26
ENDMDL
MODEL 2
REMARK VINA RESULT:     7.994      1.412      2.102
REMARK INTER + INTRA:          19.062
REMARK INTER:                  21.154
REMARK INTRA:                  -2.092
REMARK UNBOUND:                -1.084
REMARK SMILES CCCCCCCCCCCCCCCCCCCCCCCCCCCC(=O)[O-]
REMARK SMILES IDX 15 1 16 2 17 3 18 4 19 5 20 6 21 7 22 8 23 9 24 10 25 11
REMARK SMILES IDX 26 12 27 13 28 14 29 15 30 16 14 17 13 18 12 19 11 20 10 21
REMARK SMILES IDX 9 22 8 23 7 24 6 25 5 26 4 27 3 28 2 29 1 30
REMARK H PARENT
REMARK Flexibility Score: inf
ROOT
ATOM      1  C   UNL     1      15.123 -11.984  -0.679  1.00  0.00     0.000 C 
ENDROOT
BRANCH   1   2
ATOM      2  C   UNL     1      15.059 -12.931   0.532  1.00  0.00     0.000 C 
BRANCH   2   3
ATOM      3  C   UNL     1      13.829 -13.855   0.510  1.00  0.00     0.000 C 
BRANCH   3   4
ATOM      4  C   UNL     1      14.168 -15.288   0.061  1.00  0.00     0.000 C 
BRANCH   4   5
ATOM      5  C   UNL     1      13.847 -16.390   1.087  1.00  0.00     0.000 C 
BRANCH   5   6
ATOM      6  C   UNL     1      14.973 -16.605   2.112  1.00  0.00     0.000 C 
BRANCH   6   7
ATOM      7  C   UNL     1      14.570 -16.153   3.533  1.00  0.00     0.000 C 
BRANCH   7   8
ATOM      8  C   UNL     1      14.698 -17.258   4.599  1.00  0.00     0.000 C 
BRANCH   8   9
ATOM      9  C   UNL     1      13.604 -17.252   5.682  1.00  0.00     0.000 C 
BRANCH   9  10
ATOM     10  C   UNL     1      12.163 -17.374   5.154  1.00  0.00     0.000 C 
BRANCH  10  11
ATOM     11  C   UNL     1      11.818 -18.792   4.676  1.00  0.00     0.000 C 
BRANCH  11  12
ATOM     12  C   UNL     1      10.938 -19.518   5.705  1.00  0.00     0.006 C 
BRANCH  12  13
ATOM     13  C   UNL     1       9.949 -20.487   5.043  1.00  0.00     0.053 C 
BRANCH  13  14
ATOM     14  C   UNL     1      10.547 -21.848   4.860  1.00  0.00     0.041 C 
ATOM     15  O   UNL     1      10.788 -22.287   3.704  1.00  0.00    -0.550 OA
ATOM     16  O   UNL     1      10.871 -22.619   5.970  1.00  0.00    -0.550 OA
ENDBRANCH  13  14
ENDBRANCH  12  13
ENDBRANCH  11  12
ENDBRANCH  10  11
ENDBRANCH   9  10
ENDBRANCH   8   9
ENDBRANCH   7   8
ENDBRANCH   6   7
ENDBRANCH   5   6
ENDBRANCH   4   5
ENDBRANCH   3   4
ENDBRANCH   2   3
ENDBRANCH   1   2
BRANCH   1  17
ATOM     17  C   UNL     1      13.954 -12.108  -1.674  1.00  0.00     0.000 C 
BRANCH  17  18
ATOM     18  C   UNL     1      14.377 -11.877  -3.133  1.00  0.00     0.000 C 
BRANCH  18  19
ATOM     19  C   UNL     1      13.219 -12.179  -4.096  1.00  0.00     0.000 C 
BRANCH  19  20
ATOM     20  C   UNL     1      13.659 -12.213  -5.571  1.00  0.00     0.000 C 
BRANCH  20  21
ATOM     21  C   UNL     1      13.598 -13.603  -6.237  1.00  0.00     0.000 C 
BRANCH  21  22
ATOM     22  C   UNL     1      14.763 -14.549  -5.888  1.00  0.00    -0.000 C 
BRANCH  22  23
ATOM     23  C   UNL     1      14.423 -15.662  -4.881  1.00  0.00    -0.000 C 
BRANCH  23  24
ATOM     24  C   UNL     1      14.170 -17.020  -5.558  1.00  0.00    -0.000 C 
BRANCH  24  25
ATOM     25  C   UNL     1      13.446 -18.021  -4.640  1.00  0.00    -0.000 C 
BRANCH  25  26
ATOM     26  C   UNL     1      13.809 -17.927  -3.143  1.00  0.00    -0.000 C 
BRANCH  26  27
ATOM     27  C   UNL     1      12.988 -18.836  -2.211  1.00  0.00    -0.000 C 
BRANCH  27  28
ATOM     28  C   UNL     1      13.495 -20.285  -2.192  1.00  0.00    -0.000 C 
BRANCH  28  29
ATOM     29  C   UNL     1      13.304 -20.917  -0.809  1.00  0.00    -0.003 C 
ATOM     30  C   UNL     1      14.644 -21.137  -0.112  1.00  0.00     0.004 C 
ENDBRANCH  28  29
ENDBRANCH  27  28
ENDBRANCH  26  27
ENDBRANCH  25  26
ENDBRANCH  24  25
ENDBRANCH  23  24
ENDBRANCH  22  23
ENDBRANCH  21  22
ENDBRANCH  20  21
ENDBRANCH  19  20
ENDBRANCH  18  19
ENDBRANCH  17  18
ENDBRANCH   1  17
TORSDOF 26
ENDMDL
MODEL 3
REMARK VINA RESULT:     8.096      1.150      3.570
REMARK INTER + INTRA:          19.318
REMARK INTER:                  19.286
REMARK INTRA:                   0.033
REMARK UNBOUND:                -1.084
REMARK SMILES CCCCCCCCCCCCCCCCCCCCCCCCCCCC(=O)[O-]
REMARK SMILES IDX 15 1 16 2 17 3 18 4 19 5 20 6 21 7 22 8 23 9 24 10 25 11
REMARK SMILES IDX 26 12 27 13 28 14 29 15 30 16 14 17 13 18 12 19 11 20 10 21
REMARK SMILES IDX 9 22 8 23 7 24 6 25 5 26 4 27 3 28 2 29 1 30
REMARK H PARENT
REMARK Flexibility Score: inf
ROOT
ATOM      1  C   UNL     1      14.857 -18.689  -2.031  1.00  0.00     0.000 C 
ENDROOT
BRANCH   1   2
ATOM      2  C   UNL     1      15.072 -19.594  -0.805  1.00  0.00     0.000 C 
BRANCH   2   3
ATOM      3  C   UNL     1      15.107 -18.815   0.521  1.00  0.00     0.000 C 
BRANCH   3   4
ATOM      4  C   UNL     1      14.992 -17.292   0.320  1.00  0.00     0.000 C 
BRANCH   4   5
ATOM      5  C   UNL     1      14.775 -16.477   1.608  1.00  0.00     0.000 C 
BRANCH   5   6
ATOM      6  C   UNL     1      14.389 -17.349   2.815  1.00  0.00     0.000 C 
BRANCH   6   7
ATOM      7  C   UNL     1      15.123 -16.927   4.106  1.00  0.00     0.000 C 
BRANCH   7   8
ATOM      8  C   UNL     1      14.181 -16.500   5.248  1.00  0.00     0.000 C 
BRANCH   8   9
ATOM      9  C   UNL     1      12.706 -16.900   5.065  1.00  0.00     0.000 C 
BRANCH   9  10
ATOM     10  C   UNL     1      12.437 -18.416   5.067  1.00  0.00     0.000 C 
BRANCH  10  11
ATOM     11  C   UNL     1      11.105 -18.789   4.399  1.00  0.00     0.000 C 
BRANCH  11  12
ATOM     12  C   UNL     1      10.431 -19.957   5.134  1.00  0.00     0.006 C 
BRANCH  12  13
ATOM     13  C   UNL     1      11.023 -21.315   4.736  1.00  0.00     0.053 C 
BRANCH  13  14
ATOM     14  C   UNL     1      10.237 -22.452   5.313  1.00  0.00     0.041 C 
ATOM     15  O   UNL     1      10.576 -22.967   6.412  1.00  0.00    -0.550 OA
ATOM     16  O   UNL     1       9.107 -22.921   4.652  1.00  0.00    -0.550 OA
ENDBRANCH  13  14
ENDBRANCH  12  13
ENDBRANCH  11  12
ENDBRANCH  10  11
ENDBRANCH   9  10
ENDBRANCH   8   9
ENDBRANCH   7   8
ENDBRANCH   6   7
ENDBRANCH   5   6
ENDBRANCH   4   5
ENDBRANCH   3   4
ENDBRANCH   2   3
ENDBRANCH   1   2
BRANCH   1  17
ATOM     17  C   UNL     1      13.428 -18.688  -2.607  1.00  0.00     0.000 C 
BRANCH  17  18
ATOM     18  C   UNL     1      13.046 -17.355  -3.268  1.00  0.00     0.000 C 
BRANCH  18  19
ATOM     19  C   UNL     1      12.852 -17.527  -4.781  1.00  0.00     0.000 C 
BRANCH  19  20
ATOM     20  C   UNL     1      14.034 -16.984  -5.603  1.00  0.00     0.000 C 
BRANCH  20  21
ATOM     21  C   UNL     1      13.840 -15.559  -6.161  1.00  0.00     0.000 C 
BRANCH  21  22
ATOM     22  C   UNL     1      14.258 -14.421  -5.210  1.00  0.00    -0.000 C 
BRANCH  22  23
ATOM     23  C   UNL     1      14.443 -13.046  -5.877  1.00  0.00    -0.000 C 
BRANCH  23  24
ATOM     24  C   UNL     1      14.177 -11.876  -4.915  1.00  0.00    -0.000 C 
BRANCH  24  25
ATOM     25  C   UNL     1      12.828 -11.997  -4.185  1.00  0.00    -0.000 C 
BRANCH  25  26
ATOM     26  C   UNL     1      12.875 -12.724  -2.824  1.00  0.00    -0.000 C 
BRANCH  26  27
ATOM     27  C   UNL     1      11.711 -13.695  -2.560  1.00  0.00    -0.000 C 
BRANCH  27  28
ATOM     28  C   UNL     1      12.086 -14.824  -1.588  1.00  0.00    -0.000 C 
BRANCH  28  29
ATOM     29  C   UNL     1      13.240 -14.401  -0.672  1.00  0.00    -0.003 C 
ATOM     30  C   UNL     1      13.267 -12.886  -0.483  1.00  0.00     0.004 C 
ENDBRANCH  28  29
ENDBRANCH  27  28
ENDBRANCH  26  27
ENDBRANCH  25  26
ENDBRANCH  24  25
ENDBRANCH  23  24
ENDBRANCH  22  23
ENDBRANCH  21  22
ENDBRANCH  20  21
ENDBRANCH  19  20
ENDBRANCH  18  19
ENDBRANCH  17  18
ENDBRANCH   1  17
TORSDOF 26
ENDMDL
MODEL 4
REMARK VINA RESULT:     8.436      1.470      2.691
REMARK INTER + INTRA:          20.174
REMARK INTER:                  19.593
REMARK INTRA:                   0.581
REMARK UNBOUND:                -1.084
REMARK SMILES CCCCCCCCCCCCCCCCCCCCCCCCCCCC(=O)[O-]
REMARK SMILES IDX 15 1 16 2 17 3 18 4 19 5 20 6 21 7 22 8 23 9 24 10 25 11
REMARK SMILES IDX 26 12 27 13 28 14 29 15 30 16 14 17 13 18 12 19 11 20 10 21
REMARK SMILES IDX 9 22 8 23 7 24 6 25 5 26 4 27 3 28 2 29 1 30
REMARK H PARENT
REMARK Flexibility Score: inf
ROOT
ATOM      1  C   UNL     1      15.055 -12.565  -0.251  1.00  0.00     0.000 C 
ENDROOT
BRANCH   1   2
ATOM      2  C   UNL     1      14.671 -13.362   1.008  1.00  0.00     0.000 C 
BRANCH   2   3
ATOM      3  C   UNL     1      14.501 -14.868   0.741  1.00  0.00     0.000 C 
BRANCH   3   4
ATOM      4  C   UNL     1      15.072 -15.742   1.872  1.00  0.00     0.000 C 
BRANCH   4   5
ATOM      5  C   UNL     1      14.042 -16.623   2.603  1.00  0.00     0.000 C 
BRANCH   5   6
ATOM      6  C   UNL     1      14.691 -17.722   3.461  1.00  0.00     0.000 C 
BRANCH   6   7
ATOM      7  C   UNL     1      15.124 -17.206   4.850  1.00  0.00     0.000 C 
BRANCH   7   8
ATOM      8  C   UNL     1      14.178 -17.621   5.993  1.00  0.00     0.000 C 
BRANCH   8   9
ATOM      9  C   UNL     1      12.720 -17.152   5.838  1.00  0.00     0.000 C 
BRANCH   9  10
ATOM     10  C   UNL     1      12.105 -17.383   4.446  1.00  0.00     0.000 C 
BRANCH  10  11
ATOM     11  C   UNL     1      10.864 -18.287   4.481  1.00  0.00     0.000 C 
BRANCH  11  12
ATOM     12  C   UNL     1      11.236 -19.743   4.164  1.00  0.00     0.006 C 
BRANCH  12  13
ATOM     13  C   UNL     1      11.032 -20.671   5.368  1.00  0.00     0.053 C 
BRANCH  13  14
ATOM     14  C   UNL     1      10.709 -22.070   4.940  1.00  0.00     0.041 C 
ATOM     15  O   UNL     1      10.996 -22.461   3.777  1.00  0.00    -0.550 OA
ATOM     16  O   UNL     1      10.123 -22.953   5.839  1.00  0.00    -0.550 OA
ENDBRANCH  13  14
ENDBRANCH  12  13
ENDBRANCH  11  12
ENDBRANCH  10  11
ENDBRANCH   9  10
ENDBRANCH   8   9
ENDBRANCH   7   8
ENDBRANCH   6   7
ENDBRANCH   5   6
ENDBRANCH   4   5
ENDBRANCH   3   4
ENDBRANCH   2   3
ENDBRANCH   1   2
BRANCH   1  17
ATOM     17  C   UNL     1      13.986 -12.532  -1.360  1.00  0.00     0.000 C 
BRANCH  17  18
ATOM     18  C   UNL     1      14.585 -12.537  -2.775  1.00  0.00     0.000 C 
BRANCH  18  19
ATOM     19  C   UNL     1      13.518 -12.200  -3.826  1.00  0.00     0.000 C 
BRANCH  19  20
ATOM     20  C   UNL     1      14.040 -12.312  -5.269  1.00  0.00     0.000 C 
BRANCH  20  21
ATOM     21  C   UNL     1      13.732 -13.650  -5.971  1.00  0.00     0.000 C 
BRANCH  21  22
ATOM     22  C   UNL     1      14.808 -14.741  -5.804  1.00  0.00    -0.000 C 
BRANCH  22  23
ATOM     23  C   UNL     1      14.608 -15.677  -4.599  1.00  0.00    -0.000 C 
BRANCH  23  24
ATOM     24  C   UNL     1      14.673 -17.165  -4.983  1.00  0.00    -0.000 C 
BRANCH  24  25
ATOM     25  C   UNL     1      13.375 -17.925  -4.658  1.00  0.00    -0.000 C 
BRANCH  25  26
ATOM     26  C   UNL     1      12.778 -17.648  -3.262  1.00  0.00    -0.000 C 
BRANCH  26  27
ATOM     27  C   UNL     1      12.427 -16.177  -2.979  1.00  0.00    -0.000 C 
BRANCH  27  28
ATOM     28  C   UNL     1      12.423 -15.843  -1.480  1.00  0.00    -0.000 C 
BRANCH  28  29
ATOM     29  C   UNL     1      11.884 -14.429  -1.233  1.00  0.00    -0.003 C 
ATOM     30  C   UNL     1      10.821 -14.057  -2.264  1.00  0.00     0.004 C 
ENDBRANCH  28  29
ENDBRANCH  27  28
ENDBRANCH  26  27
ENDBRANCH  25  26
ENDBRANCH  24  25
ENDBRANCH  23  24
ENDBRANCH  22  23
ENDBRANCH  21  22
ENDBRANCH  20  21
ENDBRANCH  19  20
ENDBRANCH  18  19
ENDBRANCH  17  18
ENDBRANCH   1  17
TORSDOF 26
ENDMDL
MODEL 5
REMARK VINA RESULT:     8.995     16.260     18.892
REMARK INTER + INTRA:          21.583
REMARK INTER:                  21.342
REMARK INTRA:                   0.242
REMARK UNBOUND:                -1.084
REMARK SMILES CCCCCCCCCCCCCCCCCCCCCCCCCCCC(=O)[O-]
REMARK SMILES IDX 15 1 16 2 17 3 18 4 19 5 20 6 21 7 22 8 23 9 24 10 25 11
REMARK SMILES IDX 26 12 27 13 28 14 29 15 30 16 14 17 13 18 12 19 11 20 10 21
REMARK SMILES IDX 9 22 8 23 7 24 6 25 5 26 4 27 3 28 2 29 1 30
REMARK H PARENT
REMARK Flexibility Score: inf
ROOT
ATOM      1  C   UNL     1       2.061 -24.125  -4.861  1.00  0.00     0.000 C 
ENDROOT
BRANCH   1   2
ATOM      2  C   UNL     1       3.577 -24.371  -4.956  1.00  0.00     0.000 C 
BRANCH   2   3
ATOM      3  C   UNL     1       3.959 -25.356  -6.075  1.00  0.00     0.000 C 
BRANCH   3   4
ATOM      4  C   UNL     1       3.166 -26.674  -6.005  1.00  0.00     0.000 C 
BRANCH   4   5
ATOM      5  C   UNL     1       2.493 -27.104  -7.322  1.00  0.00     0.000 C 
BRANCH   5   6
ATOM      6  C   UNL     1       2.726 -28.586  -7.660  1.00  0.00     0.000 C 
BRANCH   6   7
ATOM      7  C   UNL     1       3.050 -29.432  -6.411  1.00  0.00     0.000 C 
BRANCH   7   8
ATOM      8  C   UNL     1       2.944 -30.952  -6.641  1.00  0.00     0.000 C 
BRANCH   8   9
ATOM      9  C   UNL     1       2.152 -31.370  -7.893  1.00  0.00     0.000 C 
BRANCH   9  10
ATOM     10  C   UNL     1       0.784 -32.018  -7.614  1.00  0.00     0.000 C 
BRANCH  10  11
ATOM     11  C   UNL     1       0.203 -31.624  -6.248  1.00  0.00     0.000 C 
BRANCH  11  12
ATOM     12  C   UNL     1      -1.243 -32.124  -6.102  1.00  0.00     0.006 C 
BRANCH  12  13
ATOM     13  C   UNL     1      -1.725 -32.092  -4.645  1.00  0.00     0.053 C 
BRANCH  13  14
ATOM     14  C   UNL     1      -2.837 -31.107  -4.453  1.00  0.00     0.041 C 
ATOM     15  O   UNL     1      -2.653 -30.066  -3.766  1.00  0.00    -0.550 OA
ATOM     16  O   UNL     1      -4.068 -31.321  -5.061  1.00  0.00    -0.550 OA
ENDBRANCH  13  14
ENDBRANCH  12  13
ENDBRANCH  11  12
ENDBRANCH  10  11
ENDBRANCH   9  10
ENDBRANCH   8   9
ENDBRANCH   7   8
ENDBRANCH   6   7
ENDBRANCH   5   6
ENDBRANCH   4   5
ENDBRANCH   3   4
ENDBRANCH   2   3
ENDBRANCH   1   2
BRANCH   1  17
ATOM     17  C   UNL     1       1.494 -23.113  -5.873  1.00  0.00     0.000 C 
BRANCH  17  18
ATOM     18  C   UNL     1      -0.041 -23.120  -5.938  1.00  0.00     0.000 C 
BRANCH  18  19
ATOM     19  C   UNL     1      -0.538 -22.558  -7.278  1.00  0.00     0.000 C 
BRANCH  19  20
ATOM     20  C   UNL     1      -1.992 -22.055  -7.216  1.00  0.00     0.000 C 
BRANCH  20  21
ATOM     21  C   UNL     1      -2.399 -21.403  -5.880  1.00  0.00     0.000 C 
BRANCH  21  22
ATOM     22  C   UNL     1      -3.671 -21.979  -5.229  1.00  0.00    -0.000 C 
BRANCH  22  23
ATOM     23  C   UNL     1      -4.912 -22.014  -6.139  1.00  0.00    -0.000 C 
BRANCH  23  24
ATOM     24  C   UNL     1      -5.124 -20.699  -6.909  1.00  0.00    -0.000 C 
BRANCH  24  25
ATOM     25  C   UNL     1      -3.979 -19.692  -6.700  1.00  0.00    -0.000 C 
BRANCH  25  26
ATOM     26  C   UNL     1      -4.417 -18.239  -6.422  1.00  0.00    -0.000 C 
BRANCH  26  27
ATOM     27  C   UNL     1      -4.966 -17.476  -7.640  1.00  0.00    -0.000 C 
BRANCH  27  28
ATOM     28  C   UNL     1      -5.121 -15.970  -7.379  1.00  0.00    -0.000 C 
BRANCH  28  29
ATOM     29  C   UNL     1      -3.980 -15.178  -8.027  1.00  0.00    -0.003 C 
ATOM     30  C   UNL     1      -3.375 -14.178  -7.045  1.00  0.00     0.004 C 
ENDBRANCH  28  29
ENDBRANCH  27  28
ENDBRANCH  26  27
ENDBRANCH  25  26
ENDBRANCH  24  25
ENDBRANCH  23  24
ENDBRANCH  22  23
ENDBRANCH  21  22
ENDBRANCH  20  21
ENDBRANCH  19  20
ENDBRANCH  18  19
ENDBRANCH  17  18
ENDBRANCH   1  17
TORSDOF 26
ENDMDL
MODEL 6
REMARK VINA RESULT:     9.555     16.015     19.333
REMARK INTER + INTRA:          22.994
REMARK INTER:                  22.400
REMARK INTRA:                   0.593
REMARK UNBOUND:                -1.084
REMARK SMILES CCCCCCCCCCCCCCCCCCCCCCCCCCCC(=O)[O-]
REMARK SMILES IDX 15 1 16 2 17 3 18 4 19 5 20 6 21 7 22 8 23 9 24 10 25 11
REMARK SMILES IDX 26 12 27 13 28 14 29 15 30 16 14 17 13 18 12 19 11 20 10 21
REMARK SMILES IDX 9 22 8 23 7 24 6 25 5 26 4 27 3 28 2 29 1 30
REMARK H PARENT
REMARK Flexibility Score: inf
ROOT
ATOM      1  C   UNL     1       2.872 -27.319  -7.270  1.00  0.00     0.000 C 
ENDROOT
BRANCH   1   2
ATOM      2  C   UNL     1       2.518 -26.489  -6.023  1.00  0.00     0.000 C 
BRANCH   2   3
ATOM      3  C   UNL     1       3.756 -26.012  -5.245  1.00  0.00     0.000 C 
BRANCH   3   4
ATOM      4  C   UNL     1       4.068 -24.522  -5.477  1.00  0.00     0.000 C 
BRANCH   4   5
ATOM      5  C   UNL     1       3.001 -23.541  -4.958  1.00  0.00     0.000 C 
BRANCH   5   6
ATOM      6  C   UNL     1       2.073 -23.019  -6.069  1.00  0.00     0.000 C 
BRANCH   6   7
ATOM      7  C   UNL     1       0.677 -23.675  -6.027  1.00  0.00     0.000 C 
BRANCH   7   8
ATOM      8  C   UNL     1      -0.354 -23.010  -6.960  1.00  0.00     0.000 C 
BRANCH   8   9
ATOM      9  C   UNL     1      -1.115 -21.818  -6.352  1.00  0.00     0.000 C 
BRANCH   9  10
ATOM     10  C   UNL     1      -1.781 -22.096  -4.992  1.00  0.00     0.000 C 
BRANCH  10  11
ATOM     11  C   UNL     1      -3.316 -22.091  -5.065  1.00  0.00     0.000 C 
BRANCH  11  12
ATOM     12  C   UNL     1      -3.796 -22.040  -6.523  1.00  0.00     0.006 C 
BRANCH  12  13
ATOM     13  C   UNL     1      -4.829 -20.931  -6.757  1.00  0.00     0.053 C 
BRANCH  13  14
ATOM     14  C   UNL     1      -4.351 -19.610  -6.237  1.00  0.00     0.041 C 
ATOM     15  O   UNL     1      -5.125 -18.617  -6.217  1.00  0.00    -0.550 OA
ATOM     16  O   UNL     1      -3.058 -19.487  -5.741  1.00  0.00    -0.550 OA
ENDBRANCH  13  14
ENDBRANCH  12  13
ENDBRANCH  11  12
ENDBRANCH  10  11
ENDBRANCH   9  10
ENDBRANCH   8   9
ENDBRANCH   7   8
ENDBRANCH   6   7
ENDBRANCH   5   6
ENDBRANCH   4   5
ENDBRANCH   3   4
ENDBRANCH   2   3
ENDBRANCH   1   2
BRANCH   1  17
ATOM     17  C   UNL     1       2.146 -28.672  -7.390  1.00  0.00     0.000 C 
BRANCH  17  18
ATOM     18  C   UNL     1       3.083 -29.828  -7.768  1.00  0.00     0.000 C 
BRANCH  18  19
ATOM     19  C   UNL     1       2.464 -31.183  -7.396  1.00  0.00     0.000 C 
BRANCH  19  20
ATOM     20  C   UNL     1       2.759 -31.599  -5.943  1.00  0.00     0.000 C 
BRANCH  20  21
ATOM     21  C   UNL     1       1.569 -31.463  -4.972  1.00  0.00     0.000 C 
BRANCH  21  22
ATOM     22  C   UNL     1       0.190 -31.801  -5.573  1.00  0.00    -0.000 C 
BRANCH  22  23
ATOM     23  C   UNL     1      -0.880 -30.707  -5.411  1.00  0.00    -0.000 C 
BRANCH  23  24
ATOM     24  C   UNL     1      -2.299 -31.210  -5.727  1.00  0.00    -0.000 C 
BRANCH  24  25
ATOM     25  C   UNL     1      -2.868 -32.125  -4.628  1.00  0.00    -0.000 C 
BRANCH  25  26
ATOM     26  C   UNL     1      -2.675 -31.621  -3.182  1.00  0.00    -0.000 C 
BRANCH  26  27
ATOM     27  C   UNL     1      -1.274 -31.073  -2.861  1.00  0.00    -0.000 C 
BRANCH  27  28
ATOM     28  C   UNL     1      -0.649 -31.727  -1.619  1.00  0.00    -0.000 C 
BRANCH  28  29
ATOM     29  C   UNL     1       0.856 -31.443  -1.546  1.00  0.00    -0.003 C 
ATOM     30  C   UNL     1       1.129 -30.076  -0.923  1.00  0.00     0.004 C 
ENDBRANCH  28  29
ENDBRANCH  27  28
ENDBRANCH  26  27
ENDBRANCH  25  26
ENDBRANCH  24  25
ENDBRANCH  23  24
ENDBRANCH  22  23
ENDBRANCH  21  22
ENDBRANCH  20  21
ENDBRANCH  19  20
ENDBRANCH  18  19
ENDBRANCH  17  18
ENDBRANCH   1  17
TORSDOF 26
ENDMDL
