MODEL 1
REMARK VINA RESULT:     8.308      0.000      0.000
REMARK INTER + INTRA:          15.161
REMARK INTER:                  16.079
REMARK INTRA:                  -0.917
REMARK UNBOUND:                -0.917
REMARK SMILES CCCCCCCCCCCCCCCCCC(=O)[O-]
REMARK SMILES IDX 10 1 11 2 12 3 13 4 14 5 15 6 16 7 17 8 18 9 19 10 20 11
REMARK SMILES IDX 9 12 8 13 7 14 6 15 5 16 4 17 3 18 2 19 1 20
REMARK H PARENT
REMARK Flexibility Score: inf
ROOT
ATOM      1  C   UNL     1      15.048  36.043  48.546  1.00  0.00     0.000 C 
ENDROOT
BRANCH   1   2
ATOM      2  C   UNL     1      15.147  35.243  49.857  1.00  0.00     0.000 C 
BRANCH   2   3
ATOM      3  C   UNL     1      15.297  33.725  49.602  1.00  0.00     0.000 C 
BRANCH   3   4
ATOM      4  C   UNL     1      16.045  32.976  50.723  1.00  0.00     0.000 C 
BRANCH   4   5
ATOM      5  C   UNL     1      15.681  31.488  50.866  1.00  0.00     0.000 C 
BRANCH   5   6
ATOM      6  C   UNL     1      14.220  31.188  50.497  1.00  0.00     0.000 C 
BRANCH   6   7
ATOM      7  C   UNL     1      13.980  29.672  50.429  1.00  0.00     0.006 C 
BRANCH   7   8
ATOM      8  C   UNL     1      13.069  29.280  49.258  1.00  0.00     0.053 C 
BRANCH   8   9
ATOM      9  C   UNL     1      12.525  27.893  49.416  1.00  0.00     0.041 C 
ATOM     10  O   UNL     1      12.959  27.145  50.332  1.00  0.00    -0.550 OA
ATOM     11  O   UNL     1      11.568  27.413  48.531  1.00  0.00    -0.550 OA
ENDBRANCH   8   9
ENDBRANCH   7   8
ENDBRANCH   6   7
ENDBRANCH   5   6
ENDBRANCH   4   5
ENDBRANCH   3   4
ENDBRANCH   2   3
ENDBRANCH   1   2
BRANCH   1  12
ATOM     12  C   UNL     1      13.601  36.427  48.182  1.00  0.00     0.000 C 
BRANCH  12  13
ATOM     13  C   UNL     1      13.470  37.668  47.278  1.00  0.00    -0.000 C 
BRANCH  13  14
ATOM     14  C   UNL     1      14.474  38.777  47.628  1.00  0.00    -0.000 C 
BRANCH  14  15
ATOM     15  C   UNL     1      14.918  39.535  46.371  1.00  0.00    -0.000 C 
BRANCH  15  16
ATOM     16  C   UNL     1      16.175  38.902  45.763  1.00  0.00    -0.000 C 
BRANCH  16  17
ATOM     17  C   UNL     1      17.051  38.265  46.851  1.00  0.00    -0.000 C 
BRANCH  17  18
ATOM     18  C   UNL     1      18.349  37.663  46.290  1.00  0.00    -0.000 C 
BRANCH  18  19
ATOM     19  C   UNL     1      19.601  38.165  47.025  1.00  0.00    -0.003 C 
ATOM     20  C   UNL     1      19.781  39.669  46.839  1.00  0.00     0.004 C 
ENDBRANCH  18  19
ENDBRANCH  17  18
ENDBRANCH  16  17
ENDBRANCH  15  16
ENDBRANCH  14  15
ENDBRANCH  13  14
ENDBRANCH  12  13
ENDBRANCH   1  12
TORSDOF 16
ENDMDL
MODEL 2
REMARK VINA RESULT:     8.356      1.215      1.405
REMARK INTER + INTRA:          15.254
REMARK INTER:                  15.609
REMARK INTRA:                  -0.356
REMARK UNBOUND:                -0.917
REMARK SMILES CCCCCCCCCCCCCCCCCC(=O)[O-]
REMARK SMILES IDX 10 1 11 2 12 3 13 4 14 5 15 6 16 7 17 8 18 9 19 10 20 11
REMARK SMILES IDX 9 12 8 13 7 14 6 15 5 16 4 17 3 18 2 19 1 20
REMARK H PARENT
REMARK Flexibility Score: inf
ROOT
ATOM      1  C   UNL     1      15.204  36.387  48.511  1.00  0.00     0.000 C 
ENDROOT
BRANCH   1   2
ATOM      2  C   UNL     1      15.323  35.573  49.811  1.00  0.00     0.000 C 
BRANCH   2   3
ATOM      3  C   UNL     1      14.950  34.087  49.603  1.00  0.00     0.000 C 
BRANCH   3   4
ATOM      4  C   UNL     1      15.459  33.154  50.720  1.00  0.00     0.000 C 
BRANCH   4   5
ATOM      5  C   UNL     1      15.647  31.685  50.306  1.00  0.00     0.000 C 
BRANCH   5   6
ATOM      6  C   UNL     1      14.764  30.716  51.107  1.00  0.00     0.000 C 
BRANCH   6   7
ATOM      7  C   UNL     1      13.686  30.094  50.206  1.00  0.00     0.006 C 
BRANCH   7   8
ATOM      8  C   UNL     1      13.572  28.576  50.399  1.00  0.00     0.053 C 
BRANCH   8   9
ATOM      9  C   UNL     1      13.355  28.213  51.835  1.00  0.00     0.041 C 
ATOM     10  O   UNL     1      13.470  27.016  52.209  1.00  0.00    -0.550 OA
ATOM     11  O   UNL     1      12.990  29.189  52.755  1.00  0.00    -0.550 OA
ENDBRANCH   8   9
ENDBRANCH   7   8
ENDBRANCH   6   7
ENDBRANCH   5   6
ENDBRANCH   4   5
ENDBRANCH   3   4
ENDBRANCH   2   3
ENDBRANCH   1   2
BRANCH   1  12
ATOM     12  C   UNL     1      13.764  36.449  47.968  1.00  0.00     0.000 C 
BRANCH  12  13
ATOM     13  C   UNL     1      13.407  37.752  47.227  1.00  0.00    -0.000 C 
BRANCH  13  14
ATOM     14  C   UNL     1      14.223  38.962  47.710  1.00  0.00    -0.000 C 
BRANCH  14  15
ATOM     15  C   UNL     1      15.020  39.585  46.559  1.00  0.00    -0.000 C 
BRANCH  15  16
ATOM     16  C   UNL     1      16.130  38.640  46.084  1.00  0.00    -0.000 C 
BRANCH  16  17
ATOM     17  C   UNL     1      17.352  38.717  47.011  1.00  0.00    -0.000 C 
BRANCH  17  18
ATOM     18  C   UNL     1      18.602  38.064  46.400  1.00  0.00    -0.000 C 
BRANCH  18  19
ATOM     19  C   UNL     1      19.905  38.569  47.036  1.00  0.00    -0.003 C 
ATOM     20  C   UNL     1      20.104  40.059  46.774  1.00  0.00     0.004 C 
ENDBRANCH  18  19
ENDBRANCH  17  18
ENDBRANCH  16  17
ENDBRANCH  15  16
ENDBRANCH  14  15
ENDBRANCH  13  14
ENDBRANCH  12  13
ENDBRANCH   1  12
TORSDOF 16
ENDMDL
MODEL 3
REMARK VINA RESULT:     8.563      4.361      9.557
REMARK INTER + INTRA:          15.656
REMARK INTER:                  16.660
REMARK INTRA:                  -1.004
REMARK UNBOUND:                -0.917
REMARK SMILES CCCCCCCCCCCCCCCCCC(=O)[O-]
REMARK SMILES IDX 10 1 11 2 12 3 13 4 14 5 15 6 16 7 17 8 18 9 19 10 20 11
REMARK SMILES IDX 9 12 8 13 7 14 6 15 5 16 4 17 3 18 2 19 1 20
REMARK H PARENT
REMARK Flexibility Score: inf
ROOT
ATOM      1  C   UNL     1      14.922  35.644  48.650  1.00  0.00     0.000 C 
ENDROOT
BRANCH   1   2
ATOM      2  C   UNL     1      13.501  35.603  48.059  1.00  0.00     0.000 C 
BRANCH   2   3
ATOM      3  C   UNL     1      13.073  36.970  47.480  1.00  0.00     0.000 C 
BRANCH   3   4
ATOM      4  C   UNL     1      14.093  38.100  47.729  1.00  0.00     0.000 C 
BRANCH   4   5
ATOM      5  C   UNL     1      14.179  39.156  46.613  1.00  0.00     0.000 C 
BRANCH   5   6
ATOM      6  C   UNL     1      15.602  39.331  46.059  1.00  0.00     0.000 C 
BRANCH   6   7
ATOM      7  C   UNL     1      16.603  38.481  46.858  1.00  0.00     0.006 C 
BRANCH   7   8
ATOM      8  C   UNL     1      17.825  38.082  46.020  1.00  0.00     0.053 C 
BRANCH   8   9
ATOM      9  C   UNL     1      19.106  38.324  46.756  1.00  0.00     0.041 C 
ATOM     10  O   UNL     1      19.784  37.351  47.181  1.00  0.00    -0.550 OA
ATOM     11  O   UNL     1      19.533  39.621  47.008  1.00  0.00    -0.550 OA
ENDBRANCH   8   9
ENDBRANCH   7   8
ENDBRANCH   6   7
ENDBRANCH   5   6
ENDBRANCH   4   5
ENDBRANCH   3   4
ENDBRANCH   2   3
ENDBRANCH   1   2
BRANCH   1  12
ATOM     12  C   UNL     1      15.058  34.826  49.948  1.00  0.00     0.000 C 
BRANCH  12  13
ATOM     13  C   UNL     1      15.489  33.360  49.747  1.00  0.00    -0.000 C 
BRANCH  13  14
ATOM     14  C   UNL     1      15.883  32.663  51.059  1.00  0.00    -0.000 C 
BRANCH  14  15
ATOM     15  C   UNL     1      15.696  31.145  50.955  1.00  0.00    -0.000 C 
BRANCH  15  16
ATOM     16  C   UNL     1      14.275  30.797  50.495  1.00  0.00    -0.000 C 
BRANCH  16  17
ATOM     17  C   UNL     1      13.709  29.620  51.303  1.00  0.00    -0.000 C 
BRANCH  17  18
ATOM     18  C   UNL     1      13.533  28.350  50.455  1.00  0.00    -0.000 C 
BRANCH  18  19
ATOM     19  C   UNL     1      12.997  28.647  49.047  1.00  0.00    -0.003 C 
ATOM     20  C   UNL     1      11.865  27.693  48.677  1.00  0.00     0.004 C 
ENDBRANCH  18  19
ENDBRANCH  17  18
ENDBRANCH  16  17
ENDBRANCH  15  16
ENDBRANCH  14  15
ENDBRANCH  13  14
ENDBRANCH  12  13
ENDBRANCH   1  12
TORSDOF 16
ENDMDL
MODEL 4
REMARK VINA RESULT:     9.194      4.339      9.692
REMARK INTER + INTRA:          16.876
REMARK INTER:                  17.728
REMARK INTRA:                  -0.852
REMARK UNBOUND:                -0.917
REMARK SMILES CCCCCCCCCCCCCCCCCC(=O)[O-]
REMARK SMILES IDX 10 1 11 2 12 3 13 4 14 5 15 6 16 7 17 8 18 9 19 10 20 11
REMARK SMILES IDX 9 12 8 13 7 14 6 15 5 16 4 17 3 18 2 19 1 20
REMARK H PARENT
REMARK Flexibility Score: inf
ROOT
ATOM      1  C   UNL     1      15.343  34.935  49.916  1.00  0.00     0.000 C 
ENDROOT
BRANCH   1   2
ATOM      2  C   UNL     1      15.252  35.805  48.650  1.00  0.00     0.000 C 
BRANCH   2   3
ATOM      3  C   UNL     1      13.794  35.974  48.164  1.00  0.00     0.000 C 
BRANCH   3   4
ATOM      4  C   UNL     1      13.529  37.310  47.441  1.00  0.00     0.000 C 
BRANCH   4   5
ATOM      5  C   UNL     1      14.567  38.412  47.708  1.00  0.00     0.000 C 
BRANCH   5   6
ATOM      6  C   UNL     1      14.901  39.241  46.458  1.00  0.00     0.000 C 
BRANCH   6   7
ATOM      7  C   UNL     1      16.326  38.936  45.971  1.00  0.00     0.006 C 
BRANCH   7   8
ATOM      8  C   UNL     1      17.117  38.093  46.980  1.00  0.00     0.053 C 
BRANCH   8   9
ATOM      9  C   UNL     1      18.592  38.166  46.731  1.00  0.00     0.041 C 
ATOM     10  O   UNL     1      19.198  39.265  46.841  1.00  0.00    -0.550 OA
ATOM     11  O   UNL     1      19.291  37.031  46.341  1.00  0.00    -0.550 OA
ENDBRANCH   8   9
ENDBRANCH   7   8
ENDBRANCH   6   7
ENDBRANCH   5   6
ENDBRANCH   4   5
ENDBRANCH   3   4
ENDBRANCH   2   3
ENDBRANCH   1   2
BRANCH   1  12
ATOM     12  C   UNL     1      15.147  33.434  49.631  1.00  0.00     0.000 C 
BRANCH  12  13
ATOM     13  C   UNL     1      15.496  32.502  50.807  1.00  0.00    -0.000 C 
BRANCH  13  14
ATOM     14  C   UNL     1      15.202  31.023  50.510  1.00  0.00    -0.000 C 
BRANCH  14  15
ATOM     15  C   UNL     1      13.692  30.756  50.485  1.00  0.00    -0.000 C 
BRANCH  15  16
ATOM     16  C   UNL     1      13.317  29.834  49.318  1.00  0.00    -0.000 C 
BRANCH  16  17
ATOM     17  C   UNL     1      12.925  28.438  49.825  1.00  0.00    -0.000 C 
BRANCH  17  18
ATOM     18  C   UNL     1      14.006  27.807  50.718  1.00  0.00    -0.000 C 
BRANCH  18  19
ATOM     19  C   UNL     1      13.444  27.272  52.042  1.00  0.00    -0.003 C 
ATOM     20  C   UNL     1      13.163  28.409  53.021  1.00  0.00     0.004 C 
ENDBRANCH  18  19
ENDBRANCH  17  18
ENDBRANCH  16  17
ENDBRANCH  15  16
ENDBRANCH  14  15
ENDBRANCH  13  14
ENDBRANCH  12  13
ENDBRANCH   1  12
TORSDOF 16
ENDMDL
MODEL 5
REMARK VINA RESULT:     9.810      5.190      7.689
REMARK INTER + INTRA:          18.068
REMARK INTER:                  17.663
REMARK INTRA:                   0.405
REMARK UNBOUND:                -0.917
REMARK SMILES CCCCCCCCCCCCCCCCCC(=O)[O-]
REMARK SMILES IDX 10 1 11 2 12 3 13 4 14 5 15 6 16 7 17 8 18 9 19 10 20 11
REMARK SMILES IDX 9 12 8 13 7 14 6 15 5 16 4 17 3 18 2 19 1 20
REMARK H PARENT
REMARK Flexibility Score: inf
ROOT
ATOM      1  C   UNL     1      16.281  38.620  46.513  1.00  0.00     0.000 C 
ENDROOT
BRANCH   1   2
ATOM      2  C   UNL     1      17.768  38.249  46.368  1.00  0.00     0.000 C 
BRANCH   2   3
ATOM      3  C   UNL     1      18.700  39.373  46.876  1.00  0.00     0.000 C 
BRANCH   3   4
ATOM      4  C   UNL     1      20.184  38.965  46.953  1.00  0.00     0.000 C 
BRANCH   4   5
ATOM      5  C   UNL     1      20.436  37.462  47.167  1.00  0.00     0.000 C 
BRANCH   5   6
ATOM      6  C   UNL     1      19.386  36.573  46.483  1.00  0.00     0.000 C 
BRANCH   6   7
ATOM      7  C   UNL     1      20.060  35.398  45.758  1.00  0.00     0.006 C 
BRANCH   7   8
ATOM      8  C   UNL     1      20.706  35.827  44.434  1.00  0.00     0.053 C 
BRANCH   8   9
ATOM      9  C   UNL     1      21.350  34.673  43.730  1.00  0.00     0.041 C 
ATOM     10  O   UNL     1      21.425  34.660  42.473  1.00  0.00    -0.550 OA
ATOM     11  O   UNL     1      21.834  33.593  44.458  1.00  0.00    -0.550 OA
ENDBRANCH   8   9
ENDBRANCH   7   8
ENDBRANCH   6   7
ENDBRANCH   5   6
ENDBRANCH   4   5
ENDBRANCH   3   4
ENDBRANCH   2   3
ENDBRANCH   1   2
BRANCH   1  12
ATOM     12  C   UNL     1      16.034  39.724  47.558  1.00  0.00     0.000 C 
BRANCH  12  13
ATOM     13  C   UNL     1      14.556  40.116  47.747  1.00  0.00    -0.000 C 
BRANCH  13  14
ATOM     14  C   UNL     1      13.761  40.120  46.432  1.00  0.00    -0.000 C 
BRANCH  14  15
ATOM     15  C   UNL     1      13.224  38.721  46.108  1.00  0.00    -0.000 C 
BRANCH  15  16
ATOM     16  C   UNL     1      12.919  37.939  47.392  1.00  0.00    -0.000 C 
BRANCH  16  17
ATOM     17  C   UNL     1      13.269  36.453  47.226  1.00  0.00    -0.000 C 
BRANCH  17  18
ATOM     18  C   UNL     1      13.782  35.816  48.527  1.00  0.00    -0.000 C 
BRANCH  18  19
ATOM     19  C   UNL     1      15.315  35.790  48.610  1.00  0.00    -0.003 C 
ATOM     20  C   UNL     1      15.797  36.147  50.013  1.00  0.00     0.004 C 
ENDBRANCH  18  19
ENDBRANCH  17  18
ENDBRANCH  16  17
ENDBRANCH  15  16
ENDBRANCH  14  15
ENDBRANCH  13  14
ENDBRANCH  12  13
ENDBRANCH   1  12
TORSDOF 16
ENDMDL
