MODEL 1
REMARK VINA RESULT:    -8.233      0.000      0.000
REMARK INTER + INTRA:          -9.253
REMARK INTER:                  -9.677
REMARK INTRA:                   0.424
REMARK UNBOUND:                 0.424
REMARK SMILES O=c1c(O)c(-c2ccc(O)cc2)oc2cc(O)cc(O)c12
REMARK SMILES IDX 5 1 3 2 2 3 1 4 21 5 19 6 18 7 16 8 15 9 14 10 13 11 6 12
REMARK SMILES IDX 7 13 8 14 9 15 12 16 11 17 10 18 4 20 20 22 17 24
REMARK H PARENT 10 19 4 21 20 23 17 25
REMARK Flexibility Score: inf
ROOT
ATOM      1  C   UNL     1      16.209  23.232  40.888  1.00  0.00     0.180 A 
ATOM      2  C   UNL     1      16.627  24.074  39.844  1.00  0.00     0.208 A 
ATOM      3  C   UNL     1      17.763  23.722  39.097  1.00  0.00     0.238 A 
ATOM      4  O   UNL     1      18.101  24.451  38.128  1.00  0.00    -0.285 OA
ATOM      5  C   UNL     1      18.475  22.540  39.415  1.00  0.00     0.111 A 
ATOM      6  C   UNL     1      19.663  22.107  38.751  1.00  0.00     0.134 A 
ATOM      7  C   UNL     1      20.210  20.856  39.061  1.00  0.00     0.093 A 
ATOM      8  C   UNL     1      19.649  20.051  40.057  1.00  0.00     0.123 A 
ATOM      9  C   UNL     1      18.526  20.492  40.751  1.00  0.00     0.094 A 
ATOM     10  C   UNL     1      17.936  21.720  40.439  1.00  0.00     0.146 A 
ATOM     11  O   UNL     1      16.860  22.097  41.118  1.00  0.00    -0.452 OA
ENDROOT
BRANCH   1  12
ATOM     12  C   UNL     1      15.036  23.549  41.735  1.00  0.00     0.021 A 
ATOM     13  C   UNL     1      14.923  22.963  43.006  1.00  0.00     0.016 A 
ATOM     14  C   UNL     1      13.835  23.265  43.831  1.00  0.00     0.047 A 
ATOM     15  C   UNL     1      12.856  24.169  43.401  1.00  0.00     0.115 A 
ATOM     16  C   UNL     1      14.058  24.471  41.318  1.00  0.00     0.016 A 
ATOM     17  C   UNL     1      12.973  24.772  42.145  1.00  0.00     0.047 A 
BRANCH  15  18
ATOM     18  O   UNL     1      11.768  24.478  44.214  1.00  0.00    -0.508 OA
ATOM     19  H   UNL     1      10.894  23.970  44.144  1.00  0.00     0.293 HD
ENDBRANCH  15  18
ENDBRANCH   1  12
BRANCH   2  20
ATOM     20  O   UNL     1      15.896  25.225  39.533  1.00  0.00    -0.502 OA
ATOM     21  H   UNL     1      14.931  25.348  39.814  1.00  0.00     0.293 HD
ENDBRANCH   2  20
BRANCH   6  22
ATOM     22  O   UNL     1      20.354  22.873  37.807  1.00  0.00    -0.507 OA
ATOM     23  H   UNL     1      20.013  23.092  36.884  1.00  0.00     0.293 HD
ENDBRANCH   6  22
BRANCH   8  24
ATOM     24  O   UNL     1      20.209  18.815  40.370  1.00  0.00    -0.508 OA
ATOM     25  H   UNL     1      20.718  18.273  39.681  1.00  0.00     0.293 HD
ENDBRANCH   8  24
TORSDOF 5
ENDMDL
MODEL 2
REMARK VINA RESULT:    -8.049      1.155      1.753
REMARK INTER + INTRA:          -9.036
REMARK INTER:                  -9.531
REMARK INTRA:                   0.494
REMARK UNBOUND:                 0.424
REMARK SMILES O=c1c(O)c(-c2ccc(O)cc2)oc2cc(O)cc(O)c12
REMARK SMILES IDX 5 1 3 2 2 3 1 4 21 5 19 6 18 7 16 8 15 9 14 10 13 11 6 12
REMARK SMILES IDX 7 13 8 14 9 15 12 16 11 17 10 18 4 20 20 22 17 24
REMARK H PARENT 10 19 4 21 20 23 17 25
REMARK Flexibility Score: inf
ROOT
ATOM      1  C   UNL     1      14.923  23.764  41.660  1.00  0.00     0.180 A 
ATOM      2  C   UNL     1      15.036  24.712  40.629  1.00  0.00     0.208 A 
ATOM      3  C   UNL     1      16.065  24.571  39.684  1.00  0.00     0.238 A 
ATOM      4  O   UNL     1      16.128  25.393  38.732  1.00  0.00    -0.285 OA
ATOM      5  C   UNL     1      16.977  23.494  39.791  1.00  0.00     0.111 A 
ATOM      6  C   UNL     1      18.081  23.277  38.912  1.00  0.00     0.134 A 
ATOM      7  C   UNL     1      18.841  22.107  39.034  1.00  0.00     0.093 A 
ATOM      8  C   UNL     1      18.576  21.178  40.043  1.00  0.00     0.123 A 
ATOM      9  C   UNL     1      17.538  21.410  40.942  1.00  0.00     0.094 A 
ATOM     10  C   UNL     1      16.739  22.551  40.824  1.00  0.00     0.146 A 
ATOM     11  O   UNL     1      15.754  22.728  41.695  1.00  0.00    -0.452 OA
ENDROOT
BRANCH   1  12
ATOM     12  C   UNL     1      13.881  23.858  42.708  1.00  0.00     0.021 A 
ATOM     13  C   UNL     1      13.932  22.996  43.815  1.00  0.00     0.016 A 
ATOM     14  C   UNL     1      12.970  23.083  44.826  1.00  0.00     0.047 A 
ATOM     15  C   UNL     1      11.956  24.044  44.751  1.00  0.00     0.115 A 
ATOM     16  C   UNL     1      12.869  24.835  42.649  1.00  0.00     0.016 A 
ATOM     17  C   UNL     1      11.910  24.920  43.662  1.00  0.00     0.047 A 
BRANCH  15  18
ATOM     18  O   UNL     1      10.992  24.140  45.752  1.00  0.00    -0.508 OA
ATOM     19  H   UNL     1      10.995  24.904  46.419  1.00  0.00     0.293 HD
ENDBRANCH  15  18
ENDBRANCH   1  12
BRANCH   2  20
ATOM     20  O   UNL     1      14.111  25.756  40.530  1.00  0.00    -0.502 OA
ATOM     21  H   UNL     1      14.271  26.570  39.949  1.00  0.00     0.293 HD
ENDBRANCH   2  20
BRANCH   6  22
ATOM     22  O   UNL     1      18.488  24.186  37.931  1.00  0.00    -0.507 OA
ATOM     23  H   UNL     1      19.440  24.483  37.782  1.00  0.00     0.293 HD
ENDBRANCH   6  22
BRANCH   8  24
ATOM     24  O   UNL     1      19.346  20.023  40.167  1.00  0.00    -0.508 OA
ATOM     25  H   UNL     1      19.853  19.638  39.379  1.00  0.00     0.293 HD
ENDBRANCH   8  24
TORSDOF 5
ENDMDL
MODEL 3
REMARK VINA RESULT:    -7.802      1.246      6.538
REMARK INTER + INTRA:          -8.746
REMARK INTER:                  -9.262
REMARK INTRA:                   0.517
REMARK UNBOUND:                 0.424
REMARK SMILES O=c1c(O)c(-c2ccc(O)cc2)oc2cc(O)cc(O)c12
REMARK SMILES IDX 5 1 3 2 2 3 1 4 21 5 19 6 18 7 16 8 15 9 14 10 13 11 6 12
REMARK SMILES IDX 7 13 8 14 9 15 12 16 11 17 10 18 4 20 20 22 17 24
REMARK H PARENT 10 19 4 21 20 23 17 25
REMARK Flexibility Score: inf
ROOT
ATOM      1  C   UNL     1      18.097  22.697  39.868  1.00  0.00     0.180 A 
ATOM      2  C   UNL     1      17.901  23.820  39.047  1.00  0.00     0.208 A 
ATOM      3  C   UNL     1      16.770  24.626  39.255  1.00  0.00     0.238 A 
ATOM      4  O   UNL     1      16.628  25.662  38.553  1.00  0.00    -0.285 OA
ATOM      5  C   UNL     1      15.843  24.291  40.271  1.00  0.00     0.111 A 
ATOM      6  C   UNL     1      14.643  25.014  40.543  1.00  0.00     0.134 A 
ATOM      7  C   UNL     1      13.866  24.668  41.656  1.00  0.00     0.093 A 
ATOM      8  C   UNL     1      14.212  23.585  42.467  1.00  0.00     0.123 A 
ATOM      9  C   UNL     1      15.349  22.836  42.174  1.00  0.00     0.094 A 
ATOM     10  C   UNL     1      16.164  23.179  41.092  1.00  0.00     0.146 A 
ATOM     11  O   UNL     1      17.244  22.445  40.855  1.00  0.00    -0.452 OA
ENDROOT
BRANCH   1  12
ATOM     12  C   UNL     1      19.251  21.784  39.693  1.00  0.00     0.021 A 
ATOM     13  C   UNL     1      20.359  22.206  38.942  1.00  0.00     0.016 A 
ATOM     14  C   UNL     1      21.468  21.368  38.783  1.00  0.00     0.047 A 
ATOM     15  C   UNL     1      21.488  20.106  39.387  1.00  0.00     0.115 A 
ATOM     16  C   UNL     1      19.286  20.521  40.314  1.00  0.00     0.016 A 
ATOM     17  C   UNL     1      20.396  19.688  40.155  1.00  0.00     0.047 A 
BRANCH  15  18
ATOM     18  O   UNL     1      22.586  19.263  39.236  1.00  0.00    -0.508 OA
ATOM     19  H   UNL     1      22.484  18.317  38.888  1.00  0.00     0.293 HD
ENDBRANCH  15  18
ENDBRANCH   1  12
BRANCH   2  20
ATOM     20  O   UNL     1      18.840  24.146  38.064  1.00  0.00    -0.502 OA
ATOM     21  H   UNL     1      18.590  24.639  37.215  1.00  0.00     0.293 HD
ENDBRANCH   2  20
BRANCH   6  22
ATOM     22  O   UNL     1      14.158  26.053  39.742  1.00  0.00    -0.507 OA
ATOM     23  H   UNL     1      14.538  26.987  39.722  1.00  0.00     0.293 HD
ENDBRANCH   6  22
BRANCH   8  24
ATOM     24  O   UNL     1      13.425  23.239  43.564  1.00  0.00    -0.508 OA
ATOM     25  H   UNL     1      12.497  22.847  43.448  1.00  0.00     0.293 HD
ENDBRANCH   8  24
TORSDOF 5
ENDMDL
MODEL 4
REMARK VINA RESULT:    -7.660      1.555      6.723
REMARK INTER + INTRA:          -8.580
REMARK INTER:                  -8.747
REMARK INTRA:                   0.167
REMARK UNBOUND:                 0.424
REMARK SMILES O=c1c(O)c(-c2ccc(O)cc2)oc2cc(O)cc(O)c12
REMARK SMILES IDX 5 1 3 2 2 3 1 4 21 5 19 6 18 7 16 8 15 9 14 10 13 11 6 12
REMARK SMILES IDX 7 13 8 14 9 15 12 16 11 17 10 18 4 20 20 22 17 24
REMARK H PARENT 10 19 4 21 20 23 17 25
REMARK Flexibility Score: inf
ROOT
ATOM      1  C   UNL     1      15.680  23.407  41.002  1.00  0.00     0.180 A 
ATOM      2  C   UNL     1      14.980  24.559  40.606  1.00  0.00     0.208 A 
ATOM      3  C   UNL     1      13.963  25.057  41.436  1.00  0.00     0.238 A 
ATOM      4  O   UNL     1      13.376  26.121  41.103  1.00  0.00    -0.285 OA
ATOM      5  C   UNL     1      13.648  24.388  42.643  1.00  0.00     0.111 A 
ATOM      6  C   UNL     1      12.609  24.782  43.541  1.00  0.00     0.134 A 
ATOM      7  C   UNL     1      12.473  24.123  44.769  1.00  0.00     0.093 A 
ATOM      8  C   UNL     1      13.295  23.044  45.103  1.00  0.00     0.123 A 
ATOM      9  C   UNL     1      14.271  22.615  44.208  1.00  0.00     0.094 A 
ATOM     10  C   UNL     1      14.456  23.275  42.990  1.00  0.00     0.146 A 
ATOM     11  O   UNL     1      15.405  22.840  42.171  1.00  0.00    -0.452 OA
ENDROOT
BRANCH   1  12
ATOM     12  C   UNL     1      16.748  22.808  40.168  1.00  0.00     0.021 A 
ATOM     13  C   UNL     1      17.713  23.639  39.577  1.00  0.00     0.016 A 
ATOM     14  C   UNL     1      18.741  23.091  38.805  1.00  0.00     0.047 A 
ATOM     15  C   UNL     1      18.827  21.705  38.628  1.00  0.00     0.115 A 
ATOM     16  C   UNL     1      16.851  21.414  40.003  1.00  0.00     0.016 A 
ATOM     17  C   UNL     1      17.882  20.870  39.231  1.00  0.00     0.047 A 
BRANCH  15  18
ATOM     18  O   UNL     1      19.848  21.148  37.861  1.00  0.00    -0.508 OA
ATOM     19  H   UNL     1      19.784  21.098  36.850  1.00  0.00     0.293 HD
ENDBRANCH  15  18
ENDBRANCH   1  12
BRANCH   2  20
ATOM     20  O   UNL     1      15.321  25.217  39.421  1.00  0.00    -0.502 OA
ATOM     21  H   UNL     1      15.155  24.813  38.507  1.00  0.00     0.293 HD
ENDBRANCH   2  20
BRANCH   6  22
ATOM     22  O   UNL     1      11.676  25.785  43.263  1.00  0.00    -0.507 OA
ATOM     23  H   UNL     1      10.724  25.621  42.975  1.00  0.00     0.293 HD
ENDBRANCH   6  22
BRANCH   8  24
ATOM     24  O   UNL     1      13.141  22.384  46.321  1.00  0.00    -0.508 OA
ATOM     25  H   UNL     1      13.455  21.429  46.450  1.00  0.00     0.293 HD
ENDBRANCH   8  24
TORSDOF 5
ENDMDL
MODEL 5
REMARK VINA RESULT:    -7.252      1.579      2.947
REMARK INTER + INTRA:          -8.100
REMARK INTER:                  -7.966
REMARK INTRA:                  -0.134
REMARK UNBOUND:                 0.424
REMARK SMILES O=c1c(O)c(-c2ccc(O)cc2)oc2cc(O)cc(O)c12
REMARK SMILES IDX 5 1 3 2 2 3 1 4 21 5 19 6 18 7 16 8 15 9 14 10 13 11 6 12
REMARK SMILES IDX 7 13 8 14 9 15 12 16 11 17 10 18 4 20 20 22 17 24
REMARK H PARENT 10 19 4 21 20 23 17 25
REMARK Flexibility Score: inf
ROOT
ATOM      1  C   UNL     1      17.053  22.377  40.927  1.00  0.00     0.180 A 
ATOM      2  C   UNL     1      17.192  20.989  40.756  1.00  0.00     0.208 A 
ATOM      3  C   UNL     1      18.392  20.484  40.231  1.00  0.00     0.238 A 
ATOM      4  O   UNL     1      18.532  19.236  40.131  1.00  0.00    -0.285 OA
ATOM      5  C   UNL     1      19.432  21.374  39.869  1.00  0.00     0.111 A 
ATOM      6  C   UNL     1      20.675  20.975  39.291  1.00  0.00     0.134 A 
ATOM      7  C   UNL     1      21.682  21.929  39.093  1.00  0.00     0.093 A 
ATOM      8  C   UNL     1      21.467  23.276  39.393  1.00  0.00     0.123 A 
ATOM      9  C   UNL     1      20.236  23.684  39.901  1.00  0.00     0.094 A 
ATOM     10  C   UNL     1      19.224  22.750  40.144  1.00  0.00     0.146 A 
ATOM     11  O   UNL     1      18.071  23.180  40.639  1.00  0.00    -0.452 OA
ENDROOT
BRANCH   1  12
ATOM     12  C   UNL     1      15.808  22.986  41.450  1.00  0.00     0.021 A 
ATOM     13  C   UNL     1      15.432  22.755  42.783  1.00  0.00     0.016 A 
ATOM     14  C   UNL     1      14.273  23.339  43.303  1.00  0.00     0.047 A 
ATOM     15  C   UNL     1      13.485  24.174  42.502  1.00  0.00     0.115 A 
ATOM     16  C   UNL     1      15.022  23.842  40.656  1.00  0.00     0.016 A 
ATOM     17  C   UNL     1      13.865  24.425  41.180  1.00  0.00     0.047 A 
BRANCH  15  18
ATOM     18  O   UNL     1      12.328  24.761  43.009  1.00  0.00    -0.508 OA
ATOM     19  H   UNL     1      12.154  24.812  44.006  1.00  0.00     0.293 HD
ENDBRANCH  15  18
ENDBRANCH   1  12
BRANCH   2  20
ATOM     20  O   UNL     1      16.161  20.126  41.140  1.00  0.00    -0.502 OA
ATOM     21  H   UNL     1      16.283  19.122  41.191  1.00  0.00     0.293 HD
ENDBRANCH   2  20
BRANCH   6  22
ATOM     22  O   UNL     1      20.958  19.672  38.870  1.00  0.00    -0.507 OA
ATOM     23  H   UNL     1      21.202  19.413  37.927  1.00  0.00     0.293 HD
ENDBRANCH   6  22
BRANCH   8  24
ATOM     24  O   UNL     1      22.468  24.220  39.179  1.00  0.00    -0.508 OA
ATOM     25  H   UNL     1      22.254  25.203  39.059  1.00  0.00     0.293 HD
ENDBRANCH   8  24
TORSDOF 5
ENDMDL
MODEL 6
REMARK VINA RESULT:    -6.334      1.343      3.136
REMARK INTER + INTRA:          -7.021
REMARK INTER:                  -7.342
REMARK INTRA:                   0.321
REMARK UNBOUND:                 0.424
REMARK SMILES O=c1c(O)c(-c2ccc(O)cc2)oc2cc(O)cc(O)c12
REMARK SMILES IDX 5 1 3 2 2 3 1 4 21 5 19 6 18 7 16 8 15 9 14 10 13 11 6 12
REMARK SMILES IDX 7 13 8 14 9 15 12 16 11 17 10 18 4 20 20 22 17 24
REMARK H PARENT 10 19 4 21 20 23 17 25
REMARK Flexibility Score: inf
ROOT
ATOM      1  C   UNL     1      16.550  23.117  40.725  1.00  0.00     0.180 A 
ATOM      2  C   UNL     1      17.229  21.887  40.741  1.00  0.00     0.208 A 
ATOM      3  C   UNL     1      18.327  21.704  39.886  1.00  0.00     0.238 A 
ATOM      4  O   UNL     1      18.965  20.620  39.944  1.00  0.00    -0.285 OA
ATOM      5  C   UNL     1      18.723  22.748  39.015  1.00  0.00     0.111 A 
ATOM      6  C   UNL     1      19.797  22.657  38.078  1.00  0.00     0.134 A 
ATOM      7  C   UNL     1      20.183  23.795  37.359  1.00  0.00     0.093 A 
ATOM      8  C   UNL     1      19.493  25.002  37.496  1.00  0.00     0.123 A 
ATOM      9  C   UNL     1      18.406  25.083  38.363  1.00  0.00     0.094 A 
ATOM     10  C   UNL     1      18.020  23.975  39.122  1.00  0.00     0.146 A 
ATOM     11  O   UNL     1      16.986  24.099  39.944  1.00  0.00    -0.452 OA
ENDROOT
BRANCH   1  12
ATOM     12  C   UNL     1      15.367  23.377  41.579  1.00  0.00     0.021 A 
ATOM     13  C   UNL     1      15.289  22.788  42.851  1.00  0.00     0.016 A 
ATOM     14  C   UNL     1      14.192  23.037  43.681  1.00  0.00     0.047 A 
ATOM     15  C   UNL     1      13.168  23.892  43.256  1.00  0.00     0.115 A 
ATOM     16  C   UNL     1      14.343  24.250  41.165  1.00  0.00     0.016 A 
ATOM     17  C   UNL     1      13.249  24.498  41.998  1.00  0.00     0.047 A 
BRANCH  15  18
ATOM     18  O   UNL     1      12.070  24.147  44.074  1.00  0.00    -0.508 OA
ATOM     19  H   UNL     1      11.758  25.093  44.261  1.00  0.00     0.293 HD
ENDBRANCH  15  18
ENDBRANCH   1  12
BRANCH   2  20
ATOM     20  O   UNL     1      16.835  20.878  41.625  1.00  0.00    -0.502 OA
ATOM     21  H   UNL     1      17.446  20.112  41.883  1.00  0.00     0.293 HD
ENDBRANCH   2  20
BRANCH   6  22
ATOM     22  O   UNL     1      20.492  21.476  37.798  1.00  0.00    -0.507 OA
ATOM     23  H   UNL     1      20.401  20.945  36.946  1.00  0.00     0.293 HD
ENDBRANCH   6  22
BRANCH   8  24
ATOM     24  O   UNL     1      19.874  26.125  36.765  1.00  0.00    -0.508 OA
ATOM     25  H   UNL     1      19.203  26.659  36.224  1.00  0.00     0.293 HD
ENDBRANCH   8  24
TORSDOF 5
ENDMDL
