MODEL 1
REMARK VINA RESULT:    -4.482      0.000      0.000
REMARK INTER + INTRA:         -15.725
REMARK INTER:                 -11.295
REMARK INTRA:                  -4.430
REMARK UNBOUND:                -4.430
REMARK SMILES CCCCCCCCCCCCCCCCCCCCCCCCCCCC(=O)[O-]
REMARK SMILES IDX 15 1 16 2 17 3 18 4 19 5 20 6 21 7 22 8 23 9 24 10 25 11
REMARK SMILES IDX 26 12 27 13 28 14 29 15 30 16 14 17 13 18 12 19 11 20 10 21
REMARK SMILES IDX 9 22 8 23 7 24 6 25 5 26 4 27 3 28 2 29 1 30
REMARK H PARENT
REMARK Flexibility Score: inf
ROOT
ATOM      1  C   UNL     1     -43.552 -35.613  36.909  1.00  0.00     0.000 C 
ENDROOT
BRANCH   1   2
ATOM      2  C   UNL     1     -45.065 -35.892  36.786  1.00  0.00     0.000 C 
BRANCH   2   3
ATOM      3  C   UNL     1     -45.438 -37.385  36.877  1.00  0.00     0.000 C 
BRANCH   3   4
ATOM      4  C   UNL     1     -46.204 -37.811  38.145  1.00  0.00     0.000 C 
BRANCH   4   5
ATOM      5  C   UNL     1     -47.502 -37.027  38.446  1.00  0.00     0.000 C 
BRANCH   5   6
ATOM      6  C   UNL     1     -47.486 -36.229  39.769  1.00  0.00     0.000 C 
BRANCH   6   7
ATOM      7  C   UNL     1     -47.382 -34.704  39.586  1.00  0.00     0.000 C 
BRANCH   7   8
ATOM      8  C   UNL     1     -46.129 -34.107  40.246  1.00  0.00     0.000 C 
BRANCH   8   9
ATOM      9  C   UNL     1     -46.375 -32.711  40.852  1.00  0.00     0.000 C 
BRANCH   9  10
ATOM     10  C   UNL     1     -45.336 -31.632  40.472  1.00  0.00     0.000 C 
BRANCH  10  11
ATOM     11  C   UNL     1     -45.735 -30.717  39.299  1.00  0.00     0.000 C 
BRANCH  11  12
ATOM     12  C   UNL     1     -45.023 -31.084  37.986  1.00  0.00     0.006 C 
BRANCH  12  13
ATOM     13  C   UNL     1     -45.743 -32.212  37.234  1.00  0.00     0.053 C 
BRANCH  13  14
ATOM     14  C   UNL     1     -47.028 -31.747  36.622  1.00  0.00     0.041 C 
ATOM     15  O   UNL     1     -48.131 -32.099  37.119  1.00  0.00    -0.550 OA
ATOM     16  O   UNL     1     -47.009 -30.936  35.492  1.00  0.00    -0.550 OA
ENDBRANCH  13  14
ENDBRANCH  12  13
ENDBRANCH  11  12
ENDBRANCH  10  11
ENDBRANCH   9  10
ENDBRANCH   8   9
ENDBRANCH   7   8
ENDBRANCH   6   7
ENDBRANCH   5   6
ENDBRANCH   4   5
ENDBRANCH   3   4
ENDBRANCH   2   3
ENDBRANCH   1   2
BRANCH   1  17
ATOM     17  C   UNL     1     -43.151 -35.059  38.290  1.00  0.00     0.000 C 
BRANCH  17  18
ATOM     18  C   UNL     1     -41.685 -34.598  38.331  1.00  0.00     0.000 C 
BRANCH  18  19
ATOM     19  C   UNL     1     -41.350 -33.810  39.609  1.00  0.00     0.000 C 
BRANCH  19  20
ATOM     20  C   UNL     1     -41.994 -32.410  39.638  1.00  0.00     0.000 C 
BRANCH  20  21
ATOM     21  C   UNL     1     -41.345 -31.377  38.694  1.00  0.00     0.000 C 
BRANCH  21  22
ATOM     22  C   UNL     1     -41.690 -29.924  39.066  1.00  0.00    -0.000 C 
BRANCH  22  23
ATOM     23  C   UNL     1     -42.076 -29.757  40.547  1.00  0.00    -0.000 C 
BRANCH  23  24
ATOM     24  C   UNL     1     -42.948 -28.520  40.861  1.00  0.00    -0.000 C 
BRANCH  24  25
ATOM     25  C   UNL     1     -43.113 -27.518  39.702  1.00  0.00    -0.000 C 
BRANCH  25  26
ATOM     26  C   UNL     1     -42.111 -26.348  39.706  1.00  0.00    -0.000 C 
BRANCH  26  27
ATOM     27  C   UNL     1     -41.434 -26.119  41.076  1.00  0.00    -0.000 C 
BRANCH  27  28
ATOM     28  C   UNL     1     -39.901 -26.225  40.999  1.00  0.00    -0.000 C 
BRANCH  28  29
ATOM     29  C   UNL     1     -39.397 -27.648  41.293  1.00  0.00    -0.003 C 
ATOM     30  C   UNL     1     -38.274 -28.081  40.350  1.00  0.00     0.004 C 
ENDBRANCH  28  29
ENDBRANCH  27  28
ENDBRANCH  26  27
ENDBRANCH  25  26
ENDBRANCH  24  25
ENDBRANCH  23  24
ENDBRANCH  22  23
ENDBRANCH  21  22
ENDBRANCH  20  21
ENDBRANCH  19  20
ENDBRANCH  18  19
ENDBRANCH  17  18
ENDBRANCH   1  17
TORSDOF 26
ENDMDL
MODEL 2
REMARK VINA RESULT:    -4.463      3.591      8.044
REMARK INTER + INTRA:         -15.675
REMARK INTER:                  -9.879
REMARK INTRA:                  -5.797
REMARK UNBOUND:                -4.430
REMARK SMILES CCCCCCCCCCCCCCCCCCCCCCCCCCCC(=O)[O-]
REMARK SMILES IDX 15 1 16 2 17 3 18 4 19 5 20 6 21 7 22 8 23 9 24 10 25 11
REMARK SMILES IDX 26 12 27 13 28 14 29 15 30 16 14 17 13 18 12 19 11 20 10 21
REMARK SMILES IDX 9 22 8 23 7 24 6 25 5 26 4 27 3 28 2 29 1 30
REMARK H PARENT
REMARK Flexibility Score: inf
ROOT
ATOM      1  C   UNL     1     -39.420 -24.238  39.987  1.00  0.00     0.000 C 
ENDROOT
BRANCH   1   2
ATOM      2  C   UNL     1     -38.435 -25.275  39.407  1.00  0.00     0.000 C 
BRANCH   2   3
ATOM      3  C   UNL     1     -37.421 -25.820  40.432  1.00  0.00     0.000 C 
BRANCH   3   4
ATOM      4  C   UNL     1     -37.474 -27.340  40.687  1.00  0.00     0.000 C 
BRANCH   4   5
ATOM      5  C   UNL     1     -38.725 -28.072  40.151  1.00  0.00     0.000 C 
BRANCH   5   6
ATOM      6  C   UNL     1     -39.921 -28.114  41.128  1.00  0.00     0.000 C 
BRANCH   6   7
ATOM      7  C   UNL     1     -41.289 -27.876  40.463  1.00  0.00     0.000 C 
BRANCH   7   8
ATOM      8  C   UNL     1     -42.434 -28.618  41.170  1.00  0.00     0.000 C 
BRANCH   8   9
ATOM      9  C   UNL     1     -42.756 -29.982  40.528  1.00  0.00     0.000 C 
BRANCH   9  10
ATOM     10  C   UNL     1     -42.151 -30.213  39.125  1.00  0.00     0.000 C 
BRANCH  10  11
ATOM     11  C   UNL     1     -43.157 -30.180  37.960  1.00  0.00     0.000 C 
BRANCH  11  12
ATOM     12  C   UNL     1     -44.479 -30.893  38.292  1.00  0.00     0.006 C 
BRANCH  12  13
ATOM     13  C   UNL     1     -45.704 -30.060  37.887  1.00  0.00     0.053 C 
BRANCH  13  14
ATOM     14  C   UNL     1     -46.024 -30.206  36.430  1.00  0.00     0.041 C 
ATOM     15  O   UNL     1     -45.663 -29.319  35.611  1.00  0.00    -0.550 OA
ATOM     16  O   UNL     1     -46.735 -31.312  35.981  1.00  0.00    -0.550 OA
ENDBRANCH  13  14
ENDBRANCH  12  13
ENDBRANCH  11  12
ENDBRANCH  10  11
ENDBRANCH   9  10
ENDBRANCH   8   9
ENDBRANCH   7   8
ENDBRANCH   6   7
ENDBRANCH   5   6
ENDBRANCH   4   5
ENDBRANCH   3   4
ENDBRANCH   2   3
ENDBRANCH   1   2
BRANCH   1  17
ATOM     17  C   UNL     1     -39.615 -24.374  41.510  1.00  0.00     0.000 C 
BRANCH  17  18
ATOM     18  C   UNL     1     -41.095 -24.522  41.898  1.00  0.00     0.000 C 
BRANCH  18  19
ATOM     19  C   UNL     1     -42.045 -24.204  40.731  1.00  0.00     0.000 C 
BRANCH  19  20
ATOM     20  C   UNL     1     -43.505 -24.607  41.018  1.00  0.00     0.000 C 
BRANCH  20  21
ATOM     21  C   UNL     1     -44.490 -24.347  39.860  1.00  0.00     0.000 C 
BRANCH  21  22
ATOM     22  C   UNL     1     -45.255 -25.611  39.428  1.00  0.00    -0.000 C 
BRANCH  22  23
ATOM     23  C   UNL     1     -44.340 -26.691  38.824  1.00  0.00    -0.000 C 
BRANCH  23  24
ATOM     24  C   UNL     1     -44.118 -26.582  37.298  1.00  0.00    -0.000 C 
BRANCH  24  25
ATOM     25  C   UNL     1     -42.673 -26.831  36.822  1.00  0.00    -0.000 C 
BRANCH  25  26
ATOM     26  C   UNL     1     -41.611 -25.920  37.469  1.00  0.00    -0.000 C 
BRANCH  26  27
ATOM     27  C   UNL     1     -41.216 -24.711  36.592  1.00  0.00    -0.000 C 
BRANCH  27  28
ATOM     28  C   UNL     1     -41.732 -23.378  37.162  1.00  0.00    -0.000 C 
BRANCH  28  29
ATOM     29  C   UNL     1     -43.133 -23.020  36.638  1.00  0.00    -0.003 C 
ATOM     30  C   UNL     1     -43.746 -21.823  37.367  1.00  0.00     0.004 C 
ENDBRANCH  28  29
ENDBRANCH  27  28
ENDBRANCH  26  27
ENDBRANCH  25  26
ENDBRANCH  24  25
ENDBRANCH  23  24
ENDBRANCH  22  23
ENDBRANCH  21  22
ENDBRANCH  20  21
ENDBRANCH  19  20
ENDBRANCH  18  19
ENDBRANCH  17  18
ENDBRANCH   1  17
TORSDOF 26
ENDMDL
MODEL 3
REMARK VINA RESULT:    -4.410      2.200      5.389
REMARK INTER + INTRA:         -15.543
REMARK INTER:                 -11.676
REMARK INTRA:                  -3.868
REMARK UNBOUND:                -4.430
REMARK SMILES CCCCCCCCCCCCCCCCCCCCCCCCCCCC(=O)[O-]
REMARK SMILES IDX 15 1 16 2 17 3 18 4 19 5 20 6 21 7 22 8 23 9 24 10 25 11
REMARK SMILES IDX 26 12 27 13 28 14 29 15 30 16 14 17 13 18 12 19 11 20 10 21
REMARK SMILES IDX 9 22 8 23 7 24 6 25 5 26 4 27 3 28 2 29 1 30
REMARK H PARENT
REMARK Flexibility Score: inf
ROOT
ATOM      1  C   UNL     1     -44.218 -31.703  40.089  1.00  0.00     0.000 C 
ENDROOT
BRANCH   1   2
ATOM      2  C   UNL     1     -43.263 -32.448  39.132  1.00  0.00     0.000 C 
BRANCH   2   3
ATOM      3  C   UNL     1     -41.937 -32.886  39.785  1.00  0.00     0.000 C 
BRANCH   3   4
ATOM      4  C   UNL     1     -41.547 -34.365  39.588  1.00  0.00     0.000 C 
BRANCH   4   5
ATOM      5  C   UNL     1     -40.038 -34.684  39.681  1.00  0.00     0.000 C 
BRANCH   5   6
ATOM      6  C   UNL     1     -39.480 -35.526  38.511  1.00  0.00     0.000 C 
BRANCH   6   7
ATOM      7  C   UNL     1     -39.866 -35.004  37.116  1.00  0.00     0.000 C 
BRANCH   7   8
ATOM      8  C   UNL     1     -40.607 -36.051  36.270  1.00  0.00     0.000 C 
BRANCH   8   9
ATOM      9  C   UNL     1     -41.999 -35.577  35.808  1.00  0.00     0.000 C 
BRANCH   9  10
ATOM     10  C   UNL     1     -43.134 -35.748  36.844  1.00  0.00     0.000 C 
BRANCH  10  11
ATOM     11  C   UNL     1     -44.447 -35.017  36.509  1.00  0.00     0.000 C 
BRANCH  11  12
ATOM     12  C   UNL     1     -45.695 -35.792  36.965  1.00  0.00     0.006 C 
BRANCH  12  13
ATOM     13  C   UNL     1     -46.311 -35.198  38.239  1.00  0.00     0.053 C 
BRANCH  13  14
ATOM     14  C   UNL     1     -47.116 -36.210  38.997  1.00  0.00     0.041 C 
ATOM     15  O   UNL     1     -46.925 -37.441  38.807  1.00  0.00    -0.550 OA
ATOM     16  O   UNL     1     -48.088 -35.793  39.899  1.00  0.00    -0.550 OA
ENDBRANCH  13  14
ENDBRANCH  12  13
ENDBRANCH  11  12
ENDBRANCH  10  11
ENDBRANCH   9  10
ENDBRANCH   8   9
ENDBRANCH   7   8
ENDBRANCH   6   7
ENDBRANCH   5   6
ENDBRANCH   4   5
ENDBRANCH   3   4
ENDBRANCH   2   3
ENDBRANCH   1   2
BRANCH   1  17
ATOM     17  C   UNL     1     -44.791 -30.407  39.483  1.00  0.00     0.000 C 
BRANCH  17  18
ATOM     18  C   UNL     1     -43.750 -29.276  39.432  1.00  0.00     0.000 C 
BRANCH  18  19
ATOM     19  C   UNL     1     -43.141 -28.974  40.812  1.00  0.00     0.000 C 
BRANCH  19  20
ATOM     20  C   UNL     1     -41.613 -29.169  40.850  1.00  0.00     0.000 C 
BRANCH  20  21
ATOM     21  C   UNL     1     -40.880 -28.812  39.541  1.00  0.00     0.000 C 
BRANCH  21  22
ATOM     22  C   UNL     1     -40.155 -27.456  39.609  1.00  0.00    -0.000 C 
BRANCH  22  23
ATOM     23  C   UNL     1     -39.846 -27.012  41.050  1.00  0.00    -0.000 C 
BRANCH  23  24
ATOM     24  C   UNL     1     -39.518 -25.510  41.216  1.00  0.00    -0.000 C 
BRANCH  24  25
ATOM     25  C   UNL     1     -40.550 -24.695  42.021  1.00  0.00    -0.000 C 
BRANCH  25  26
ATOM     26  C   UNL     1     -41.793 -24.255  41.225  1.00  0.00    -0.000 C 
BRANCH  26  27
ATOM     27  C   UNL     1     -43.002 -25.202  41.390  1.00  0.00    -0.000 C 
BRANCH  27  28
ATOM     28  C   UNL     1     -43.713 -25.487  40.055  1.00  0.00    -0.000 C 
BRANCH  28  29
ATOM     29  C   UNL     1     -42.886 -25.029  38.842  1.00  0.00    -0.003 C 
ATOM     30  C   UNL     1     -42.964 -26.012  37.672  1.00  0.00     0.004 C 
ENDBRANCH  28  29
ENDBRANCH  27  28
ENDBRANCH  26  27
ENDBRANCH  25  26
ENDBRANCH  24  25
ENDBRANCH  23  24
ENDBRANCH  22  23
ENDBRANCH  21  22
ENDBRANCH  20  21
ENDBRANCH  19  20
ENDBRANCH  18  19
ENDBRANCH  17  18
ENDBRANCH   1  17
TORSDOF 26
ENDMDL
MODEL 4
REMARK VINA RESULT:    -4.350      2.141      5.946
REMARK INTER + INTRA:         -15.392
REMARK INTER:                 -11.246
REMARK INTRA:                  -4.145
REMARK UNBOUND:                -4.430
REMARK SMILES CCCCCCCCCCCCCCCCCCCCCCCCCCCC(=O)[O-]
REMARK SMILES IDX 15 1 16 2 17 3 18 4 19 5 20 6 21 7 22 8 23 9 24 10 25 11
REMARK SMILES IDX 26 12 27 13 28 14 29 15 30 16 14 17 13 18 12 19 11 20 10 21
REMARK SMILES IDX 9 22 8 23 7 24 6 25 5 26 4 27 3 28 2 29 1 30
REMARK H PARENT
REMARK Flexibility Score: inf
ROOT
ATOM      1  C   UNL     1     -40.764 -29.118  39.371  1.00  0.00     0.000 C 
ENDROOT
BRANCH   1   2
ATOM      2  C   UNL     1     -42.194 -29.465  38.904  1.00  0.00     0.000 C 
BRANCH   2   3
ATOM      3  C   UNL     1     -42.429 -30.969  38.663  1.00  0.00     0.000 C 
BRANCH   3   4
ATOM      4  C   UNL     1     -42.508 -31.848  39.927  1.00  0.00     0.000 C 
BRANCH   4   5
ATOM      5  C   UNL     1     -41.829 -33.233  39.830  1.00  0.00     0.000 C 
BRANCH   5   6
ATOM      6  C   UNL     1     -40.801 -33.373  38.685  1.00  0.00     0.000 C 
BRANCH   6   7
ATOM      7  C   UNL     1     -40.316 -34.814  38.444  1.00  0.00     0.000 C 
BRANCH   7   8
ATOM      8  C   UNL     1     -40.054 -35.116  36.960  1.00  0.00     0.000 C 
BRANCH   8   9
ATOM      9  C   UNL     1     -41.065 -36.113  36.360  1.00  0.00     0.000 C 
BRANCH   9  10
ATOM     10  C   UNL     1     -42.358 -35.485  35.793  1.00  0.00     0.000 C 
BRANCH  10  11
ATOM     11  C   UNL     1     -43.666 -35.959  36.453  1.00  0.00     0.000 C 
BRANCH  11  12
ATOM     12  C   UNL     1     -43.992 -35.197  37.749  1.00  0.00     0.006 C 
BRANCH  12  13
ATOM     13  C   UNL     1     -44.644 -33.836  37.471  1.00  0.00     0.053 C 
BRANCH  13  14
ATOM     14  C   UNL     1     -46.113 -33.849  37.762  1.00  0.00     0.041 C 
ATOM     15  O   UNL     1     -46.843 -32.895  37.379  1.00  0.00    -0.550 OA
ATOM     16  O   UNL     1     -46.674 -34.906  38.470  1.00  0.00    -0.550 OA
ENDBRANCH  13  14
ENDBRANCH  12  13
ENDBRANCH  11  12
ENDBRANCH  10  11
ENDBRANCH   9  10
ENDBRANCH   8   9
ENDBRANCH   7   8
ENDBRANCH   6   7
ENDBRANCH   5   6
ENDBRANCH   4   5
ENDBRANCH   3   4
ENDBRANCH   2   3
ENDBRANCH   1   2
BRANCH   1  17
ATOM     17  C   UNL     1     -40.718 -28.528  40.794  1.00  0.00     0.000 C 
BRANCH  17  18
ATOM     18  C   UNL     1     -39.328 -27.981  41.155  1.00  0.00     0.000 C 
BRANCH  18  19
ATOM     19  C   UNL     1     -38.418 -27.825  39.924  1.00  0.00     0.000 C 
BRANCH  19  20
ATOM     20  C   UNL     1     -37.814 -26.412  39.800  1.00  0.00     0.000 C 
BRANCH  20  21
ATOM     21  C   UNL     1     -38.339 -25.388  40.827  1.00  0.00     0.000 C 
BRANCH  21  22
ATOM     22  C   UNL     1     -39.160 -24.258  40.182  1.00  0.00    -0.000 C 
BRANCH  22  23
ATOM     23  C   UNL     1     -40.231 -23.679  41.125  1.00  0.00    -0.000 C 
BRANCH  23  24
ATOM     24  C   UNL     1     -41.190 -24.721  41.744  1.00  0.00    -0.000 C 
BRANCH  24  25
ATOM     25  C   UNL     1     -42.643 -24.666  41.233  1.00  0.00    -0.000 C 
BRANCH  25  26
ATOM     26  C   UNL     1     -43.060 -25.845  40.334  1.00  0.00    -0.000 C 
BRANCH  26  27
ATOM     27  C   UNL     1     -43.657 -25.408  38.978  1.00  0.00    -0.000 C 
BRANCH  27  28
ATOM     28  C   UNL     1     -42.582 -24.904  37.997  1.00  0.00    -0.000 C 
BRANCH  28  29
ATOM     29  C   UNL     1     -41.542 -25.986  37.663  1.00  0.00    -0.003 C 
ATOM     30  C   UNL     1     -40.281 -25.410  37.017  1.00  0.00     0.004 C 
ENDBRANCH  28  29
ENDBRANCH  27  28
ENDBRANCH  26  27
ENDBRANCH  25  26
ENDBRANCH  24  25
ENDBRANCH  23  24
ENDBRANCH  22  23
ENDBRANCH  21  22
ENDBRANCH  20  21
ENDBRANCH  19  20
ENDBRANCH  18  19
ENDBRANCH  17  18
ENDBRANCH   1  17
TORSDOF 26
ENDMDL
MODEL 5
REMARK VINA RESULT:    -4.346      2.064      5.773
REMARK INTER + INTRA:         -15.382
REMARK INTER:                 -11.434
REMARK INTRA:                  -3.948
REMARK UNBOUND:                -4.430
REMARK SMILES CCCCCCCCCCCCCCCCCCCCCCCCCCCC(=O)[O-]
REMARK SMILES IDX 15 1 16 2 17 3 18 4 19 5 20 6 21 7 22 8 23 9 24 10 25 11
REMARK SMILES IDX 26 12 27 13 28 14 29 15 30 16 14 17 13 18 12 19 11 20 10 21
REMARK SMILES IDX 9 22 8 23 7 24 6 25 5 26 4 27 3 28 2 29 1 30
REMARK H PARENT
REMARK Flexibility Score: inf
ROOT
ATOM      1  C   UNL     1     -41.327 -29.309  39.372  1.00  0.00     0.000 C 
ENDROOT
BRANCH   1   2
ATOM      2  C   UNL     1     -41.493 -30.663  38.650  1.00  0.00     0.000 C 
BRANCH   2   3
ATOM      3  C   UNL     1     -42.935 -31.207  38.660  1.00  0.00     0.000 C 
BRANCH   3   4
ATOM      4  C   UNL     1     -43.161 -32.497  39.473  1.00  0.00     0.000 C 
BRANCH   4   5
ATOM      5  C   UNL     1     -41.889 -33.180  40.024  1.00  0.00     0.000 C 
BRANCH   5   6
ATOM      6  C   UNL     1     -41.460 -34.459  39.269  1.00  0.00     0.000 C 
BRANCH   6   7
ATOM      7  C   UNL     1     -40.256 -34.265  38.330  1.00  0.00     0.000 C 
BRANCH   7   8
ATOM      8  C   UNL     1     -40.061 -35.439  37.358  1.00  0.00     0.000 C 
BRANCH   8   9
ATOM      9  C   UNL     1     -40.984 -35.362  36.126  1.00  0.00     0.000 C 
BRANCH   9  10
ATOM     10  C   UNL     1     -42.251 -36.244  36.191  1.00  0.00     0.000 C 
BRANCH  10  11
ATOM     11  C   UNL     1     -43.588 -35.480  36.172  1.00  0.00     0.000 C 
BRANCH  11  12
ATOM     12  C   UNL     1     -44.709 -36.220  36.923  1.00  0.00     0.006 C 
BRANCH  12  13
ATOM     13  C   UNL     1     -44.861 -35.725  38.368  1.00  0.00     0.053 C 
BRANCH  13  14
ATOM     14  C   UNL     1     -46.274 -35.340  38.683  1.00  0.00     0.041 C 
ATOM     15  O   UNL     1     -47.175 -36.220  38.726  1.00  0.00    -0.550 OA
ATOM     16  O   UNL     1     -46.599 -34.008  38.912  1.00  0.00    -0.550 OA
ENDBRANCH  13  14
ENDBRANCH  12  13
ENDBRANCH  11  12
ENDBRANCH  10  11
ENDBRANCH   9  10
ENDBRANCH   8   9
ENDBRANCH   7   8
ENDBRANCH   6   7
ENDBRANCH   5   6
ENDBRANCH   4   5
ENDBRANCH   3   4
ENDBRANCH   2   3
ENDBRANCH   1   2
BRANCH   1  17
ATOM     17  C   UNL     1     -41.894 -29.314  40.805  1.00  0.00     0.000 C 
BRANCH  17  18
ATOM     18  C   UNL     1     -42.899 -28.175  41.040  1.00  0.00     0.000 C 
BRANCH  18  19
ATOM     19  C   UNL     1     -43.022 -27.238  39.825  1.00  0.00     0.000 C 
BRANCH  19  20
ATOM     20  C   UNL     1     -43.501 -25.823  40.205  1.00  0.00     0.000 C 
BRANCH  20  21
ATOM     21  C   UNL     1     -43.499 -24.804  39.047  1.00  0.00     0.000 C 
BRANCH  21  22
ATOM     22  C   UNL     1     -42.301 -24.977  38.097  1.00  0.00    -0.000 C 
BRANCH  22  23
ATOM     23  C   UNL     1     -41.460 -23.696  37.949  1.00  0.00    -0.000 C 
BRANCH  23  24
ATOM     24  C   UNL     1     -41.378 -22.817  39.218  1.00  0.00    -0.000 C 
BRANCH  24  25
ATOM     25  C   UNL     1     -40.236 -23.170  40.191  1.00  0.00    -0.000 C 
BRANCH  25  26
ATOM     26  C   UNL     1     -40.689 -23.788  41.528  1.00  0.00    -0.000 C 
BRANCH  26  27
ATOM     27  C   UNL     1     -40.189 -25.234  41.742  1.00  0.00    -0.000 C 
BRANCH  27  28
ATOM     28  C   UNL     1     -39.614 -25.854  40.456  1.00  0.00    -0.000 C 
BRANCH  28  29
ATOM     29  C   UNL     1     -38.249 -26.524  40.689  1.00  0.00    -0.003 C 
ATOM     30  C   UNL     1     -38.375 -28.008  41.037  1.00  0.00     0.004 C 
ENDBRANCH  28  29
ENDBRANCH  27  28
ENDBRANCH  26  27
ENDBRANCH  25  26
ENDBRANCH  24  25
ENDBRANCH  23  24
ENDBRANCH  22  23
ENDBRANCH  21  22
ENDBRANCH  20  21
ENDBRANCH  19  20
ENDBRANCH  18  19
ENDBRANCH  17  18
ENDBRANCH   1  17
TORSDOF 26
ENDMDL
MODEL 6
REMARK VINA RESULT:    -4.344      2.716      5.399
REMARK INTER + INTRA:         -15.376
REMARK INTER:                 -11.607
REMARK INTRA:                  -3.769
REMARK UNBOUND:                -4.430
REMARK SMILES CCCCCCCCCCCCCCCCCCCCCCCCCCCC(=O)[O-]
REMARK SMILES IDX 15 1 16 2 17 3 18 4 19 5 20 6 21 7 22 8 23 9 24 10 25 11
REMARK SMILES IDX 26 12 27 13 28 14 29 15 30 16 14 17 13 18 12 19 11 20 10 21
REMARK SMILES IDX 9 22 8 23 7 24 6 25 5 26 4 27 3 28 2 29 1 30
REMARK H PARENT
REMARK Flexibility Score: inf
ROOT
ATOM      1  C   UNL     1     -42.528 -31.620  38.876  1.00  0.00     0.000 C 
ENDROOT
BRANCH   1   2
ATOM      2  C   UNL     1     -42.494 -32.526  40.125  1.00  0.00     0.000 C 
BRANCH   2   3
ATOM      3  C   UNL     1     -43.725 -33.442  40.269  1.00  0.00     0.000 C 
BRANCH   3   4
ATOM      4  C   UNL     1     -45.023 -32.756  40.739  1.00  0.00     0.000 C 
BRANCH   4   5
ATOM      5  C   UNL     1     -46.279 -33.025  39.880  1.00  0.00     0.000 C 
BRANCH   5   6
ATOM      6  C   UNL     1     -46.437 -32.098  38.653  1.00  0.00     0.000 C 
BRANCH   6   7
ATOM      7  C   UNL     1     -46.464 -32.835  37.303  1.00  0.00     0.000 C 
BRANCH   7   8
ATOM      8  C   UNL     1     -45.207 -33.687  37.062  1.00  0.00     0.000 C 
BRANCH   8   9
ATOM      9  C   UNL     1     -45.515 -35.192  36.935  1.00  0.00     0.000 C 
BRANCH   9  10
ATOM     10  C   UNL     1     -44.297 -36.132  37.087  1.00  0.00     0.000 C 
BRANCH  10  11
ATOM     11  C   UNL     1     -42.948 -35.429  37.326  1.00  0.00     0.000 C 
BRANCH  11  12
ATOM     12  C   UNL     1     -42.050 -35.420  36.077  1.00  0.00     0.006 C 
BRANCH  12  13
ATOM     13  C   UNL     1     -40.599 -35.800  36.405  1.00  0.00     0.053 C 
BRANCH  13  14
ATOM     14  C   UNL     1     -40.037 -34.963  37.513  1.00  0.00     0.041 C 
ATOM     15  O   UNL     1     -40.071 -33.706  37.436  1.00  0.00    -0.550 OA
ATOM     16  O   UNL     1     -39.460 -35.571  38.622  1.00  0.00    -0.550 OA
ENDBRANCH  13  14
ENDBRANCH  12  13
ENDBRANCH  11  12
ENDBRANCH  10  11
ENDBRANCH   9  10
ENDBRANCH   8   9
ENDBRANCH   7   8
ENDBRANCH   6   7
ENDBRANCH   5   6
ENDBRANCH   4   5
ENDBRANCH   3   4
ENDBRANCH   2   3
ENDBRANCH   1   2
BRANCH   1  17
ATOM     17  C   UNL     1     -42.827 -30.144  39.206  1.00  0.00     0.000 C 
BRANCH  17  18
ATOM     18  C   UNL     1     -42.842 -29.877  40.720  1.00  0.00     0.000 C 
BRANCH  18  19
ATOM     19  C   UNL     1     -42.057 -28.610  41.102  1.00  0.00     0.000 C 
BRANCH  19  20
ATOM     20  C   UNL     1     -40.878 -28.324  40.152  1.00  0.00     0.000 C 
BRANCH  20  21
ATOM     21  C   UNL     1     -39.683 -27.595  40.799  1.00  0.00     0.000 C 
BRANCH  21  22
ATOM     22  C   UNL     1     -39.466 -26.179  40.236  1.00  0.00    -0.000 C 
BRANCH  22  23
ATOM     23  C   UNL     1     -39.182 -25.134  41.331  1.00  0.00    -0.000 C 
BRANCH  23  24
ATOM     24  C   UNL     1     -40.437 -24.502  41.974  1.00  0.00    -0.000 C 
BRANCH  24  25
ATOM     25  C   UNL     1     -41.589 -24.185  41.000  1.00  0.00    -0.000 C 
BRANCH  25  26
ATOM     26  C   UNL     1     -42.860 -25.033  41.199  1.00  0.00    -0.000 C 
BRANCH  26  27
ATOM     27  C   UNL     1     -44.089 -24.496  40.433  1.00  0.00    -0.000 C 
BRANCH  27  28
ATOM     28  C   UNL     1     -44.720 -25.557  39.515  1.00  0.00    -0.000 C 
BRANCH  28  29
ATOM     29  C   UNL     1     -43.663 -26.371  38.749  1.00  0.00    -0.003 C 
ATOM     30  C   UNL     1     -44.233 -27.049  37.501  1.00  0.00     0.004 C 
ENDBRANCH  28  29
ENDBRANCH  27  28
ENDBRANCH  26  27
ENDBRANCH  25  26
ENDBRANCH  24  25
ENDBRANCH  23  24
ENDBRANCH  22  23
ENDBRANCH  21  22
ENDBRANCH  20  21
ENDBRANCH  19  20
ENDBRANCH  18  19
ENDBRANCH  17  18
ENDBRANCH   1  17
TORSDOF 26
ENDMDL
MODEL 7
REMARK VINA RESULT:    -4.335      1.896      8.162
REMARK INTER + INTRA:         -15.354
REMARK INTER:                 -11.025
REMARK INTRA:                  -4.329
REMARK UNBOUND:                -4.430
REMARK SMILES CCCCCCCCCCCCCCCCCCCCCCCCCCCC(=O)[O-]
REMARK SMILES IDX 15 1 16 2 17 3 18 4 19 5 20 6 21 7 22 8 23 9 24 10 25 11
REMARK SMILES IDX 26 12 27 13 28 14 29 15 30 16 14 17 13 18 12 19 11 20 10 21
REMARK SMILES IDX 9 22 8 23 7 24 6 25 5 26 4 27 3 28 2 29 1 30
REMARK H PARENT
REMARK Flexibility Score: inf
ROOT
ATOM      1  C   UNL     1     -42.525 -30.661  40.178  1.00  0.00     0.000 C 
ENDROOT
BRANCH   1   2
ATOM      2  C   UNL     1     -42.150 -29.285  40.769  1.00  0.00     0.000 C 
BRANCH   2   3
ATOM      3  C   UNL     1     -40.856 -28.683  40.187  1.00  0.00     0.000 C 
BRANCH   3   4
ATOM      4  C   UNL     1     -39.860 -28.110  41.215  1.00  0.00     0.000 C 
BRANCH   4   5
ATOM      5  C   UNL     1     -38.612 -27.411  40.630  1.00  0.00     0.000 C 
BRANCH   5   6
ATOM      6  C   UNL     1     -38.890 -26.052  39.948  1.00  0.00     0.000 C 
BRANCH   6   7
ATOM      7  C   UNL     1     -38.842 -24.845  40.902  1.00  0.00     0.000 C 
BRANCH   7   8
ATOM      8  C   UNL     1     -40.071 -23.931  40.773  1.00  0.00     0.000 C 
BRANCH   8   9
ATOM      9  C   UNL     1     -41.172 -24.254  41.802  1.00  0.00     0.000 C 
BRANCH   9  10
ATOM     10  C   UNL     1     -42.270 -25.226  41.315  1.00  0.00     0.000 C 
BRANCH  10  11
ATOM     11  C   UNL     1     -42.956 -24.837  39.993  1.00  0.00     0.000 C 
BRANCH  11  12
ATOM     12  C   UNL     1     -42.843 -25.930  38.917  1.00  0.00     0.006 C 
BRANCH  12  13
ATOM     13  C   UNL     1     -44.114 -26.786  38.826  1.00  0.00     0.053 C 
BRANCH  13  14
ATOM     14  C   UNL     1     -43.967 -27.903  37.838  1.00  0.00     0.041 C 
ATOM     15  O   UNL     1     -44.729 -28.905  37.898  1.00  0.00    -0.550 OA
ATOM     16  O   UNL     1     -42.978 -27.845  36.862  1.00  0.00    -0.550 OA
ENDBRANCH  13  14
ENDBRANCH  12  13
ENDBRANCH  11  12
ENDBRANCH  10  11
ENDBRANCH   9  10
ENDBRANCH   8   9
ENDBRANCH   7   8
ENDBRANCH   6   7
ENDBRANCH   5   6
ENDBRANCH   4   5
ENDBRANCH   3   4
ENDBRANCH   2   3
ENDBRANCH   1   2
BRANCH   1  17
ATOM     17  C   UNL     1     -41.884 -30.922  38.801  1.00  0.00     0.000 C 
BRANCH  17  18
ATOM     18  C   UNL     1     -41.127 -32.259  38.753  1.00  0.00     0.000 C 
BRANCH  18  19
ATOM     19  C   UNL     1     -41.932 -33.414  39.373  1.00  0.00     0.000 C 
BRANCH  19  20
ATOM     20  C   UNL     1     -41.580 -34.786  38.765  1.00  0.00     0.000 C 
BRANCH  20  21
ATOM     21  C   UNL     1     -41.179 -34.752  37.276  1.00  0.00     0.000 C 
BRANCH  21  22
ATOM     22  C   UNL     1     -41.898 -35.822  36.435  1.00  0.00    -0.000 C 
BRANCH  22  23
ATOM     23  C   UNL     1     -43.345 -35.433  36.078  1.00  0.00    -0.000 C 
BRANCH  23  24
ATOM     24  C   UNL     1     -44.432 -36.044  36.992  1.00  0.00    -0.000 C 
BRANCH  24  25
ATOM     25  C   UNL     1     -45.364 -35.027  37.678  1.00  0.00    -0.000 C 
BRANCH  25  26
ATOM     26  C   UNL     1     -45.359 -33.618  37.055  1.00  0.00    -0.000 C 
BRANCH  26  27
ATOM     27  C   UNL     1     -45.165 -32.486  38.087  1.00  0.00    -0.000 C 
BRANCH  27  28
ATOM     28  C   UNL     1     -46.498 -31.997  38.681  1.00  0.00    -0.000 C 
BRANCH  28  29
ATOM     29  C   UNL     1     -46.520 -32.080  40.217  1.00  0.00    -0.003 C 
ATOM     30  C   UNL     1     -45.337 -32.868  40.780  1.00  0.00     0.004 C 
ENDBRANCH  28  29
ENDBRANCH  27  28
ENDBRANCH  26  27
ENDBRANCH  25  26
ENDBRANCH  24  25
ENDBRANCH  23  24
ENDBRANCH  22  23
ENDBRANCH  21  22
ENDBRANCH  20  21
ENDBRANCH  19  20
ENDBRANCH  18  19
ENDBRANCH  17  18
ENDBRANCH   1  17
TORSDOF 26
ENDMDL
MODEL 8
REMARK VINA RESULT:    -4.317      2.395      5.954
REMARK INTER + INTRA:         -15.308
REMARK INTER:                 -10.567
REMARK INTRA:                  -4.741
REMARK UNBOUND:                -4.430
REMARK SMILES CCCCCCCCCCCCCCCCCCCCCCCCCCCC(=O)[O-]
REMARK SMILES IDX 15 1 16 2 17 3 18 4 19 5 20 6 21 7 22 8 23 9 24 10 25 11
REMARK SMILES IDX 26 12 27 13 28 14 29 15 30 16 14 17 13 18 12 19 11 20 10 21
REMARK SMILES IDX 9 22 8 23 7 24 6 25 5 26 4 27 3 28 2 29 1 30
REMARK H PARENT
REMARK Flexibility Score: inf
ROOT
ATOM      1  C   UNL     1     -42.989 -28.417  40.982  1.00  0.00     0.000 C 
ENDROOT
BRANCH   1   2
ATOM      2  C   UNL     1     -43.902 -27.422  40.235  1.00  0.00     0.000 C 
BRANCH   2   3
ATOM      3  C   UNL     1     -44.643 -28.033  39.029  1.00  0.00     0.000 C 
BRANCH   3   4
ATOM      4  C   UNL     1     -43.888 -29.142  38.268  1.00  0.00     0.000 C 
BRANCH   4   5
ATOM      5  C   UNL     1     -44.745 -30.334  37.787  1.00  0.00     0.000 C 
BRANCH   5   6
ATOM      6  C   UNL     1     -44.299 -31.713  38.324  1.00  0.00     0.000 C 
BRANCH   6   7
ATOM      7  C   UNL     1     -43.883 -31.710  39.805  1.00  0.00     0.000 C 
BRANCH   7   8
ATOM      8  C   UNL     1     -42.402 -32.064  40.011  1.00  0.00     0.000 C 
BRANCH   8   9
ATOM      9  C   UNL     1     -41.649 -32.305  38.687  1.00  0.00     0.000 C 
BRANCH   9  10
ATOM     10  C   UNL     1     -40.537 -33.376  38.743  1.00  0.00     0.000 C 
BRANCH  10  11
ATOM     11  C   UNL     1     -41.017 -34.832  38.596  1.00  0.00     0.000 C 
BRANCH  11  12
ATOM     12  C   UNL     1     -42.508 -34.936  38.233  1.00  0.00     0.006 C 
BRANCH  12  13
ATOM     13  C   UNL     1     -42.720 -35.456  36.804  1.00  0.00     0.053 C 
BRANCH  13  14
ATOM     14  C   UNL     1     -44.159 -35.772  36.531  1.00  0.00     0.041 C 
ATOM     15  O   UNL     1     -45.001 -34.842  36.416  1.00  0.00    -0.550 OA
ATOM     16  O   UNL     1     -44.573 -37.095  36.420  1.00  0.00    -0.550 OA
ENDBRANCH  13  14
ENDBRANCH  12  13
ENDBRANCH  11  12
ENDBRANCH  10  11
ENDBRANCH   9  10
ENDBRANCH   8   9
ENDBRANCH   7   8
ENDBRANCH   6   7
ENDBRANCH   5   6
ENDBRANCH   4   5
ENDBRANCH   3   4
ENDBRANCH   2   3
ENDBRANCH   1   2
BRANCH   1  17
ATOM     17  C   UNL     1     -41.501 -28.017  40.946  1.00  0.00     0.000 C 
BRANCH  17  18
ATOM     18  C   UNL     1     -40.691 -28.870  39.957  1.00  0.00     0.000 C 
BRANCH  18  19
ATOM     19  C   UNL     1     -39.237 -28.384  39.814  1.00  0.00     0.000 C 
BRANCH  19  20
ATOM     20  C   UNL     1     -38.869 -27.285  40.829  1.00  0.00     0.000 C 
BRANCH  20  21
ATOM     21  C   UNL     1     -38.259 -26.009  40.212  1.00  0.00     0.000 C 
BRANCH  21  22
ATOM     22  C   UNL     1     -38.799 -24.717  40.850  1.00  0.00    -0.000 C 
BRANCH  22  23
ATOM     23  C   UNL     1     -39.972 -24.967  41.815  1.00  0.00    -0.000 C 
BRANCH  23  24
ATOM     24  C   UNL     1     -41.102 -23.914  41.758  1.00  0.00    -0.000 C 
BRANCH  24  25
ATOM     25  C   UNL     1     -42.298 -24.278  40.857  1.00  0.00    -0.000 C 
BRANCH  25  26
ATOM     26  C   UNL     1     -42.458 -23.397  39.603  1.00  0.00    -0.000 C 
BRANCH  26  27
ATOM     27  C   UNL     1     -41.719 -23.945  38.363  1.00  0.00    -0.000 C 
BRANCH  27  28
ATOM     28  C   UNL     1     -41.553 -25.475  38.406  1.00  0.00    -0.000 C 
BRANCH  28  29
ATOM     29  C   UNL     1     -40.658 -25.999  37.270  1.00  0.00    -0.003 C 
ATOM     30  C   UNL     1     -39.542 -25.020  36.901  1.00  0.00     0.004 C 
ENDBRANCH  28  29
ENDBRANCH  27  28
ENDBRANCH  26  27
ENDBRANCH  25  26
ENDBRANCH  24  25
ENDBRANCH  23  24
ENDBRANCH  22  23
ENDBRANCH  21  22
ENDBRANCH  20  21
ENDBRANCH  19  20
ENDBRANCH  18  19
ENDBRANCH  17  18
ENDBRANCH   1  17
TORSDOF 26
ENDMDL
MODEL 9
REMARK VINA RESULT:    -4.251      1.759      4.562
REMARK INTER + INTRA:         -15.143
REMARK INTER:                 -11.499
REMARK INTRA:                  -3.644
REMARK UNBOUND:                -4.430
REMARK SMILES CCCCCCCCCCCCCCCCCCCCCCCCCCCC(=O)[O-]
REMARK SMILES IDX 15 1 16 2 17 3 18 4 19 5 20 6 21 7 22 8 23 9 24 10 25 11
REMARK SMILES IDX 26 12 27 13 28 14 29 15 30 16 14 17 13 18 12 19 11 20 10 21
REMARK SMILES IDX 9 22 8 23 7 24 6 25 5 26 4 27 3 28 2 29 1 30
REMARK H PARENT
REMARK Flexibility Score: inf
ROOT
ATOM      1  C   UNL     1     -42.208 -32.793  39.264  1.00  0.00     0.000 C 
ENDROOT
BRANCH   1   2
ATOM      2  C   UNL     1     -40.798 -33.168  38.760  1.00  0.00     0.000 C 
BRANCH   2   3
ATOM      3  C   UNL     1     -40.290 -34.530  39.274  1.00  0.00     0.000 C 
BRANCH   3   4
ATOM      4  C   UNL     1     -39.776 -35.506  38.196  1.00  0.00     0.000 C 
BRANCH   4   5
ATOM      5  C   UNL     1     -40.112 -35.135  36.734  1.00  0.00     0.000 C 
BRANCH   5   6
ATOM      6  C   UNL     1     -41.266 -35.950  36.106  1.00  0.00     0.000 C 
BRANCH   6   7
ATOM      7  C   UNL     1     -42.670 -35.499  36.545  1.00  0.00     0.000 C 
BRANCH   7   8
ATOM      8  C   UNL     1     -43.710 -36.628  36.475  1.00  0.00     0.000 C 
BRANCH   8   9
ATOM      9  C   UNL     1     -44.990 -36.319  37.276  1.00  0.00     0.000 C 
BRANCH   9  10
ATOM     10  C   UNL     1     -44.783 -35.491  38.564  1.00  0.00     0.000 C 
BRANCH  10  11
ATOM     11  C   UNL     1     -45.488 -34.122  38.589  1.00  0.00     0.000 C 
BRANCH  11  12
ATOM     12  C   UNL     1     -45.979 -33.678  37.201  1.00  0.00     0.006 C 
BRANCH  12  13
ATOM     13  C   UNL     1     -46.051 -32.150  37.075  1.00  0.00     0.053 C 
BRANCH  13  14
ATOM     14  C   UNL     1     -47.169 -31.573  37.887  1.00  0.00     0.041 C 
ATOM     15  O   UNL     1     -48.303 -32.121  37.884  1.00  0.00    -0.550 OA
ATOM     16  O   UNL     1     -46.964 -30.418  38.635  1.00  0.00    -0.550 OA
ENDBRANCH  13  14
ENDBRANCH  12  13
ENDBRANCH  11  12
ENDBRANCH  10  11
ENDBRANCH   9  10
ENDBRANCH   8   9
ENDBRANCH   7   8
ENDBRANCH   6   7
ENDBRANCH   5   6
ENDBRANCH   4   5
ENDBRANCH   3   4
ENDBRANCH   2   3
ENDBRANCH   1   2
BRANCH   1  17
ATOM     17  C   UNL     1     -42.784 -31.541  38.573  1.00  0.00     0.000 C 
BRANCH  17  18
ATOM     18  C   UNL     1     -43.127 -30.427  39.575  1.00  0.00     0.000 C 
BRANCH  18  19
ATOM     19  C   UNL     1     -41.875 -29.804  40.215  1.00  0.00     0.000 C 
BRANCH  19  20
ATOM     20  C   UNL     1     -40.778 -29.468  39.186  1.00  0.00     0.000 C 
BRANCH  20  21
ATOM     21  C   UNL     1     -40.491 -27.963  39.011  1.00  0.00     0.000 C 
BRANCH  21  22
ATOM     22  C   UNL     1     -39.516 -27.410  40.066  1.00  0.00    -0.000 C 
BRANCH  22  23
ATOM     23  C   UNL     1     -38.980 -26.010  39.715  1.00  0.00    -0.000 C 
BRANCH  23  24
ATOM     24  C   UNL     1     -38.907 -25.021  40.900  1.00  0.00    -0.000 C 
BRANCH  24  25
ATOM     25  C   UNL     1     -40.138 -25.012  41.829  1.00  0.00    -0.000 C 
BRANCH  25  26
ATOM     26  C   UNL     1     -41.113 -23.841  41.603  1.00  0.00    -0.000 C 
BRANCH  26  27
ATOM     27  C   UNL     1     -42.571 -24.288  41.357  1.00  0.00    -0.000 C 
BRANCH  27  28
ATOM     28  C   UNL     1     -42.670 -25.430  40.329  1.00  0.00    -0.000 C 
BRANCH  28  29
ATOM     29  C   UNL     1     -43.474 -26.628  40.861  1.00  0.00    -0.003 C 
ATOM     30  C   UNL     1     -44.600 -27.048  39.914  1.00  0.00     0.004 C 
ENDBRANCH  28  29
ENDBRANCH  27  28
ENDBRANCH  26  27
ENDBRANCH  25  26
ENDBRANCH  24  25
ENDBRANCH  23  24
ENDBRANCH  22  23
ENDBRANCH  21  22
ENDBRANCH  20  21
ENDBRANCH  19  20
ENDBRANCH  18  19
ENDBRANCH  17  18
ENDBRANCH   1  17
TORSDOF 26
ENDMDL
