MODEL 1
REMARK VINA RESULT:    -4.008      0.000      0.000
REMARK INTER + INTRA:          -5.110
REMARK INTER:                  -4.828
REMARK INTRA:                  -0.282
REMARK UNBOUND:                -0.282
REMARK SMILES O=c1c(O)c(-c2ccc(O)c(O)c2)oc2cc(O)cc(O)c12
REMARK SMILES IDX 5 1 3 2 2 3 1 4 22 5 20 6 19 7 17 8 16 9 15 10 14 11 6 12
REMARK SMILES IDX 7 13 8 14 9 15 13 16 11 17 10 18 12 20 4 22 21 24 18 26
REMARK H PARENT 10 19 12 21 4 23 21 25 18 27
REMARK Flexibility Score: inf
ROOT
ATOM      1  C   UNL     1       7.398   5.728   8.613  1.00  0.00     0.180 A 
ATOM      2  C   UNL     1       8.385   6.633   8.187  1.00  0.00     0.208 A 
ATOM      3  C   UNL     1       8.342   7.119   6.870  1.00  0.00     0.238 A 
ATOM      4  O   UNL     1       9.196   7.971   6.511  1.00  0.00    -0.285 OA
ATOM      5  C   UNL     1       7.321   6.681   5.992  1.00  0.00     0.111 A 
ATOM      6  C   UNL     1       7.203   7.076   4.626  1.00  0.00     0.134 A 
ATOM      7  C   UNL     1       6.080   6.684   3.887  1.00  0.00     0.093 A 
ATOM      8  C   UNL     1       5.103   5.857   4.447  1.00  0.00     0.123 A 
ATOM      9  C   UNL     1       5.239   5.417   5.762  1.00  0.00     0.094 A 
ATOM     10  C   UNL     1       6.330   5.821   6.534  1.00  0.00     0.146 A 
ATOM     11  O   UNL     1       6.417   5.387   7.787  1.00  0.00    -0.452 OA
ENDROOT
BRANCH   1  12
ATOM     12  C   UNL     1       7.393   5.153   9.978  1.00  0.00     0.025 A 
ATOM     13  C   UNL     1       6.943   5.895  11.084  1.00  0.00     0.016 A 
ATOM     14  C   UNL     1       6.970   5.339  12.366  1.00  0.00     0.051 A 
ATOM     15  C   UNL     1       7.460   4.041  12.563  1.00  0.00     0.157 A 
ATOM     16  C   UNL     1       7.902   3.860  10.185  1.00  0.00     0.062 A 
ATOM     17  C   UNL     1       7.931   3.300  11.467  1.00  0.00     0.158 A 
BRANCH  15  18
ATOM     18  O   UNL     1       7.483   3.489  13.844  1.00  0.00    -0.504 OA
ATOM     19  H   UNL     1       8.335   3.453  14.390  1.00  0.00     0.293 HD
ENDBRANCH  15  18
BRANCH  17  20
ATOM     20  O   UNL     1       8.430   2.009  11.631  1.00  0.00    -0.504 OA
ATOM     21  H   UNL     1       8.010   1.347  12.273  1.00  0.00     0.293 HD
ENDBRANCH  17  20
ENDBRANCH   1  12
BRANCH   2  22
ATOM     22  O   UNL     1       9.371   7.070   9.076  1.00  0.00    -0.502 OA
ATOM     23  H   UNL     1      10.327   7.244   8.788  1.00  0.00     0.293 HD
ENDBRANCH   2  22
BRANCH   6  24
ATOM     24  O   UNL     1       8.167   7.825   3.943  1.00  0.00    -0.507 OA
ATOM     25  H   UNL     1       8.034   8.238   3.032  1.00  0.00     0.293 HD
ENDBRANCH   6  24
BRANCH   8  26
ATOM     26  O   UNL     1       3.997   5.458   3.701  1.00  0.00    -0.508 OA
ATOM     27  H   UNL     1       3.052   5.673   3.998  1.00  0.00     0.293 HD
ENDBRANCH   8  26
TORSDOF 6
ENDMDL
MODEL 2
REMARK VINA RESULT:    -3.806      5.804      9.227
REMARK INTER + INTRA:          -4.867
REMARK INTER:                  -4.600
REMARK INTRA:                  -0.267
REMARK UNBOUND:                -0.282
REMARK SMILES O=c1c(O)c(-c2ccc(O)c(O)c2)oc2cc(O)cc(O)c12
REMARK SMILES IDX 5 1 3 2 2 3 1 4 22 5 20 6 19 7 17 8 16 9 15 10 14 11 6 12
REMARK SMILES IDX 7 13 8 14 9 15 13 16 11 17 10 18 12 20 4 22 21 24 18 26
REMARK H PARENT 10 19 12 21 4 23 21 25 18 27
REMARK Flexibility Score: inf
ROOT
ATOM      1  C   UNL     1      12.697   6.983   5.622  1.00  0.00     0.180 A 
ATOM      2  C   UNL     1      11.780   7.536   6.532  1.00  0.00     0.208 A 
ATOM      3  C   UNL     1      12.220   7.875   7.822  1.00  0.00     0.238 A 
ATOM      4  O   UNL     1      11.407   8.421   8.613  1.00  0.00    -0.285 OA
ATOM      5  C   UNL     1      13.566   7.640   8.190  1.00  0.00     0.111 A 
ATOM      6  C   UNL     1      14.111   7.908   9.482  1.00  0.00     0.134 A 
ATOM      7  C   UNL     1      15.487   7.759   9.696  1.00  0.00     0.093 A 
ATOM      8  C   UNL     1      16.327   7.291   8.682  1.00  0.00     0.123 A 
ATOM      9  C   UNL     1      15.795   6.971   7.435  1.00  0.00     0.094 A 
ATOM     10  C   UNL     1      14.432   7.143   7.181  1.00  0.00     0.146 A 
ATOM     11  O   UNL     1      13.968   6.836   5.976  1.00  0.00    -0.452 OA
ENDROOT
BRANCH   1  12
ATOM     12  C   UNL     1      12.301   6.577   4.254  1.00  0.00     0.025 A 
ATOM     13  C   UNL     1      12.610   7.371   3.136  1.00  0.00     0.016 A 
ATOM     14  C   UNL     1      12.205   6.979   1.857  1.00  0.00     0.051 A 
ATOM     15  C   UNL     1      11.476   5.796   1.678  1.00  0.00     0.157 A 
ATOM     16  C   UNL     1      11.552   5.403   4.071  1.00  0.00     0.062 A 
ATOM     17  C   UNL     1      11.146   5.006   2.792  1.00  0.00     0.158 A 
BRANCH  15  18
ATOM     18  O   UNL     1      11.076   5.406   0.400  1.00  0.00    -0.504 OA
ATOM     19  H   UNL     1      10.706   6.073  -0.266  1.00  0.00     0.293 HD
ENDBRANCH  15  18
BRANCH  17  20
ATOM     20  O   UNL     1      10.416   3.827   2.647  1.00  0.00    -0.504 OA
ATOM     21  H   UNL     1       9.869   3.631   1.818  1.00  0.00     0.293 HD
ENDBRANCH  17  20
ENDBRANCH   1  12
BRANCH   2  22
ATOM     22  O   UNL     1      10.460   7.780   6.140  1.00  0.00    -0.502 OA
ATOM     23  H   UNL     1       9.666   7.361   6.610  1.00  0.00     0.293 HD
ENDBRANCH   2  22
BRANCH   6  24
ATOM     24  O   UNL     1      13.346   8.292  10.588  1.00  0.00    -0.507 OA
ATOM     25  H   UNL     1      12.353   8.141  10.679  1.00  0.00     0.293 HD
ENDBRANCH   6  24
BRANCH   8  26
ATOM     26  O   UNL     1      17.692   7.131   8.908  1.00  0.00    -0.508 OA
ATOM     27  H   UNL     1      18.172   7.643   9.639  1.00  0.00     0.293 HD
ENDBRANCH   8  26
TORSDOF 6
ENDMDL
MODEL 3
REMARK VINA RESULT:    -3.805      4.985      9.004
REMARK INTER + INTRA:          -4.865
REMARK INTER:                  -4.538
REMARK INTRA:                  -0.328
REMARK UNBOUND:                -0.282
REMARK SMILES O=c1c(O)c(-c2ccc(O)c(O)c2)oc2cc(O)cc(O)c12
REMARK SMILES IDX 5 1 3 2 2 3 1 4 22 5 20 6 19 7 17 8 16 9 15 10 14 11 6 12
REMARK SMILES IDX 7 13 8 14 9 15 13 16 11 17 10 18 12 20 4 22 21 24 18 26
REMARK H PARENT 10 19 12 21 4 23 21 25 18 27
REMARK Flexibility Score: inf
ROOT
ATOM      1  C   UNL     1      11.416   6.538   4.478  1.00  0.00     0.180 A 
ATOM      2  C   UNL     1      10.423   6.629   5.469  1.00  0.00     0.208 A 
ATOM      3  C   UNL     1      10.773   7.109   6.741  1.00  0.00     0.238 A 
ATOM      4  O   UNL     1       9.869   7.240   7.607  1.00  0.00    -0.285 OA
ATOM      5  C   UNL     1      12.113   7.476   7.011  1.00  0.00     0.111 A 
ATOM      6  C   UNL     1      12.588   7.938   8.276  1.00  0.00     0.134 A 
ATOM      7  C   UNL     1      13.906   8.397   8.393  1.00  0.00     0.093 A 
ATOM      8  C   UNL     1      14.784   8.350   7.308  1.00  0.00     0.123 A 
ATOM      9  C   UNL     1      14.347   7.847   6.085  1.00  0.00     0.094 A 
ATOM     10  C   UNL     1      13.028   7.415   5.927  1.00  0.00     0.146 A 
ATOM     11  O   UNL     1      12.649   6.951   4.742  1.00  0.00    -0.452 OA
ENDROOT
BRANCH   1  12
ATOM     12  C   UNL     1      11.129   6.017   3.122  1.00  0.00     0.025 A 
ATOM     13  C   UNL     1      11.141   4.637   2.849  1.00  0.00     0.016 A 
ATOM     14  C   UNL     1      10.891   4.171   1.556  1.00  0.00     0.051 A 
ATOM     15  C   UNL     1      10.638   5.074   0.515  1.00  0.00     0.157 A 
ATOM     16  C   UNL     1      10.896   6.918   2.070  1.00  0.00     0.062 A 
ATOM     17  C   UNL     1      10.644   6.454   0.774  1.00  0.00     0.158 A 
BRANCH  15  18
ATOM     18  O   UNL     1      10.386   4.604  -0.774  1.00  0.00    -0.504 OA
ATOM     19  H   UNL     1      11.139   4.366  -1.408  1.00  0.00     0.293 HD
ENDBRANCH  15  18
BRANCH  17  20
ATOM     20  O   UNL     1      10.402   7.378  -0.242  1.00  0.00    -0.504 OA
ATOM     21  H   UNL     1      10.693   8.346  -0.169  1.00  0.00     0.293 HD
ENDBRANCH  17  20
ENDBRANCH   1  12
BRANCH   2  22
ATOM     22  O   UNL     1       9.101   6.282   5.175  1.00  0.00    -0.502 OA
ATOM     23  H   UNL     1       8.431   6.034   5.893  1.00  0.00     0.293 HD
ENDBRANCH   2  22
BRANCH   6  24
ATOM     24  O   UNL     1      11.821   7.940   9.444  1.00  0.00    -0.507 OA
ATOM     25  H   UNL     1      11.939   8.589  10.208  1.00  0.00     0.293 HD
ENDBRANCH   6  24
BRANCH   8  26
ATOM     26  O   UNL     1      16.098   8.794   7.437  1.00  0.00    -0.508 OA
ATOM     27  H   UNL     1      16.538   9.363   6.723  1.00  0.00     0.293 HD
ENDBRANCH   8  26
TORSDOF 6
ENDMDL
MODEL 4
REMARK VINA RESULT:    -3.729      2.789      5.315
REMARK INTER + INTRA:          -4.774
REMARK INTER:                  -4.834
REMARK INTRA:                   0.060
REMARK UNBOUND:                -0.282
REMARK SMILES O=c1c(O)c(-c2ccc(O)c(O)c2)oc2cc(O)cc(O)c12
REMARK SMILES IDX 5 1 3 2 2 3 1 4 22 5 20 6 19 7 17 8 16 9 15 10 14 11 6 12
REMARK SMILES IDX 7 13 8 14 9 15 13 16 11 17 10 18 12 20 4 22 21 24 18 26
REMARK H PARENT 10 19 12 21 4 23 21 25 18 27
REMARK Flexibility Score: inf
ROOT
ATOM      1  C   UNL     1       8.493   6.563   7.076  1.00  0.00     0.180 A 
ATOM      2  C   UNL     1       8.066   6.747   8.402  1.00  0.00     0.208 A 
ATOM      3  C   UNL     1       6.691   6.735   8.684  1.00  0.00     0.238 A 
ATOM      4  O   UNL     1       6.318   6.845   9.881  1.00  0.00    -0.285 OA
ATOM      5  C   UNL     1       5.759   6.556   7.633  1.00  0.00     0.111 A 
ATOM      6  C   UNL     1       4.341   6.567   7.797  1.00  0.00     0.134 A 
ATOM      7  C   UNL     1       3.518   6.249   6.710  1.00  0.00     0.093 A 
ATOM      8  C   UNL     1       4.059   5.985   5.450  1.00  0.00     0.123 A 
ATOM      9  C   UNL     1       5.439   6.030   5.266  1.00  0.00     0.094 A 
ATOM     10  C   UNL     1       6.287   6.309   6.339  1.00  0.00     0.146 A 
ATOM     11  O   UNL     1       7.598   6.332   6.123  1.00  0.00    -0.452 OA
ENDROOT
BRANCH   1  12
ATOM     12  C   UNL     1       9.924   6.589   6.698  1.00  0.00     0.025 A 
ATOM     13  C   UNL     1      10.494   5.571   5.914  1.00  0.00     0.016 A 
ATOM     14  C   UNL     1      11.853   5.605   5.590  1.00  0.00     0.051 A 
ATOM     15  C   UNL     1      12.664   6.648   6.055  1.00  0.00     0.157 A 
ATOM     16  C   UNL     1      10.747   7.621   7.178  1.00  0.00     0.062 A 
ATOM     17  C   UNL     1      12.108   7.659   6.855  1.00  0.00     0.158 A 
BRANCH  15  18
ATOM     18  O   UNL     1      14.020   6.680   5.727  1.00  0.00    -0.504 OA
ATOM     19  H   UNL     1      14.671   7.275   6.224  1.00  0.00     0.293 HD
ENDBRANCH  15  18
BRANCH  17  20
ATOM     20  O   UNL     1      12.891   8.707   7.338  1.00  0.00    -0.504 OA
ATOM     21  H   UNL     1      13.699   8.548   7.928  1.00  0.00     0.293 HD
ENDBRANCH  17  20
ENDBRANCH   1  12
BRANCH   2  22
ATOM     22  O   UNL     1       9.004   6.900   9.428  1.00  0.00    -0.502 OA
ATOM     23  H   UNL     1       8.932   6.407  10.310  1.00  0.00     0.293 HD
ENDBRANCH   2  22
BRANCH   6  24
ATOM     24  O   UNL     1       3.695   6.906   8.990  1.00  0.00    -0.507 OA
ATOM     25  H   UNL     1       3.680   7.832   9.391  1.00  0.00     0.293 HD
ENDBRANCH   6  24
BRANCH   8  26
ATOM     26  O   UNL     1       3.232   5.686   4.370  1.00  0.00    -0.508 OA
ATOM     27  H   UNL     1       2.955   6.395   3.701  1.00  0.00     0.293 HD
ENDBRANCH   8  26
TORSDOF 6
ENDMDL
MODEL 5
REMARK VINA RESULT:    -3.678      6.289      9.456
REMARK INTER + INTRA:          -4.713
REMARK INTER:                  -4.423
REMARK INTRA:                  -0.290
REMARK UNBOUND:                -0.282
REMARK SMILES O=c1c(O)c(-c2ccc(O)c(O)c2)oc2cc(O)cc(O)c12
REMARK SMILES IDX 5 1 3 2 2 3 1 4 22 5 20 6 19 7 17 8 16 9 15 10 14 11 6 12
REMARK SMILES IDX 7 13 8 14 9 15 13 16 11 17 10 18 12 20 4 22 21 24 18 26
REMARK H PARENT 10 19 12 21 4 23 21 25 18 27
REMARK Flexibility Score: inf
ROOT
ATOM      1  C   UNL     1      13.464   7.727   7.614  1.00  0.00     0.180 A 
ATOM      2  C   UNL     1      13.255   7.821   9.001  1.00  0.00     0.208 A 
ATOM      3  C   UNL     1      14.366   7.815   9.860  1.00  0.00     0.238 A 
ATOM      4  O   UNL     1      14.175   7.954  11.096  1.00  0.00    -0.285 OA
ATOM      5  C   UNL     1      15.670   7.698   9.322  1.00  0.00     0.111 A 
ATOM      6  C   UNL     1      16.865   7.640  10.100  1.00  0.00     0.134 A 
ATOM      7  C   UNL     1      18.109   7.656   9.458  1.00  0.00     0.093 A 
ATOM      8  C   UNL     1      18.200   7.662   8.064  1.00  0.00     0.123 A 
ATOM      9  C   UNL     1      17.039   7.658   7.295  1.00  0.00     0.094 A 
ATOM     10  C   UNL     1      15.784   7.679   7.907  1.00  0.00     0.146 A 
ATOM     11  O   UNL     1      14.702   7.685   7.137  1.00  0.00    -0.452 OA
ENDROOT
BRANCH   1  12
ATOM     12  C   UNL     1      12.342   7.702   6.649  1.00  0.00     0.025 A 
ATOM     13  C   UNL     1      11.673   8.879   6.271  1.00  0.00     0.016 A 
ATOM     14  C   UNL     1      10.601   8.827   5.376  1.00  0.00     0.051 A 
ATOM     15  C   UNL     1      10.173   7.598   4.856  1.00  0.00     0.157 A 
ATOM     16  C   UNL     1      11.895   6.471   6.140  1.00  0.00     0.062 A 
ATOM     17  C   UNL     1      10.822   6.414   5.243  1.00  0.00     0.158 A 
BRANCH  15  18
ATOM     18  O   UNL     1       9.105   7.550   3.961  1.00  0.00    -0.504 OA
ATOM     19  H   UNL     1       8.334   6.906   4.090  1.00  0.00     0.293 HD
ENDBRANCH  15  18
BRANCH  17  20
ATOM     20  O   UNL     1      10.417   5.175   4.749  1.00  0.00    -0.504 OA
ATOM     21  H   UNL     1      10.204   4.396   5.359  1.00  0.00     0.293 HD
ENDBRANCH  17  20
ENDBRANCH   1  12
BRANCH   2  22
ATOM     22  O   UNL     1      11.960   7.958   9.510  1.00  0.00    -0.502 OA
ATOM     23  H   UNL     1      11.687   8.732  10.103  1.00  0.00     0.293 HD
ENDBRANCH   2  22
BRANCH   6  24
ATOM     24  O   UNL     1      16.885   7.540  11.494  1.00  0.00    -0.507 OA
ATOM     25  H   UNL     1      16.149   7.863  12.104  1.00  0.00     0.293 HD
ENDBRANCH   6  24
BRANCH   8  26
ATOM     26  O   UNL     1      19.442   7.661   7.432  1.00  0.00    -0.508 OA
ATOM     27  H   UNL     1      19.585   8.130   6.546  1.00  0.00     0.293 HD
ENDBRANCH   8  26
TORSDOF 6
ENDMDL
MODEL 6
REMARK VINA RESULT:    -3.674      3.699      7.007
REMARK INTER + INTRA:          -4.708
REMARK INTER:                  -4.429
REMARK INTRA:                  -0.279
REMARK UNBOUND:                -0.282
REMARK SMILES O=c1c(O)c(-c2ccc(O)c(O)c2)oc2cc(O)cc(O)c12
REMARK SMILES IDX 5 1 3 2 2 3 1 4 22 5 20 6 19 7 17 8 16 9 15 10 14 11 6 12
REMARK SMILES IDX 7 13 8 14 9 15 13 16 11 17 10 18 12 20 4 22 21 24 18 26
REMARK H PARENT 10 19 12 21 4 23 21 25 18 27
REMARK Flexibility Score: inf
ROOT
ATOM      1  C   UNL     1       9.666   6.777   6.241  1.00  0.00     0.180 A 
ATOM      2  C   UNL     1      10.571   6.145   5.370  1.00  0.00     0.208 A 
ATOM      3  C   UNL     1      11.948   6.270   5.610  1.00  0.00     0.238 A 
ATOM      4  O   UNL     1      12.751   5.656   4.859  1.00  0.00    -0.285 OA
ATOM      5  C   UNL     1      12.404   7.039   6.708  1.00  0.00     0.111 A 
ATOM      6  C   UNL     1      13.778   7.266   7.023  1.00  0.00     0.134 A 
ATOM      7  C   UNL     1      14.114   7.933   8.208  1.00  0.00     0.093 A 
ATOM      8  C   UNL     1      13.125   8.438   9.055  1.00  0.00     0.123 A 
ATOM      9  C   UNL     1      11.781   8.273   8.726  1.00  0.00     0.094 A 
ATOM     10  C   UNL     1      11.415   7.580   7.570  1.00  0.00     0.146 A 
ATOM     11  O   UNL     1      10.123   7.436   7.299  1.00  0.00    -0.452 OA
ENDROOT
BRANCH   1  12
ATOM     12  C   UNL     1       8.201   6.713   6.037  1.00  0.00     0.025 A 
ATOM     13  C   UNL     1       7.395   5.838   6.786  1.00  0.00     0.016 A 
ATOM     14  C   UNL     1       6.017   5.778   6.560  1.00  0.00     0.051 A 
ATOM     15  C   UNL     1       5.427   6.580   5.574  1.00  0.00     0.157 A 
ATOM     16  C   UNL     1       7.607   7.499   5.036  1.00  0.00     0.062 A 
ATOM     17  C   UNL     1       6.228   7.442   4.807  1.00  0.00     0.158 A 
BRANCH  15  18
ATOM     18  O   UNL     1       4.052   6.519   5.352  1.00  0.00    -0.504 OA
ATOM     19  H   UNL     1       3.626   6.950   4.540  1.00  0.00     0.293 HD
ENDBRANCH  15  18
BRANCH  17  20
ATOM     20  O   UNL     1       5.672   8.248   3.814  1.00  0.00    -0.504 OA
ATOM     21  H   UNL     1       4.810   8.760   3.957  1.00  0.00     0.293 HD
ENDBRANCH  17  20
ENDBRANCH   1  12
BRANCH   2  22
ATOM     22  O   UNL     1      10.099   5.373   4.305  1.00  0.00    -0.502 OA
ATOM     23  H   UNL     1      10.698   5.061   3.551  1.00  0.00     0.293 HD
ENDBRANCH   2  22
BRANCH   6  24
ATOM     24  O   UNL     1      14.841   6.884   6.200  1.00  0.00    -0.507 OA
ATOM     25  H   UNL     1      14.861   6.997   5.197  1.00  0.00     0.293 HD
ENDBRANCH   6  24
BRANCH   8  26
ATOM     26  O   UNL     1      13.467   9.115  10.223  1.00  0.00    -0.508 OA
ATOM     27  H   UNL     1      13.906   8.638  11.003  1.00  0.00     0.293 HD
ENDBRANCH   8  26
TORSDOF 6
ENDMDL
MODEL 7
REMARK VINA RESULT:    -3.642      6.416      9.436
REMARK INTER + INTRA:          -4.669
REMARK INTER:                  -4.369
REMARK INTRA:                  -0.300
REMARK UNBOUND:                -0.282
REMARK SMILES O=c1c(O)c(-c2ccc(O)c(O)c2)oc2cc(O)cc(O)c12
REMARK SMILES IDX 5 1 3 2 2 3 1 4 22 5 20 6 19 7 17 8 16 9 15 10 14 11 6 12
REMARK SMILES IDX 7 13 8 14 9 15 13 16 11 17 10 18 12 20 4 22 21 24 18 26
REMARK H PARENT 10 19 12 21 4 23 21 25 18 27
REMARK Flexibility Score: inf
ROOT
ATOM      1  C   UNL     1      13.841   7.229   6.249  1.00  0.00     0.180 A 
ATOM      2  C   UNL     1      14.935   7.743   5.531  1.00  0.00     0.208 A 
ATOM      3  C   UNL     1      16.169   7.894   6.184  1.00  0.00     0.238 A 
ATOM      4  O   UNL     1      17.157   8.304   5.521  1.00  0.00    -0.285 OA
ATOM      5  C   UNL     1      16.289   7.545   7.551  1.00  0.00     0.111 A 
ATOM      6  C   UNL     1      17.480   7.695   8.323  1.00  0.00     0.134 A 
ATOM      7  C   UNL     1      17.522   7.195   9.631  1.00  0.00     0.093 A 
ATOM      8  C   UNL     1      16.396   6.610  10.215  1.00  0.00     0.123 A 
ATOM      9  C   UNL     1      15.211   6.513   9.490  1.00  0.00     0.094 A 
ATOM     10  C   UNL     1      15.149   6.970   8.171  1.00  0.00     0.146 A 
ATOM     11  O   UNL     1      14.003   6.850   7.511  1.00  0.00    -0.452 OA
ENDROOT
BRANCH   1  12
ATOM     12  C   UNL     1      12.504   7.065   5.637  1.00  0.00     0.025 A 
ATOM     13  C   UNL     1      11.478   8.002   5.854  1.00  0.00     0.016 A 
ATOM     14  C   UNL     1      10.217   7.814   5.284  1.00  0.00     0.051 A 
ATOM     15  C   UNL     1       9.956   6.682   4.501  1.00  0.00     0.157 A 
ATOM     16  C   UNL     1      12.231   5.922   4.867  1.00  0.00     0.062 A 
ATOM     17  C   UNL     1      10.968   5.731   4.294  1.00  0.00     0.158 A 
BRANCH  15  18
ATOM     18  O   UNL     1       8.696   6.499   3.931  1.00  0.00    -0.504 OA
ATOM     19  H   UNL     1       7.858   6.861   4.370  1.00  0.00     0.293 HD
ENDBRANCH  15  18
BRANCH  17  20
ATOM     20  O   UNL     1      10.739   4.591   3.525  1.00  0.00    -0.504 OA
ATOM     21  H   UNL     1      11.394   3.819   3.498  1.00  0.00     0.293 HD
ENDBRANCH  17  20
ENDBRANCH   1  12
BRANCH   2  22
ATOM     22  O   UNL     1      14.800   8.061   4.177  1.00  0.00    -0.502 OA
ATOM     23  H   UNL     1      14.361   8.917   3.859  1.00  0.00     0.293 HD
ENDBRANCH   2  22
BRANCH   6  24
ATOM     24  O   UNL     1      18.630   8.345   7.867  1.00  0.00    -0.507 OA
ATOM     25  H   UNL     1      19.301   8.810   8.461  1.00  0.00     0.293 HD
ENDBRANCH   6  24
BRANCH   8  26
ATOM     26  O   UNL     1      16.442   6.130  11.522  1.00  0.00    -0.508 OA
ATOM     27  H   UNL     1      17.246   5.622  11.872  1.00  0.00     0.293 HD
ENDBRANCH   8  26
TORSDOF 6
ENDMDL
MODEL 8
REMARK VINA RESULT:    -3.606      3.935      7.993
REMARK INTER + INTRA:          -4.626
REMARK INTER:                  -4.304
REMARK INTRA:                  -0.322
REMARK UNBOUND:                -0.282
REMARK SMILES O=c1c(O)c(-c2ccc(O)c(O)c2)oc2cc(O)cc(O)c12
REMARK SMILES IDX 5 1 3 2 2 3 1 4 22 5 20 6 19 7 17 8 16 9 15 10 14 11 6 12
REMARK SMILES IDX 7 13 8 14 9 15 13 16 11 17 10 18 12 20 4 22 21 24 18 26
REMARK H PARENT 10 19 12 21 4 23 21 25 18 27
REMARK Flexibility Score: inf
ROOT
ATOM      1  C   UNL     1      10.796   6.269   4.421  1.00  0.00     0.180 A 
ATOM      2  C   UNL     1      11.942   6.571   5.176  1.00  0.00     0.208 A 
ATOM      3  C   UNL     1      11.790   6.997   6.505  1.00  0.00     0.238 A 
ATOM      4  O   UNL     1      12.821   7.213   7.193  1.00  0.00    -0.285 OA
ATOM      5  C   UNL     1      10.492   7.132   7.056  1.00  0.00     0.111 A 
ATOM      6  C   UNL     1      10.218   7.593   8.379  1.00  0.00     0.134 A 
ATOM      7  C   UNL     1       8.904   7.562   8.863  1.00  0.00     0.093 A 
ATOM      8  C   UNL     1       7.847   7.147   8.050  1.00  0.00     0.123 A 
ATOM      9  C   UNL     1       8.097   6.751   6.738  1.00  0.00     0.094 A 
ATOM     10  C   UNL     1       9.401   6.737   6.239  1.00  0.00     0.146 A 
ATOM     11  O   UNL     1       9.597   6.342   4.986  1.00  0.00    -0.452 OA
ENDROOT
BRANCH   1  12
ATOM     12  C   UNL     1      10.876   5.839   3.006  1.00  0.00     0.025 A 
ATOM     13  C   UNL     1      10.958   4.480   2.656  1.00  0.00     0.016 A 
ATOM     14  C   UNL     1      11.057   4.100   1.315  1.00  0.00     0.051 A 
ATOM     15  C   UNL     1      11.089   5.071   0.306  1.00  0.00     0.157 A 
ATOM     16  C   UNL     1      10.930   6.809   1.991  1.00  0.00     0.062 A 
ATOM     17  C   UNL     1      11.028   6.432   0.647  1.00  0.00     0.158 A 
BRANCH  15  18
ATOM     18  O   UNL     1      11.185   4.688  -1.032  1.00  0.00    -0.504 OA
ATOM     19  H   UNL     1      10.830   5.274  -1.778  1.00  0.00     0.293 HD
ENDBRANCH  15  18
BRANCH  17  20
ATOM     20  O   UNL     1      11.065   7.423  -0.334  1.00  0.00    -0.504 OA
ATOM     21  H   UNL     1      11.086   8.408  -0.103  1.00  0.00     0.293 HD
ENDBRANCH  17  20
ENDBRANCH   1  12
BRANCH   2  22
ATOM     22  O   UNL     1      13.215   6.411   4.620  1.00  0.00    -0.502 OA
ATOM     23  H   UNL     1      13.553   6.987   3.858  1.00  0.00     0.293 HD
ENDBRANCH   2  22
BRANCH   6  24
ATOM     24  O   UNL     1      11.187   8.114   9.241  1.00  0.00    -0.507 OA
ATOM     25  H   UNL     1      11.166   8.030  10.247  1.00  0.00     0.293 HD
ENDBRANCH   6  24
BRANCH   8  26
ATOM     26  O   UNL     1       6.541   7.134   8.533  1.00  0.00    -0.508 OA
ATOM     27  H   UNL     1       6.041   7.993   8.734  1.00  0.00     0.293 HD
ENDBRANCH   8  26
TORSDOF 6
ENDMDL
MODEL 9
REMARK VINA RESULT:    -3.512      5.398      8.051
REMARK INTER + INTRA:          -4.513
REMARK INTER:                  -4.196
REMARK INTRA:                  -0.317
REMARK UNBOUND:                -0.282
REMARK SMILES O=c1c(O)c(-c2ccc(O)c(O)c2)oc2cc(O)cc(O)c12
REMARK SMILES IDX 5 1 3 2 2 3 1 4 22 5 20 6 19 7 17 8 16 9 15 10 14 11 6 12
REMARK SMILES IDX 7 13 8 14 9 15 13 16 11 17 10 18 12 20 4 22 21 24 18 26
REMARK H PARENT 10 19 12 21 4 23 21 25 18 27
REMARK Flexibility Score: inf
ROOT
ATOM      1  C   UNL     1      12.311   7.576   7.109  1.00  0.00     0.180 A 
ATOM      2  C   UNL     1      12.823   7.706   8.411  1.00  0.00     0.208 A 
ATOM      3  C   UNL     1      14.198   7.517   8.626  1.00  0.00     0.238 A 
ATOM      4  O   UNL     1      14.658   7.689   9.785  1.00  0.00    -0.285 OA
ATOM      5  C   UNL     1      15.040   7.182   7.538  1.00  0.00     0.111 A 
ATOM      6  C   UNL     1      16.440   6.928   7.647  1.00  0.00     0.134 A 
ATOM      7  C   UNL     1      17.199   6.735   6.486  1.00  0.00     0.093 A 
ATOM      8  C   UNL     1      16.597   6.722   5.225  1.00  0.00     0.123 A 
ATOM      9  C   UNL     1      15.221   6.911   5.114  1.00  0.00     0.094 A 
ATOM     10  C   UNL     1      14.444   7.142   6.251  1.00  0.00     0.146 A 
ATOM     11  O   UNL     1      13.137   7.326   6.100  1.00  0.00    -0.452 OA
ENDROOT
BRANCH   1  12
ATOM     12  C   UNL     1      10.870   7.735   6.809  1.00  0.00     0.025 A 
ATOM     13  C   UNL     1      10.306   9.001   6.575  1.00  0.00     0.016 A 
ATOM     14  C   UNL     1       8.939   9.129   6.317  1.00  0.00     0.051 A 
ATOM     15  C   UNL     1       8.113   7.997   6.303  1.00  0.00     0.157 A 
ATOM     16  C   UNL     1      10.034   6.606   6.814  1.00  0.00     0.062 A 
ATOM     17  C   UNL     1       8.664   6.730   6.556  1.00  0.00     0.158 A 
BRANCH  15  18
ATOM     18  O   UNL     1       6.749   8.128   6.043  1.00  0.00    -0.504 OA
ATOM     19  H   UNL     1       6.051   7.739   6.665  1.00  0.00     0.293 HD
ENDBRANCH  15  18
BRANCH  17  20
ATOM     20  O   UNL     1       7.868   5.586   6.555  1.00  0.00    -0.504 OA
ATOM     21  H   UNL     1       6.889   5.611   6.812  1.00  0.00     0.293 HD
ENDBRANCH  17  20
ENDBRANCH   1  12
BRANCH   2  22
ATOM     22  O   UNL     1      11.977   8.058   9.467  1.00  0.00    -0.502 OA
ATOM     23  H   UNL     1      12.327   8.405  10.353  1.00  0.00     0.293 HD
ENDBRANCH   2  22
BRANCH   6  24
ATOM     24  O   UNL     1      17.124   6.829   8.862  1.00  0.00    -0.507 OA
ATOM     25  H   UNL     1      16.888   7.342   9.698  1.00  0.00     0.293 HD
ENDBRANCH   6  24
BRANCH   8  26
ATOM     26  O   UNL     1      17.356   6.514   4.076  1.00  0.00    -0.508 OA
ATOM     27  H   UNL     1      17.634   5.583   3.787  1.00  0.00     0.293 HD
ENDBRANCH   8  26
TORSDOF 6
ENDMDL
