MODEL 1
REMARK VINA RESULT:    -4.519      0.000      0.000
REMARK INTER + INTRA:          -8.299
REMARK INTER:                  -7.161
REMARK INTRA:                  -1.138
REMARK UNBOUND:                -1.138
REMARK SMILES CCCCCCCCCCCC(=O)[O-]
REMARK SMILES IDX 7 1 8 2 9 3 10 4 11 5 12 6 13 7 14 8 6 9 5 10 4 11 3 12 2 13
REMARK SMILES IDX 1 14
REMARK H PARENT
REMARK Flexibility Score: inf
ROOT
ATOM      1  C   UNL     1      13.840 -32.379  24.339  1.00  0.00     0.000 C 
ENDROOT
BRANCH   1   2
ATOM      2  C   UNL     1      14.759 -33.465  23.763  1.00  0.00     0.000 C 
BRANCH   2   3
ATOM      3  C   UNL     1      14.904 -33.313  22.243  1.00  0.00     0.000 C 
BRANCH   3   4
ATOM      4  C   UNL     1      15.641 -34.517  21.637  1.00  0.00     0.006 C 
BRANCH   4   5
ATOM      5  C   UNL     1      15.455 -34.606  20.116  1.00  0.00     0.053 C 
BRANCH   5   6
ATOM      6  C   UNL     1      16.708 -35.055  19.429  1.00  0.00     0.041 C 
ATOM      7  O   UNL     1      16.983 -36.281  19.352  1.00  0.00    -0.550 OA
ATOM      8  O   UNL     1      17.556 -34.122  18.845  1.00  0.00    -0.550 OA
ENDBRANCH   5   6
ENDBRANCH   4   5
ENDBRANCH   3   4
ENDBRANCH   2   3
ENDBRANCH   1   2
BRANCH   1   9
ATOM      9  C   UNL     1      13.324 -31.400  23.269  1.00  0.00     0.000 C 
BRANCH   9  10
ATOM     10  C   UNL     1      13.272 -29.924  23.708  1.00  0.00    -0.000 C 
BRANCH  10  11
ATOM     11  C   UNL     1      14.330 -29.012  23.058  1.00  0.00    -0.000 C 
BRANCH  11  12
ATOM     12  C   UNL     1      15.081 -29.671  21.882  1.00  0.00    -0.000 C 
BRANCH  12  13
ATOM     13  C   UNL     1      16.603 -29.693  22.094  1.00  0.00    -0.003 C 
ATOM     14  C   UNL     1      16.969 -30.428  23.381  1.00  0.00     0.004 C 
ENDBRANCH  12  13
ENDBRANCH  11  12
ENDBRANCH  10  11
ENDBRANCH   9  10
ENDBRANCH   1   9
TORSDOF 10
ENDMDL
MODEL 2
REMARK VINA RESULT:    -4.384      1.261      1.918
REMARK INTER + INTRA:          -8.085
REMARK INTER:                  -6.954
REMARK INTRA:                  -1.131
REMARK UNBOUND:                -1.138
REMARK SMILES CCCCCCCCCCCC(=O)[O-]
REMARK SMILES IDX 7 1 8 2 9 3 10 4 11 5 12 6 13 7 14 8 6 9 5 10 4 11 3 12 2 13
REMARK SMILES IDX 1 14
REMARK H PARENT
REMARK Flexibility Score: inf
ROOT
ATOM      1  C   UNL     1      12.819 -31.193  21.461  1.00  0.00     0.000 C 
ENDROOT
BRANCH   1   2
ATOM      2  C   UNL     1      13.691 -32.114  20.596  1.00  0.00     0.000 C 
BRANCH   2   3
ATOM      3  C   UNL     1      14.601 -32.987  21.469  1.00  0.00     0.000 C 
BRANCH   3   4
ATOM      4  C   UNL     1      15.157 -34.174  20.669  1.00  0.00     0.006 C 
BRANCH   4   5
ATOM      5  C   UNL     1      16.277 -34.907  21.420  1.00  0.00     0.053 C 
BRANCH   5   6
ATOM      6  C   UNL     1      17.012 -35.862  20.530  1.00  0.00     0.041 C 
ATOM      7  O   UNL     1      17.047 -35.668  19.286  1.00  0.00    -0.550 OA
ATOM      8  O   UNL     1      17.686 -36.947  21.076  1.00  0.00    -0.550 OA
ENDBRANCH   5   6
ENDBRANCH   4   5
ENDBRANCH   3   4
ENDBRANCH   2   3
ENDBRANCH   1   2
BRANCH   1   9
ATOM      9  C   UNL     1      13.071 -31.369  22.969  1.00  0.00     0.000 C 
BRANCH   9  10
ATOM     10  C   UNL     1      13.577 -30.108  23.696  1.00  0.00    -0.000 C 
BRANCH  10  11
ATOM     11  C   UNL     1      14.617 -29.280  22.917  1.00  0.00    -0.000 C 
BRANCH  11  12
ATOM     12  C   UNL     1      16.052 -29.838  23.009  1.00  0.00    -0.000 C 
BRANCH  12  13
ATOM     13  C   UNL     1      16.860 -29.598  21.725  1.00  0.00    -0.003 C 
ATOM     14  C   UNL     1      17.560 -30.874  21.267  1.00  0.00     0.004 C 
ENDBRANCH  12  13
ENDBRANCH  11  12
ENDBRANCH  10  11
ENDBRANCH   9  10
ENDBRANCH   1   9
TORSDOF 10
ENDMDL
MODEL 3
REMARK VINA RESULT:    -4.219      1.959      3.025
REMARK INTER + INTRA:          -7.824
REMARK INTER:                  -7.172
REMARK INTRA:                  -0.652
REMARK UNBOUND:                -1.138
REMARK SMILES CCCCCCCCCCCC(=O)[O-]
REMARK SMILES IDX 7 1 8 2 9 3 10 4 11 5 12 6 13 7 14 8 6 9 5 10 4 11 3 12 2 13
REMARK SMILES IDX 1 14
REMARK H PARENT
REMARK Flexibility Score: inf
ROOT
ATOM      1  C   UNL     1      14.723 -33.306  22.202  1.00  0.00     0.000 C 
ENDROOT
BRANCH   1   2
ATOM      2  C   UNL     1      16.042 -34.017  21.868  1.00  0.00     0.000 C 
BRANCH   2   3
ATOM      3  C   UNL     1      16.688 -33.417  20.613  1.00  0.00     0.000 C 
BRANCH   3   4
ATOM      4  C   UNL     1      17.260 -34.518  19.708  1.00  0.00     0.006 C 
BRANCH   4   5
ATOM      5  C   UNL     1      16.515 -35.850  19.871  1.00  0.00     0.053 C 
BRANCH   5   6
ATOM      6  C   UNL     1      17.459 -37.009  19.952  1.00  0.00     0.041 C 
ATOM      7  O   UNL     1      17.944 -37.354  21.062  1.00  0.00    -0.550 OA
ATOM      8  O   UNL     1      17.780 -37.729  18.808  1.00  0.00    -0.550 OA
ENDBRANCH   5   6
ENDBRANCH   4   5
ENDBRANCH   3   4
ENDBRANCH   2   3
ENDBRANCH   1   2
BRANCH   1   9
ATOM      9  C   UNL     1      14.175 -32.476  21.027  1.00  0.00     0.000 C 
BRANCH   9  10
ATOM     10  C   UNL     1      13.214 -31.340  21.425  1.00  0.00    -0.000 C 
BRANCH  10  11
ATOM     11  C   UNL     1      13.132 -31.055  22.937  1.00  0.00    -0.000 C 
BRANCH  11  12
ATOM     12  C   UNL     1      13.684 -29.671  23.339  1.00  0.00    -0.000 C 
BRANCH  12  13
ATOM     13  C   UNL     1      12.676 -28.853  24.161  1.00  0.00    -0.003 C 
ATOM     14  C   UNL     1      11.352 -28.703  23.418  1.00  0.00     0.004 C 
ENDBRANCH  12  13
ENDBRANCH  11  12
ENDBRANCH  10  11
ENDBRANCH   9  10
ENDBRANCH   1   9
TORSDOF 10
ENDMDL
MODEL 4
REMARK VINA RESULT:    -4.192      3.854      5.610
REMARK INTER + INTRA:          -7.781
REMARK INTER:                  -6.349
REMARK INTRA:                  -1.433
REMARK UNBOUND:                -1.138
REMARK SMILES CCCCCCCCCCCC(=O)[O-]
REMARK SMILES IDX 7 1 8 2 9 3 10 4 11 5 12 6 13 7 14 8 6 9 5 10 4 11 3 12 2 13
REMARK SMILES IDX 1 14
REMARK H PARENT
REMARK Flexibility Score: inf
ROOT
ATOM      1  C   UNL     1      14.691 -33.351  22.392  1.00  0.00     0.000 C 
ENDROOT
BRANCH   1   2
ATOM      2  C   UNL     1      14.244 -32.678  21.087  1.00  0.00     0.000 C 
BRANCH   2   3
ATOM      3  C   UNL     1      13.507 -31.363  21.370  1.00  0.00     0.000 C 
BRANCH   3   4
ATOM      4  C   UNL     1      13.150 -31.242  22.859  1.00  0.00     0.006 C 
BRANCH   4   5
ATOM      5  C   UNL     1      13.578 -29.892  23.451  1.00  0.00     0.053 C 
BRANCH   5   6
ATOM      6  C   UNL     1      12.399 -29.023  23.765  1.00  0.00     0.041 C 
ATOM      7  O   UNL     1      12.463 -28.183  24.700  1.00  0.00    -0.550 OA
ATOM      8  O   UNL     1      11.241 -29.118  23.003  1.00  0.00    -0.550 OA
ENDBRANCH   5   6
ENDBRANCH   4   5
ENDBRANCH   3   4
ENDBRANCH   2   3
ENDBRANCH   1   2
BRANCH   1   9
ATOM      9  C   UNL     1      15.916 -34.265  22.207  1.00  0.00     0.000 C 
BRANCH   9  10
ATOM     10  C   UNL     1      16.907 -34.269  23.386  1.00  0.00    -0.000 C 
BRANCH  10  11
ATOM     11  C   UNL     1      16.805 -33.056  24.330  1.00  0.00    -0.000 C 
BRANCH  11  12
ATOM     12  C   UNL     1      17.813 -31.933  24.011  1.00  0.00    -0.000 C 
BRANCH  12  13
ATOM     13  C   UNL     1      17.133 -30.673  23.452  1.00  0.00    -0.003 C 
ATOM     14  C   UNL     1      17.263 -30.606  21.933  1.00  0.00     0.004 C 
ENDBRANCH  12  13
ENDBRANCH  11  12
ENDBRANCH  10  11
ENDBRANCH   9  10
ENDBRANCH   1   9
TORSDOF 10
ENDMDL
MODEL 5
REMARK VINA RESULT:    -4.178      4.146      6.389
REMARK INTER + INTRA:          -7.759
REMARK INTER:                  -6.861
REMARK INTRA:                  -0.898
REMARK UNBOUND:                -1.138
REMARK SMILES CCCCCCCCCCCC(=O)[O-]
REMARK SMILES IDX 7 1 8 2 9 3 10 4 11 5 12 6 13 7 14 8 6 9 5 10 4 11 3 12 2 13
REMARK SMILES IDX 1 14
REMARK H PARENT
REMARK Flexibility Score: inf
ROOT
ATOM      1  C   UNL     1      15.467 -31.691  21.519  1.00  0.00     0.000 C 
ENDROOT
BRANCH   1   2
ATOM      2  C   UNL     1      15.282 -31.306  22.993  1.00  0.00     0.000 C 
BRANCH   2   3
ATOM      3  C   UNL     1      13.898 -31.728  23.503  1.00  0.00     0.000 C 
BRANCH   3   4
ATOM      4  C   UNL     1      13.143 -30.533  24.102  1.00  0.00     0.006 C 
BRANCH   4   5
ATOM      5  C   UNL     1      13.585 -29.198  23.487  1.00  0.00     0.053 C 
BRANCH   5   6
ATOM      6  C   UNL     1      12.675 -28.076  23.880  1.00  0.00     0.041 C 
ATOM      7  O   UNL     1      13.133 -26.913  24.031  1.00  0.00    -0.550 OA
ATOM      8  O   UNL     1      11.315 -28.308  24.049  1.00  0.00    -0.550 OA
ENDBRANCH   5   6
ENDBRANCH   4   5
ENDBRANCH   3   4
ENDBRANCH   2   3
ENDBRANCH   1   2
BRANCH   1   9
ATOM      9  C   UNL     1      14.256 -32.444  20.939  1.00  0.00     0.000 C 
BRANCH   9  10
ATOM     10  C   UNL     1      14.597 -33.750  20.197  1.00  0.00    -0.000 C 
BRANCH  10  11
ATOM     11  C   UNL     1      15.490 -34.731  20.979  1.00  0.00    -0.000 C 
BRANCH  11  12
ATOM     12  C   UNL     1      16.553 -35.433  20.109  1.00  0.00    -0.000 C 
BRANCH  12  13
ATOM     13  C   UNL     1      17.293 -34.458  19.182  1.00  0.00    -0.003 C 
ATOM     14  C   UNL     1      18.305 -33.620  19.958  1.00  0.00     0.004 C 
ENDBRANCH  12  13
ENDBRANCH  11  12
ENDBRANCH  10  11
ENDBRANCH   9  10
ENDBRANCH   1   9
TORSDOF 10
ENDMDL
MODEL 6
REMARK VINA RESULT:    -4.177      1.147      2.634
REMARK INTER + INTRA:          -7.757
REMARK INTER:                  -6.378
REMARK INTRA:                  -1.380
REMARK UNBOUND:                -1.138
REMARK SMILES CCCCCCCCCCCC(=O)[O-]
REMARK SMILES IDX 7 1 8 2 9 3 10 4 11 5 12 6 13 7 14 8 6 9 5 10 4 11 3 12 2 13
REMARK SMILES IDX 1 14
REMARK H PARENT
REMARK Flexibility Score: inf
ROOT
ATOM      1  C   UNL     1      17.121 -32.224  23.806  1.00  0.00     0.000 C 
ENDROOT
BRANCH   1   2
ATOM      2  C   UNL     1      15.793 -32.943  24.083  1.00  0.00     0.000 C 
BRANCH   2   3
ATOM      3  C   UNL     1      15.833 -34.388  23.571  1.00  0.00     0.000 C 
BRANCH   3   4
ATOM      4  C   UNL     1      16.596 -34.480  22.241  1.00  0.00     0.006 C 
BRANCH   4   5
ATOM      5  C   UNL     1      15.651 -34.570  21.035  1.00  0.00     0.053 C 
BRANCH   5   6
ATOM      6  C   UNL     1      16.344 -35.119  19.826  1.00  0.00     0.041 C 
ATOM      7  O   UNL     1      16.787 -34.340  18.941  1.00  0.00    -0.550 OA
ATOM      8  O   UNL     1      16.529 -36.490  19.690  1.00  0.00    -0.550 OA
ENDBRANCH   5   6
ENDBRANCH   4   5
ENDBRANCH   3   4
ENDBRANCH   2   3
ENDBRANCH   1   2
BRANCH   1   9
ATOM      9  C   UNL     1      16.928 -30.817  23.211  1.00  0.00     0.000 C 
BRANCH   9  10
ATOM     10  C   UNL     1      16.420 -30.789  21.757  1.00  0.00    -0.000 C 
BRANCH  10  11
ATOM     11  C   UNL     1      15.014 -30.188  21.568  1.00  0.00    -0.000 C 
BRANCH  11  12
ATOM     12  C   UNL     1      13.904 -31.245  21.397  1.00  0.00    -0.000 C 
BRANCH  12  13
ATOM     13  C   UNL     1      12.739 -31.039  22.378  1.00  0.00    -0.003 C 
ATOM     14  C   UNL     1      13.200 -30.308  23.635  1.00  0.00     0.004 C 
ENDBRANCH  12  13
ENDBRANCH  11  12
ENDBRANCH  10  11
ENDBRANCH   9  10
ENDBRANCH   1   9
TORSDOF 10
ENDMDL
MODEL 7
REMARK VINA RESULT:    -4.176      1.594      3.003
REMARK INTER + INTRA:          -7.756
REMARK INTER:                  -6.611
REMARK INTRA:                  -1.144
REMARK UNBOUND:                -1.138
REMARK SMILES CCCCCCCCCCCC(=O)[O-]
REMARK SMILES IDX 7 1 8 2 9 3 10 4 11 5 12 6 13 7 14 8 6 9 5 10 4 11 3 12 2 13
REMARK SMILES IDX 1 14
REMARK H PARENT
REMARK Flexibility Score: inf
ROOT
ATOM      1  C   UNL     1      16.723 -33.157  22.522  1.00  0.00     0.000 C 
ENDROOT
BRANCH   1   2
ATOM      2  C   UNL     1      17.168 -32.110  21.492  1.00  0.00     0.000 C 
BRANCH   2   3
ATOM      3  C   UNL     1      18.312 -32.646  20.622  1.00  0.00     0.000 C 
BRANCH   3   4
ATOM      4  C   UNL     1      17.781 -33.595  19.537  1.00  0.00     0.006 C 
BRANCH   4   5
ATOM      5  C   UNL     1      18.339 -35.017  19.685  1.00  0.00     0.053 C 
BRANCH   5   6
ATOM      6  C   UNL     1      17.272 -36.054  19.513  1.00  0.00     0.041 C 
ATOM      7  O   UNL     1      17.556 -37.180  19.027  1.00  0.00    -0.550 OA
ATOM      8  O   UNL     1      15.970 -35.788  19.920  1.00  0.00    -0.550 OA
ENDBRANCH   5   6
ENDBRANCH   4   5
ENDBRANCH   3   4
ENDBRANCH   2   3
ENDBRANCH   1   2
BRANCH   1   9
ATOM      9  C   UNL     1      15.200 -33.381  22.531  1.00  0.00     0.000 C 
BRANCH   9  10
ATOM     10  C   UNL     1      14.466 -32.907  21.262  1.00  0.00    -0.000 C 
BRANCH  10  11
ATOM     11  C   UNL     1      13.584 -31.658  21.447  1.00  0.00    -0.000 C 
BRANCH  11  12
ATOM     12  C   UNL     1      13.296 -31.312  22.923  1.00  0.00    -0.000 C 
BRANCH  12  13
ATOM     13  C   UNL     1      13.431 -29.810  23.213  1.00  0.00    -0.003 C 
ATOM     14  C   UNL     1      14.810 -29.293  22.811  1.00  0.00     0.004 C 
ENDBRANCH  12  13
ENDBRANCH  11  12
ENDBRANCH  10  11
ENDBRANCH   9  10
ENDBRANCH   1   9
TORSDOF 10
ENDMDL
MODEL 8
REMARK VINA RESULT:    -4.175      3.723      6.014
REMARK INTER + INTRA:          -7.753
REMARK INTER:                  -6.310
REMARK INTRA:                  -1.443
REMARK UNBOUND:                -1.138
REMARK SMILES CCCCCCCCCCCC(=O)[O-]
REMARK SMILES IDX 7 1 8 2 9 3 10 4 11 5 12 6 13 7 14 8 6 9 5 10 4 11 3 12 2 13
REMARK SMILES IDX 1 14
REMARK H PARENT
REMARK Flexibility Score: inf
ROOT
ATOM      1  C   UNL     1      17.726 -30.900  22.718  1.00  0.00     0.000 C 
ENDROOT
BRANCH   1   2
ATOM      2  C   UNL     1      16.437 -30.228  23.210  1.00  0.00     0.000 C 
BRANCH   2   3
ATOM      3  C   UNL     1      15.542 -29.826  22.032  1.00  0.00     0.000 C 
BRANCH   3   4
ATOM      4  C   UNL     1      14.158 -30.482  22.142  1.00  0.00     0.006 C 
BRANCH   4   5
ATOM      5  C   UNL     1      13.591 -30.408  23.567  1.00  0.00     0.053 C 
BRANCH   5   6
ATOM      6  C   UNL     1      12.576 -29.315  23.705  1.00  0.00     0.041 C 
ATOM      7  O   UNL     1      12.720 -28.424  24.583  1.00  0.00    -0.550 OA
ATOM      8  O   UNL     1      11.488 -29.261  22.842  1.00  0.00    -0.550 OA
ENDBRANCH   5   6
ENDBRANCH   4   5
ENDBRANCH   3   4
ENDBRANCH   2   3
ENDBRANCH   1   2
BRANCH   1   9
ATOM      9  C   UNL     1      17.789 -31.027  21.185  1.00  0.00     0.000 C 
BRANCH   9  10
ATOM     10  C   UNL     1      18.423 -32.331  20.666  1.00  0.00    -0.000 C 
BRANCH  10  11
ATOM     11  C   UNL     1      17.612 -33.609  20.952  1.00  0.00    -0.000 C 
BRANCH  11  12
ATOM     12  C   UNL     1      16.089 -33.431  20.784  1.00  0.00    -0.000 C 
BRANCH  12  13
ATOM     13  C   UNL     1      15.282 -34.341  21.722  1.00  0.00    -0.003 C 
ATOM     14  C   UNL     1      15.349 -33.844  23.164  1.00  0.00     0.004 C 
ENDBRANCH  12  13
ENDBRANCH  11  12
ENDBRANCH  10  11
ENDBRANCH   9  10
ENDBRANCH   1   9
TORSDOF 10
ENDMDL
MODEL 9
REMARK VINA RESULT:    -4.096      2.108      3.468
REMARK INTER + INTRA:          -7.629
REMARK INTER:                  -6.612
REMARK INTRA:                  -1.017
REMARK UNBOUND:                -1.138
REMARK SMILES CCCCCCCCCCCC(=O)[O-]
REMARK SMILES IDX 7 1 8 2 9 3 10 4 11 5 12 6 13 7 14 8 6 9 5 10 4 11 3 12 2 13
REMARK SMILES IDX 1 14
REMARK H PARENT
REMARK Flexibility Score: inf
ROOT
ATOM      1  C   UNL     1      16.590 -30.551  23.244  1.00  0.00     0.000 C 
ENDROOT
BRANCH   1   2
ATOM      2  C   UNL     1      17.886 -31.127  22.657  1.00  0.00     0.000 C 
BRANCH   2   3
ATOM      3  C   UNL     1      17.755 -31.345  21.144  1.00  0.00     0.000 C 
BRANCH   3   4
ATOM      4  C   UNL     1      17.876 -32.834  20.790  1.00  0.00     0.006 C 
BRANCH   4   5
ATOM      5  C   UNL     1      16.505 -33.513  20.658  1.00  0.00     0.053 C 
BRANCH   5   6
ATOM      6  C   UNL     1      16.105 -34.208  21.923  1.00  0.00     0.041 C 
ATOM      7  O   UNL     1      16.821 -35.132  22.391  1.00  0.00    -0.550 OA
ATOM      8  O   UNL     1      14.959 -33.814  22.603  1.00  0.00    -0.550 OA
ENDBRANCH   5   6
ENDBRANCH   4   5
ENDBRANCH   3   4
ENDBRANCH   2   3
ENDBRANCH   1   2
BRANCH   1   9
ATOM      9  C   UNL     1      15.744 -29.795  22.204  1.00  0.00     0.000 C 
BRANCH   9  10
ATOM     10  C   UNL     1      14.337 -30.375  21.964  1.00  0.00    -0.000 C 
BRANCH  10  11
ATOM     11  C   UNL     1      13.440 -30.449  23.214  1.00  0.00    -0.000 C 
BRANCH  11  12
ATOM     12  C   UNL     1      12.295 -29.415  23.219  1.00  0.00    -0.000 C 
BRANCH  12  13
ATOM     13  C   UNL     1      12.382 -28.448  24.410  1.00  0.00    -0.003 C 
ATOM     14  C   UNL     1      13.159 -27.188  24.041  1.00  0.00     0.004 C 
ENDBRANCH  12  13
ENDBRANCH  11  12
ENDBRANCH  10  11
ENDBRANCH   9  10
ENDBRANCH   1   9
TORSDOF 10
ENDMDL
