MODEL 1
REMARK VINA RESULT:    -4.170      0.000      0.000
REMARK INTER + INTRA:          -7.516
REMARK INTER:                  -6.608
REMARK INTRA:                  -0.908
REMARK UNBOUND:                -0.908
REMARK SMILES CCCCCCCCCCCC(=O)[O-]
REMARK SMILES IDX 7 1 8 2 9 3 10 4 11 5 12 6 13 7 14 8 6 9 5 10 4 11 3 12 2 13
REMARK SMILES IDX 1 14
REMARK H PARENT
REMARK Flexibility Score: inf
ROOT
ATOM      1  C   UNL     1      33.701  27.470  29.968  1.00  0.00     0.000 C 
ENDROOT
BRANCH   1   2
ATOM      2  C   UNL     1      35.101  27.736  29.387  1.00  0.00     0.000 C 
BRANCH   2   3
ATOM      3  C   UNL     1      35.299  29.202  28.970  1.00  0.00     0.000 C 
BRANCH   3   4
ATOM      4  C   UNL     1      36.742  29.687  29.174  1.00  0.00     0.006 C 
BRANCH   4   5
ATOM      5  C   UNL     1      37.117  30.742  28.128  1.00  0.00     0.053 C 
BRANCH   5   6
ATOM      6  C   UNL     1      37.926  31.835  28.752  1.00  0.00     0.041 C 
ATOM      7  O   UNL     1      37.602  32.300  29.877  1.00  0.00    -0.550 OA
ATOM      8  O   UNL     1      39.068  32.306  28.116  1.00  0.00    -0.550 OA
ENDBRANCH   5   6
ENDBRANCH   4   5
ENDBRANCH   3   4
ENDBRANCH   2   3
ENDBRANCH   1   2
BRANCH   1   9
ATOM      9  C   UNL     1      32.728  28.632  29.715  1.00  0.00     0.000 C 
BRANCH   9  10
ATOM     10  C   UNL     1      31.260  28.175  29.653  1.00  0.00    -0.000 C 
BRANCH  10  11
ATOM     11  C   UNL     1      31.104  26.755  29.079  1.00  0.00    -0.000 C 
BRANCH  11  12
ATOM     12  C   UNL     1      30.907  26.688  27.552  1.00  0.00    -0.000 C 
BRANCH  12  13
ATOM     13  C   UNL     1      32.139  26.217  26.758  1.00  0.00    -0.003 C 
ATOM     14  C   UNL     1      32.744  27.317  25.888  1.00  0.00     0.004 C 
ENDBRANCH  12  13
ENDBRANCH  11  12
ENDBRANCH  10  11
ENDBRANCH   9  10
ENDBRANCH   1   9
TORSDOF 10
ENDMDL
MODEL 2
REMARK VINA RESULT:    -4.136      3.360      6.911
REMARK INTER + INTRA:          -7.461
REMARK INTER:                  -7.011
REMARK INTRA:                  -0.450
REMARK UNBOUND:                -0.908
REMARK SMILES CCCCCCCCCCCC(=O)[O-]
REMARK SMILES IDX 7 1 8 2 9 3 10 4 11 5 12 6 13 7 14 8 6 9 5 10 4 11 3 12 2 13
REMARK SMILES IDX 1 14
REMARK H PARENT
REMARK Flexibility Score: inf
ROOT
ATOM      1  C   UNL     1      34.695  28.995  28.965  1.00  0.00     0.000 C 
ENDROOT
BRANCH   1   2
ATOM      2  C   UNL     1      33.728  28.002  29.634  1.00  0.00     0.000 C 
BRANCH   2   3
ATOM      3  C   UNL     1      32.254  28.402  29.457  1.00  0.00     0.000 C 
BRANCH   3   4
ATOM      4  C   UNL     1      31.380  27.240  28.961  1.00  0.00     0.006 C 
BRANCH   4   5
ATOM      5  C   UNL     1      31.034  27.410  27.478  1.00  0.00     0.053 C 
BRANCH   5   6
ATOM      6  C   UNL     1      32.079  26.770  26.620  1.00  0.00     0.041 C 
ATOM      7  O   UNL     1      32.305  25.534  26.712  1.00  0.00    -0.550 OA
ATOM      8  O   UNL     1      32.769  27.527  25.682  1.00  0.00    -0.550 OA
ENDBRANCH   5   6
ENDBRANCH   4   5
ENDBRANCH   3   4
ENDBRANCH   2   3
ENDBRANCH   1   2
BRANCH   1   9
ATOM      9  C   UNL     1      36.160  28.742  29.354  1.00  0.00     0.000 C 
BRANCH   9  10
ATOM     10  C   UNL     1      36.942  30.044  29.600  1.00  0.00    -0.000 C 
BRANCH  10  11
ATOM     11  C   UNL     1      37.448  30.688  28.298  1.00  0.00    -0.000 C 
BRANCH  11  12
ATOM     12  C   UNL     1      37.368  32.227  28.259  1.00  0.00    -0.000 C 
BRANCH  12  13
ATOM     13  C   UNL     1      38.727  32.949  28.287  1.00  0.00    -0.003 C 
ATOM     14  C   UNL     1      39.765  32.233  29.150  1.00  0.00     0.004 C 
ENDBRANCH  12  13
ENDBRANCH  11  12
ENDBRANCH  10  11
ENDBRANCH   9  10
ENDBRANCH   1   9
TORSDOF 10
ENDMDL
MODEL 3
REMARK VINA RESULT:    -3.975     11.200     12.751
REMARK INTER + INTRA:          -7.207
REMARK INTER:                  -6.811
REMARK INTRA:                  -0.396
REMARK UNBOUND:                -0.908
REMARK SMILES CCCCCCCCCCCC(=O)[O-]
REMARK SMILES IDX 7 1 8 2 9 3 10 4 11 5 12 6 13 7 14 8 6 9 5 10 4 11 3 12 2 13
REMARK SMILES IDX 1 14
REMARK H PARENT
REMARK Flexibility Score: inf
ROOT
ATOM      1  C   UNL     1      37.832  26.201  16.045  1.00  0.00     0.000 C 
ENDROOT
BRANCH   1   2
ATOM      2  C   UNL     1      38.886  26.141  17.165  1.00  0.00     0.000 C 
BRANCH   2   3
ATOM      3  C   UNL     1      40.281  26.573  16.686  1.00  0.00     0.000 C 
BRANCH   3   4
ATOM      4  C   UNL     1      41.343  26.482  17.793  1.00  0.00     0.006 C 
BRANCH   4   5
ATOM      5  C   UNL     1      41.300  27.719  18.695  1.00  0.00     0.053 C 
BRANCH   5   6
ATOM      6  C   UNL     1      40.881  27.341  20.081  1.00  0.00     0.041 C 
ATOM      7  O   UNL     1      41.211  26.224  20.561  1.00  0.00    -0.550 OA
ATOM      8  O   UNL     1      40.168  28.242  20.862  1.00  0.00    -0.550 OA
ENDBRANCH   5   6
ENDBRANCH   4   5
ENDBRANCH   3   4
ENDBRANCH   2   3
ENDBRANCH   1   2
BRANCH   1   9
ATOM      9  C   UNL     1      36.451  25.713  16.511  1.00  0.00     0.000 C 
BRANCH   9  10
ATOM     10  C   UNL     1      35.308  26.218  15.613  1.00  0.00    -0.000 C 
BRANCH  10  11
ATOM     11  C   UNL     1      35.003  27.711  15.823  1.00  0.00    -0.000 C 
BRANCH  11  12
ATOM     12  C   UNL     1      35.060  28.574  14.546  1.00  0.00    -0.000 C 
BRANCH  12  13
ATOM     13  C   UNL     1      34.937  30.090  14.782  1.00  0.00    -0.003 C 
ATOM     14  C   UNL     1      34.260  30.820  13.622  1.00  0.00     0.004 C 
ENDBRANCH  12  13
ENDBRANCH  11  12
ENDBRANCH  10  11
ENDBRANCH   9  10
ENDBRANCH   1   9
TORSDOF 10
ENDMDL
MODEL 4
REMARK VINA RESULT:    -3.938      3.696      7.986
REMARK INTER + INTRA:          -7.148
REMARK INTER:                  -6.758
REMARK INTRA:                  -0.389
REMARK UNBOUND:                -0.908
REMARK SMILES CCCCCCCCCCCC(=O)[O-]
REMARK SMILES IDX 7 1 8 2 9 3 10 4 11 5 12 6 13 7 14 8 6 9 5 10 4 11 3 12 2 13
REMARK SMILES IDX 1 14
REMARK H PARENT
REMARK Flexibility Score: inf
ROOT
ATOM      1  C   UNL     1      37.316  30.773  28.153  1.00  0.00     0.000 C 
ENDROOT
BRANCH   1   2
ATOM      2  C   UNL     1      36.834  30.202  29.499  1.00  0.00     0.000 C 
BRANCH   2   3
ATOM      3  C   UNL     1      36.195  28.811  29.356  1.00  0.00     0.000 C 
BRANCH   3   4
ATOM      4  C   UNL     1      34.725  28.876  28.913  1.00  0.00     0.006 C 
BRANCH   4   5
ATOM      5  C   UNL     1      33.990  27.579  29.267  1.00  0.00     0.053 C 
BRANCH   5   6
ATOM      6  C   UNL     1      32.788  27.403  28.395  1.00  0.00     0.041 C 
ATOM      7  O   UNL     1      31.718  28.013  28.660  1.00  0.00    -0.550 OA
ATOM      8  O   UNL     1      32.862  26.606  27.259  1.00  0.00    -0.550 OA
ENDBRANCH   5   6
ENDBRANCH   4   5
ENDBRANCH   3   4
ENDBRANCH   2   3
ENDBRANCH   1   2
BRANCH   1   9
ATOM      9  C   UNL     1      37.601  32.281  28.222  1.00  0.00     0.000 C 
BRANCH   9  10
ATOM     10  C   UNL     1      39.085  32.616  27.988  1.00  0.00    -0.000 C 
BRANCH  10  11
ATOM     11  C   UNL     1      39.857  32.841  29.300  1.00  0.00    -0.000 C 
BRANCH  11  12
ATOM     12  C   UNL     1      40.932  31.780  29.613  1.00  0.00    -0.000 C 
BRANCH  12  13
ATOM     13  C   UNL     1      42.382  32.299  29.587  1.00  0.00    -0.003 C 
ATOM     14  C   UNL     1      43.396  31.214  29.227  1.00  0.00     0.004 C 
ENDBRANCH  12  13
ENDBRANCH  11  12
ENDBRANCH  10  11
ENDBRANCH   9  10
ENDBRANCH   1   9
TORSDOF 10
ENDMDL
MODEL 5
REMARK VINA RESULT:    -3.862     12.895     15.516
REMARK INTER + INTRA:          -7.028
REMARK INTER:                  -6.636
REMARK INTRA:                  -0.392
REMARK UNBOUND:                -0.908
REMARK SMILES CCCCCCCCCCCC(=O)[O-]
REMARK SMILES IDX 7 1 8 2 9 3 10 4 11 5 12 6 13 7 14 8 6 9 5 10 4 11 3 12 2 13
REMARK SMILES IDX 1 14
REMARK H PARENT
REMARK Flexibility Score: inf
ROOT
ATOM      1  C   UNL     1      42.554  29.498  16.118  1.00  0.00     0.000 C 
ENDROOT
BRANCH   1   2
ATOM      2  C   UNL     1      41.724  28.691  17.133  1.00  0.00     0.000 C 
BRANCH   2   3
ATOM      3  C   UNL     1      41.373  27.284  16.622  1.00  0.00     0.000 C 
BRANCH   3   4
ATOM      4  C   UNL     1      41.009  26.315  17.758  1.00  0.00     0.006 C 
BRANCH   4   5
ATOM      5  C   UNL     1      40.027  26.965  18.737  1.00  0.00     0.053 C 
BRANCH   5   6
ATOM      6  C   UNL     1      40.637  27.069  20.099  1.00  0.00     0.041 C 
ATOM      7  O   UNL     1      41.606  26.329  20.418  1.00  0.00    -0.550 OA
ATOM      8  O   UNL     1      40.170  28.017  21.001  1.00  0.00    -0.550 OA
ENDBRANCH   5   6
ENDBRANCH   4   5
ENDBRANCH   3   4
ENDBRANCH   2   3
ENDBRANCH   1   2
BRANCH   1   9
ATOM      9  C   UNL     1      42.289  31.009  16.211  1.00  0.00     0.000 C 
BRANCH   9  10
ATOM     10  C   UNL     1      43.451  31.851  15.655  1.00  0.00    -0.000 C 
BRANCH  10  11
ATOM     11  C   UNL     1      44.797  31.520  16.322  1.00  0.00    -0.000 C 
BRANCH  11  12
ATOM     12  C   UNL     1      45.889  31.000  15.364  1.00  0.00    -0.000 C 
BRANCH  12  13
ATOM     13  C   UNL     1      47.099  30.346  16.054  1.00  0.00    -0.003 C 
ATOM     14  C   UNL     1      48.219  29.987  15.078  1.00  0.00     0.004 C 
ENDBRANCH  12  13
ENDBRANCH  11  12
ENDBRANCH  10  11
ENDBRANCH   9  10
ENDBRANCH   1   9
TORSDOF 10
ENDMDL
MODEL 6
REMARK VINA RESULT:    -3.785      3.757      8.456
REMARK INTER + INTRA:          -6.905
REMARK INTER:                  -6.543
REMARK INTRA:                  -0.362
REMARK UNBOUND:                -0.908
REMARK SMILES CCCCCCCCCCCC(=O)[O-]
REMARK SMILES IDX 7 1 8 2 9 3 10 4 11 5 12 6 13 7 14 8 6 9 5 10 4 11 3 12 2 13
REMARK SMILES IDX 1 14
REMARK H PARENT
REMARK Flexibility Score: inf
ROOT
ATOM      1  C   UNL     1      37.702  32.454  28.182  1.00  0.00     0.000 C 
ENDROOT
BRANCH   1   2
ATOM      2  C   UNL     1      37.477  30.932  28.208  1.00  0.00     0.000 C 
BRANCH   2   3
ATOM      3  C   UNL     1      36.777  30.460  29.492  1.00  0.00     0.000 C 
BRANCH   3   4
ATOM      4  C   UNL     1      36.141  29.069  29.343  1.00  0.00     0.006 C 
BRANCH   4   5
ATOM      5  C   UNL     1      34.778  29.162  28.651  1.00  0.00     0.053 C 
BRANCH   5   6
ATOM      6  C   UNL     1      33.915  28.002  29.036  1.00  0.00     0.041 C 
ATOM      7  O   UNL     1      32.838  27.782  28.420  1.00  0.00    -0.550 OA
ATOM      8  O   UNL     1      34.323  27.134  30.040  1.00  0.00    -0.550 OA
ENDBRANCH   5   6
ENDBRANCH   4   5
ENDBRANCH   3   4
ENDBRANCH   2   3
ENDBRANCH   1   2
BRANCH   1   9
ATOM      9  C   UNL     1      39.181  32.834  28.355  1.00  0.00     0.000 C 
BRANCH   9  10
ATOM     10  C   UNL     1      39.779  32.309  29.672  1.00  0.00    -0.000 C 
BRANCH  10  11
ATOM     11  C   UNL     1      41.226  32.783  29.898  1.00  0.00    -0.000 C 
BRANCH  11  12
ATOM     12  C   UNL     1      42.309  31.719  29.628  1.00  0.00    -0.000 C 
BRANCH  12  13
ATOM     13  C   UNL     1      43.643  32.272  29.095  1.00  0.00    -0.003 C 
ATOM     14  C   UNL     1      43.725  33.797  29.160  1.00  0.00     0.004 C 
ENDBRANCH  12  13
ENDBRANCH  11  12
ENDBRANCH  10  11
ENDBRANCH   9  10
ENDBRANCH   1   9
TORSDOF 10
ENDMDL
MODEL 7
REMARK VINA RESULT:    -3.742      3.560      6.473
REMARK INTER + INTRA:          -6.837
REMARK INTER:                  -6.133
REMARK INTRA:                  -0.704
REMARK UNBOUND:                -0.908
REMARK SMILES CCCCCCCCCCCC(=O)[O-]
REMARK SMILES IDX 7 1 8 2 9 3 10 4 11 5 12 6 13 7 14 8 6 9 5 10 4 11 3 12 2 13
REMARK SMILES IDX 1 14
REMARK H PARENT
REMARK Flexibility Score: inf
ROOT
ATOM      1  C   UNL     1      39.066  32.589  28.144  1.00  0.00     0.000 C 
ENDROOT
BRANCH   1   2
ATOM      2  C   UNL     1      39.764  32.986  29.457  1.00  0.00     0.000 C 
BRANCH   2   3
ATOM      3  C   UNL     1      41.293  32.850  29.377  1.00  0.00     0.000 C 
BRANCH   3   4
ATOM      4  C   UNL     1      41.789  31.463  29.815  1.00  0.00     0.006 C 
BRANCH   4   5
ATOM      5  C   UNL     1      43.251  31.252  29.408  1.00  0.00     0.053 C 
BRANCH   5   6
ATOM      6  C   UNL     1      43.578  29.793  29.369  1.00  0.00     0.041 C 
ATOM      7  O   UNL     1      44.734  29.411  29.045  1.00  0.00    -0.550 OA
ATOM      8  O   UNL     1      42.622  28.855  29.739  1.00  0.00    -0.550 OA
ENDBRANCH   5   6
ENDBRANCH   4   5
ENDBRANCH   3   4
ENDBRANCH   2   3
ENDBRANCH   1   2
BRANCH   1   9
ATOM      9  C   UNL     1      37.676  31.979  28.378  1.00  0.00     0.000 C 
BRANCH   9  10
ATOM     10  C   UNL     1      37.583  31.203  29.704  1.00  0.00    -0.000 C 
BRANCH  10  11
ATOM     11  C   UNL     1      38.101  29.759  29.584  1.00  0.00    -0.000 C 
BRANCH  11  12
ATOM     12  C   UNL     1      37.027  28.666  29.754  1.00  0.00    -0.000 C 
BRANCH  12  13
ATOM     13  C   UNL     1      35.602  29.190  30.010  1.00  0.00    -0.003 C 
ATOM     14  C   UNL     1      34.634  28.863  28.873  1.00  0.00     0.004 C 
ENDBRANCH  12  13
ENDBRANCH  11  12
ENDBRANCH  10  11
ENDBRANCH   9  10
ENDBRANCH   1   9
TORSDOF 10
ENDMDL
MODEL 8
REMARK VINA RESULT:    -3.721      4.035      8.633
REMARK INTER + INTRA:          -6.804
REMARK INTER:                  -6.431
REMARK INTRA:                  -0.373
REMARK UNBOUND:                -0.908
REMARK SMILES CCCCCCCCCCCC(=O)[O-]
REMARK SMILES IDX 7 1 8 2 9 3 10 4 11 5 12 6 13 7 14 8 6 9 5 10 4 11 3 12 2 13
REMARK SMILES IDX 1 14
REMARK H PARENT
REMARK Flexibility Score: inf
ROOT
ATOM      1  C   UNL     1      39.492  32.813  28.313  1.00  0.00     0.000 C 
ENDROOT
BRANCH   1   2
ATOM      2  C   UNL     1      38.046  32.301  28.441  1.00  0.00     0.000 C 
BRANCH   2   3
ATOM      3  C   UNL     1      37.944  30.775  28.280  1.00  0.00     0.000 C 
BRANCH   3   4
ATOM      4  C   UNL     1      36.491  30.276  28.266  1.00  0.00     0.006 C 
BRANCH   4   5
ATOM      5  C   UNL     1      36.126  29.617  29.599  1.00  0.00     0.053 C 
BRANCH   5   6
ATOM      6  C   UNL     1      35.226  28.443  29.375  1.00  0.00     0.041 C 
ATOM      7  O   UNL     1      34.007  28.621  29.109  1.00  0.00    -0.550 OA
ATOM      8  O   UNL     1      35.742  27.154  29.408  1.00  0.00    -0.550 OA
ENDBRANCH   5   6
ENDBRANCH   4   5
ENDBRANCH   3   4
ENDBRANCH   2   3
ENDBRANCH   1   2
BRANCH   1   9
ATOM      9  C   UNL     1      40.421  32.228  29.387  1.00  0.00     0.000 C 
BRANCH   9  10
ATOM     10  C   UNL     1      41.748  32.998  29.509  1.00  0.00    -0.000 C 
BRANCH  10  11
ATOM     11  C   UNL     1      42.962  32.163  29.068  1.00  0.00    -0.000 C 
BRANCH  11  12
ATOM     12  C   UNL     1      43.409  31.082  30.073  1.00  0.00    -0.000 C 
BRANCH  12  13
ATOM     13  C   UNL     1      43.164  29.632  29.619  1.00  0.00    -0.003 C 
ATOM     14  C   UNL     1      44.402  28.984  28.999  1.00  0.00     0.004 C 
ENDBRANCH  12  13
ENDBRANCH  11  12
ENDBRANCH  10  11
ENDBRANCH   9  10
ENDBRANCH   1   9
TORSDOF 10
ENDMDL
MODEL 9
REMARK VINA RESULT:    -3.615      4.267      7.239
REMARK INTER + INTRA:          -6.637
REMARK INTER:                  -6.134
REMARK INTRA:                  -0.503
REMARK UNBOUND:                -0.908
REMARK SMILES CCCCCCCCCCCC(=O)[O-]
REMARK SMILES IDX 7 1 8 2 9 3 10 4 11 5 12 6 13 7 14 8 6 9 5 10 4 11 3 12 2 13
REMARK SMILES IDX 1 14
REMARK H PARENT
REMARK Flexibility Score: inf
ROOT
ATOM      1  C   UNL     1      40.230  32.727  29.205  1.00  0.00     0.000 C 
ENDROOT
BRANCH   1   2
ATOM      2  C   UNL     1      41.208  31.672  29.751  1.00  0.00     0.000 C 
BRANCH   2   3
ATOM      3  C   UNL     1      42.622  32.235  29.969  1.00  0.00     0.000 C 
BRANCH   3   4
ATOM      4  C   UNL     1      42.634  33.764  30.125  1.00  0.00     0.006 C 
BRANCH   4   5
ATOM      5  C   UNL     1      44.059  34.314  30.001  1.00  0.00     0.053 C 
BRANCH   5   6
ATOM      6  C   UNL     1      44.053  35.622  29.274  1.00  0.00     0.041 C 
ATOM      7  O   UNL     1      44.063  35.647  28.015  1.00  0.00    -0.550 OA
ATOM      8  O   UNL     1      43.987  36.813  29.985  1.00  0.00    -0.550 OA
ENDBRANCH   5   6
ENDBRANCH   4   5
ENDBRANCH   3   4
ENDBRANCH   2   3
ENDBRANCH   1   2
BRANCH   1   9
ATOM      9  C   UNL     1      38.761  32.355  29.462  1.00  0.00     0.000 C 
BRANCH   9  10
ATOM     10  C   UNL     1      37.977  32.099  28.163  1.00  0.00    -0.000 C 
BRANCH  10  11
ATOM     11  C   UNL     1      37.108  30.831  28.233  1.00  0.00    -0.000 C 
BRANCH  11  12
ATOM     12  C   UNL     1      37.371  29.928  29.456  1.00  0.00    -0.000 C 
BRANCH  12  13
ATOM     13  C   UNL     1      36.369  28.774  29.638  1.00  0.00    -0.003 C 
ATOM     14  C   UNL     1      35.017  29.050  28.981  1.00  0.00     0.004 C 
ENDBRANCH  12  13
ENDBRANCH  11  12
ENDBRANCH  10  11
ENDBRANCH   9  10
ENDBRANCH   1   9
TORSDOF 10
ENDMDL
