MODEL 1
REMARK VINA RESULT:    -3.363      0.000      0.000
REMARK INTER + INTRA:          -6.603
REMARK INTER:                  -5.723
REMARK INTRA:                  -0.880
REMARK UNBOUND:                -0.880
REMARK SMILES CCCCCCCCCCCCCC(=O)[O-]
REMARK SMILES IDX 8 1 9 2 10 3 11 4 12 5 13 6 14 7 15 8 16 9 7 10 6 11 5 12
REMARK SMILES IDX 4 13 3 14 2 15 1 16
REMARK H PARENT
REMARK Flexibility Score: inf
ROOT
ATOM      1  C   UNL     1       7.794   5.556   2.111  1.00  0.00     0.000 C 
ENDROOT
BRANCH   1   2
ATOM      2  C   UNL     1       9.074   5.364   1.281  1.00  0.00     0.000 C 
BRANCH   2   3
ATOM      3  C   UNL     1       9.808   4.082   1.700  1.00  0.00     0.000 C 
BRANCH   3   4
ATOM      4  C   UNL     1      10.075   4.016   3.212  1.00  0.00     0.000 C 
BRANCH   4   5
ATOM      5  C   UNL     1      10.125   2.573   3.743  1.00  0.00     0.006 C 
BRANCH   5   6
ATOM      6  C   UNL     1       9.912   1.539   2.630  1.00  0.00     0.053 C 
BRANCH   6   7
ATOM      7  C   UNL     1       9.487   0.210   3.178  1.00  0.00     0.041 C 
ATOM      8  O   UNL     1       9.060   0.119   4.360  1.00  0.00    -0.550 OA
ATOM      9  O   UNL     1       9.592  -0.932   2.395  1.00  0.00    -0.550 OA
ENDBRANCH   6   7
ENDBRANCH   5   6
ENDBRANCH   4   5
ENDBRANCH   3   4
ENDBRANCH   2   3
ENDBRANCH   1   2
BRANCH   1  10
ATOM     10  C   UNL     1       7.815   6.847   2.946  1.00  0.00     0.000 C 
BRANCH  10  11
ATOM     11  C   UNL     1       6.953   6.743   4.215  1.00  0.00    -0.000 C 
BRANCH  11  12
ATOM     12  C   UNL     1       7.675   7.276   5.463  1.00  0.00    -0.000 C 
BRANCH  12  13
ATOM     13  C   UNL     1       9.148   6.835   5.530  1.00  0.00    -0.000 C 
BRANCH  13  14
ATOM     14  C   UNL     1      10.099   7.851   4.877  1.00  0.00    -0.000 C 
BRANCH  14  15
ATOM     15  C   UNL     1       9.543   9.283   4.906  1.00  0.00    -0.003 C 
ATOM     16  C   UNL     1       9.752   9.980   3.566  1.00  0.00     0.004 C 
ENDBRANCH  14  15
ENDBRANCH  13  14
ENDBRANCH  12  13
ENDBRANCH  11  12
ENDBRANCH  10  11
ENDBRANCH   1  10
TORSDOF 12
ENDMDL
MODEL 2
REMARK VINA RESULT:    -3.101     21.916     23.768
REMARK INTER + INTRA:          -6.157
REMARK INTER:                  -4.151
REMARK INTRA:                  -2.006
REMARK UNBOUND:                -0.880
REMARK SMILES CCCCCCCCCCCCCC(=O)[O-]
REMARK SMILES IDX 8 1 9 2 10 3 11 4 12 5 13 6 14 7 15 8 16 9 7 10 6 11 5 12
REMARK SMILES IDX 4 13 3 14 2 15 1 16
REMARK H PARENT
REMARK Flexibility Score: inf
ROOT
ATOM      1  C   UNL     1      -6.651  -6.138  -7.894  1.00  0.00     0.000 C 
ENDROOT
BRANCH   1   2
ATOM      2  C   UNL     1      -6.063  -5.873  -9.288  1.00  0.00     0.000 C 
BRANCH   2   3
ATOM      3  C   UNL     1      -4.826  -6.750  -9.536  1.00  0.00     0.000 C 
BRANCH   3   4
ATOM      4  C   UNL     1      -5.189  -8.190  -9.933  1.00  0.00     0.000 C 
BRANCH   4   5
ATOM      5  C   UNL     1      -4.707  -9.227  -8.903  1.00  0.00     0.006 C 
BRANCH   5   6
ATOM      6  C   UNL     1      -3.783  -8.608  -7.847  1.00  0.00     0.053 C 
BRANCH   6   7
ATOM      7  C   UNL     1      -3.393  -9.603  -6.796  1.00  0.00     0.041 C 
ATOM      8  O   UNL     1      -4.259 -10.060  -6.004  1.00  0.00    -0.550 OA
ATOM      9  O   UNL     1      -2.068 -10.002  -6.672  1.00  0.00    -0.550 OA
ENDBRANCH   6   7
ENDBRANCH   5   6
ENDBRANCH   4   5
ENDBRANCH   3   4
ENDBRANCH   2   3
ENDBRANCH   1   2
BRANCH   1  10
ATOM     10  C   UNL     1      -8.168  -5.896  -7.831  1.00  0.00     0.000 C 
BRANCH  10  11
ATOM     11  C   UNL     1      -8.869  -6.195  -9.167  1.00  0.00    -0.000 C 
BRANCH  11  12
ATOM     12  C   UNL     1      -9.592  -7.552  -9.163  1.00  0.00    -0.000 C 
BRANCH  12  13
ATOM     13  C   UNL     1      -8.757  -8.671  -9.810  1.00  0.00    -0.000 C 
BRANCH  13  14
ATOM     14  C   UNL     1      -8.594  -9.893  -8.892  1.00  0.00    -0.000 C 
BRANCH  14  15
ATOM     15  C   UNL     1      -8.900  -9.571  -7.421  1.00  0.00    -0.003 C 
ATOM     16  C   UNL     1      -7.615  -9.459  -6.606  1.00  0.00     0.004 C 
ENDBRANCH  14  15
ENDBRANCH  13  14
ENDBRANCH  12  13
ENDBRANCH  11  12
ENDBRANCH  10  11
ENDBRANCH   1  10
TORSDOF 12
ENDMDL
MODEL 3
REMARK VINA RESULT:    -2.958      3.626      5.965
REMARK INTER + INTRA:          -5.914
REMARK INTER:                  -5.094
REMARK INTRA:                  -0.820
REMARK UNBOUND:                -0.880
REMARK SMILES CCCCCCCCCCCCCC(=O)[O-]
REMARK SMILES IDX 8 1 9 2 10 3 11 4 12 5 13 6 14 7 15 8 16 9 7 10 6 11 5 12
REMARK SMILES IDX 4 13 3 14 2 15 1 16
REMARK H PARENT
REMARK Flexibility Score: inf
ROOT
ATOM      1  C   UNL     1       6.283   5.565   1.811  1.00  0.00     0.000 C 
ENDROOT
BRANCH   1   2
ATOM      2  C   UNL     1       6.178   6.754   2.778  1.00  0.00     0.000 C 
BRANCH   2   3
ATOM      3  C   UNL     1       6.643   6.355   4.187  1.00  0.00     0.000 C 
BRANCH   3   4
ATOM      4  C   UNL     1       7.488   7.447   4.865  1.00  0.00     0.000 C 
BRANCH   4   5
ATOM      5  C   UNL     1       8.801   6.901   5.452  1.00  0.00     0.006 C 
BRANCH   5   6
ATOM      6  C   UNL     1      10.013   7.242   4.575  1.00  0.00     0.053 C 
BRANCH   6   7
ATOM      7  C   UNL     1      10.065   8.702   4.239  1.00  0.00     0.041 C 
ATOM      8  O   UNL     1      10.094   9.563   5.159  1.00  0.00    -0.550 OA
ATOM      9  O   UNL     1      10.049   9.112   2.913  1.00  0.00    -0.550 OA
ENDBRANCH   6   7
ENDBRANCH   5   6
ENDBRANCH   4   5
ENDBRANCH   3   4
ENDBRANCH   2   3
ENDBRANCH   1   2
BRANCH   1  10
ATOM     10  C   UNL     1       7.483   5.680   0.856  1.00  0.00     0.000 C 
BRANCH  10  11
ATOM     11  C   UNL     1       8.763   6.146   1.569  1.00  0.00    -0.000 C 
BRANCH  11  12
ATOM     12  C   UNL     1      10.032   5.510   0.977  1.00  0.00    -0.000 C 
BRANCH  12  13
ATOM     13  C   UNL     1       9.879   3.998   0.732  1.00  0.00    -0.000 C 
BRANCH  13  14
ATOM     14  C   UNL     1      10.125   3.167   2.002  1.00  0.00    -0.000 C 
BRANCH  14  15
ATOM     15  C   UNL     1       9.891   3.972   3.289  1.00  0.00    -0.003 C 
ATOM     16  C   UNL     1      10.124   3.109   4.525  1.00  0.00     0.004 C 
ENDBRANCH  14  15
ENDBRANCH  13  14
ENDBRANCH  12  13
ENDBRANCH  11  12
ENDBRANCH  10  11
ENDBRANCH   1  10
TORSDOF 12
ENDMDL
MODEL 4
REMARK VINA RESULT:    -2.671     21.900     23.789
REMARK INTER + INTRA:          -5.425
REMARK INTER:                  -4.393
REMARK INTRA:                  -1.032
REMARK UNBOUND:                -0.880
REMARK SMILES CCCCCCCCCCCCCC(=O)[O-]
REMARK SMILES IDX 8 1 9 2 10 3 11 4 12 5 13 6 14 7 15 8 16 9 7 10 6 11 5 12
REMARK SMILES IDX 4 13 3 14 2 15 1 16
REMARK H PARENT
REMARK Flexibility Score: inf
ROOT
ATOM      1  C   UNL     1      -6.938  -9.181  -7.235  1.00  0.00     0.000 C 
ENDROOT
BRANCH   1   2
ATOM      2  C   UNL     1      -5.890 -10.097  -6.583  1.00  0.00     0.000 C 
BRANCH   2   3
ATOM      3  C   UNL     1      -4.468  -9.638  -6.938  1.00  0.00     0.000 C 
BRANCH   3   4
ATOM      4  C   UNL     1      -4.028 -10.097  -8.338  1.00  0.00     0.000 C 
BRANCH   4   5
ATOM      5  C   UNL     1      -4.160  -8.985  -9.394  1.00  0.00     0.006 C 
BRANCH   5   6
ATOM      6  C   UNL     1      -3.995  -7.586  -8.785  1.00  0.00     0.053 C 
BRANCH   6   7
ATOM      7  C   UNL     1      -4.892  -6.583  -9.445  1.00  0.00     0.041 C 
ATOM      8  O   UNL     1      -4.550  -5.372  -9.508  1.00  0.00    -0.550 OA
ATOM      9  O   UNL     1      -6.119  -6.979  -9.962  1.00  0.00    -0.550 OA
ENDBRANCH   6   7
ENDBRANCH   5   6
ENDBRANCH   4   5
ENDBRANCH   3   4
ENDBRANCH   2   3
ENDBRANCH   1   2
BRANCH   1  10
ATOM     10  C   UNL     1      -8.253  -9.912  -7.551  1.00  0.00     0.000 C 
BRANCH  10  11
ATOM     11  C   UNL     1      -9.454  -8.956  -7.638  1.00  0.00    -0.000 C 
BRANCH  11  12
ATOM     12  C   UNL     1      -9.520  -8.214  -8.983  1.00  0.00    -0.000 C 
BRANCH  12  13
ATOM     13  C   UNL     1      -9.449  -6.685  -8.822  1.00  0.00    -0.000 C 
BRANCH  13  14
ATOM     14  C   UNL     1      -9.619  -6.237  -7.362  1.00  0.00    -0.000 C 
BRANCH  14  15
ATOM     15  C   UNL     1      -9.066  -4.826  -7.110  1.00  0.00    -0.003 C 
ATOM     16  C   UNL     1      -7.722  -4.884  -6.392  1.00  0.00     0.004 C 
ENDBRANCH  14  15
ENDBRANCH  13  14
ENDBRANCH  12  13
ENDBRANCH  11  12
ENDBRANCH  10  11
ENDBRANCH   1  10
TORSDOF 12
ENDMDL
MODEL 5
REMARK VINA RESULT:    -2.206     22.122     23.686
REMARK INTER + INTRA:          -4.633
REMARK INTER:                  -3.814
REMARK INTRA:                  -0.819
REMARK UNBOUND:                -0.880
REMARK SMILES CCCCCCCCCCCCCC(=O)[O-]
REMARK SMILES IDX 8 1 9 2 10 3 11 4 12 5 13 6 14 7 15 8 16 9 7 10 6 11 5 12
REMARK SMILES IDX 4 13 3 14 2 15 1 16
REMARK H PARENT
REMARK Flexibility Score: inf
ROOT
ATOM      1  C   UNL     1      -8.507  -8.488  -7.252  1.00  0.00     0.000 C 
ENDROOT
BRANCH   1   2
ATOM      2  C   UNL     1      -7.565  -9.690  -7.424  1.00  0.00     0.000 C 
BRANCH   2   3
ATOM      3  C   UNL     1      -6.099  -9.233  -7.463  1.00  0.00     0.000 C 
BRANCH   3   4
ATOM      4  C   UNL     1      -5.310  -9.867  -8.620  1.00  0.00     0.000 C 
BRANCH   4   5
ATOM      5  C   UNL     1      -5.339  -9.010  -9.897  1.00  0.00     0.006 C 
BRANCH   5   6
ATOM      6  C   UNL     1      -5.634  -7.534  -9.597  1.00  0.00     0.053 C 
BRANCH   6   7
ATOM      7  C   UNL     1      -4.382  -6.764  -9.303  1.00  0.00     0.041 C 
ATOM      8  O   UNL     1      -3.389  -7.343  -8.788  1.00  0.00    -0.550 OA
ATOM      9  O   UNL     1      -4.324  -5.403  -9.569  1.00  0.00    -0.550 OA
ENDBRANCH   6   7
ENDBRANCH   5   6
ENDBRANCH   4   5
ENDBRANCH   3   4
ENDBRANCH   2   3
ENDBRANCH   1   2
BRANCH   1  10
ATOM     10  C   UNL     1      -9.529  -8.365  -8.395  1.00  0.00     0.000 C 
BRANCH  10  11
ATOM     11  C   UNL     1     -10.121  -6.950  -8.508  1.00  0.00    -0.000 C 
BRANCH  11  12
ATOM     12  C   UNL     1      -9.048  -5.882  -8.778  1.00  0.00    -0.000 C 
BRANCH  12  13
ATOM     13  C   UNL     1      -8.793  -4.976  -7.561  1.00  0.00    -0.000 C 
BRANCH  13  14
ATOM     14  C   UNL     1     -10.094  -4.538  -6.868  1.00  0.00    -0.000 C 
BRANCH  14  15
ATOM     15  C   UNL     1      -9.948  -3.197  -6.132  1.00  0.00    -0.003 C 
ATOM     16  C   UNL     1      -9.931  -2.031  -7.116  1.00  0.00     0.004 C 
ENDBRANCH  14  15
ENDBRANCH  13  14
ENDBRANCH  12  13
ENDBRANCH  11  12
ENDBRANCH  10  11
ENDBRANCH   1  10
TORSDOF 12
ENDMDL
MODEL 6
REMARK VINA RESULT:    -2.133      1.363      2.406
REMARK INTER + INTRA:          -4.509
REMARK INTER:                  -3.775
REMARK INTRA:                  -0.735
REMARK UNBOUND:                -0.880
REMARK SMILES CCCCCCCCCCCCCC(=O)[O-]
REMARK SMILES IDX 8 1 9 2 10 3 11 4 12 5 13 6 14 7 15 8 16 9 7 10 6 11 5 12
REMARK SMILES IDX 4 13 3 14 2 15 1 16
REMARK H PARENT
REMARK Flexibility Score: inf
ROOT
ATOM      1  C   UNL     1       8.111   5.664   2.111  1.00  0.00     0.000 C 
ENDROOT
BRANCH   1   2
ATOM      2  C   UNL     1       9.183   4.936   2.937  1.00  0.00     0.000 C 
BRANCH   2   3
ATOM      3  C   UNL     1      10.121   4.131   2.026  1.00  0.00     0.000 C 
BRANCH   3   4
ATOM      4  C   UNL     1      10.125   2.630   2.355  1.00  0.00     0.000 C 
BRANCH   4   5
ATOM      5  C   UNL     1      10.045   2.354   3.866  1.00  0.00     0.006 C 
BRANCH   5   6
ATOM      6  C   UNL     1       9.923   0.856   4.176  1.00  0.00     0.053 C 
BRANCH   6   7
ATOM      7  C   UNL     1       9.054   0.603   5.370  1.00  0.00     0.041 C 
ATOM      8  O   UNL     1       9.366   1.081   6.493  1.00  0.00    -0.550 OA
ATOM      9  O   UNL     1       7.917  -0.185   5.250  1.00  0.00    -0.550 OA
ENDBRANCH   6   7
ENDBRANCH   5   6
ENDBRANCH   4   5
ENDBRANCH   3   4
ENDBRANCH   2   3
ENDBRANCH   1   2
BRANCH   1  10
ATOM     10  C   UNL     1       8.572   7.049   1.626  1.00  0.00     0.000 C 
BRANCH  10  11
ATOM     11  C   UNL     1      10.001   7.388   2.080  1.00  0.00    -0.000 C 
BRANCH  11  12
ATOM     12  C   UNL     1      10.125   8.824   2.614  1.00  0.00    -0.000 C 
BRANCH  12  13
ATOM     13  C   UNL     1       9.707   8.947   4.090  1.00  0.00    -0.000 C 
BRANCH  13  14
ATOM     14  C   UNL     1      10.057   7.694   4.909  1.00  0.00    -0.000 C 
BRANCH  14  15
ATOM     15  C   UNL     1       8.965   7.329   5.926  1.00  0.00    -0.003 C 
ATOM     16  C   UNL     1       7.671   6.933   5.222  1.00  0.00     0.004 C 
ENDBRANCH  14  15
ENDBRANCH  13  14
ENDBRANCH  12  13
ENDBRANCH  11  12
ENDBRANCH  10  11
ENDBRANCH   1  10
TORSDOF 12
ENDMDL
MODEL 7
REMARK VINA RESULT:    -1.985      3.239      6.580
REMARK INTER + INTRA:          -4.258
REMARK INTER:                  -5.009
REMARK INTRA:                   0.751
REMARK UNBOUND:                -0.880
REMARK SMILES CCCCCCCCCCCCCC(=O)[O-]
REMARK SMILES IDX 8 1 9 2 10 3 11 4 12 5 13 6 14 7 15 8 16 9 7 10 6 11 5 12
REMARK SMILES IDX 4 13 3 14 2 15 1 16
REMARK H PARENT
REMARK Flexibility Score: inf
ROOT
ATOM      1  C   UNL     1      10.120   4.024   2.876  1.00  0.00     0.000 C 
ENDROOT
BRANCH   1   2
ATOM      2  C   UNL     1       9.983   3.834   1.357  1.00  0.00     0.000 C 
BRANCH   2   3
ATOM      3  C   UNL     1       9.582   5.151   0.676  1.00  0.00     0.000 C 
BRANCH   3   4
ATOM      4  C   UNL     1       8.450   5.882   1.416  1.00  0.00     0.000 C 
BRANCH   4   5
ATOM      5  C   UNL     1       8.666   5.921   2.939  1.00  0.00     0.006 C 
BRANCH   5   6
ATOM      6  C   UNL     1       8.672   7.354   3.488  1.00  0.00     0.053 C 
BRANCH   6   7
ATOM      7  C   UNL     1       8.002   7.442   4.825  1.00  0.00     0.041 C 
ATOM      8  O   UNL     1       8.366   6.688   5.767  1.00  0.00    -0.550 OA
ATOM      9  O   UNL     1       6.958   8.335   5.023  1.00  0.00    -0.550 OA
ENDBRANCH   6   7
ENDBRANCH   5   6
ENDBRANCH   4   5
ENDBRANCH   3   4
ENDBRANCH   2   3
ENDBRANCH   1   2
BRANCH   1  10
ATOM     10  C   UNL     1      10.125   2.692   3.644  1.00  0.00     0.000 C 
BRANCH  10  11
ATOM     11  C   UNL     1      10.125   1.471   2.709  1.00  0.00    -0.000 C 
BRANCH  11  12
ATOM     12  C   UNL     1       9.643   0.191   3.412  1.00  0.00    -0.000 C 
BRANCH  12  13
ATOM     13  C   UNL     1       9.273   0.427   4.887  1.00  0.00    -0.000 C 
BRANCH  13  14
ATOM     14  C   UNL     1       7.870  -0.094   5.235  1.00  0.00    -0.000 C 
BRANCH  14  15
ATOM     15  C   UNL     1       7.443   0.268   6.665  1.00  0.00    -0.003 C 
ATOM     16  C   UNL     1       8.568   0.982   7.409  1.00  0.00     0.004 C 
ENDBRANCH  14  15
ENDBRANCH  13  14
ENDBRANCH  12  13
ENDBRANCH  11  12
ENDBRANCH  10  11
ENDBRANCH   1  10
TORSDOF 12
ENDMDL
MODEL 8
REMARK VINA RESULT:    -1.516      3.659      7.079
REMARK INTER + INTRA:          -3.459
REMARK INTER:                  -3.323
REMARK INTRA:                  -0.136
REMARK UNBOUND:                -0.880
REMARK SMILES CCCCCCCCCCCCCC(=O)[O-]
REMARK SMILES IDX 8 1 9 2 10 3 11 4 12 5 13 6 14 7 15 8 16 9 7 10 6 11 5 12
REMARK SMILES IDX 4 13 3 14 2 15 1 16
REMARK H PARENT
REMARK Flexibility Score: inf
ROOT
ATOM      1  C   UNL     1       8.821   5.447   3.668  1.00  0.00     0.000 C 
ENDROOT
BRANCH   1   2
ATOM      2  C   UNL     1      10.006   5.713   4.609  1.00  0.00     0.000 C 
BRANCH   2   3
ATOM      3  C   UNL     1      10.095   7.204   4.967  1.00  0.00     0.000 C 
BRANCH   3   4
ATOM      4  C   UNL     1       8.726   7.903   4.944  1.00  0.00     0.000 C 
BRANCH   4   5
ATOM      5  C   UNL     1       8.839   9.421   4.719  1.00  0.00     0.006 C 
BRANCH   5   6
ATOM      6  C   UNL     1       7.520  10.035   4.233  1.00  0.00     0.053 C 
BRANCH   6   7
ATOM      7  C   UNL     1       6.331   9.278   4.745  1.00  0.00     0.041 C 
ATOM      8  O   UNL     1       5.850   8.326   4.076  1.00  0.00    -0.550 OA
ATOM      9  O   UNL     1       5.737   9.645   5.946  1.00  0.00    -0.550 OA
ENDBRANCH   6   7
ENDBRANCH   5   6
ENDBRANCH   4   5
ENDBRANCH   3   4
ENDBRANCH   2   3
ENDBRANCH   1   2
BRANCH   1  10
ATOM     10  C   UNL     1       9.218   5.493   2.184  1.00  0.00     0.000 C 
BRANCH  10  11
ATOM     11  C   UNL     1      10.006   4.248   1.744  1.00  0.00    -0.000 C 
BRANCH  11  12
ATOM     12  C   UNL     1      10.124   3.200   2.862  1.00  0.00    -0.000 C 
BRANCH  12  13
ATOM     13  C   UNL     1      10.096   1.756   2.329  1.00  0.00    -0.000 C 
BRANCH  13  14
ATOM     14  C   UNL     1       9.967   0.714   3.451  1.00  0.00    -0.000 C 
BRANCH  14  15
ATOM     15  C   UNL     1       9.510   1.332   4.781  1.00  0.00    -0.003 C 
ATOM     16  C   UNL     1       8.429   0.481   5.439  1.00  0.00     0.004 C 
ENDBRANCH  14  15
ENDBRANCH  13  14
ENDBRANCH  12  13
ENDBRANCH  11  12
ENDBRANCH  10  11
ENDBRANCH   1  10
TORSDOF 12
ENDMDL
