MODEL 1
REMARK VINA RESULT:     9.764      0.000      0.000
REMARK INTER + INTRA:          10.610
REMARK INTER:                  10.621
REMARK INTRA:                  -0.011
REMARK UNBOUND:                -0.011
REMARK SMILES C[C@H]1[C@H](C)CC[C@]2(C(=O)[O-])CC[C@@]3(C)C(=CC[C@H]4[C@]5(C)CC[C@@H](O)C(C)(C)[C@@H]5CC[C@@]43C)[C@H]12
REMARK SMILES IDX 7 1 6 2 11 3 33 4 5 5 12 6 15 7 2 8 3 9 13 10 16 11 1 12
REMARK SMILES IDX 4 13 14 14 31 15 17 16 18 17 30 18 32 19 19 20 29 21 28 22
REMARK SMILES IDX 21 23 20 24 25 25 22 26 23 27 26 28 27 29 8 30 9 31 10 32
REMARK SMILES IDX 24 33
REMARK H PARENT 24 34
REMARK Flexibility Score: inf
ROOT
ATOM      1  C   UNL     1     -27.774  -0.432  23.878  1.00  0.00     0.017 C 
ATOM      2  C   UNL     1     -28.146   0.085  25.290  1.00  0.00     0.014 C 
ATOM      3  C   UNL     1     -27.953   0.689  22.827  1.00  0.00     0.014 C 
ATOM      4  C   UNL     1     -28.678  -1.641  23.477  1.00  0.00     0.030 C 
ATOM      5  C   UNL     1     -29.625   0.418  25.441  1.00  0.00     0.004 C 
ATOM      6  C   UNL     1     -27.504   0.299  21.411  1.00  0.00     0.013 C 
ATOM      7  C   UNL     1     -28.364  -2.102  22.040  1.00  0.00    -0.063 C 
ATOM      8  C   UNL     1     -30.218  -1.342  23.685  1.00  0.00    -0.003 C 
ATOM      9  C   UNL     1     -30.502  -0.799  25.124  1.00  0.00    -0.011 C 
ATOM     10  C   UNL     1     -27.679  -1.215  20.978  1.00  0.00    -0.006 C 
ATOM     11  C   UNL     1     -28.652  -3.381  21.705  1.00  0.00    -0.027 C 
ATOM     12  C   UNL     1     -31.093  -2.591  23.424  1.00  0.00     0.008 C 
ATOM     13  C   UNL     1     -31.977  -0.404  25.339  1.00  0.00     0.008 C 
ATOM     14  C   UNL     1     -26.226  -1.794  20.802  1.00  0.00     0.017 C 
ATOM     15  C   UNL     1     -28.522  -1.338  19.618  1.00  0.00    -0.020 C 
ATOM     16  C   UNL     1     -28.957  -3.823  20.291  1.00  0.00     0.032 C 
ATOM     17  C   UNL     1     -28.513  -2.849  19.157  1.00  0.00     0.006 C 
ATOM     18  C   UNL     1     -27.904  -0.429  18.492  1.00  0.00     0.008 C 
ATOM     19  C   UNL     1     -29.989  -0.866  19.876  1.00  0.00     0.012 C 
ATOM     20  C   UNL     1     -29.131  -3.181  17.713  1.00  0.00    -0.025 C 
ATOM     21  C   UNL     1     -27.683  -1.124  17.142  1.00  0.00     0.005 C 
ATOM     22  C   UNL     1     -28.926  -1.952  16.710  1.00  0.00     0.003 C 
ATOM     23  C   UNL     1     -28.436  -4.507  17.198  1.00  0.00     0.010 C 
ATOM     24  C   UNL     1     -30.661  -3.471  17.815  1.00  0.00     0.012 C 
ATOM     25  C   UNL     1     -29.002  -2.284  15.132  1.00  0.00    -0.006 C 
ATOM     26  C   UNL     1     -27.814  -4.421  15.809  1.00  0.00     0.033 C 
ATOM     27  C   UNL     1     -28.797  -3.805  14.820  1.00  0.00     0.120 C 
ATOM     28  C   UNL     1     -27.941  -1.506  14.295  1.00  0.00     0.014 C 
ATOM     29  C   UNL     1     -30.372  -1.817  14.563  1.00  0.00     0.014 C 
ENDROOT
BRANCH   1  30
ATOM     30  C   UNL     1     -26.308  -0.834  23.976  1.00  0.00     0.048 C 
ATOM     31  O   UNL     1     -25.396  -0.045  23.613  1.00  0.00    -0.550 OA
ATOM     32  O   UNL     1     -25.962  -2.122  24.372  1.00  0.00    -0.550 OA
ENDBRANCH   1  30
BRANCH  27  33
ATOM     33  O   UNL     1     -30.014  -4.514  14.841  1.00  0.00    -0.393 OA
ATOM     34  H   UNL     1     -29.886  -5.298  15.438  1.00  0.00     0.210 HD
ENDBRANCH  27  33
TORSDOF 2
ENDMDL
MODEL 2
REMARK VINA RESULT:    10.495      1.973      3.452
REMARK INTER + INTRA:          11.405
REMARK INTER:                  11.541
REMARK INTRA:                  -0.137
REMARK UNBOUND:                -0.011
REMARK SMILES C[C@H]1[C@H](C)CC[C@]2(C(=O)[O-])CC[C@@]3(C)C(=CC[C@H]4[C@]5(C)CC[C@@H](O)C(C)(C)[C@@H]5CC[C@@]43C)[C@H]12
REMARK SMILES IDX 7 1 6 2 11 3 33 4 5 5 12 6 15 7 2 8 3 9 13 10 16 11 1 12
REMARK SMILES IDX 4 13 14 14 31 15 17 16 18 17 30 18 32 19 19 20 29 21 28 22
REMARK SMILES IDX 21 23 20 24 25 25 22 26 23 27 26 28 27 29 8 30 9 31 10 32
REMARK SMILES IDX 24 33
REMARK H PARENT 24 34
REMARK Flexibility Score: inf
ROOT
ATOM      1  C   UNL     1     -29.470  -0.610  23.425  1.00  0.00     0.017 C 
ATOM      2  C   UNL     1     -29.231  -0.625  24.955  1.00  0.00     0.014 C 
ATOM      3  C   UNL     1     -30.338  -1.818  23.001  1.00  0.00     0.014 C 
ATOM      4  C   UNL     1     -28.113  -0.675  22.654  1.00  0.00     0.030 C 
ATOM      5  C   UNL     1     -28.379  -1.798  25.423  1.00  0.00     0.004 C 
ATOM      6  C   UNL     1     -30.716  -1.827  21.513  1.00  0.00     0.013 C 
ATOM      7  C   UNL     1     -28.354  -0.744  21.133  1.00  0.00    -0.063 C 
ATOM      8  C   UNL     1     -27.181  -1.848  23.165  1.00  0.00    -0.003 C 
ATOM      9  C   UNL     1     -27.016  -1.806  24.720  1.00  0.00    -0.011 C 
ATOM     10  C   UNL     1     -29.676  -1.213  20.488  1.00  0.00    -0.006 C 
ATOM     11  C   UNL     1     -27.368  -0.311  20.313  1.00  0.00    -0.027 C 
ATOM     12  C   UNL     1     -25.786  -1.814  22.498  1.00  0.00     0.008 C 
ATOM     13  C   UNL     1     -26.193  -2.989  25.270  1.00  0.00     0.008 C 
ATOM     14  C   UNL     1     -30.350   0.079  19.894  1.00  0.00     0.017 C 
ATOM     15  C   UNL     1     -29.311  -2.262  19.329  1.00  0.00    -0.020 C 
ATOM     16  C   UNL     1     -27.180  -0.814  18.900  1.00  0.00     0.032 C 
ATOM     17  C   UNL     1     -28.408  -1.533  18.258  1.00  0.00     0.006 C 
ATOM     18  C   UNL     1     -30.615  -2.816  18.645  1.00  0.00     0.008 C 
ATOM     19  C   UNL     1     -28.535  -3.468  19.951  1.00  0.00     0.012 C 
ATOM     20  C   UNL     1     -28.080  -2.332  16.905  1.00  0.00    -0.025 C 
ATOM     21  C   UNL     1     -30.613  -2.776  17.111  1.00  0.00     0.005 C 
ATOM     22  C   UNL     1     -29.280  -3.318  16.522  1.00  0.00     0.003 C 
ATOM     23  C   UNL     1     -27.797  -1.254  15.780  1.00  0.00     0.010 C 
ATOM     24  C   UNL     1     -26.784  -3.187  17.063  1.00  0.00     0.012 C 
ATOM     25  C   UNL     1     -29.365  -3.791  14.981  1.00  0.00    -0.006 C 
ATOM     26  C   UNL     1     -28.611  -1.417  14.501  1.00  0.00     0.033 C 
ATOM     27  C   UNL     1     -28.559  -2.860  14.013  1.00  0.00     0.120 C 
ATOM     28  C   UNL     1     -30.827  -3.844  14.441  1.00  0.00     0.014 C 
ATOM     29  C   UNL     1     -28.844  -5.251  14.851  1.00  0.00     0.014 C 
ENDROOT
BRANCH   1  30
ATOM     30  C   UNL     1     -30.210   0.693  23.152  1.00  0.00     0.048 C 
ATOM     31  O   UNL     1     -29.579   1.766  22.954  1.00  0.00    -0.550 OA
ATOM     32  O   UNL     1     -31.599   0.735  23.222  1.00  0.00    -0.550 OA
ENDBRANCH   1  30
BRANCH  27  33
ATOM     33  O   UNL     1     -27.221  -3.278  13.877  1.00  0.00    -0.393 OA
ATOM     34  H   UNL     1     -26.768  -2.623  13.282  1.00  0.00     0.210 HD
ENDBRANCH  27  33
TORSDOF 2
ENDMDL
MODEL 3
REMARK VINA RESULT:    10.507      2.054      3.784
REMARK INTER + INTRA:          11.418
REMARK INTER:                  11.466
REMARK INTRA:                  -0.049
REMARK UNBOUND:                -0.011
REMARK SMILES C[C@H]1[C@H](C)CC[C@]2(C(=O)[O-])CC[C@@]3(C)C(=CC[C@H]4[C@]5(C)CC[C@@H](O)C(C)(C)[C@@H]5CC[C@@]43C)[C@H]12
REMARK SMILES IDX 7 1 6 2 11 3 33 4 5 5 12 6 15 7 2 8 3 9 13 10 16 11 1 12
REMARK SMILES IDX 4 13 14 14 31 15 17 16 18 17 30 18 32 19 19 20 29 21 28 22
REMARK SMILES IDX 21 23 20 24 25 25 22 26 23 27 26 28 27 29 8 30 9 31 10 32
REMARK SMILES IDX 24 33
REMARK H PARENT 24 34
REMARK Flexibility Score: inf
ROOT
ATOM      1  C   UNL     1     -29.821  -0.754  23.652  1.00  0.00     0.017 C 
ATOM      2  C   UNL     1     -29.576  -0.319  25.118  1.00  0.00     0.014 C 
ATOM      3  C   UNL     1     -29.370  -2.219  23.440  1.00  0.00     0.014 C 
ATOM      4  C   UNL     1     -29.028   0.160  22.665  1.00  0.00     0.030 C 
ATOM      5  C   UNL     1     -28.100  -0.245  25.488  1.00  0.00     0.004 C 
ATOM      6  C   UNL     1     -29.675  -2.773  22.041  1.00  0.00     0.013 C 
ATOM      7  C   UNL     1     -29.206  -0.325  21.212  1.00  0.00    -0.063 C 
ATOM      8  C   UNL     1     -27.504   0.304  23.064  1.00  0.00    -0.003 C 
ATOM      9  C   UNL     1     -27.345   0.718  24.563  1.00  0.00    -0.011 C 
ATOM     10  C   UNL     1     -29.633  -1.757  20.825  1.00  0.00    -0.006 C 
ATOM     11  C   UNL     1     -29.036   0.575  20.216  1.00  0.00    -0.027 C 
ATOM     12  C   UNL     1     -26.763   1.324  22.167  1.00  0.00     0.008 C 
ATOM     13  C   UNL     1     -25.873   0.777  25.020  1.00  0.00     0.008 C 
ATOM     14  C   UNL     1     -31.111  -1.641  20.295  1.00  0.00     0.017 C 
ATOM     15  C   UNL     1     -28.641  -2.270  19.672  1.00  0.00    -0.020 C 
ATOM     16  C   UNL     1     -28.606   0.197  18.817  1.00  0.00     0.032 C 
ATOM     17  C   UNL     1     -28.775  -1.305  18.429  1.00  0.00     0.006 C 
ATOM     18  C   UNL     1     -28.991  -3.744  19.249  1.00  0.00     0.008 C 
ATOM     19  C   UNL     1     -27.173  -2.251  20.209  1.00  0.00     0.012 C 
ATOM     20  C   UNL     1     -28.020  -1.734  17.080  1.00  0.00    -0.025 C 
ATOM     21  C   UNL     1     -29.117  -3.974  17.736  1.00  0.00     0.005 C 
ATOM     22  C   UNL     1     -27.940  -3.327  16.955  1.00  0.00     0.003 C 
ATOM     23  C   UNL     1     -28.800  -1.069  15.872  1.00  0.00     0.010 C 
ATOM     24  C   UNL     1     -26.564  -1.174  17.054  1.00  0.00     0.012 C 
ATOM     25  C   UNL     1     -27.700  -3.927  15.474  1.00  0.00    -0.006 C 
ATOM     26  C   UNL     1     -29.220  -2.024  14.761  1.00  0.00     0.033 C 
ATOM     27  C   UNL     1     -28.048  -2.904  14.341  1.00  0.00     0.120 C 
ATOM     28  C   UNL     1     -28.539  -5.211  15.195  1.00  0.00     0.014 C 
ATOM     29  C   UNL     1     -26.221  -4.383  15.327  1.00  0.00     0.014 C 
ENDROOT
BRANCH   1  30
ATOM     30  C   UNL     1     -31.326  -0.630  23.448  1.00  0.00     0.048 C 
ATOM     31  O   UNL     1     -32.092  -1.601  23.690  1.00  0.00    -0.550 OA
ATOM     32  O   UNL     1     -31.862   0.526  22.891  1.00  0.00    -0.550 OA
ENDBRANCH   1  30
BRANCH  27  33
ATOM     33  O   UNL     1     -26.941  -2.105  13.997  1.00  0.00    -0.393 OA
ATOM     34  H   UNL     1     -26.396  -2.622  13.347  1.00  0.00     0.210 HD
ENDBRANCH  27  33
TORSDOF 2
ENDMDL
MODEL 4
REMARK VINA RESULT:    10.824      1.656      2.023
REMARK INTER + INTRA:          11.761
REMARK INTER:                  11.892
REMARK INTRA:                  -0.130
REMARK UNBOUND:                -0.011
REMARK SMILES C[C@H]1[C@H](C)CC[C@]2(C(=O)[O-])CC[C@@]3(C)C(=CC[C@H]4[C@]5(C)CC[C@@H](O)C(C)(C)[C@@H]5CC[C@@]43C)[C@H]12
REMARK SMILES IDX 7 1 6 2 11 3 33 4 5 5 12 6 15 7 2 8 3 9 13 10 16 11 1 12
REMARK SMILES IDX 4 13 14 14 31 15 17 16 18 17 30 18 32 19 19 20 29 21 28 22
REMARK SMILES IDX 21 23 20 24 25 25 22 26 23 27 26 28 27 29 8 30 9 31 10 32
REMARK SMILES IDX 24 33
REMARK H PARENT 24 34
REMARK Flexibility Score: inf
ROOT
ATOM      1  C   UNL     1     -28.876  -0.584  23.540  1.00  0.00     0.017 C 
ATOM      2  C   UNL     1     -29.378   0.293  24.713  1.00  0.00     0.014 C 
ATOM      3  C   UNL     1     -27.793   0.167  22.729  1.00  0.00     0.014 C 
ATOM      4  C   UNL     1     -30.053  -0.951  22.582  1.00  0.00     0.030 C 
ATOM      5  C   UNL     1     -30.136   1.534  24.259  1.00  0.00     0.004 C 
ATOM      6  C   UNL     1     -27.159  -0.669  21.607  1.00  0.00     0.013 C 
ATOM      7  C   UNL     1     -29.539  -1.753  21.371  1.00  0.00    -0.063 C 
ATOM      8  C   UNL     1     -30.897   0.315  22.145  1.00  0.00    -0.003 C 
ATOM      9  C   UNL     1     -31.339   1.159  23.385  1.00  0.00    -0.011 C 
ATOM     10  C   UNL     1     -28.073  -1.743  20.886  1.00  0.00    -0.006 C 
ATOM     11  C   UNL     1     -30.412  -2.563  20.727  1.00  0.00    -0.027 C 
ATOM     12  C   UNL     1     -32.143  -0.075  21.317  1.00  0.00     0.008 C 
ATOM     13  C   UNL     1     -32.082   2.454  23.000  1.00  0.00     0.008 C 
ATOM     14  C   UNL     1     -27.482  -3.152  21.264  1.00  0.00     0.017 C 
ATOM     15  C   UNL     1     -28.084  -1.526  19.296  1.00  0.00    -0.020 C 
ATOM     16  C   UNL     1     -30.277  -2.942  19.270  1.00  0.00     0.032 C 
ATOM     17  C   UNL     1     -28.871  -2.723  18.631  1.00  0.00     0.006 C 
ATOM     18  C   UNL     1     -26.617  -1.466  18.730  1.00  0.00     0.008 C 
ATOM     19  C   UNL     1     -28.790  -0.171  18.965  1.00  0.00     0.012 C 
ATOM     20  C   UNL     1     -28.844  -2.821  17.029  1.00  0.00    -0.025 C 
ATOM     21  C   UNL     1     -26.352  -2.364  17.513  1.00  0.00     0.005 C 
ATOM     22  C   UNL     1     -27.474  -2.235  16.446  1.00  0.00     0.003 C 
ATOM     23  C   UNL     1     -29.063  -4.343  16.648  1.00  0.00     0.010 C 
ATOM     24  C   UNL     1     -30.021  -2.013  16.401  1.00  0.00     0.012 C 
ATOM     25  C   UNL     1     -27.055  -2.713  14.962  1.00  0.00    -0.006 C 
ATOM     26  C   UNL     1     -28.021  -4.937  15.708  1.00  0.00     0.033 C 
ATOM     27  C   UNL     1     -27.792  -4.020  14.513  1.00  0.00     0.120 C 
ATOM     28  C   UNL     1     -25.526  -2.989  14.821  1.00  0.00     0.014 C 
ATOM     29  C   UNL     1     -27.346  -1.575  13.942  1.00  0.00     0.014 C 
ENDROOT
BRANCH   1  30
ATOM     30  C   UNL     1     -28.279  -1.822  24.198  1.00  0.00     0.048 C 
ATOM     31  O   UNL     1     -28.970  -2.861  24.367  1.00  0.00    -0.550 OA
ATOM     32  O   UNL     1     -26.988  -1.783  24.716  1.00  0.00    -0.550 OA
ENDBRANCH   1  30
BRANCH  27  33
ATOM     33  O   UNL     1     -29.017  -3.738  13.878  1.00  0.00    -0.393 OA
ATOM     34  H   UNL     1     -29.719  -3.733  14.581  1.00  0.00     0.210 HD
ENDBRANCH  27  33
TORSDOF 2
ENDMDL
MODEL 5
REMARK VINA RESULT:    12.521      4.244     10.567
REMARK INTER + INTRA:          13.608
REMARK INTER:                  13.656
REMARK INTRA:                  -0.048
REMARK UNBOUND:                -0.011
REMARK SMILES C[C@H]1[C@H](C)CC[C@]2(C(=O)[O-])CC[C@@]3(C)C(=CC[C@H]4[C@]5(C)CC[C@@H](O)C(C)(C)[C@@H]5CC[C@@]43C)[C@H]12
REMARK SMILES IDX 7 1 6 2 11 3 33 4 5 5 12 6 15 7 2 8 3 9 13 10 16 11 1 12
REMARK SMILES IDX 4 13 14 14 31 15 17 16 18 17 30 18 32 19 19 20 29 21 28 22
REMARK SMILES IDX 21 23 20 24 25 25 22 26 23 27 26 28 27 29 8 30 9 31 10 32
REMARK SMILES IDX 24 33
REMARK H PARENT 24 34
REMARK Flexibility Score: inf
ROOT
ATOM      1  C   UNL     1     -29.964  -0.941  23.282  1.00  0.00     0.017 C 
ATOM      2  C   UNL     1     -29.543  -1.213  21.817  1.00  0.00     0.014 C 
ATOM      3  C   UNL     1     -30.201   0.571  23.505  1.00  0.00     0.014 C 
ATOM      4  C   UNL     1     -28.858  -1.424  24.273  1.00  0.00     0.030 C 
ATOM      5  C   UNL     1     -28.181  -0.630  21.461  1.00  0.00     0.004 C 
ATOM      6  C   UNL     1     -30.727   0.924  24.904  1.00  0.00     0.013 C 
ATOM      7  C   UNL     1     -29.240  -1.078  25.726  1.00  0.00    -0.063 C 
ATOM      8  C   UNL     1     -27.421  -0.883  23.888  1.00  0.00    -0.003 C 
ATOM      9  C   UNL     1     -27.087  -1.173  22.388  1.00  0.00    -0.011 C 
ATOM     10  C   UNL     1     -30.254   0.019  26.115  1.00  0.00    -0.006 C 
ATOM     11  C   UNL     1     -28.700  -1.821  26.719  1.00  0.00    -0.027 C 
ATOM     12  C   UNL     1     -26.315  -1.483  24.788  1.00  0.00     0.008 C 
ATOM     13  C   UNL     1     -25.735  -0.578  21.946  1.00  0.00     0.008 C 
ATOM     14  C   UNL     1     -31.535  -0.736  26.630  1.00  0.00     0.017 C 
ATOM     15  C   UNL     1     -29.594   0.904  27.280  1.00  0.00    -0.020 C 
ATOM     16  C   UNL     1     -28.489  -1.305  28.124  1.00  0.00     0.032 C 
ATOM     17  C   UNL     1     -29.301  -0.032  28.517  1.00  0.00     0.006 C 
ATOM     18  C   UNL     1     -30.556   2.074  27.707  1.00  0.00     0.008 C 
ATOM     19  C   UNL     1     -28.262   1.535  26.758  1.00  0.00     0.012 C 
ATOM     20  C   UNL     1     -28.819   0.673  29.876  1.00  0.00    -0.025 C 
ATOM     21  C   UNL     1     -30.781   2.212  29.219  1.00  0.00     0.005 C 
ATOM     22  C   UNL     1     -29.445   2.139  30.009  1.00  0.00     0.003 C 
ATOM     23  C   UNL     1     -29.237  -0.277  31.073  1.00  0.00     0.010 C 
ATOM     24  C   UNL     1     -27.264   0.806  29.914  1.00  0.00     0.012 C 
ATOM     25  C   UNL     1     -29.502   2.770  31.495  1.00  0.00    -0.006 C 
ATOM     26  C   UNL     1     -30.040   0.389  32.184  1.00  0.00     0.033 C 
ATOM     27  C   UNL     1     -29.375   1.689  32.620  1.00  0.00     0.120 C 
ATOM     28  C   UNL     1     -30.820   3.556  31.771  1.00  0.00     0.014 C 
ATOM     29  C   UNL     1     -28.372   3.827  31.659  1.00  0.00     0.014 C 
ENDROOT
BRANCH   1  30
ATOM     30  C   UNL     1     -31.264  -1.712  23.470  1.00  0.00     0.048 C 
ATOM     31  O   UNL     1     -32.377  -1.168  23.242  1.00  0.00    -0.550 OA
ATOM     32  O   UNL     1     -31.242  -2.999  24.000  1.00  0.00    -0.550 OA
ENDBRANCH   1  30
BRANCH  27  33
ATOM     33  O   UNL     1     -28.032   1.452  32.971  1.00  0.00    -0.393 OA
ATOM     34  H   UNL     1     -28.012   0.620  33.512  1.00  0.00     0.210 HD
ENDBRANCH  27  33
TORSDOF 2
ENDMDL
