MODEL 1
REMARK VINA RESULT:    -3.734      0.000      0.000
REMARK INTER + INTRA:          -6.908
REMARK INTER:                  -5.917
REMARK INTRA:                  -0.991
REMARK UNBOUND:                -0.991
REMARK SMILES CCCCCCCCCCCC(=O)[O-]
REMARK SMILES IDX 7 1 8 2 9 3 10 4 11 5 12 6 13 7 14 8 6 9 5 10 4 11 3 12 2 13
REMARK SMILES IDX 1 14
REMARK H PARENT
REMARK Flexibility Score: inf
ROOT
ATOM      1  C   UNL     1     162.983 162.192 188.458  1.00  0.00     0.000 C 
ENDROOT
BRANCH   1   2
ATOM      2  C   UNL     1     161.577 162.757 188.738  1.00  0.00     0.000 C 
BRANCH   2   3
ATOM      3  C   UNL     1     160.411 161.862 188.275  1.00  0.00     0.000 C 
BRANCH   3   4
ATOM      4  C   UNL     1     159.954 162.093 186.822  1.00  0.00     0.006 C 
BRANCH   4   5
ATOM      5  C   UNL     1     160.287 160.914 185.899  1.00  0.00     0.053 C 
BRANCH   5   6
ATOM      6  C   UNL     1     161.558 161.175 185.155  1.00  0.00     0.041 C 
ATOM      7  O   UNL     1     162.199 160.221 184.641  1.00  0.00    -0.550 OA
ATOM      8  O   UNL     1     162.010 162.478 184.986  1.00  0.00    -0.550 OA
ENDBRANCH   5   6
ENDBRANCH   4   5
ENDBRANCH   3   4
ENDBRANCH   2   3
ENDBRANCH   1   2
BRANCH   1   9
ATOM      9  C   UNL     1     163.059 160.652 188.519  1.00  0.00     0.000 C 
BRANCH   9  10
ATOM     10  C   UNL     1     164.450 160.149 188.943  1.00  0.00    -0.000 C 
BRANCH  10  11
ATOM     11  C   UNL     1     165.554 160.558 187.955  1.00  0.00    -0.000 C 
BRANCH  11  12
ATOM     12  C   UNL     1     166.711 161.304 188.642  1.00  0.00    -0.000 C 
BRANCH  12  13
ATOM     13  C   UNL     1     166.514 161.426 190.160  1.00  0.00    -0.003 C 
ATOM     14  C   UNL     1     166.672 162.861 190.664  1.00  0.00     0.004 C 
ENDBRANCH  12  13
ENDBRANCH  11  12
ENDBRANCH  10  11
ENDBRANCH   9  10
ENDBRANCH   1   9
TORSDOF 10
ENDMDL
MODEL 2
REMARK VINA RESULT:    -3.582      3.358      6.194
REMARK INTER + INTRA:          -6.667
REMARK INTER:                  -5.908
REMARK INTRA:                  -0.759
REMARK UNBOUND:                -0.991
REMARK SMILES CCCCCCCCCCCC(=O)[O-]
REMARK SMILES IDX 7 1 8 2 9 3 10 4 11 5 12 6 13 7 14 8 6 9 5 10 4 11 3 12 2 13
REMARK SMILES IDX 1 14
REMARK H PARENT
REMARK Flexibility Score: inf
ROOT
ATOM      1  C   UNL     1     165.109 160.461 187.688  1.00  0.00     0.000 C 
ENDROOT
BRANCH   1   2
ATOM      2  C   UNL     1     166.436 160.649 188.448  1.00  0.00     0.000 C 
BRANCH   2   3
ATOM      3  C   UNL     1     166.313 160.656 189.983  1.00  0.00     0.000 C 
BRANCH   3   4
ATOM      4  C   UNL     1     166.688 161.989 190.657  1.00  0.00     0.006 C 
BRANCH   4   5
ATOM      5  C   UNL     1     166.132 163.209 189.912  1.00  0.00     0.053 C 
BRANCH   5   6
ATOM      6  C   UNL     1     167.218 164.206 189.660  1.00  0.00     0.041 C 
ATOM      7  O   UNL     1     168.329 163.830 189.201  1.00  0.00    -0.550 OA
ATOM      8  O   UNL     1     166.988 165.557 189.885  1.00  0.00    -0.550 OA
ENDBRANCH   5   6
ENDBRANCH   4   5
ENDBRANCH   3   4
ENDBRANCH   2   3
ENDBRANCH   1   2
BRANCH   1   9
ATOM      9  C   UNL     1     163.868 160.408 188.605  1.00  0.00     0.000 C 
BRANCH   9  10
ATOM     10  C   UNL     1     162.618 161.006 187.935  1.00  0.00    -0.000 C 
BRANCH  10  11
ATOM     11  C   UNL     1     162.182 162.333 188.575  1.00  0.00    -0.000 C 
BRANCH  11  12
ATOM     12  C   UNL     1     160.717 162.308 189.043  1.00  0.00    -0.000 C 
BRANCH  12  13
ATOM     13  C   UNL     1     159.876 163.424 188.405  1.00  0.00    -0.003 C 
ATOM     14  C   UNL     1     160.719 164.619 187.957  1.00  0.00     0.004 C 
ENDBRANCH  12  13
ENDBRANCH  11  12
ENDBRANCH  10  11
ENDBRANCH   9  10
ENDBRANCH   1   9
TORSDOF 10
ENDMDL
MODEL 3
REMARK VINA RESULT:    -3.542     12.465     13.762
REMARK INTER + INTRA:          -6.603
REMARK INTER:                  -5.560
REMARK INTRA:                  -1.043
REMARK UNBOUND:                -0.991
REMARK SMILES CCCCCCCCCCCC(=O)[O-]
REMARK SMILES IDX 7 1 8 2 9 3 10 4 11 5 12 6 13 7 14 8 6 9 5 10 4 11 3 12 2 13
REMARK SMILES IDX 1 14
REMARK H PARENT
REMARK Flexibility Score: inf
ROOT
ATOM      1  C   UNL     1     174.890 160.963 187.081  1.00  0.00     0.000 C 
ENDROOT
BRANCH   1   2
ATOM      2  C   UNL     1     175.123 159.875 186.016  1.00  0.00     0.000 C 
BRANCH   2   3
ATOM      3  C   UNL     1     175.566 160.397 184.635  1.00  0.00     0.000 C 
BRANCH   3   4
ATOM      4  C   UNL     1     175.684 161.929 184.529  1.00  0.00     0.006 C 
BRANCH   4   5
ATOM      5  C   UNL     1     177.136 162.406 184.402  1.00  0.00     0.053 C 
BRANCH   5   6
ATOM      6  C   UNL     1     177.759 161.855 183.158  1.00  0.00     0.041 C 
ATOM      7  O   UNL     1     177.319 162.193 182.026  1.00  0.00    -0.550 OA
ATOM      8  O   UNL     1     178.857 161.010 183.245  1.00  0.00    -0.550 OA
ENDBRANCH   5   6
ENDBRANCH   4   5
ENDBRANCH   3   4
ENDBRANCH   2   3
ENDBRANCH   1   2
BRANCH   1   9
ATOM      9  C   UNL     1     175.623 160.698 188.414  1.00  0.00     0.000 C 
BRANCH   9  10
ATOM     10  C   UNL     1     176.940 161.486 188.527  1.00  0.00    -0.000 C 
BRANCH  10  11
ATOM     11  C   UNL     1     176.742 162.998 188.340  1.00  0.00    -0.000 C 
BRANCH  11  12
ATOM     12  C   UNL     1     177.140 163.802 189.591  1.00  0.00    -0.000 C 
BRANCH  12  13
ATOM     13  C   UNL     1     175.924 164.371 190.336  1.00  0.00    -0.003 C 
ATOM     14  C   UNL     1     174.606 164.112 189.605  1.00  0.00     0.004 C 
ENDBRANCH  12  13
ENDBRANCH  11  12
ENDBRANCH  10  11
ENDBRANCH   9  10
ENDBRANCH   1   9
TORSDOF 10
ENDMDL
MODEL 4
REMARK VINA RESULT:    -3.522     12.084     13.588
REMARK INTER + INTRA:          -6.571
REMARK INTER:                  -5.222
REMARK INTRA:                  -1.349
REMARK UNBOUND:                -0.991
REMARK SMILES CCCCCCCCCCCC(=O)[O-]
REMARK SMILES IDX 7 1 8 2 9 3 10 4 11 5 12 6 13 7 14 8 6 9 5 10 4 11 3 12 2 13
REMARK SMILES IDX 1 14
REMARK H PARENT
REMARK Flexibility Score: inf
ROOT
ATOM      1  C   UNL     1     174.725 160.958 188.514  1.00  0.00     0.000 C 
ENDROOT
BRANCH   1   2
ATOM      2  C   UNL     1     174.233 160.274 187.224  1.00  0.00     0.000 C 
BRANCH   2   3
ATOM      3  C   UNL     1     175.198 160.366 186.027  1.00  0.00     0.000 C 
BRANCH   3   4
ATOM      4  C   UNL     1     174.920 161.531 185.058  1.00  0.00     0.006 C 
BRANCH   4   5
ATOM      5  C   UNL     1     175.785 162.764 185.346  1.00  0.00     0.053 C 
BRANCH   5   6
ATOM      6  C   UNL     1     177.179 162.552 184.844  1.00  0.00     0.041 C 
ATOM      7  O   UNL     1     177.399 162.455 183.608  1.00  0.00    -0.550 OA
ATOM      8  O   UNL     1     178.241 162.511 185.738  1.00  0.00    -0.550 OA
ENDBRANCH   5   6
ENDBRANCH   4   5
ENDBRANCH   3   4
ENDBRANCH   2   3
ENDBRANCH   1   2
BRANCH   1   9
ATOM      9  C   UNL     1     176.260 160.950 188.676  1.00  0.00     0.000 C 
BRANCH   9  10
ATOM     10  C   UNL     1     176.830 162.354 188.944  1.00  0.00    -0.000 C 
BRANCH  10  11
ATOM     11  C   UNL     1     175.733 163.394 189.219  1.00  0.00    -0.000 C 
BRANCH  11  12
ATOM     12  C   UNL     1     176.181 164.826 188.877  1.00  0.00    -0.000 C 
BRANCH  12  13
ATOM     13  C   UNL     1     177.653 164.894 188.443  1.00  0.00    -0.003 C 
ATOM     14  C   UNL     1     177.864 165.753 187.196  1.00  0.00     0.004 C 
ENDBRANCH  12  13
ENDBRANCH  11  12
ENDBRANCH  10  11
ENDBRANCH   9  10
ENDBRANCH   1   9
TORSDOF 10
ENDMDL
MODEL 5
REMARK VINA RESULT:    -3.487      2.955      5.519
REMARK INTER + INTRA:          -6.517
REMARK INTER:                  -5.122
REMARK INTRA:                  -1.395
REMARK UNBOUND:                -0.991
REMARK SMILES CCCCCCCCCCCC(=O)[O-]
REMARK SMILES IDX 7 1 8 2 9 3 10 4 11 5 12 6 13 7 14 8 6 9 5 10 4 11 3 12 2 13
REMARK SMILES IDX 1 14
REMARK H PARENT
REMARK Flexibility Score: inf
ROOT
ATOM      1  C   UNL     1     163.510 161.144 184.911  1.00  0.00     0.000 C 
ENDROOT
BRANCH   1   2
ATOM      2  C   UNL     1     164.192 161.442 186.261  1.00  0.00     0.000 C 
BRANCH   2   3
ATOM      3  C   UNL     1     164.226 160.260 187.249  1.00  0.00     0.000 C 
BRANCH   3   4
ATOM      4  C   UNL     1     164.278 160.660 188.736  1.00  0.00     0.006 C 
BRANCH   4   5
ATOM      5  C   UNL     1     165.171 161.881 188.992  1.00  0.00     0.053 C 
BRANCH   5   6
ATOM      6  C   UNL     1     166.393 161.482 189.758  1.00  0.00     0.041 C 
ATOM      7  O   UNL     1     167.049 160.463 189.416  1.00  0.00    -0.550 OA
ATOM      8  O   UNL     1     166.837 162.264 190.817  1.00  0.00    -0.550 OA
ENDBRANCH   5   6
ENDBRANCH   4   5
ENDBRANCH   3   4
ENDBRANCH   2   3
ENDBRANCH   1   2
BRANCH   1   9
ATOM      9  C   UNL     1     162.095 161.746 184.782  1.00  0.00     0.000 C 
BRANCH   9  10
ATOM     10  C   UNL     1     161.035 160.921 185.535  1.00  0.00    -0.000 C 
BRANCH  10  11
ATOM     11  C   UNL     1     160.277 161.750 186.584  1.00  0.00    -0.000 C 
BRANCH  11  12
ATOM     12  C   UNL     1     160.666 161.374 188.024  1.00  0.00    -0.000 C 
BRANCH  12  13
ATOM     13  C   UNL     1     160.782 162.600 188.942  1.00  0.00    -0.003 C 
ATOM     14  C   UNL     1     161.844 163.593 188.472  1.00  0.00     0.004 C 
ENDBRANCH  12  13
ENDBRANCH  11  12
ENDBRANCH  10  11
ENDBRANCH   9  10
ENDBRANCH   1   9
TORSDOF 10
ENDMDL
MODEL 6
REMARK VINA RESULT:    -3.487      2.207      2.456
REMARK INTER + INTRA:          -6.516
REMARK INTER:                  -5.714
REMARK INTRA:                  -0.801
REMARK UNBOUND:                -0.991
REMARK SMILES CCCCCCCCCCCC(=O)[O-]
REMARK SMILES IDX 7 1 8 2 9 3 10 4 11 5 12 6 13 7 14 8 6 9 5 10 4 11 3 12 2 13
REMARK SMILES IDX 1 14
REMARK H PARENT
REMARK Flexibility Score: inf
ROOT
ATOM      1  C   UNL     1     163.034 161.840 188.261  1.00  0.00     0.000 C 
ENDROOT
BRANCH   1   2
ATOM      2  C   UNL     1     161.504 161.728 188.119  1.00  0.00     0.000 C 
BRANCH   2   3
ATOM      3  C   UNL     1     160.693 162.662 189.037  1.00  0.00     0.000 C 
BRANCH   3   4
ATOM      4  C   UNL     1     159.875 163.742 188.302  1.00  0.00     0.006 C 
BRANCH   4   5
ATOM      5  C   UNL     1     160.101 163.730 186.785  1.00  0.00     0.053 C 
BRANCH   5   6
ATOM      6  C   UNL     1     160.869 164.943 186.363  1.00  0.00     0.041 C 
ATOM      7  O   UNL     1     160.549 165.560 185.312  1.00  0.00    -0.550 OA
ATOM      8  O   UNL     1     161.904 165.422 187.154  1.00  0.00    -0.550 OA
ENDBRANCH   5   6
ENDBRANCH   4   5
ENDBRANCH   3   4
ENDBRANCH   2   3
ENDBRANCH   1   2
BRANCH   1   9
ATOM      9  C   UNL     1     163.738 160.489 188.509  1.00  0.00     0.000 C 
BRANCH   9  10
ATOM     10  C   UNL     1     164.971 160.295 187.609  1.00  0.00    -0.000 C 
BRANCH  10  11
ATOM     11  C   UNL     1     166.253 160.871 188.231  1.00  0.00    -0.000 C 
BRANCH  11  12
ATOM     12  C   UNL     1     166.281 160.725 189.762  1.00  0.00    -0.000 C 
BRANCH  12  13
ATOM     13  C   UNL     1     166.689 162.025 190.471  1.00  0.00    -0.003 C 
ATOM     14  C   UNL     1     165.967 163.254 189.916  1.00  0.00     0.004 C 
ENDBRANCH  12  13
ENDBRANCH  11  12
ENDBRANCH  10  11
ENDBRANCH   9  10
ENDBRANCH   1   9
TORSDOF 10
ENDMDL
MODEL 7
REMARK VINA RESULT:    -3.477      1.451      2.496
REMARK INTER + INTRA:          -6.501
REMARK INTER:                  -5.573
REMARK INTRA:                  -0.928
REMARK UNBOUND:                -0.991
REMARK SMILES CCCCCCCCCCCC(=O)[O-]
REMARK SMILES IDX 7 1 8 2 9 3 10 4 11 5 12 6 13 7 14 8 6 9 5 10 4 11 3 12 2 13
REMARK SMILES IDX 1 14
REMARK H PARENT
REMARK Flexibility Score: inf
ROOT
ATOM      1  C   UNL     1     161.135 164.179 187.964  1.00  0.00     0.000 C 
ENDROOT
BRANCH   1   2
ATOM      2  C   UNL     1     159.883 164.288 187.073  1.00  0.00     0.000 C 
BRANCH   2   3
ATOM      3  C   UNL     1     160.166 164.446 185.566  1.00  0.00     0.000 C 
BRANCH   3   4
ATOM      4  C   UNL     1     160.140 163.133 184.762  1.00  0.00     0.006 C 
BRANCH   4   5
ATOM      5  C   UNL     1     161.529 162.500 184.610  1.00  0.00     0.053 C 
BRANCH   5   6
ATOM      6  C   UNL     1     161.494 161.060 185.016  1.00  0.00     0.041 C 
ATOM      7  O   UNL     1     160.506 160.605 185.650  1.00  0.00    -0.550 OA
ATOM      8  O   UNL     1     162.529 160.209 184.650  1.00  0.00    -0.550 OA
ENDBRANCH   5   6
ENDBRANCH   4   5
ENDBRANCH   3   4
ENDBRANCH   2   3
ENDBRANCH   1   2
BRANCH   1   9
ATOM      9  C   UNL     1     161.349 162.775 188.568  1.00  0.00     0.000 C 
BRANCH   9  10
ATOM     10  C   UNL     1     162.811 162.307 188.462  1.00  0.00    -0.000 C 
BRANCH  10  11
ATOM     11  C   UNL     1     162.936 160.780 188.349  1.00  0.00    -0.000 C 
BRANCH  11  12
ATOM     12  C   UNL     1     164.312 160.266 188.810  1.00  0.00    -0.000 C 
BRANCH  12  13
ATOM     13  C   UNL     1     165.313 161.405 189.055  1.00  0.00    -0.003 C 
ATOM     14  C   UNL     1     166.696 160.899 189.466  1.00  0.00     0.004 C 
ENDBRANCH  12  13
ENDBRANCH  11  12
ENDBRANCH  10  11
ENDBRANCH   9  10
ENDBRANCH   1   9
TORSDOF 10
ENDMDL
MODEL 8
REMARK VINA RESULT:    -3.472      2.573      4.294
REMARK INTER + INTRA:          -6.492
REMARK INTER:                  -4.975
REMARK INTRA:                  -1.517
REMARK UNBOUND:                -0.991
REMARK SMILES CCCCCCCCCCCC(=O)[O-]
REMARK SMILES IDX 7 1 8 2 9 3 10 4 11 5 12 6 13 7 14 8 6 9 5 10 4 11 3 12 2 13
REMARK SMILES IDX 1 14
REMARK H PARENT
REMARK Flexibility Score: inf
ROOT
ATOM      1  C   UNL     1     161.013 164.671 185.816  1.00  0.00     0.000 C 
ENDROOT
BRANCH   1   2
ATOM      2  C   UNL     1     159.899 163.728 185.322  1.00  0.00     0.000 C 
BRANCH   2   3
ATOM      3  C   UNL     1     160.387 162.383 184.752  1.00  0.00     0.000 C 
BRANCH   3   4
ATOM      4  C   UNL     1     161.917 162.218 184.700  1.00  0.00     0.006 C 
BRANCH   4   5
ATOM      5  C   UNL     1     162.351 160.783 184.375  1.00  0.00     0.053 C 
BRANCH   5   6
ATOM      6  C   UNL     1     163.836 160.646 184.500  1.00  0.00     0.041 C 
ATOM      7  O   UNL     1     164.581 160.915 183.521  1.00  0.00    -0.550 OA
ATOM      8  O   UNL     1     164.400 160.270 185.712  1.00  0.00    -0.550 OA
ENDBRANCH   5   6
ENDBRANCH   4   5
ENDBRANCH   3   4
ENDBRANCH   2   3
ENDBRANCH   1   2
BRANCH   1   9
ATOM      9  C   UNL     1     160.874 165.075 187.299  1.00  0.00     0.000 C 
BRANCH   9  10
ATOM     10  C   UNL     1     159.875 164.186 188.060  1.00  0.00    -0.000 C 
BRANCH  10  11
ATOM     11  C   UNL     1     160.566 163.225 189.040  1.00  0.00    -0.000 C 
BRANCH  11  12
ATOM     12  C   UNL     1     160.688 161.798 188.477  1.00  0.00    -0.000 C 
BRANCH  12  13
ATOM     13  C   UNL     1     162.147 161.387 188.226  1.00  0.00    -0.003 C 
ATOM     14  C   UNL     1     163.137 162.520 188.497  1.00  0.00     0.004 C 
ENDBRANCH  12  13
ENDBRANCH  11  12
ENDBRANCH  10  11
ENDBRANCH   9  10
ENDBRANCH   1   9
TORSDOF 10
ENDMDL
MODEL 9
REMARK VINA RESULT:    -3.443      2.757      5.922
REMARK INTER + INTRA:          -6.446
REMARK INTER:                  -5.451
REMARK INTRA:                  -0.996
REMARK UNBOUND:                -0.991
REMARK SMILES CCCCCCCCCCCC(=O)[O-]
REMARK SMILES IDX 7 1 8 2 9 3 10 4 11 5 12 6 13 7 14 8 6 9 5 10 4 11 3 12 2 13
REMARK SMILES IDX 1 14
REMARK H PARENT
REMARK Flexibility Score: inf
ROOT
ATOM      1  C   UNL     1     163.720 161.619 187.866  1.00  0.00     0.000 C 
ENDROOT
BRANCH   1   2
ATOM      2  C   UNL     1     163.667 160.327 188.702  1.00  0.00     0.000 C 
BRANCH   2   3
ATOM      3  C   UNL     1     164.962 159.988 189.464  1.00  0.00     0.000 C 
BRANCH   3   4
ATOM      4  C   UNL     1     166.168 160.884 189.124  1.00  0.00     0.006 C 
BRANCH   4   5
ATOM      5  C   UNL     1     166.624 161.743 190.310  1.00  0.00     0.053 C 
BRANCH   5   6
ATOM      6  C   UNL     1     166.459 163.197 189.995  1.00  0.00     0.041 C 
ATOM      7  O   UNL     1     165.867 163.957 190.807  1.00  0.00    -0.550 OA
ATOM      8  O   UNL     1     167.002 163.723 188.830  1.00  0.00    -0.550 OA
ENDBRANCH   5   6
ENDBRANCH   4   5
ENDBRANCH   3   4
ENDBRANCH   2   3
ENDBRANCH   1   2
BRANCH   1   9
ATOM      9  C   UNL     1     163.486 161.395 186.357  1.00  0.00     0.000 C 
BRANCH   9  10
ATOM     10  C   UNL     1     161.999 161.185 186.019  1.00  0.00    -0.000 C 
BRANCH  10  11
ATOM     11  C   UNL     1     161.213 162.504 185.962  1.00  0.00    -0.000 C 
BRANCH  11  12
ATOM     12  C   UNL     1     159.875 162.424 186.717  1.00  0.00    -0.000 C 
BRANCH  12  13
ATOM     13  C   UNL     1     159.986 161.637 188.032  1.00  0.00    -0.003 C 
ATOM     14  C   UNL     1     160.248 162.537 189.241  1.00  0.00     0.004 C 
ENDBRANCH  12  13
ENDBRANCH  11  12
ENDBRANCH  10  11
ENDBRANCH   9  10
ENDBRANCH   1   9
TORSDOF 10
ENDMDL
