MODEL 1
REMARK VINA RESULT:    -4.795      0.000      0.000
REMARK INTER + INTRA:          -9.667
REMARK INTER:                  -8.159
REMARK INTRA:                  -1.508
REMARK UNBOUND:                -1.508
REMARK SMILES CCCCCCCCCCCCCC(=O)[O-]
REMARK SMILES IDX 8 1 9 2 10 3 11 4 12 5 13 6 14 7 15 8 16 9 7 10 6 11 5 12
REMARK SMILES IDX 4 13 3 14 2 15 1 16
REMARK H PARENT
REMARK Flexibility Score: inf
ROOT
ATOM      1  C   UNL     1     -11.426 -26.837 -29.930  1.00  0.00     0.000 C 
ENDROOT
BRANCH   1   2
ATOM      2  C   UNL     1     -10.300 -26.079 -30.655  1.00  0.00     0.000 C 
BRANCH   2   3
ATOM      3  C   UNL     1     -10.720 -25.391 -31.969  1.00  0.00     0.000 C 
BRANCH   3   4
ATOM      4  C   UNL     1     -11.852 -24.354 -31.832  1.00  0.00     0.000 C 
BRANCH   4   5
ATOM      5  C   UNL     1     -12.327 -23.728 -33.159  1.00  0.00     0.006 C 
BRANCH   5   6
ATOM      6  C   UNL     1     -12.145 -24.631 -34.389  1.00  0.00     0.053 C 
BRANCH   6   7
ATOM      7  C   UNL     1     -12.702 -24.007 -35.631  1.00  0.00     0.041 C 
ATOM      8  O   UNL     1     -12.672 -22.757 -35.779  1.00  0.00    -0.550 OA
ATOM      9  O   UNL     1     -13.222 -24.807 -36.641  1.00  0.00    -0.550 OA
ENDBRANCH   6   7
ENDBRANCH   5   6
ENDBRANCH   4   5
ENDBRANCH   3   4
ENDBRANCH   2   3
ENDBRANCH   1   2
BRANCH   1  10
ATOM     10  C   UNL     1     -11.430 -28.341 -30.242  1.00  0.00     0.000 C 
BRANCH  10  11
ATOM     11  C   UNL     1     -12.805 -28.789 -30.760  1.00  0.00    -0.000 C 
BRANCH  11  12
ATOM     12  C   UNL     1     -13.183 -28.125 -32.094  1.00  0.00    -0.000 C 
BRANCH  12  13
ATOM     13  C   UNL     1     -12.221 -28.499 -33.234  1.00  0.00    -0.000 C 
BRANCH  13  14
ATOM     14  C   UNL     1     -12.771 -28.119 -34.619  1.00  0.00    -0.000 C 
BRANCH  14  15
ATOM     15  C   UNL     1     -14.184 -27.524 -34.552  1.00  0.00    -0.003 C 
ATOM     16  C   UNL     1     -14.928 -27.723 -35.870  1.00  0.00     0.004 C 
ENDBRANCH  14  15
ENDBRANCH  13  14
ENDBRANCH  12  13
ENDBRANCH  11  12
ENDBRANCH  10  11
ENDBRANCH   1  10
TORSDOF 12
ENDMDL
MODEL 2
REMARK VINA RESULT:    -4.727      1.956      4.318
REMARK INTER + INTRA:          -9.550
REMARK INTER:                  -8.198
REMARK INTRA:                  -1.352
REMARK UNBOUND:                -1.508
REMARK SMILES CCCCCCCCCCCCCC(=O)[O-]
REMARK SMILES IDX 8 1 9 2 10 3 11 4 12 5 13 6 14 7 15 8 16 9 7 10 6 11 5 12
REMARK SMILES IDX 4 13 3 14 2 15 1 16
REMARK H PARENT
REMARK Flexibility Score: inf
ROOT
ATOM      1  C   UNL     1     -13.546 -27.585 -35.380  1.00  0.00     0.000 C 
ENDROOT
BRANCH   1   2
ATOM      2  C   UNL     1     -13.698 -26.134 -35.870  1.00  0.00     0.000 C 
BRANCH   2   3
ATOM      3  C   UNL     1     -12.575 -25.176 -35.424  1.00  0.00     0.000 C 
BRANCH   3   4
ATOM      4  C   UNL     1     -12.635 -23.765 -36.043  1.00  0.00     0.000 C 
BRANCH   4   5
ATOM      5  C   UNL     1     -12.762 -22.612 -35.028  1.00  0.00     0.006 C 
BRANCH   5   6
ATOM      6  C   UNL     1     -12.382 -21.231 -35.584  1.00  0.00     0.053 C 
BRANCH   6   7
ATOM      7  C   UNL     1     -13.507 -20.249 -35.464  1.00  0.00     0.041 C 
ATOM      8  O   UNL     1     -13.522 -19.214 -36.180  1.00  0.00    -0.550 OA
ATOM      9  O   UNL     1     -14.557 -20.495 -34.588  1.00  0.00    -0.550 OA
ENDBRANCH   6   7
ENDBRANCH   5   6
ENDBRANCH   4   5
ENDBRANCH   3   4
ENDBRANCH   2   3
ENDBRANCH   1   2
BRANCH   1  10
ATOM     10  C   UNL     1     -12.115 -27.917 -34.930  1.00  0.00     0.000 C 
BRANCH  10  11
ATOM     11  C   UNL     1     -12.121 -28.629 -33.569  1.00  0.00    -0.000 C 
BRANCH  11  12
ATOM     12  C   UNL     1     -13.118 -28.009 -32.577  1.00  0.00    -0.000 C 
BRANCH  12  13
ATOM     13  C   UNL     1     -12.426 -27.150 -31.504  1.00  0.00    -0.000 C 
BRANCH  13  14
ATOM     14  C   UNL     1     -12.557 -25.643 -31.780  1.00  0.00    -0.000 C 
BRANCH  14  15
ATOM     15  C   UNL     1     -11.203 -24.969 -32.046  1.00  0.00    -0.003 C 
ATOM     16  C   UNL     1     -10.069 -25.727 -31.363  1.00  0.00     0.004 C 
ENDBRANCH  14  15
ENDBRANCH  13  14
ENDBRANCH  12  13
ENDBRANCH  11  12
ENDBRANCH  10  11
ENDBRANCH   1  10
TORSDOF 12
ENDMDL
MODEL 3
REMARK VINA RESULT:    -4.691      0.985      3.687
REMARK INTER + INTRA:          -9.490
REMARK INTER:                  -7.834
REMARK INTRA:                  -1.656
REMARK UNBOUND:                -1.508
REMARK SMILES CCCCCCCCCCCCCC(=O)[O-]
REMARK SMILES IDX 8 1 9 2 10 3 11 4 12 5 13 6 14 7 15 8 16 9 7 10 6 11 5 12
REMARK SMILES IDX 4 13 3 14 2 15 1 16
REMARK H PARENT
REMARK Flexibility Score: inf
ROOT
ATOM      1  C   UNL     1     -12.657 -28.638 -32.475  1.00  0.00     0.000 C 
ENDROOT
BRANCH   1   2
ATOM      2  C   UNL     1     -13.666 -27.944 -33.407  1.00  0.00     0.000 C 
BRANCH   2   3
ATOM      3  C   UNL     1     -13.166 -27.707 -34.847  1.00  0.00     0.000 C 
BRANCH   3   4
ATOM      4  C   UNL     1     -11.638 -27.563 -34.994  1.00  0.00     0.000 C 
BRANCH   4   5
ATOM      5  C   UNL     1     -11.150 -26.150 -35.372  1.00  0.00     0.006 C 
BRANCH   5   6
ATOM      6  C   UNL     1     -12.014 -25.008 -34.814  1.00  0.00     0.053 C 
BRANCH   6   7
ATOM      7  C   UNL     1     -12.692 -24.234 -35.903  1.00  0.00     0.041 C 
ATOM      8  O   UNL     1     -13.326 -24.837 -36.808  1.00  0.00    -0.550 OA
ATOM      9  O   UNL     1     -12.654 -22.845 -35.898  1.00  0.00    -0.550 OA
ENDBRANCH   6   7
ENDBRANCH   5   6
ENDBRANCH   4   5
ENDBRANCH   3   4
ENDBRANCH   2   3
ENDBRANCH   1   2
BRANCH   1  10
ATOM     10  C   UNL     1     -13.065 -28.568 -30.996  1.00  0.00     0.000 C 
BRANCH  10  11
ATOM     11  C   UNL     1     -11.876 -28.147 -30.120  1.00  0.00    -0.000 C 
BRANCH  11  12
ATOM     12  C   UNL     1     -10.690 -27.617 -30.941  1.00  0.00    -0.000 C 
BRANCH  12  13
ATOM     13  C   UNL     1     -10.235 -26.220 -30.486  1.00  0.00    -0.000 C 
BRANCH  13  14
ATOM     14  C   UNL     1     -10.277 -25.186 -31.623  1.00  0.00    -0.000 C 
BRANCH  14  15
ATOM     15  C   UNL     1     -11.285 -24.057 -31.361  1.00  0.00    -0.003 C 
ATOM     16  C   UNL     1     -12.691 -24.613 -31.152  1.00  0.00     0.004 C 
ENDBRANCH  14  15
ENDBRANCH  13  14
ENDBRANCH  12  13
ENDBRANCH  11  12
ENDBRANCH  10  11
ENDBRANCH   1  10
TORSDOF 12
ENDMDL
MODEL 4
REMARK VINA RESULT:    -4.573      2.349      3.613
REMARK INTER + INTRA:          -9.289
REMARK INTER:                  -7.691
REMARK INTRA:                  -1.598
REMARK UNBOUND:                -1.508
REMARK SMILES CCCCCCCCCCCCCC(=O)[O-]
REMARK SMILES IDX 8 1 9 2 10 3 11 4 12 5 13 6 14 7 15 8 16 9 7 10 6 11 5 12
REMARK SMILES IDX 4 13 3 14 2 15 1 16
REMARK H PARENT
REMARK Flexibility Score: inf
ROOT
ATOM      1  C   UNL     1     -12.806 -28.730 -31.160  1.00  0.00     0.000 C 
ENDROOT
BRANCH   1   2
ATOM      2  C   UNL     1     -12.467 -27.593 -30.180  1.00  0.00     0.000 C 
BRANCH   2   3
ATOM      3  C   UNL     1     -13.493 -26.442 -30.138  1.00  0.00     0.000 C 
BRANCH   3   4
ATOM      4  C   UNL     1     -12.933 -25.053 -30.502  1.00  0.00     0.000 C 
BRANCH   4   5
ATOM      5  C   UNL     1     -12.625 -24.846 -31.999  1.00  0.00     0.006 C 
BRANCH   5   6
ATOM      6  C   UNL     1     -11.128 -24.801 -32.340  1.00  0.00     0.053 C 
BRANCH   6   7
ATOM      7  C   UNL     1     -10.355 -23.966 -31.366  1.00  0.00     0.041 C 
ATOM      8  O   UNL     1     -10.483 -22.713 -31.365  1.00  0.00    -0.550 OA
ATOM      9  O   UNL     1      -9.521 -24.573 -30.435  1.00  0.00    -0.550 OA
ENDBRANCH   6   7
ENDBRANCH   5   6
ENDBRANCH   4   5
ENDBRANCH   3   4
ENDBRANCH   2   3
ENDBRANCH   1   2
BRANCH   1  10
ATOM     10  C   UNL     1     -13.118 -28.224 -32.577  1.00  0.00     0.000 C 
BRANCH  10  11
ATOM     11  C   UNL     1     -11.971 -28.559 -33.542  1.00  0.00    -0.000 C 
BRANCH  11  12
ATOM     12  C   UNL     1     -11.995 -27.699 -34.816  1.00  0.00    -0.000 C 
BRANCH  12  13
ATOM     13  C   UNL     1     -13.419 -27.473 -35.349  1.00  0.00    -0.000 C 
BRANCH  13  14
ATOM     14  C   UNL     1     -13.623 -26.053 -35.905  1.00  0.00    -0.000 C 
BRANCH  14  15
ATOM     15  C   UNL     1     -12.352 -25.197 -35.822  1.00  0.00    -0.003 C 
ATOM     16  C   UNL     1     -12.691 -23.709 -35.802  1.00  0.00     0.004 C 
ENDBRANCH  14  15
ENDBRANCH  13  14
ENDBRANCH  12  13
ENDBRANCH  11  12
ENDBRANCH  10  11
ENDBRANCH   1  10
TORSDOF 12
ENDMDL
MODEL 5
REMARK VINA RESULT:    -4.481      2.043      3.054
REMARK INTER + INTRA:          -9.132
REMARK INTER:                  -7.499
REMARK INTRA:                  -1.633
REMARK UNBOUND:                -1.508
REMARK SMILES CCCCCCCCCCCCCC(=O)[O-]
REMARK SMILES IDX 8 1 9 2 10 3 11 4 12 5 13 6 14 7 15 8 16 9 7 10 6 11 5 12
REMARK SMILES IDX 4 13 3 14 2 15 1 16
REMARK H PARENT
REMARK Flexibility Score: inf
ROOT
ATOM      1  C   UNL     1     -12.042 -27.914 -30.186  1.00  0.00     0.000 C 
ENDROOT
BRANCH   1   2
ATOM      2  C   UNL     1     -10.710 -27.577 -30.880  1.00  0.00     0.000 C 
BRANCH   2   3
ATOM      3  C   UNL     1     -10.351 -26.078 -30.906  1.00  0.00     0.000 C 
BRANCH   3   4
ATOM      4  C   UNL     1     -10.732 -25.337 -32.203  1.00  0.00     0.000 C 
BRANCH   4   5
ATOM      5  C   UNL     1     -12.010 -24.479 -32.113  1.00  0.00     0.006 C 
BRANCH   5   6
ATOM      6  C   UNL     1     -11.913 -23.295 -31.138  1.00  0.00     0.053 C 
BRANCH   6   7
ATOM      7  C   UNL     1     -10.889 -22.292 -31.574  1.00  0.00     0.041 C 
ATOM      8  O   UNL     1     -11.144 -21.495 -32.514  1.00  0.00    -0.550 OA
ATOM      9  O   UNL     1      -9.666 -22.215 -30.919  1.00  0.00    -0.550 OA
ENDBRANCH   6   7
ENDBRANCH   5   6
ENDBRANCH   4   5
ENDBRANCH   3   4
ENDBRANCH   2   3
ENDBRANCH   1   2
BRANCH   1  10
ATOM     10  C   UNL     1     -12.993 -28.724 -31.080  1.00  0.00     0.000 C 
BRANCH  10  11
ATOM     11  C   UNL     1     -12.657 -28.517 -32.564  1.00  0.00    -0.000 C 
BRANCH  11  12
ATOM     12  C   UNL     1     -13.660 -27.597 -33.279  1.00  0.00    -0.000 C 
BRANCH  12  13
ATOM     13  C   UNL     1     -13.440 -27.553 -34.801  1.00  0.00    -0.000 C 
BRANCH  13  14
ATOM     14  C   UNL     1     -11.950 -27.554 -35.182  1.00  0.00    -0.000 C 
BRANCH  14  15
ATOM     15  C   UNL     1     -11.395 -26.140 -35.404  1.00  0.00    -0.003 C 
ATOM     16  C   UNL     1     -12.472 -25.206 -35.948  1.00  0.00     0.004 C 
ENDBRANCH  14  15
ENDBRANCH  13  14
ENDBRANCH  12  13
ENDBRANCH  11  12
ENDBRANCH  10  11
ENDBRANCH   1  10
TORSDOF 12
ENDMDL
MODEL 6
REMARK VINA RESULT:    -4.445      1.264      3.870
REMARK INTER + INTRA:          -9.072
REMARK INTER:                  -7.528
REMARK INTRA:                  -1.544
REMARK UNBOUND:                -1.508
REMARK SMILES CCCCCCCCCCCCCC(=O)[O-]
REMARK SMILES IDX 8 1 9 2 10 3 11 4 12 5 13 6 14 7 15 8 16 9 7 10 6 11 5 12
REMARK SMILES IDX 4 13 3 14 2 15 1 16
REMARK H PARENT
REMARK Flexibility Score: inf
ROOT
ATOM      1  C   UNL     1     -12.027 -28.546 -30.295  1.00  0.00     0.000 C 
ENDROOT
BRANCH   1   2
ATOM      2  C   UNL     1     -13.145 -28.590 -31.352  1.00  0.00     0.000 C 
BRANCH   2   3
ATOM      3  C   UNL     1     -12.690 -28.293 -32.795  1.00  0.00     0.000 C 
BRANCH   3   4
ATOM      4  C   UNL     1     -13.724 -27.553 -33.667  1.00  0.00     0.000 C 
BRANCH   4   5
ATOM      5  C   UNL     1     -13.474 -27.639 -35.187  1.00  0.00     0.006 C 
BRANCH   5   6
ATOM      6  C   UNL     1     -13.617 -26.301 -35.930  1.00  0.00     0.053 C 
BRANCH   6   7
ATOM      7  C   UNL     1     -12.455 -25.391 -35.676  1.00  0.00     0.041 C 
ATOM      8  O   UNL     1     -12.647 -24.167 -35.454  1.00  0.00    -0.550 OA
ATOM      9  O   UNL     1     -11.163 -25.901 -35.649  1.00  0.00    -0.550 OA
ENDBRANCH   6   7
ENDBRANCH   5   6
ENDBRANCH   4   5
ENDBRANCH   3   4
ENDBRANCH   2   3
ENDBRANCH   1   2
BRANCH   1  10
ATOM     10  C   UNL     1     -10.748 -27.866 -30.808  1.00  0.00     0.000 C 
BRANCH  10  11
ATOM     11  C   UNL     1     -10.545 -26.502 -30.132  1.00  0.00    -0.000 C 
BRANCH  11  12
ATOM     12  C   UNL     1      -9.982 -25.441 -31.091  1.00  0.00    -0.000 C 
BRANCH  12  13
ATOM     13  C   UNL     1     -10.903 -25.187 -32.296  1.00  0.00    -0.000 C 
BRANCH  13  14
ATOM     14  C   UNL     1     -12.250 -24.566 -31.890  1.00  0.00    -0.000 C 
BRANCH  14  15
ATOM     15  C   UNL     1     -12.097 -23.159 -31.294  1.00  0.00    -0.003 C 
ATOM     16  C   UNL     1     -11.561 -22.177 -32.333  1.00  0.00     0.004 C 
ENDBRANCH  14  15
ENDBRANCH  13  14
ENDBRANCH  12  13
ENDBRANCH  11  12
ENDBRANCH  10  11
ENDBRANCH   1  10
TORSDOF 12
ENDMDL
MODEL 7
REMARK VINA RESULT:    -4.431      1.615      2.678
REMARK INTER + INTRA:          -9.047
REMARK INTER:                  -7.799
REMARK INTRA:                  -1.248
REMARK UNBOUND:                -1.508
REMARK SMILES CCCCCCCCCCCCCC(=O)[O-]
REMARK SMILES IDX 8 1 9 2 10 3 11 4 12 5 13 6 14 7 15 8 16 9 7 10 6 11 5 12
REMARK SMILES IDX 4 13 3 14 2 15 1 16
REMARK H PARENT
REMARK Flexibility Score: inf
ROOT
ATOM      1  C   UNL     1     -10.568 -25.015 -31.713  1.00  0.00     0.000 C 
ENDROOT
BRANCH   1   2
ATOM      2  C   UNL     1     -12.041 -24.803 -32.104  1.00  0.00     0.000 C 
BRANCH   2   3
ATOM      3  C   UNL     1     -12.284 -23.697 -33.151  1.00  0.00     0.000 C 
BRANCH   3   4
ATOM      4  C   UNL     1     -12.312 -24.178 -34.616  1.00  0.00     0.000 C 
BRANCH   4   5
ATOM      5  C   UNL     1     -12.689 -23.097 -35.649  1.00  0.00     0.006 C 
BRANCH   5   6
ATOM      6  C   UNL     1     -13.073 -21.741 -35.038  1.00  0.00     0.053 C 
BRANCH   6   7
ATOM      7  C   UNL     1     -12.445 -20.596 -35.773  1.00  0.00     0.041 C 
ATOM      8  O   UNL     1     -13.156 -19.642 -36.185  1.00  0.00    -0.550 OA
ATOM      9  O   UNL     1     -11.070 -20.566 -35.971  1.00  0.00    -0.550 OA
ENDBRANCH   6   7
ENDBRANCH   5   6
ENDBRANCH   4   5
ENDBRANCH   3   4
ENDBRANCH   2   3
ENDBRANCH   1   2
BRANCH   1  10
ATOM     10  C   UNL     1     -10.377 -26.154 -30.700  1.00  0.00     0.000 C 
BRANCH  10  11
ATOM     11  C   UNL     1     -10.688 -27.514 -31.341  1.00  0.00    -0.000 C 
BRANCH  11  12
ATOM     12  C   UNL     1     -11.848 -28.247 -30.647  1.00  0.00    -0.000 C 
BRANCH  12  13
ATOM     13  C   UNL     1     -12.974 -28.627 -31.623  1.00  0.00    -0.000 C 
BRANCH  13  14
ATOM     14  C   UNL     1     -12.629 -28.288 -33.083  1.00  0.00    -0.000 C 
BRANCH  14  15
ATOM     15  C   UNL     1     -13.774 -27.571 -33.811  1.00  0.00    -0.003 C 
ATOM     16  C   UNL     1     -13.604 -27.660 -35.325  1.00  0.00     0.004 C 
ENDBRANCH  14  15
ENDBRANCH  13  14
ENDBRANCH  12  13
ENDBRANCH  11  12
ENDBRANCH  10  11
ENDBRANCH   1  10
TORSDOF 12
ENDMDL
MODEL 8
REMARK VINA RESULT:    -4.247      2.384      5.507
REMARK INTER + INTRA:          -8.734
REMARK INTER:                  -7.650
REMARK INTRA:                  -1.084
REMARK UNBOUND:                -1.508
REMARK SMILES CCCCCCCCCCCCCC(=O)[O-]
REMARK SMILES IDX 8 1 9 2 10 3 11 4 12 5 13 6 14 7 15 8 16 9 7 10 6 11 5 12
REMARK SMILES IDX 4 13 3 14 2 15 1 16
REMARK H PARENT
REMARK Flexibility Score: inf
ROOT
ATOM      1  C   UNL     1     -13.520 -27.208 -34.962  1.00  0.00     0.000 C 
ENDROOT
BRANCH   1   2
ATOM      2  C   UNL     1     -13.770 -27.684 -33.520  1.00  0.00     0.000 C 
BRANCH   2   3
ATOM      3  C   UNL     1     -12.593 -28.440 -32.871  1.00  0.00     0.000 C 
BRANCH   3   4
ATOM      4  C   UNL     1     -12.659 -28.559 -31.335  1.00  0.00     0.000 C 
BRANCH   4   5
ATOM      5  C   UNL     1     -11.747 -27.582 -30.566  1.00  0.00     0.006 C 
BRANCH   5   6
ATOM      6  C   UNL     1     -10.858 -26.705 -31.461  1.00  0.00     0.053 C 
BRANCH   6   7
ATOM      7  C   UNL     1     -11.353 -25.293 -31.533  1.00  0.00     0.041 C 
ATOM      8  O   UNL     1     -12.581 -25.046 -31.405  1.00  0.00    -0.550 OA
ATOM      9  O   UNL     1     -10.455 -24.247 -31.707  1.00  0.00    -0.550 OA
ENDBRANCH   6   7
ENDBRANCH   5   6
ENDBRANCH   4   5
ENDBRANCH   3   4
ENDBRANCH   2   3
ENDBRANCH   1   2
BRANCH   1  10
ATOM     10  C   UNL     1     -12.585 -25.991 -35.035  1.00  0.00     0.000 C 
BRANCH  10  11
ATOM     11  C   UNL     1     -12.940 -25.099 -36.233  1.00  0.00    -0.000 C 
BRANCH  11  12
ATOM     12  C   UNL     1     -12.669 -23.610 -35.968  1.00  0.00    -0.000 C 
BRANCH  12  13
ATOM     13  C   UNL     1     -12.721 -23.258 -34.471  1.00  0.00    -0.000 C 
BRANCH  13  14
ATOM     14  C   UNL     1     -12.512 -21.756 -34.211  1.00  0.00    -0.000 C 
BRANCH  14  15
ATOM     15  C   UNL     1     -12.442 -20.934 -35.505  1.00  0.00    -0.003 C 
ATOM     16  C   UNL     1     -13.674 -20.047 -35.659  1.00  0.00     0.004 C 
ENDBRANCH  14  15
ENDBRANCH  13  14
ENDBRANCH  12  13
ENDBRANCH  11  12
ENDBRANCH  10  11
ENDBRANCH   1  10
TORSDOF 12
ENDMDL
MODEL 9
REMARK VINA RESULT:    -4.226      2.003      2.894
REMARK INTER + INTRA:          -8.698
REMARK INTER:                  -7.294
REMARK INTRA:                  -1.404
REMARK UNBOUND:                -1.508
REMARK SMILES CCCCCCCCCCCCCC(=O)[O-]
REMARK SMILES IDX 8 1 9 2 10 3 11 4 12 5 13 6 14 7 15 8 16 9 7 10 6 11 5 12
REMARK SMILES IDX 4 13 3 14 2 15 1 16
REMARK H PARENT
REMARK Flexibility Score: inf
ROOT
ATOM      1  C   UNL     1     -11.262 -26.100 -31.503  1.00  0.00     0.000 C 
ENDROOT
BRANCH   1   2
ATOM      2  C   UNL     1     -11.101 -24.615 -31.870  1.00  0.00     0.000 C 
BRANCH   2   3
ATOM      3  C   UNL     1     -12.150 -24.071 -32.861  1.00  0.00     0.000 C 
BRANCH   3   4
ATOM      4  C   UNL     1     -12.090 -22.551 -33.108  1.00  0.00     0.000 C 
BRANCH   4   5
ATOM      5  C   UNL     1     -12.996 -22.040 -34.247  1.00  0.00     0.006 C 
BRANCH   5   6
ATOM      6  C   UNL     1     -12.283 -21.871 -35.598  1.00  0.00     0.053 C 
BRANCH   6   7
ATOM      7  C   UNL     1     -12.013 -20.432 -35.914  1.00  0.00     0.041 C 
ATOM      8  O   UNL     1     -12.963 -19.659 -36.206  1.00  0.00    -0.550 OA
ATOM      9  O   UNL     1     -10.717 -19.936 -35.853  1.00  0.00    -0.550 OA
ENDBRANCH   6   7
ENDBRANCH   5   6
ENDBRANCH   4   5
ENDBRANCH   3   4
ENDBRANCH   2   3
ENDBRANCH   1   2
BRANCH   1  10
ATOM     10  C   UNL     1     -11.398 -27.008 -32.734  1.00  0.00     0.000 C 
BRANCH  10  11
ATOM     11  C   UNL     1     -12.591 -27.963 -32.581  1.00  0.00    -0.000 C 
BRANCH  11  12
ATOM     12  C   UNL     1     -13.733 -27.651 -33.562  1.00  0.00    -0.000 C 
BRANCH  12  13
ATOM     13  C   UNL     1     -13.245 -27.524 -35.015  1.00  0.00    -0.000 C 
BRANCH  13  14
ATOM     14  C   UNL     1     -14.037 -26.475 -35.814  1.00  0.00    -0.000 C 
BRANCH  14  15
ATOM     15  C   UNL     1     -13.165 -25.296 -36.270  1.00  0.00    -0.003 C 
ATOM     16  C   UNL     1     -11.690 -25.560 -35.984  1.00  0.00     0.004 C 
ENDBRANCH  14  15
ENDBRANCH  13  14
ENDBRANCH  12  13
ENDBRANCH  11  12
ENDBRANCH  10  11
ENDBRANCH   1  10
TORSDOF 12
ENDMDL
