MODEL 1
REMARK VINA RESULT:    -3.082      0.000      0.000
REMARK INTER + INTRA:          -3.172
REMARK INTER:                  -3.172
REMARK INTRA:                   0.000
REMARK UNBOUND:                 0.000
REMARK SMILES CC1(C)[C@H]2CC[C@](C)(C2)[C@@H]1O
REMARK SMILES IDX 1 1 2 2 4 3 5 4 6 5 7 6 9 7 10 8 8 9 3 10 11 11
REMARK H PARENT 11 12
REMARK Flexibility Score: inf
ROOT
ATOM      1  C   UNL     1     240.368 226.460 235.300  1.00  0.00     0.014 C 
ATOM      2  C   UNL     1     239.023 227.014 235.841  1.00  0.00    -0.006 C 
ATOM      3  C   UNL     1     237.831 226.325 235.094  1.00  0.00    -0.002 C 
ATOM      4  C   UNL     1     236.485 226.622 235.787  1.00  0.00     0.005 C 
ATOM      5  C   UNL     1     236.293 228.123 235.528  1.00  0.00     0.010 C 
ATOM      6  C   UNL     1     237.499 228.471 234.625  1.00  0.00    -0.006 C 
ATOM      7  C   UNL     1     237.684 227.185 233.851  1.00  0.00     0.013 C 
ATOM      8  C   UNL     1     238.783 228.524 235.497  1.00  0.00     0.126 C 
ATOM      9  C   UNL     1     237.261 229.707 233.747  1.00  0.00     0.014 C 
ATOM     10  C   UNL     1     239.011 226.781 237.371  1.00  0.00     0.014 C 
ENDROOT
BRANCH   8  11
ATOM     11  O   UNL     1     239.851 229.081 234.769  1.00  0.00    -0.392 OA
ATOM     12  H   UNL     1     240.552 229.317 235.432  1.00  0.00     0.211 HD
ENDBRANCH   8  11
TORSDOF 1
ENDMDL
MODEL 2
REMARK VINA RESULT:    -3.078      9.542     11.094
REMARK INTER + INTRA:          -3.168
REMARK INTER:                  -3.168
REMARK INTRA:                   0.000
REMARK UNBOUND:                 0.000
REMARK SMILES CC1(C)[C@H]2CC[C@](C)(C2)[C@@H]1O
REMARK SMILES IDX 1 1 2 2 4 3 5 4 6 5 7 6 9 7 10 8 8 9 3 10 11 11
REMARK H PARENT 11 12
REMARK Flexibility Score: inf
ROOT
ATOM      1  C   UNL     1     242.055 240.342 235.309  1.00  0.00     0.014 C 
ATOM      2  C   UNL     1     241.489 238.999 235.842  1.00  0.00    -0.006 C 
ATOM      3  C   UNL     1     242.164 237.805 235.085  1.00  0.00    -0.002 C 
ATOM      4  C   UNL     1     241.855 236.457 235.770  1.00  0.00     0.005 C 
ATOM      5  C   UNL     1     240.351 236.282 235.514  1.00  0.00     0.010 C 
ATOM      6  C   UNL     1     240.013 237.499 234.619  1.00  0.00    -0.006 C 
ATOM      7  C   UNL     1     241.300 237.675 233.844  1.00  0.00     0.013 C 
ATOM      8  C   UNL     1     239.975 238.777 235.501  1.00  0.00     0.126 C 
ATOM      9  C   UNL     1     238.773 237.279 233.743  1.00  0.00     0.014 C 
ATOM     10  C   UNL     1     241.725 238.975 237.372  1.00  0.00     0.014 C 
ENDROOT
BRANCH   8  11
ATOM     11  O   UNL     1     239.428 239.855 234.781  1.00  0.00    -0.392 OA
ATOM     12  H   UNL     1     239.221 239.513 233.872  1.00  0.00     0.211 HD
ENDBRANCH   8  11
TORSDOF 1
ENDMDL
MODEL 3
REMARK VINA RESULT:    -3.034     13.455     15.581
REMARK INTER + INTRA:          -3.123
REMARK INTER:                  -3.123
REMARK INTRA:                   0.000
REMARK UNBOUND:                 0.000
REMARK SMILES CC1(C)[C@H]2CC[C@](C)(C2)[C@@H]1O
REMARK SMILES IDX 1 1 2 2 4 3 5 4 6 5 7 6 9 7 10 8 8 9 3 10 11 11
REMARK H PARENT 11 12
REMARK Flexibility Score: inf
ROOT
ATOM      1  C   UNL     1     228.211 241.917 235.306  1.00  0.00     0.014 C 
ATOM      2  C   UNL     1     229.587 241.380 235.784  1.00  0.00    -0.006 C 
ATOM      3  C   UNL     1     230.734 242.067 234.969  1.00  0.00    -0.002 C 
ATOM      4  C   UNL     1     232.116 241.788 235.596  1.00  0.00     0.005 C 
ATOM      5  C   UNL     1     232.306 240.285 235.346  1.00  0.00     0.010 C 
ATOM      6  C   UNL     1     231.057 239.918 234.509  1.00  0.00    -0.006 C 
ATOM      7  C   UNL     1     230.824 241.193 233.731  1.00  0.00     0.013 C 
ATOM      8  C   UNL     1     229.820 239.867 235.447  1.00  0.00     0.126 C 
ATOM      9  C   UNL     1     231.260 238.673 233.636  1.00  0.00     0.014 C 
ATOM     10  C   UNL     1     229.674 241.631 237.309  1.00  0.00     0.014 C 
ENDROOT
BRANCH   8  11
ATOM     11  O   UNL     1     228.721 239.293 234.781  1.00  0.00    -0.392 OA
ATOM     12  H   UNL     1     229.072 238.516 234.272  1.00  0.00     0.211 HD
ENDBRANCH   8  11
TORSDOF 1
ENDMDL
MODEL 4
REMARK VINA RESULT:    -3.031      9.650     11.161
REMARK INTER + INTRA:          -3.120
REMARK INTER:                  -3.120
REMARK INTRA:                   0.000
REMARK UNBOUND:                 0.000
REMARK SMILES CC1(C)[C@H]2CC[C@](C)(C2)[C@@H]1O
REMARK SMILES IDX 1 1 2 2 4 3 5 4 6 5 7 6 9 7 10 8 8 9 3 10 11 11
REMARK H PARENT 11 12
REMARK Flexibility Score: inf
ROOT
ATOM      1  C   UNL     1     226.496 228.256 235.342  1.00  0.00     0.014 C 
ATOM      2  C   UNL     1     227.015 229.646 235.796  1.00  0.00    -0.006 C 
ATOM      3  C   UNL     1     226.296 230.771 234.977  1.00  0.00    -0.002 C 
ATOM      4  C   UNL     1     226.559 232.165 235.585  1.00  0.00     0.005 C 
ATOM      5  C   UNL     1     228.055 232.378 235.311  1.00  0.00     0.010 C 
ATOM      6  C   UNL     1     228.433 231.127 234.484  1.00  0.00    -0.006 C 
ATOM      7  C   UNL     1     227.151 230.862 233.726  1.00  0.00     0.013 C 
ATOM      8  C   UNL     1     228.519 229.902 235.435  1.00  0.00     0.126 C 
ATOM      9  C   UNL     1     229.662 231.341 233.590  1.00  0.00     0.014 C 
ATOM     10  C   UNL     1     226.784 229.747 237.323  1.00  0.00     0.014 C 
ENDROOT
BRANCH   8  11
ATOM     11  O   UNL     1     229.103 228.805 234.774  1.00  0.00    -0.392 OA
ATOM     12  H   UNL     1     229.759 229.179 234.129  1.00  0.00     0.211 HD
ENDBRANCH   8  11
TORSDOF 1
ENDMDL
MODEL 5
REMARK VINA RESULT:    -2.976      9.112     10.698
REMARK INTER + INTRA:          -3.062
REMARK INTER:                  -3.062
REMARK INTRA:                   0.000
REMARK UNBOUND:                 0.000
REMARK SMILES CC1(C)[C@H]2CC[C@](C)(C2)[C@@H]1O
REMARK SMILES IDX 1 1 2 2 4 3 5 4 6 5 7 6 9 7 10 8 8 9 3 10 11 11
REMARK H PARENT 11 12
REMARK Flexibility Score: inf
ROOT
ATOM      1  C   UNL     1     230.583 232.195 235.641  1.00  0.00     0.014 C 
ATOM      2  C   UNL     1     229.520 231.659 234.645  1.00  0.00    -0.006 C 
ATOM      3  C   UNL     1     228.176 232.441 234.836  1.00  0.00    -0.002 C 
ATOM      4  C   UNL     1     227.188 232.151 233.687  1.00  0.00     0.005 C 
ATOM      5  C   UNL     1     226.820 230.678 233.919  1.00  0.00     0.010 C 
ATOM      6  C   UNL     1     227.559 230.345 235.237  1.00  0.00    -0.006 C 
ATOM      7  C   UNL     1     227.508 231.671 235.961  1.00  0.00     0.013 C 
ATOM      8  C   UNL     1     229.075 230.185 234.937  1.00  0.00     0.126 C 
ATOM      9  C   UNL     1     226.925 229.179 236.007  1.00  0.00     0.014 C 
ATOM     10  C   UNL     1     230.116 231.791 233.222  1.00  0.00     0.014 C 
ENDROOT
BRANCH   8  11
ATOM     11  O   UNL     1     229.742 229.637 236.048  1.00  0.00    -0.392 OA
ATOM     12  H   UNL     1     230.670 229.444 235.754  1.00  0.00     0.211 HD
ENDBRANCH   8  11
TORSDOF 1
ENDMDL
MODEL 6
REMARK VINA RESULT:    -2.974      1.212      3.384
REMARK INTER + INTRA:          -3.061
REMARK INTER:                  -3.061
REMARK INTRA:                   0.000
REMARK UNBOUND:                 0.000
REMARK SMILES CC1(C)[C@H]2CC[C@](C)(C2)[C@@H]1O
REMARK SMILES IDX 1 1 2 2 4 3 5 4 6 5 7 6 9 7 10 8 8 9 3 10 11 11
REMARK H PARENT 11 12
REMARK Flexibility Score: inf
ROOT
ATOM      1  C   UNL     1     236.236 230.554 235.656  1.00  0.00     0.014 C 
ATOM      2  C   UNL     1     236.801 229.507 234.660  1.00  0.00    -0.006 C 
ATOM      3  C   UNL     1     236.059 228.141 234.854  1.00  0.00    -0.002 C 
ATOM      4  C   UNL     1     236.377 227.160 233.706  1.00  0.00     0.005 C 
ATOM      5  C   UNL     1     237.860 226.836 233.935  1.00  0.00     0.010 C 
ATOM      6  C   UNL     1     238.174 227.586 235.252  1.00  0.00    -0.006 C 
ATOM      7  C   UNL     1     236.850 227.497 235.978  1.00  0.00     0.013 C 
ATOM      8  C   UNL     1     238.288 229.105 234.950  1.00  0.00     0.126 C 
ATOM      9  C   UNL     1     239.358 226.988 236.021  1.00  0.00     0.014 C 
ATOM     10  C   UNL     1     236.650 230.097 233.237  1.00  0.00     0.014 C 
ENDROOT
BRANCH   8  11
ATOM     11  O   UNL     1     238.818 229.789 236.060  1.00  0.00    -0.392 OA
ATOM     12  H   UNL     1     239.807 229.721 235.989  1.00  0.00     0.211 HD
ENDBRANCH   8  11
TORSDOF 1
ENDMDL
MODEL 7
REMARK VINA RESULT:    -2.941     12.328     14.437
REMARK INTER + INTRA:          -3.027
REMARK INTER:                  -3.027
REMARK INTRA:                   0.000
REMARK UNBOUND:                 0.000
REMARK SMILES CC1(C)[C@H]2CC[C@](C)(C2)[C@@H]1O
REMARK SMILES IDX 1 1 2 2 4 3 5 4 6 5 7 6 9 7 10 8 8 9 3 10 11 11
REMARK H PARENT 11 12
REMARK Flexibility Score: inf
ROOT
ATOM      1  C   UNL     1     232.654 238.074 235.558  1.00  0.00     0.014 C 
ATOM      2  C   UNL     1     231.908 239.031 234.590  1.00  0.00    -0.006 C 
ATOM      3  C   UNL     1     232.439 240.492 234.779  1.00  0.00    -0.002 C 
ATOM      4  C   UNL     1     231.944 241.422 233.652  1.00  0.00     0.005 C 
ATOM      5  C   UNL     1     230.436 241.516 233.926  1.00  0.00     0.010 C 
ATOM      6  C   UNL     1     230.278 240.717 235.241  1.00  0.00    -0.006 C 
ATOM      7  C   UNL     1     231.592 241.000 235.933  1.00  0.00     0.013 C 
ATOM      8  C   UNL     1     230.386 239.200 234.925  1.00  0.00     0.126 C 
ATOM      9  C   UNL     1     229.039 241.123 236.050  1.00  0.00     0.014 C 
ATOM     10  C   UNL     1     232.105 238.481 233.157  1.00  0.00     0.014 C 
ENDROOT
BRANCH   8  11
ATOM     11  O   UNL     1     229.997 238.436 236.041  1.00  0.00    -0.392 OA
ATOM     12  H   UNL     1     229.593 237.601 235.686  1.00  0.00     0.211 HD
ENDBRANCH   8  11
TORSDOF 1
ENDMDL
MODEL 8
REMARK VINA RESULT:    -2.935     13.739     14.882
REMARK INTER + INTRA:          -3.021
REMARK INTER:                  -3.021
REMARK INTRA:                   0.000
REMARK UNBOUND:                 0.000
REMARK SMILES CC1(C)[C@H]2CC[C@](C)(C2)[C@@H]1O
REMARK SMILES IDX 1 1 2 2 4 3 5 4 6 5 7 6 9 7 10 8 8 9 3 10 11 11
REMARK H PARENT 11 12
REMARK Flexibility Score: inf
ROOT
ATOM      1  C   UNL     1     232.372 242.420 236.593  1.00  0.00     0.014 C 
ATOM      2  C   UNL     1     232.220 241.011 235.961  1.00  0.00    -0.006 C 
ATOM      3  C   UNL     1     231.958 241.149 234.423  1.00  0.00    -0.002 C 
ATOM      4  C   UNL     1     232.089 239.789 233.705  1.00  0.00     0.005 C 
ATOM      5  C   UNL     1     230.880 239.005 234.240  1.00  0.00     0.010 C 
ATOM      6  C   UNL     1     230.150 240.055 235.110  1.00  0.00    -0.006 C 
ATOM      7  C   UNL     1     230.453 241.336 234.364  1.00  0.00     0.013 C 
ATOM      8  C   UNL     1     230.937 240.246 236.435  1.00  0.00     0.126 C 
ATOM      9  C   UNL     1     228.654 239.763 235.282  1.00  0.00     0.014 C 
ATOM     10  C   UNL     1     233.503 240.214 236.301  1.00  0.00     0.014 C 
ENDROOT
BRANCH   8  11
ATOM     11  O   UNL     1     230.179 240.995 237.355  1.00  0.00    -0.392 OA
ATOM     12  H   UNL     1     230.199 240.495 238.212  1.00  0.00     0.211 HD
ENDBRANCH   8  11
TORSDOF 1
ENDMDL
MODEL 9
REMARK VINA RESULT:    -2.926      9.725     11.336
REMARK INTER + INTRA:          -3.011
REMARK INTER:                  -3.011
REMARK INTRA:                   0.000
REMARK UNBOUND:                 0.000
REMARK SMILES CC1(C)[C@H]2CC[C@](C)(C2)[C@@H]1O
REMARK SMILES IDX 1 1 2 2 4 3 5 4 6 5 7 6 9 7 10 8 8 9 3 10 11 11
REMARK H PARENT 11 12
REMARK Flexibility Score: inf
ROOT
ATOM      1  C   UNL     1     226.169 232.468 236.701  1.00  0.00     0.014 C 
ATOM      2  C   UNL     1     227.555 232.315 236.022  1.00  0.00    -0.006 C 
ATOM      3  C   UNL     1     227.368 232.094 234.482  1.00  0.00    -0.002 C 
ATOM      4  C   UNL     1     228.706 232.226 233.727  1.00  0.00     0.005 C 
ATOM      5  C   UNL     1     229.491 230.995 234.206  1.00  0.00     0.010 C 
ATOM      6  C   UNL     1     228.458 230.256 235.090  1.00  0.00    -0.006 C 
ATOM      7  C   UNL     1     227.160 230.593 234.392  1.00  0.00     0.013 C 
ATOM      8  C   UNL     1     228.319 231.011 236.440  1.00  0.00     0.126 C 
ATOM      9  C   UNL     1     228.737 228.752 235.215  1.00  0.00     0.014 C 
ATOM     10  C   UNL     1     228.379 233.579 236.369  1.00  0.00     0.014 C 
ENDROOT
BRANCH   8  11
ATOM     11  O   UNL     1     227.589 230.240 237.363  1.00  0.00    -0.392 OA
ATOM     12  H   UNL     1     226.947 230.857 237.803  1.00  0.00     0.211 HD
ENDBRANCH   8  11
TORSDOF 1
ENDMDL
