MODEL 1
REMARK VINA RESULT:    -5.238      0.000      0.000
REMARK INTER + INTRA:         -13.862
REMARK INTER:                 -11.361
REMARK INTRA:                  -2.501
REMARK UNBOUND:                -2.501
REMARK SMILES CCCCCCCCCCCCCCCCCCCCCC(=O)[O-]
REMARK SMILES IDX 12 1 11 2 10 3 9 4 8 5 7 6 6 7 5 8 4 9 3 10 2 11 1 12 13 13
REMARK SMILES IDX 14 14 15 15 16 16 17 17 18 18 19 19 20 20 21 21 22 22 23 23
REMARK SMILES IDX 24 24
REMARK H PARENT
REMARK Flexibility Score: inf
ROOT
ATOM      1  C   UNL     1       8.387  39.668  46.986  1.00  0.00     0.000 C 
ENDROOT
BRANCH   1   2
ATOM      2  C   UNL     1       9.631  39.489  46.095  1.00  0.00     0.000 C 
BRANCH   2   3
ATOM      3  C   UNL     1       9.280  39.168  44.631  1.00  0.00     0.000 C 
BRANCH   3   4
ATOM      4  C   UNL     1       9.101  40.428  43.765  1.00  0.00    -0.000 C 
BRANCH   4   5
ATOM      5  C   UNL     1      10.230  40.698  42.755  1.00  0.00    -0.000 C 
BRANCH   5   6
ATOM      6  C   UNL     1      11.543  39.977  43.110  1.00  0.00    -0.000 C 
BRANCH   6   7
ATOM      7  C   UNL     1      12.748  40.942  43.124  1.00  0.00    -0.000 C 
BRANCH   7   8
ATOM      8  C   UNL     1      13.422  41.090  44.504  1.00  0.00    -0.000 C 
BRANCH   8   9
ATOM      9  C   UNL     1      12.569  41.788  45.580  1.00  0.00    -0.000 C 
BRANCH   9  10
ATOM     10  C   UNL     1      13.177  41.734  47.000  1.00  0.00    -0.000 C 
BRANCH  10  11
ATOM     11  C   UNL     1      12.523  40.679  47.907  1.00  0.00    -0.003 C 
ATOM     12  C   UNL     1      13.213  39.318  47.826  1.00  0.00     0.004 C 
ENDBRANCH  10  11
ENDBRANCH   9  10
ENDBRANCH   8   9
ENDBRANCH   7   8
ENDBRANCH   6   7
ENDBRANCH   5   6
ENDBRANCH   4   5
ENDBRANCH   3   4
ENDBRANCH   2   3
ENDBRANCH   1   2
BRANCH   1  13
ATOM     13  C   UNL     1       8.656  40.275  48.375  1.00  0.00     0.000 C 
BRANCH  13  14
ATOM     14  C   UNL     1       7.433  40.992  48.967  1.00  0.00     0.000 C 
BRANCH  14  15
ATOM     15  C   UNL     1       6.179  40.721  48.129  1.00  0.00     0.000 C 
BRANCH  15  16
ATOM     16  C   UNL     1       5.315  41.986  48.005  1.00  0.00     0.000 C 
BRANCH  16  17
ATOM     17  C   UNL     1       4.851  42.250  46.564  1.00  0.00     0.000 C 
BRANCH  17  18
ATOM     18  C   UNL     1       5.928  41.916  45.522  1.00  0.00     0.000 C 
BRANCH  18  19
ATOM     19  C   UNL     1       5.568  42.507  44.152  1.00  0.00     0.000 C 
BRANCH  19  20
ATOM     20  C   UNL     1       6.466  43.695  43.757  1.00  0.00     0.006 C 
BRANCH  20  21
ATOM     21  C   UNL     1       7.350  43.440  42.526  1.00  0.00     0.053 C 
BRANCH  21  22
ATOM     22  C   UNL     1       7.656  44.703  41.781  1.00  0.00     0.041 C 
ATOM     23  O   UNL     1       8.363  44.670  40.740  1.00  0.00    -0.550 OA
ATOM     24  O   UNL     1       7.178  45.921  42.252  1.00  0.00    -0.550 OA
ENDBRANCH  21  22
ENDBRANCH  20  21
ENDBRANCH  19  20
ENDBRANCH  18  19
ENDBRANCH  17  18
ENDBRANCH  16  17
ENDBRANCH  15  16
ENDBRANCH  14  15
ENDBRANCH  13  14
ENDBRANCH   1  13
TORSDOF 20
ENDMDL
MODEL 2
REMARK VINA RESULT:    -5.190      4.651      7.815
REMARK INTER + INTRA:         -13.759
REMARK INTER:                 -11.600
REMARK INTRA:                  -2.159
REMARK UNBOUND:                -2.501
REMARK SMILES CCCCCCCCCCCCCCCCCCCCCC(=O)[O-]
REMARK SMILES IDX 12 1 11 2 10 3 9 4 8 5 7 6 6 7 5 8 4 9 3 10 2 11 1 12 13 13
REMARK SMILES IDX 14 14 15 15 16 16 17 17 18 18 19 19 20 20 21 21 22 22 23 23
REMARK SMILES IDX 24 24
REMARK H PARENT
REMARK Flexibility Score: inf
ROOT
ATOM      1  C   UNL     1       7.820  40.875  44.164  1.00  0.00     0.000 C 
ENDROOT
BRANCH   1   2
ATOM      2  C   UNL     1       7.120  41.977  43.346  1.00  0.00     0.000 C 
BRANCH   2   3
ATOM      3  C   UNL     1       5.748  42.371  43.920  1.00  0.00     0.000 C 
BRANCH   3   4
ATOM      4  C   UNL     1       5.824  42.858  45.379  1.00  0.00    -0.000 C 
BRANCH   4   5
ATOM      5  C   UNL     1       4.762  42.268  46.325  1.00  0.00    -0.000 C 
BRANCH   5   6
ATOM      6  C   UNL     1       5.369  41.599  47.571  1.00  0.00    -0.000 C 
BRANCH   6   7
ATOM      7  C   UNL     1       5.549  40.078  47.381  1.00  0.00    -0.000 C 
BRANCH   7   8
ATOM      8  C   UNL     1       6.845  39.513  47.998  1.00  0.00    -0.000 C 
BRANCH   8   9
ATOM      9  C   UNL     1       8.119  40.334  47.717  1.00  0.00    -0.000 C 
BRANCH   9  10
ATOM     10  C   UNL     1       9.342  39.908  48.560  1.00  0.00    -0.000 C 
BRANCH  10  11
ATOM     11  C   UNL     1       9.790  38.460  48.302  1.00  0.00    -0.003 C 
ATOM     12  C   UNL     1      11.296  38.266  48.472  1.00  0.00     0.004 C 
ENDBRANCH  10  11
ENDBRANCH   9  10
ENDBRANCH   8   9
ENDBRANCH   7   8
ENDBRANCH   6   7
ENDBRANCH   5   6
ENDBRANCH   4   5
ENDBRANCH   3   4
ENDBRANCH   2   3
ENDBRANCH   1   2
BRANCH   1  13
ATOM     13  C   UNL     1       8.970  40.150  43.440  1.00  0.00     0.000 C 
BRANCH  13  14
ATOM     14  C   UNL     1       9.334  38.804  44.085  1.00  0.00     0.000 C 
BRANCH  14  15
ATOM     15  C   UNL     1      10.807  38.776  44.503  1.00  0.00     0.000 C 
BRANCH  15  16
ATOM     16  C   UNL     1      11.385  37.356  44.392  1.00  0.00     0.000 C 
BRANCH  16  17
ATOM     17  C   UNL     1      10.659  36.346  45.295  1.00  0.00     0.000 C 
BRANCH  17  18
ATOM     18  C   UNL     1      10.001  35.208  44.503  1.00  0.00     0.000 C 
BRANCH  18  19
ATOM     19  C   UNL     1      10.804  34.885  43.235  1.00  0.00     0.000 C 
BRANCH  19  20
ATOM     20  C   UNL     1      10.525  33.470  42.693  1.00  0.00     0.006 C 
BRANCH  20  21
ATOM     21  C   UNL     1      10.102  33.429  41.215  1.00  0.00     0.053 C 
BRANCH  21  22
ATOM     22  C   UNL     1       8.793  32.726  41.024  1.00  0.00     0.041 C 
ATOM     23  O   UNL     1       8.751  31.468  40.976  1.00  0.00    -0.550 OA
ATOM     24  O   UNL     1       7.623  33.462  40.875  1.00  0.00    -0.550 OA
ENDBRANCH  21  22
ENDBRANCH  20  21
ENDBRANCH  19  20
ENDBRANCH  18  19
ENDBRANCH  17  18
ENDBRANCH  16  17
ENDBRANCH  15  16
ENDBRANCH  14  15
ENDBRANCH  13  14
ENDBRANCH   1  13
TORSDOF 20
ENDMDL
MODEL 3
REMARK VINA RESULT:    -5.158      4.230      6.721
REMARK INTER + INTRA:         -13.690
REMARK INTER:                 -12.088
REMARK INTRA:                  -1.602
REMARK UNBOUND:                -2.501
REMARK SMILES CCCCCCCCCCCCCCCCCCCCCC(=O)[O-]
REMARK SMILES IDX 12 1 11 2 10 3 9 4 8 5 7 6 6 7 5 8 4 9 3 10 2 11 1 12 13 13
REMARK SMILES IDX 14 14 15 15 16 16 17 17 18 18 19 19 20 20 21 21 22 22 23 23
REMARK SMILES IDX 24 24
REMARK H PARENT
REMARK Flexibility Score: inf
ROOT
ATOM      1  C   UNL     1       8.621  40.472  43.586  1.00  0.00     0.000 C 
ENDROOT
BRANCH   1   2
ATOM      2  C   UNL     1       9.405  39.146  43.573  1.00  0.00     0.000 C 
BRANCH   2   3
ATOM      3  C   UNL     1      10.101  38.846  44.912  1.00  0.00     0.000 C 
BRANCH   3   4
ATOM      4  C   UNL     1      11.276  37.860  44.771  1.00  0.00    -0.000 C 
BRANCH   4   5
ATOM      5  C   UNL     1      11.237  36.651  45.723  1.00  0.00    -0.000 C 
BRANCH   5   6
ATOM      6  C   UNL     1      10.146  35.628  45.356  1.00  0.00    -0.000 C 
BRANCH   6   7
ATOM      7  C   UNL     1      10.705  34.462  44.513  1.00  0.00    -0.000 C 
BRANCH   7   8
ATOM      8  C   UNL     1      10.508  34.631  42.993  1.00  0.00    -0.000 C 
BRANCH   8   9
ATOM      9  C   UNL     1      10.865  33.396  42.143  1.00  0.00    -0.000 C 
BRANCH   9  10
ATOM     10  C   UNL     1      10.076  33.294  40.817  1.00  0.00    -0.000 C 
BRANCH  10  11
ATOM     11  C   UNL     1       8.738  32.549  40.956  1.00  0.00    -0.003 C 
ATOM     12  C   UNL     1       7.544  33.495  41.075  1.00  0.00     0.004 C 
ENDBRANCH  10  11
ENDBRANCH   9  10
ENDBRANCH   8   9
ENDBRANCH   7   8
ENDBRANCH   6   7
ENDBRANCH   5   6
ENDBRANCH   4   5
ENDBRANCH   3   4
ENDBRANCH   2   3
ENDBRANCH   1   2
BRANCH   1  13
ATOM     13  C   UNL     1       8.298  41.057  42.199  1.00  0.00     0.000 C 
BRANCH  13  14
ATOM     14  C   UNL     1       9.195  42.246  41.822  1.00  0.00     0.000 C 
BRANCH  14  15
ATOM     15  C   UNL     1       8.839  43.486  42.647  1.00  0.00     0.000 C 
BRANCH  15  16
ATOM     16  C   UNL     1       7.338  43.802  42.548  1.00  0.00     0.000 C 
BRANCH  16  17
ATOM     17  C   UNL     1       6.681  44.003  43.923  1.00  0.00     0.000 C 
BRANCH  17  18
ATOM     18  C   UNL     1       5.630  42.931  44.242  1.00  0.00     0.000 C 
BRANCH  18  19
ATOM     19  C   UNL     1       5.981  42.186  45.538  1.00  0.00     0.000 C 
BRANCH  19  20
ATOM     20  C   UNL     1       4.841  42.216  46.573  1.00  0.00     0.006 C 
BRANCH  20  21
ATOM     21  C   UNL     1       5.307  42.098  48.033  1.00  0.00     0.053 C 
BRANCH  21  22
ATOM     22  C   UNL     1       6.163  40.889  48.256  1.00  0.00     0.041 C 
ATOM     23  O   UNL     1       7.336  41.014  48.694  1.00  0.00    -0.550 OA
ATOM     24  O   UNL     1       5.670  39.623  47.956  1.00  0.00    -0.550 OA
ENDBRANCH  21  22
ENDBRANCH  20  21
ENDBRANCH  19  20
ENDBRANCH  18  19
ENDBRANCH  17  18
ENDBRANCH  16  17
ENDBRANCH  15  16
ENDBRANCH  14  15
ENDBRANCH  13  14
ENDBRANCH   1  13
TORSDOF 20
ENDMDL
MODEL 4
REMARK VINA RESULT:    -5.153      1.445      2.899
REMARK INTER + INTRA:         -13.680
REMARK INTER:                 -10.669
REMARK INTRA:                  -3.011
REMARK UNBOUND:                -2.501
REMARK SMILES CCCCCCCCCCCCCCCCCCCCCC(=O)[O-]
REMARK SMILES IDX 12 1 11 2 10 3 9 4 8 5 7 6 6 7 5 8 4 9 3 10 2 11 1 12 13 13
REMARK SMILES IDX 14 14 15 15 16 16 17 17 18 18 19 19 20 20 21 21 22 22 23 23
REMARK SMILES IDX 24 24
REMARK H PARENT
REMARK Flexibility Score: inf
ROOT
ATOM      1  C   UNL     1      10.014  40.117  48.600  1.00  0.00     0.000 C 
ENDROOT
BRANCH   1   2
ATOM      2  C   UNL     1      11.336  39.931  47.833  1.00  0.00     0.000 C 
BRANCH   2   3
ATOM      3  C   UNL     1      11.164  39.143  46.522  1.00  0.00     0.000 C 
BRANCH   3   4
ATOM      4  C   UNL     1      10.638  40.009  45.364  1.00  0.00    -0.000 C 
BRANCH   4   5
ATOM      5  C   UNL     1       9.282  39.572  44.779  1.00  0.00    -0.000 C 
BRANCH   5   6
ATOM      6  C   UNL     1       8.947  40.267  43.447  1.00  0.00    -0.000 C 
BRANCH   6   7
ATOM      7  C   UNL     1       9.927  41.416  43.130  1.00  0.00    -0.000 C 
BRANCH   7   8
ATOM      8  C   UNL     1      10.415  41.444  41.667  1.00  0.00    -0.000 C 
BRANCH   8   9
ATOM      9  C   UNL     1      11.935  41.622  41.484  1.00  0.00    -0.000 C 
BRANCH   9  10
ATOM     10  C   UNL     1      12.788  40.881  42.538  1.00  0.00    -0.000 C 
BRANCH  10  11
ATOM     11  C   UNL     1      12.959  39.382  42.244  1.00  0.00    -0.003 C 
ATOM     12  C   UNL     1      13.469  38.596  43.451  1.00  0.00     0.004 C 
ENDBRANCH  10  11
ENDBRANCH   9  10
ENDBRANCH   8   9
ENDBRANCH   7   8
ENDBRANCH   6   7
ENDBRANCH   5   6
ENDBRANCH   4   5
ENDBRANCH   3   4
ENDBRANCH   2   3
ENDBRANCH   1   2
BRANCH   1  13
ATOM     13  C   UNL     1       9.030  38.936  48.510  1.00  0.00     0.000 C 
BRANCH  13  14
ATOM     14  C   UNL     1       7.580  39.377  48.260  1.00  0.00     0.000 C 
BRANCH  14  15
ATOM     15  C   UNL     1       7.464  40.905  48.254  1.00  0.00     0.000 C 
BRANCH  15  16
ATOM     16  C   UNL     1       6.314  41.374  49.159  1.00  0.00     0.000 C 
BRANCH  16  17
ATOM     17  C   UNL     1       5.274  42.222  48.409  1.00  0.00     0.000 C 
BRANCH  17  18
ATOM     18  C   UNL     1       4.827  41.579  47.088  1.00  0.00     0.000 C 
BRANCH  18  19
ATOM     19  C   UNL     1       4.975  42.565  45.920  1.00  0.00     0.000 C 
BRANCH  19  20
ATOM     20  C   UNL     1       6.154  42.219  44.991  1.00  0.00     0.006 C 
BRANCH  20  21
ATOM     21  C   UNL     1       5.940  42.616  43.521  1.00  0.00     0.053 C 
BRANCH  21  22
ATOM     22  C   UNL     1       6.908  43.669  43.075  1.00  0.00     0.041 C 
ATOM     23  O   UNL     1       7.198  44.627  43.839  1.00  0.00    -0.550 OA
ATOM     24  O   UNL     1       7.472  43.603  41.806  1.00  0.00    -0.550 OA
ENDBRANCH  21  22
ENDBRANCH  20  21
ENDBRANCH  19  20
ENDBRANCH  18  19
ENDBRANCH  17  18
ENDBRANCH  16  17
ENDBRANCH  15  16
ENDBRANCH  14  15
ENDBRANCH  13  14
ENDBRANCH   1  13
TORSDOF 20
ENDMDL
MODEL 5
REMARK VINA RESULT:    -5.118      3.491      6.092
REMARK INTER + INTRA:         -13.603
REMARK INTER:                 -10.890
REMARK INTRA:                  -2.713
REMARK UNBOUND:                -2.501
REMARK SMILES CCCCCCCCCCCCCCCCCCCCCC(=O)[O-]
REMARK SMILES IDX 12 1 11 2 10 3 9 4 8 5 7 6 6 7 5 8 4 9 3 10 2 11 1 12 13 13
REMARK SMILES IDX 14 14 15 15 16 16 17 17 18 18 19 19 20 20 21 21 22 22 23 23
REMARK SMILES IDX 24 24
REMARK H PARENT
REMARK Flexibility Score: inf
ROOT
ATOM      1  C   UNL     1      12.719  40.635  47.939  1.00  0.00     0.000 C 
ENDROOT
BRANCH   1   2
ATOM      2  C   UNL     1      12.803  41.233  46.523  1.00  0.00     0.000 C 
BRANCH   2   3
ATOM      3  C   UNL     1      13.008  40.167  45.431  1.00  0.00     0.000 C 
BRANCH   3   4
ATOM      4  C   UNL     1      11.704  39.448  45.042  1.00  0.00    -0.000 C 
BRANCH   4   5
ATOM      5  C   UNL     1      11.884  38.049  44.423  1.00  0.00    -0.000 C 
BRANCH   5   6
ATOM      6  C   UNL     1      11.649  36.909  45.430  1.00  0.00    -0.000 C 
BRANCH   6   7
ATOM      7  C   UNL     1      10.320  36.168  45.167  1.00  0.00    -0.000 C 
BRANCH   7   8
ATOM      8  C   UNL     1      10.156  35.660  43.721  1.00  0.00    -0.000 C 
BRANCH   8   9
ATOM      9  C   UNL     1       9.954  34.139  43.577  1.00  0.00    -0.000 C 
BRANCH   9  10
ATOM     10  C   UNL     1      10.790  33.496  42.447  1.00  0.00    -0.000 C 
BRANCH  10  11
ATOM     11  C   UNL     1      10.059  33.446  41.096  1.00  0.00    -0.003 C 
ATOM     12  C   UNL     1       8.559  33.191  41.243  1.00  0.00     0.004 C 
ENDBRANCH  10  11
ENDBRANCH   9  10
ENDBRANCH   8   9
ENDBRANCH   7   8
ENDBRANCH   6   7
ENDBRANCH   5   6
ENDBRANCH   4   5
ENDBRANCH   3   4
ENDBRANCH   2   3
ENDBRANCH   1   2
BRANCH   1  13
ATOM     13  C   UNL     1      13.369  39.249  48.107  1.00  0.00     0.000 C 
BRANCH  13  14
ATOM     14  C   UNL     1      12.466  38.244  48.838  1.00  0.00     0.000 C 
BRANCH  14  15
ATOM     15  C   UNL     1      11.110  38.871  49.178  1.00  0.00     0.000 C 
BRANCH  15  16
ATOM     16  C   UNL     1       9.995  38.285  48.297  1.00  0.00     0.000 C 
BRANCH  16  17
ATOM     17  C   UNL     1       9.094  39.366  47.682  1.00  0.00     0.000 C 
BRANCH  17  18
ATOM     18  C   UNL     1       8.799  40.518  48.654  1.00  0.00     0.000 C 
BRANCH  18  19
ATOM     19  C   UNL     1       7.295  40.828  48.697  1.00  0.00     0.000 C 
BRANCH  19  20
ATOM     20  C   UNL     1       6.439  39.733  48.035  1.00  0.00     0.006 C 
BRANCH  20  21
ATOM     21  C   UNL     1       5.473  40.249  46.956  1.00  0.00     0.053 C 
BRANCH  21  22
ATOM     22  C   UNL     1       6.185  41.012  45.881  1.00  0.00     0.041 C 
ATOM     23  O   UNL     1       6.983  40.421  45.107  1.00  0.00    -0.550 OA
ATOM     24  O   UNL     1       5.984  42.381  45.750  1.00  0.00    -0.550 OA
ENDBRANCH  21  22
ENDBRANCH  20  21
ENDBRANCH  19  20
ENDBRANCH  18  19
ENDBRANCH  17  18
ENDBRANCH  16  17
ENDBRANCH  15  16
ENDBRANCH  14  15
ENDBRANCH  13  14
ENDBRANCH   1  13
TORSDOF 20
ENDMDL
MODEL 6
REMARK VINA RESULT:    -5.098      2.828      4.634
REMARK INTER + INTRA:         -13.560
REMARK INTER:                 -11.430
REMARK INTRA:                  -2.130
REMARK UNBOUND:                -2.501
REMARK SMILES CCCCCCCCCCCCCCCCCCCCCC(=O)[O-]
REMARK SMILES IDX 12 1 11 2 10 3 9 4 8 5 7 6 6 7 5 8 4 9 3 10 2 11 1 12 13 13
REMARK SMILES IDX 14 14 15 15 16 16 17 17 18 18 19 19 20 20 21 21 22 22 23 23
REMARK SMILES IDX 24 24
REMARK H PARENT
REMARK Flexibility Score: inf
ROOT
ATOM      1  C   UNL     1      11.463  40.122  49.348  1.00  0.00     0.000 C 
ENDROOT
BRANCH   1   2
ATOM      2  C   UNL     1      12.200  40.564  48.069  1.00  0.00     0.000 C 
BRANCH   2   3
ATOM      3  C   UNL     1      13.149  39.485  47.519  1.00  0.00     0.000 C 
BRANCH   3   4
ATOM      4  C   UNL     1      12.765  39.010  46.106  1.00  0.00    -0.000 C 
BRANCH   4   5
ATOM      5  C   UNL     1      11.596  39.768  45.452  1.00  0.00    -0.000 C 
BRANCH   5   6
ATOM      6  C   UNL     1      10.723  38.874  44.553  1.00  0.00    -0.000 C 
BRANCH   6   7
ATOM      7  C   UNL     1      10.402  37.520  45.220  1.00  0.00    -0.000 C 
BRANCH   7   8
ATOM      8  C   UNL     1      10.125  36.375  44.224  1.00  0.00    -0.000 C 
BRANCH   8   9
ATOM      9  C   UNL     1      10.367  34.955  44.770  1.00  0.00    -0.000 C 
BRANCH   9  10
ATOM     10  C   UNL     1      10.787  33.929  43.693  1.00  0.00    -0.000 C 
BRANCH  10  11
ATOM     11  C   UNL     1      10.392  34.340  42.266  1.00  0.00    -0.003 C 
ATOM     12  C   UNL     1      10.288  33.150  41.313  1.00  0.00     0.004 C 
ENDBRANCH  10  11
ENDBRANCH   9  10
ENDBRANCH   8   9
ENDBRANCH   7   8
ENDBRANCH   6   7
ENDBRANCH   5   6
ENDBRANCH   4   5
ENDBRANCH   3   4
ENDBRANCH   2   3
ENDBRANCH   1   2
BRANCH   1  13
ATOM     13  C   UNL     1       9.939  40.337  49.336  1.00  0.00     0.000 C 
BRANCH  13  14
ATOM     14  C   UNL     1       9.221  39.508  48.260  1.00  0.00     0.000 C 
BRANCH  14  15
ATOM     15  C   UNL     1       7.957  40.221  47.769  1.00  0.00     0.000 C 
BRANCH  15  16
ATOM     16  C   UNL     1       7.271  40.980  48.917  1.00  0.00     0.000 C 
BRANCH  16  17
ATOM     17  C   UNL     1       5.970  41.671  48.479  1.00  0.00     0.000 C 
BRANCH  17  18
ATOM     18  C   UNL     1       5.429  41.129  47.148  1.00  0.00     0.000 C 
BRANCH  18  19
ATOM     19  C   UNL     1       4.832  42.260  46.298  1.00  0.00     0.000 C 
BRANCH  19  20
ATOM     20  C   UNL     1       5.715  42.633  45.092  1.00  0.00     0.006 C 
BRANCH  20  21
ATOM     21  C   UNL     1       6.552  41.469  44.536  1.00  0.00     0.053 C 
BRANCH  21  22
ATOM     22  C   UNL     1       7.257  41.839  43.267  1.00  0.00     0.041 C 
ATOM     23  O   UNL     1       8.166  41.099  42.808  1.00  0.00    -0.550 OA
ATOM     24  O   UNL     1       6.925  43.015  42.604  1.00  0.00    -0.550 OA
ENDBRANCH  21  22
ENDBRANCH  20  21
ENDBRANCH  19  20
ENDBRANCH  18  19
ENDBRANCH  17  18
ENDBRANCH  16  17
ENDBRANCH  15  16
ENDBRANCH  14  15
ENDBRANCH  13  14
ENDBRANCH   1  13
TORSDOF 20
ENDMDL
MODEL 7
REMARK VINA RESULT:    -5.094      2.994      5.298
REMARK INTER + INTRA:         -13.551
REMARK INTER:                 -10.593
REMARK INTRA:                  -2.958
REMARK UNBOUND:                -2.501
REMARK SMILES CCCCCCCCCCCCCCCCCCCCCC(=O)[O-]
REMARK SMILES IDX 12 1 11 2 10 3 9 4 8 5 7 6 6 7 5 8 4 9 3 10 2 11 1 12 13 13
REMARK SMILES IDX 14 14 15 15 16 16 17 17 18 18 19 19 20 20 21 21 22 22 23 23
REMARK SMILES IDX 24 24
REMARK H PARENT
REMARK Flexibility Score: inf
ROOT
ATOM      1  C   UNL     1       7.634  43.478  41.841  1.00  0.00     0.000 C 
ENDROOT
BRANCH   1   2
ATOM      2  C   UNL     1       9.006  42.894  41.456  1.00  0.00     0.000 C 
BRANCH   2   3
ATOM      3  C   UNL     1       9.643  42.062  42.582  1.00  0.00     0.000 C 
BRANCH   3   4
ATOM      4  C   UNL     1       9.068  40.637  42.676  1.00  0.00    -0.000 C 
BRANCH   4   5
ATOM      5  C   UNL     1       8.966  40.061  44.100  1.00  0.00    -0.000 C 
BRANCH   5   6
ATOM      6  C   UNL     1       9.421  38.593  44.193  1.00  0.00    -0.000 C 
BRANCH   6   7
ATOM      7  C   UNL     1      10.567  38.405  45.209  1.00  0.00    -0.000 C 
BRANCH   7   8
ATOM      8  C   UNL     1      11.803  37.680  44.641  1.00  0.00    -0.000 C 
BRANCH   8   9
ATOM      9  C   UNL     1      12.256  38.148  43.244  1.00  0.00    -0.000 C 
BRANCH   9  10
ATOM     10  C   UNL     1      13.475  39.098  43.262  1.00  0.00    -0.000 C 
BRANCH  10  11
ATOM     11  C   UNL     1      13.099  40.575  43.459  1.00  0.00    -0.003 C 
ATOM     12  C   UNL     1      13.364  41.069  44.880  1.00  0.00     0.004 C 
ENDBRANCH  10  11
ENDBRANCH   9  10
ENDBRANCH   8   9
ENDBRANCH   7   8
ENDBRANCH   6   7
ENDBRANCH   5   6
ENDBRANCH   4   5
ENDBRANCH   3   4
ENDBRANCH   2   3
ENDBRANCH   1   2
BRANCH   1  13
ATOM     13  C   UNL     1       7.630  44.376  43.092  1.00  0.00     0.000 C 
BRANCH  13  14
ATOM     14  C   UNL     1       6.532  44.002  44.099  1.00  0.00     0.000 C 
BRANCH  14  15
ATOM     15  C   UNL     1       5.959  42.614  43.796  1.00  0.00     0.000 C 
BRANCH  15  16
ATOM     16  C   UNL     1       6.001  41.716  45.043  1.00  0.00     0.000 C 
BRANCH  16  17
ATOM     17  C   UNL     1       5.266  42.331  46.244  1.00  0.00     0.000 C 
BRANCH  17  18
ATOM     18  C   UNL     1       5.719  41.738  47.585  1.00  0.00     0.000 C 
BRANCH  18  19
ATOM     19  C   UNL     1       6.815  40.683  47.377  1.00  0.00     0.000 C 
BRANCH  19  20
ATOM     20  C   UNL     1       7.821  40.627  48.542  1.00  0.00     0.006 C 
BRANCH  20  21
ATOM     21  C   UNL     1       8.992  39.655  48.322  1.00  0.00     0.053 C 
BRANCH  21  22
ATOM     22  C   UNL     1      10.296  40.231  48.782  1.00  0.00     0.041 C 
ATOM     23  O   UNL     1      11.264  40.326  47.983  1.00  0.00    -0.550 OA
ATOM     24  O   UNL     1      10.448  40.641  50.102  1.00  0.00    -0.550 OA
ENDBRANCH  21  22
ENDBRANCH  20  21
ENDBRANCH  19  20
ENDBRANCH  18  19
ENDBRANCH  17  18
ENDBRANCH  16  17
ENDBRANCH  15  16
ENDBRANCH  14  15
ENDBRANCH  13  14
ENDBRANCH   1  13
TORSDOF 20
ENDMDL
MODEL 8
REMARK VINA RESULT:    -5.080      4.122      6.611
REMARK INTER + INTRA:         -13.521
REMARK INTER:                 -11.474
REMARK INTRA:                  -2.047
REMARK UNBOUND:                -2.501
REMARK SMILES CCCCCCCCCCCCCCCCCCCCCC(=O)[O-]
REMARK SMILES IDX 12 1 11 2 10 3 9 4 8 5 7 6 6 7 5 8 4 9 3 10 2 11 1 12 13 13
REMARK SMILES IDX 14 14 15 15 16 16 17 17 18 18 19 19 20 20 21 21 22 22 23 23
REMARK SMILES IDX 24 24
REMARK H PARENT
REMARK Flexibility Score: inf
ROOT
ATOM      1  C   UNL     1       6.993  41.937  43.658  1.00  0.00     0.000 C 
ENDROOT
BRANCH   1   2
ATOM      2  C   UNL     1       8.214  41.041  43.380  1.00  0.00     0.000 C 
BRANCH   2   3
ATOM      3  C   UNL     1       8.518  40.066  44.531  1.00  0.00     0.000 C 
BRANCH   3   4
ATOM      4  C   UNL     1       9.544  38.984  44.147  1.00  0.00    -0.000 C 
BRANCH   4   5
ATOM      5  C   UNL     1      10.774  38.888  45.068  1.00  0.00    -0.000 C 
BRANCH   5   6
ATOM      6  C   UNL     1      11.562  37.577  44.890  1.00  0.00    -0.000 C 
BRANCH   6   7
ATOM      7  C   UNL     1      10.643  36.338  44.934  1.00  0.00    -0.000 C 
BRANCH   7   8
ATOM      8  C   UNL     1      10.488  35.618  43.580  1.00  0.00    -0.000 C 
BRANCH   8   9
ATOM      9  C   UNL     1      10.215  34.104  43.668  1.00  0.00    -0.000 C 
BRANCH   9  10
ATOM     10  C   UNL     1      10.828  33.284  42.510  1.00  0.00    -0.000 C 
BRANCH  10  11
ATOM     11  C   UNL     1      10.097  33.473  41.171  1.00  0.00    -0.003 C 
ATOM     12  C   UNL     1       8.628  33.055  41.234  1.00  0.00     0.004 C 
ENDBRANCH  10  11
ENDBRANCH   9  10
ENDBRANCH   8   9
ENDBRANCH   7   8
ENDBRANCH   6   7
ENDBRANCH   5   6
ENDBRANCH   4   5
ENDBRANCH   3   4
ENDBRANCH   2   3
ENDBRANCH   1   2
BRANCH   1  13
ATOM     13  C   UNL     1       6.020  41.408  44.728  1.00  0.00     0.000 C 
BRANCH  13  14
ATOM     14  C   UNL     1       5.504  42.507  45.669  1.00  0.00     0.000 C 
BRANCH  14  15
ATOM     15  C   UNL     1       5.249  41.951  47.074  1.00  0.00     0.000 C 
BRANCH  15  16
ATOM     16  C   UNL     1       6.006  40.632  47.291  1.00  0.00     0.000 C 
BRANCH  16  17
ATOM     17  C   UNL     1       7.202  40.782  48.245  1.00  0.00     0.000 C 
BRANCH  17  18
ATOM     18  C   UNL     1       8.153  39.577  48.200  1.00  0.00     0.000 C 
BRANCH  18  19
ATOM     19  C   UNL     1       9.549  39.960  48.713  1.00  0.00     0.000 C 
BRANCH  19  20
ATOM     20  C   UNL     1      10.555  38.797  48.634  1.00  0.00     0.006 C 
BRANCH  20  21
ATOM     21  C   UNL     1      11.957  39.134  49.168  1.00  0.00     0.053 C 
BRANCH  21  22
ATOM     22  C   UNL     1      12.824  39.757  48.118  1.00  0.00     0.041 C 
ATOM     23  O   UNL     1      12.750  40.992  47.884  1.00  0.00    -0.550 OA
ATOM     24  O   UNL     1      13.700  38.967  47.381  1.00  0.00    -0.550 OA
ENDBRANCH  21  22
ENDBRANCH  20  21
ENDBRANCH  19  20
ENDBRANCH  18  19
ENDBRANCH  17  18
ENDBRANCH  16  17
ENDBRANCH  15  16
ENDBRANCH  14  15
ENDBRANCH  13  14
ENDBRANCH   1  13
TORSDOF 20
ENDMDL
MODEL 9
REMARK VINA RESULT:    -5.043      1.463      3.967
REMARK INTER + INTRA:         -13.440
REMARK INTER:                 -10.962
REMARK INTRA:                  -2.477
REMARK UNBOUND:                -2.501
REMARK SMILES CCCCCCCCCCCCCCCCCCCCCC(=O)[O-]
REMARK SMILES IDX 12 1 11 2 10 3 9 4 8 5 7 6 6 7 5 8 4 9 3 10 2 11 1 12 13 13
REMARK SMILES IDX 14 14 15 15 16 16 17 17 18 18 19 19 20 20 21 21 22 22 23 23
REMARK SMILES IDX 24 24
REMARK H PARENT
REMARK Flexibility Score: inf
ROOT
ATOM      1  C   UNL     1       6.017  41.389  48.992  1.00  0.00     0.000 C 
ENDROOT
BRANCH   1   2
ATOM      2  C   UNL     1       6.483  40.133  48.232  1.00  0.00     0.000 C 
BRANCH   2   3
ATOM      3  C   UNL     1       7.923  40.250  47.704  1.00  0.00     0.000 C 
BRANCH   3   4
ATOM      4  C   UNL     1       8.940  39.461  48.548  1.00  0.00    -0.000 C 
BRANCH   4   5
ATOM      5  C   UNL     1      10.159  40.267  49.032  1.00  0.00    -0.000 C 
BRANCH   5   6
ATOM      6  C   UNL     1      11.485  39.496  48.898  1.00  0.00    -0.000 C 
BRANCH   6   7
ATOM      7  C   UNL     1      12.400  40.102  47.813  1.00  0.00    -0.000 C 
BRANCH   7   8
ATOM      8  C   UNL     1      11.649  40.609  46.565  1.00  0.00    -0.000 C 
BRANCH   8   9
ATOM      9  C   UNL     1      11.675  39.660  45.351  1.00  0.00    -0.000 C 
BRANCH   9  10
ATOM     10  C   UNL     1      10.299  39.049  44.999  1.00  0.00    -0.000 C 
BRANCH  10  11
ATOM     11  C   UNL     1       9.331  40.050  44.349  1.00  0.00    -0.003 C 
ATOM     12  C   UNL     1       9.838  40.577  43.007  1.00  0.00     0.004 C 
ENDBRANCH  10  11
ENDBRANCH   9  10
ENDBRANCH   8   9
ENDBRANCH   7   8
ENDBRANCH   6   7
ENDBRANCH   5   6
ENDBRANCH   4   5
ENDBRANCH   3   4
ENDBRANCH   2   3
ENDBRANCH   1   2
BRANCH   1  13
ATOM     13  C   UNL     1       5.214  42.402  48.155  1.00  0.00     0.000 C 
BRANCH  13  14
ATOM     14  C   UNL     1       4.838  41.871  46.764  1.00  0.00     0.000 C 
BRANCH  14  15
ATOM     15  C   UNL     1       5.556  42.659  45.663  1.00  0.00     0.000 C 
BRANCH  15  16
ATOM     16  C   UNL     1       6.003  41.730  44.523  1.00  0.00     0.000 C 
BRANCH  16  17
ATOM     17  C   UNL     1       6.626  42.494  43.343  1.00  0.00     0.000 C 
BRANCH  17  18
ATOM     18  C   UNL     1       7.032  43.928  43.712  1.00  0.00     0.000 C 
BRANCH  18  19
ATOM     19  C   UNL     1       7.197  44.792  42.454  1.00  0.00     0.000 C 
BRANCH  19  20
ATOM     20  C   UNL     1       7.826  44.022  41.277  1.00  0.00     0.006 C 
BRANCH  20  21
ATOM     21  C   UNL     1       9.356  44.143  41.185  1.00  0.00     0.053 C 
BRANCH  21  22
ATOM     22  C   UNL     1       9.781  45.417  40.522  1.00  0.00     0.041 C 
ATOM     23  O   UNL     1       9.018  45.989  39.700  1.00  0.00    -0.550 OA
ATOM     24  O   UNL     1      11.032  45.960  40.796  1.00  0.00    -0.550 OA
ENDBRANCH  21  22
ENDBRANCH  20  21
ENDBRANCH  19  20
ENDBRANCH  18  19
ENDBRANCH  17  18
ENDBRANCH  16  17
ENDBRANCH  15  16
ENDBRANCH  14  15
ENDBRANCH  13  14
ENDBRANCH   1  13
TORSDOF 20
ENDMDL
