MODEL 1
REMARK VINA RESULT:    -3.993      0.000      0.000
REMARK INTER + INTRA:         -10.625
REMARK INTER:                  -7.495
REMARK INTRA:                  -3.130
REMARK UNBOUND:                -3.130
REMARK SMILES CCCCCCCCC=CCCCCCCCC(=O)[O-]
REMARK SMILES IDX 10 1 9 2 11 3 12 4 13 5 14 6 15 7 16 8 17 9 18 10 19 11
REMARK SMILES IDX 20 12 8 13 7 14 6 15 5 16 4 17 3 18 2 19 1 20
REMARK H PARENT
REMARK Flexibility Score: inf
ROOT
ATOM      1  C   UNL     1      31.003   9.933  28.379  1.00  0.00    -0.031 C 
ATOM      2  C   UNL     1      31.673   8.885  27.883  1.00  0.00    -0.031 C 
ENDROOT
BRANCH   1   3
ATOM      3  C   UNL     1      29.716  10.413  27.760  1.00  0.00     0.027 C 
BRANCH   3   4
ATOM      4  C   UNL     1      28.714  10.914  28.810  1.00  0.00     0.004 C 
BRANCH   4   5
ATOM      5  C   UNL     1      29.031  10.382  30.215  1.00  0.00     0.000 C 
BRANCH   5   6
ATOM      6  C   UNL     1      28.993  11.511  31.253  1.00  0.00     0.000 C 
BRANCH   6   7
ATOM      7  C   UNL     1      30.315  11.659  32.027  1.00  0.00     0.000 C 
BRANCH   7   8
ATOM      8  C   UNL     1      31.449  12.299  31.198  1.00  0.00     0.006 C 
BRANCH   8   9
ATOM      9  C   UNL     1      32.746  12.442  32.003  1.00  0.00     0.053 C 
BRANCH   9  10
ATOM     10  C   UNL     1      32.817  13.790  32.648  1.00  0.00     0.041 C 
ATOM     11  O   UNL     1      33.307  14.767  32.022  1.00  0.00    -0.550 OA
ATOM     12  O   UNL     1      32.294  13.980  33.922  1.00  0.00    -0.550 OA
ENDBRANCH   9  10
ENDBRANCH   8   9
ENDBRANCH   7   8
ENDBRANCH   6   7
ENDBRANCH   5   6
ENDBRANCH   4   5
ENDBRANCH   3   4
ENDBRANCH   1   3
BRANCH   2  13
ATOM     13  C   UNL     1      32.957   8.425  28.517  1.00  0.00     0.027 C 
BRANCH  13  14
ATOM     14  C   UNL     1      33.354   9.335  29.688  1.00  0.00     0.004 C 
BRANCH  14  15
ATOM     15  C   UNL     1      34.212   8.610  30.737  1.00  0.00     0.000 C 
BRANCH  15  16
ATOM     16  C   UNL     1      33.370   7.773  31.714  1.00  0.00     0.000 C 
BRANCH  16  17
ATOM     17  C   UNL     1      32.178   8.580  32.241  1.00  0.00    -0.000 C 
BRANCH  17  18
ATOM     18  C   UNL     1      30.887   7.748  32.195  1.00  0.00    -0.000 C 
BRANCH  18  19
ATOM     19  C   UNL     1      30.940   6.636  31.136  1.00  0.00    -0.003 C 
ATOM     20  C   UNL     1      29.792   6.720  30.132  1.00  0.00     0.004 C 
ENDBRANCH  18  19
ENDBRANCH  17  18
ENDBRANCH  16  17
ENDBRANCH  15  16
ENDBRANCH  14  15
ENDBRANCH  13  14
ENDBRANCH   2  13
TORSDOF 15
ENDMDL
MODEL 2
REMARK VINA RESULT:    -3.972      2.576      4.613
REMARK INTER + INTRA:         -10.585
REMARK INTER:                  -7.818
REMARK INTRA:                  -2.767
REMARK UNBOUND:                -3.130
REMARK SMILES CCCCCCCCC=CCCCCCCCC(=O)[O-]
REMARK SMILES IDX 10 1 9 2 11 3 12 4 13 5 14 6 15 7 16 8 17 9 18 10 19 11
REMARK SMILES IDX 20 12 8 13 7 14 6 15 5 16 4 17 3 18 2 19 1 20
REMARK H PARENT
REMARK Flexibility Score: inf
ROOT
ATOM      1  C   UNL     1      31.195   7.054  31.628  1.00  0.00    -0.031 C 
ATOM      2  C   UNL     1      30.245   7.402  30.749  1.00  0.00    -0.031 C 
ENDROOT
BRANCH   1   3
ATOM      3  C   UNL     1      31.074   7.381  33.093  1.00  0.00     0.027 C 
BRANCH   3   4
ATOM      4  C   UNL     1      31.670   8.754  33.437  1.00  0.00     0.004 C 
BRANCH   4   5
ATOM      5  C   UNL     1      30.805   9.909  32.914  1.00  0.00     0.000 C 
BRANCH   5   6
ATOM      6  C   UNL     1      31.646  11.174  32.702  1.00  0.00     0.000 C 
BRANCH   6   7
ATOM      7  C   UNL     1      31.150  12.034  31.526  1.00  0.00     0.000 C 
BRANCH   7   8
ATOM      8  C   UNL     1      30.060  11.348  30.675  1.00  0.00     0.006 C 
BRANCH   8   9
ATOM      9  C   UNL     1      30.037  11.869  29.232  1.00  0.00     0.053 C 
BRANCH   9  10
ATOM     10  C   UNL     1      28.802  11.404  28.527  1.00  0.00     0.041 C 
ATOM     11  O   UNL     1      27.719  11.282  29.159  1.00  0.00    -0.550 OA
ATOM     12  O   UNL     1      28.833  11.155  27.161  1.00  0.00    -0.550 OA
ENDBRANCH   9  10
ENDBRANCH   8   9
ENDBRANCH   7   8
ENDBRANCH   6   7
ENDBRANCH   5   6
ENDBRANCH   4   5
ENDBRANCH   3   4
ENDBRANCH   1   3
BRANCH   2  13
ATOM     13  C   UNL     1      30.390   7.066  29.290  1.00  0.00     0.027 C 
BRANCH  13  14
ATOM     14  C   UNL     1      30.659   8.326  28.455  1.00  0.00     0.004 C 
BRANCH  14  15
ATOM     15  C   UNL     1      32.021   8.287  27.745  1.00  0.00     0.000 C 
BRANCH  15  16
ATOM     16  C   UNL     1      33.202   8.303  28.729  1.00  0.00     0.000 C 
BRANCH  16  17
ATOM     17  C   UNL     1      33.118   9.512  29.668  1.00  0.00    -0.000 C 
BRANCH  17  18
ATOM     18  C   UNL     1      34.254   9.486  30.701  1.00  0.00    -0.000 C 
BRANCH  18  19
ATOM     19  C   UNL     1      34.635   8.059  31.124  1.00  0.00    -0.003 C 
ATOM     20  C   UNL     1      36.125   7.767  30.947  1.00  0.00     0.004 C 
ENDBRANCH  18  19
ENDBRANCH  17  18
ENDBRANCH  16  17
ENDBRANCH  15  16
ENDBRANCH  14  15
ENDBRANCH  13  14
ENDBRANCH   2  13
TORSDOF 15
ENDMDL
MODEL 3
REMARK VINA RESULT:    -3.963      2.353      4.135
REMARK INTER + INTRA:         -10.569
REMARK INTER:                  -7.552
REMARK INTRA:                  -3.016
REMARK UNBOUND:                -3.130
REMARK SMILES CCCCCCCCC=CCCCCCCCC(=O)[O-]
REMARK SMILES IDX 10 1 9 2 11 3 12 4 13 5 14 6 15 7 16 8 17 9 18 10 19 11
REMARK SMILES IDX 20 12 8 13 7 14 6 15 5 16 4 17 3 18 2 19 1 20
REMARK H PARENT
REMARK Flexibility Score: inf
ROOT
ATOM      1  C   UNL     1      34.191   8.422  30.245  1.00  0.00    -0.031 C 
ATOM      2  C   UNL     1      33.309   9.074  29.474  1.00  0.00    -0.031 C 
ENDROOT
BRANCH   1   3
ATOM      3  C   UNL     1      34.802   9.063  31.463  1.00  0.00     0.027 C 
BRANCH   3   4
ATOM      4  C   UNL     1      34.173  10.427  31.783  1.00  0.00     0.004 C 
BRANCH   4   5
ATOM      5  C   UNL     1      33.140  10.337  32.915  1.00  0.00     0.000 C 
BRANCH   5   6
ATOM      6  C   UNL     1      31.840  11.057  32.532  1.00  0.00     0.000 C 
BRANCH   6   7
ATOM      7  C   UNL     1      31.955  11.843  31.215  1.00  0.00     0.000 C 
BRANCH   7   8
ATOM      8  C   UNL     1      30.638  11.901  30.412  1.00  0.00     0.006 C 
BRANCH   8   9
ATOM      9  C   UNL     1      29.459  11.298  31.187  1.00  0.00     0.053 C 
BRANCH   9  10
ATOM     10  C   UNL     1      28.162  11.670  30.541  1.00  0.00     0.041 C 
ATOM     11  O   UNL     1      27.910  11.297  29.365  1.00  0.00    -0.550 OA
ATOM     12  O   UNL     1      27.209  12.386  31.256  1.00  0.00    -0.550 OA
ENDBRANCH   9  10
ENDBRANCH   8   9
ENDBRANCH   7   8
ENDBRANCH   6   7
ENDBRANCH   5   6
ENDBRANCH   4   5
ENDBRANCH   3   4
ENDBRANCH   1   3
BRANCH   2  13
ATOM     13  C   UNL     1      32.713   8.413  28.262  1.00  0.00     0.027 C 
BRANCH  13  14
ATOM     14  C   UNL     1      31.233   8.785  28.099  1.00  0.00     0.004 C 
BRANCH  14  15
ATOM     15  C   UNL     1      30.383   8.384  29.315  1.00  0.00     0.000 C 
BRANCH  15  16
ATOM     16  C   UNL     1      30.160   6.866  29.406  1.00  0.00     0.000 C 
BRANCH  16  17
ATOM     17  C   UNL     1      30.580   6.331  30.780  1.00  0.00    -0.000 C 
BRANCH  17  18
ATOM     18  C   UNL     1      30.922   7.483  31.737  1.00  0.00    -0.000 C 
BRANCH  18  19
ATOM     19  C   UNL     1      31.466   6.987  33.086  1.00  0.00    -0.003 C 
ATOM     20  C   UNL     1      30.922   7.783  34.272  1.00  0.00     0.004 C 
ENDBRANCH  18  19
ENDBRANCH  17  18
ENDBRANCH  16  17
ENDBRANCH  15  16
ENDBRANCH  14  15
ENDBRANCH  13  14
ENDBRANCH   2  13
TORSDOF 15
ENDMDL
MODEL 4
REMARK VINA RESULT:    -3.883      2.611      4.761
REMARK INTER + INTRA:         -10.418
REMARK INTER:                  -8.004
REMARK INTRA:                  -2.415
REMARK UNBOUND:                -3.130
REMARK SMILES CCCCCCCCC=CCCCCCCCC(=O)[O-]
REMARK SMILES IDX 10 1 9 2 11 3 12 4 13 5 14 6 15 7 16 8 17 9 18 10 19 11
REMARK SMILES IDX 20 12 8 13 7 14 6 15 5 16 4 17 3 18 2 19 1 20
REMARK H PARENT
REMARK Flexibility Score: inf
ROOT
ATOM      1  C   UNL     1      30.991   6.758  31.056  1.00  0.00    -0.031 C 
ATOM      2  C   UNL     1      30.996   7.492  32.176  1.00  0.00    -0.031 C 
ENDROOT
BRANCH   1   3
ATOM      3  C   UNL     1      29.852   6.824  30.073  1.00  0.00     0.027 C 
BRANCH   3   4
ATOM      4  C   UNL     1      30.301   7.313  28.688  1.00  0.00     0.004 C 
BRANCH   4   5
ATOM      5  C   UNL     1      31.706   7.931  28.720  1.00  0.00     0.000 C 
BRANCH   5   6
ATOM      6  C   UNL     1      31.740   9.261  27.956  1.00  0.00     0.000 C 
BRANCH   6   7
ATOM      7  C   UNL     1      30.723  10.286  28.489  1.00  0.00     0.000 C 
BRANCH   7   8
ATOM      8  C   UNL     1      30.902  10.612  29.988  1.00  0.00     0.006 C 
BRANCH   8   9
ATOM      9  C   UNL     1      29.560  10.709  30.724  1.00  0.00     0.053 C 
BRANCH   9  10
ATOM     10  C   UNL     1      28.663  11.701  30.052  1.00  0.00     0.041 C 
ATOM     11  O   UNL     1      28.848  12.935  30.218  1.00  0.00    -0.550 OA
ATOM     12  O   UNL     1      27.657  11.263  29.201  1.00  0.00    -0.550 OA
ENDBRANCH   9  10
ENDBRANCH   8   9
ENDBRANCH   7   8
ENDBRANCH   6   7
ENDBRANCH   5   6
ENDBRANCH   4   5
ENDBRANCH   3   4
ENDBRANCH   1   3
BRANCH   2  13
ATOM     13  C   UNL     1      32.145   7.409  33.144  1.00  0.00     0.027 C 
BRANCH  13  14
ATOM     14  C   UNL     1      33.491   7.553  32.420  1.00  0.00     0.004 C 
BRANCH  14  15
ATOM     15  C   UNL     1      33.685   8.946  31.800  1.00  0.00     0.000 C 
BRANCH  15  16
ATOM     16  C   UNL     1      34.754   8.959  30.696  1.00  0.00     0.000 C 
BRANCH  16  17
ATOM     17  C   UNL     1      35.594   7.677  30.730  1.00  0.00    -0.000 C 
BRANCH  17  18
ATOM     18  C   UNL     1      37.055   7.986  31.087  1.00  0.00    -0.000 C 
BRANCH  18  19
ATOM     19  C   UNL     1      37.615   7.035  32.157  1.00  0.00    -0.003 C 
ATOM     20  C   UNL     1      36.964   7.234  33.525  1.00  0.00     0.004 C 
ENDBRANCH  18  19
ENDBRANCH  17  18
ENDBRANCH  16  17
ENDBRANCH  15  16
ENDBRANCH  14  15
ENDBRANCH  13  14
ENDBRANCH   2  13
TORSDOF 15
ENDMDL
MODEL 5
REMARK VINA RESULT:    -3.825      2.770      5.000
REMARK INTER + INTRA:         -10.309
REMARK INTER:                  -7.436
REMARK INTRA:                  -2.873
REMARK UNBOUND:                -3.130
REMARK SMILES CCCCCCCCC=CCCCCCCCC(=O)[O-]
REMARK SMILES IDX 10 1 9 2 11 3 12 4 13 5 14 6 15 7 16 8 17 9 18 10 19 11
REMARK SMILES IDX 20 12 8 13 7 14 6 15 5 16 4 17 3 18 2 19 1 20
REMARK H PARENT
REMARK Flexibility Score: inf
ROOT
ATOM      1  C   UNL     1      30.276   7.283  31.082  1.00  0.00    -0.031 C 
ATOM      2  C   UNL     1      31.276   7.148  31.963  1.00  0.00    -0.031 C 
ENDROOT
BRANCH   1   3
ATOM      3  C   UNL     1      30.367   6.714  29.690  1.00  0.00     0.027 C 
BRANCH   3   4
ATOM      4  C   UNL     1      30.364   7.807  28.611  1.00  0.00     0.004 C 
BRANCH   4   5
ATOM      5  C   UNL     1      31.770   8.074  28.053  1.00  0.00     0.000 C 
BRANCH   5   6
ATOM      6  C   UNL     1      32.449   9.229  28.800  1.00  0.00     0.000 C 
BRANCH   6   7
ATOM      7  C   UNL     1      33.643   8.770  29.655  1.00  0.00     0.000 C 
BRANCH   7   8
ATOM      8  C   UNL     1      34.121   9.832  30.669  1.00  0.00     0.006 C 
BRANCH   8   9
ATOM      9  C   UNL     1      35.043   9.237  31.741  1.00  0.00     0.053 C 
BRANCH   9  10
ATOM     10  C   UNL     1      36.068   8.345  31.114  1.00  0.00     0.041 C 
ATOM     11  O   UNL     1      36.957   8.830  30.365  1.00  0.00    -0.550 OA
ATOM     12  O   UNL     1      36.075   6.985  31.399  1.00  0.00    -0.550 OA
ENDBRANCH   9  10
ENDBRANCH   8   9
ENDBRANCH   7   8
ENDBRANCH   6   7
ENDBRANCH   5   6
ENDBRANCH   4   5
ENDBRANCH   3   4
ENDBRANCH   1   3
BRANCH   2  13
ATOM     13  C   UNL     1      31.163   7.725  33.347  1.00  0.00     0.027 C 
BRANCH  13  14
ATOM     14  C   UNL     1      31.716   9.157  33.397  1.00  0.00     0.004 C 
BRANCH  14  15
ATOM     15  C   UNL     1      30.631  10.220  33.168  1.00  0.00     0.000 C 
BRANCH  15  16
ATOM     16  C   UNL     1      30.769  10.924  31.809  1.00  0.00     0.000 C 
BRANCH  16  17
ATOM     17  C   UNL     1      29.471  10.814  31.000  1.00  0.00    -0.000 C 
BRANCH  17  18
ATOM     18  C   UNL     1      29.652  11.391  29.588  1.00  0.00    -0.000 C 
BRANCH  18  19
ATOM     19  C   UNL     1      28.427  11.154  28.692  1.00  0.00    -0.003 C 
ATOM     20  C   UNL     1      28.800  10.927  27.227  1.00  0.00     0.004 C 
ENDBRANCH  18  19
ENDBRANCH  17  18
ENDBRANCH  16  17
ENDBRANCH  15  16
ENDBRANCH  14  15
ENDBRANCH  13  14
ENDBRANCH   2  13
TORSDOF 15
ENDMDL
MODEL 6
REMARK VINA RESULT:    -3.823      2.805      5.006
REMARK INTER + INTRA:         -10.306
REMARK INTER:                  -7.270
REMARK INTRA:                  -3.035
REMARK UNBOUND:                -3.130
REMARK SMILES CCCCCCCCC=CCCCCCCCC(=O)[O-]
REMARK SMILES IDX 10 1 9 2 11 3 12 4 13 5 14 6 15 7 16 8 17 9 18 10 19 11
REMARK SMILES IDX 20 12 8 13 7 14 6 15 5 16 4 17 3 18 2 19 1 20
REMARK H PARENT
REMARK Flexibility Score: inf
ROOT
ATOM      1  C   UNL     1      32.059   9.364  32.520  1.00  0.00    -0.031 C 
ATOM      2  C   UNL     1      32.816   9.716  31.472  1.00  0.00    -0.031 C 
ENDROOT
BRANCH   1   3
ATOM      3  C   UNL     1      31.130   8.179  32.461  1.00  0.00     0.027 C 
BRANCH   3   4
ATOM      4  C   UNL     1      31.664   7.063  31.552  1.00  0.00     0.004 C 
BRANCH   4   5
ATOM      5  C   UNL     1      30.549   6.407  30.724  1.00  0.00     0.000 C 
BRANCH   5   6
ATOM      6  C   UNL     1      29.932   7.409  29.741  1.00  0.00     0.000 C 
BRANCH   6   7
ATOM      7  C   UNL     1      30.955   7.980  28.744  1.00  0.00     0.000 C 
BRANCH   7   8
ATOM      8  C   UNL     1      30.777   9.489  28.471  1.00  0.00     0.006 C 
BRANCH   8   9
ATOM      9  C   UNL     1      29.563  10.072  29.205  1.00  0.00     0.053 C 
BRANCH   9  10
ATOM     10  C   UNL     1      28.886  11.105  28.360  1.00  0.00     0.041 C 
ATOM     11  O   UNL     1      28.391  12.134  28.892  1.00  0.00    -0.550 OA
ATOM     12  O   UNL     1      28.849  10.958  26.978  1.00  0.00    -0.550 OA
ENDBRANCH   9  10
ENDBRANCH   8   9
ENDBRANCH   7   8
ENDBRANCH   6   7
ENDBRANCH   5   6
ENDBRANCH   4   5
ENDBRANCH   3   4
ENDBRANCH   1   3
BRANCH   2  13
ATOM     13  C   UNL     1      33.735  10.904  31.554  1.00  0.00     0.027 C 
BRANCH  13  14
ATOM     14  C   UNL     1      35.080  10.612  30.876  1.00  0.00     0.004 C 
BRANCH  14  15
ATOM     15  C   UNL     1      35.143   9.203  30.264  1.00  0.00     0.000 C 
BRANCH  15  16
ATOM     16  C   UNL     1      36.224   8.324  30.913  1.00  0.00     0.000 C 
BRANCH  16  17
ATOM     17  C   UNL     1      35.623   7.015  31.439  1.00  0.00    -0.000 C 
BRANCH  17  18
ATOM     18  C   UNL     1      35.141   7.176  32.889  1.00  0.00    -0.000 C 
BRANCH  18  19
ATOM     19  C   UNL     1      35.967   8.206  33.675  1.00  0.00    -0.003 C 
ATOM     20  C   UNL     1      35.104   9.112  34.551  1.00  0.00     0.004 C 
ENDBRANCH  18  19
ENDBRANCH  17  18
ENDBRANCH  16  17
ENDBRANCH  15  16
ENDBRANCH  14  15
ENDBRANCH  13  14
ENDBRANCH   2  13
TORSDOF 15
ENDMDL
MODEL 7
REMARK VINA RESULT:    -3.815      2.828      5.266
REMARK INTER + INTRA:         -10.291
REMARK INTER:                  -7.211
REMARK INTRA:                  -3.080
REMARK UNBOUND:                -3.130
REMARK SMILES CCCCCCCCC=CCCCCCCCC(=O)[O-]
REMARK SMILES IDX 10 1 9 2 11 3 12 4 13 5 14 6 15 7 16 8 17 9 18 10 19 11
REMARK SMILES IDX 20 12 8 13 7 14 6 15 5 16 4 17 3 18 2 19 1 20
REMARK H PARENT
REMARK Flexibility Score: inf
ROOT
ATOM      1  C   UNL     1      33.497   7.204  33.053  1.00  0.00    -0.031 C 
ATOM      2  C   UNL     1      34.573   7.713  33.669  1.00  0.00    -0.031 C 
ENDROOT
BRANCH   1   3
ATOM      3  C   UNL     1      32.108   7.397  33.601  1.00  0.00     0.027 C 
BRANCH   3   4
ATOM      4  C   UNL     1      31.030   7.299  32.511  1.00  0.00     0.004 C 
BRANCH   4   5
ATOM      5  C   UNL     1      31.626   7.385  31.099  1.00  0.00     0.000 C 
BRANCH   5   6
ATOM      6  C   UNL     1      30.637   8.034  30.122  1.00  0.00     0.000 C 
BRANCH   6   7
ATOM      7  C   UNL     1      31.161   8.077  28.676  1.00  0.00     0.000 C 
BRANCH   7   8
ATOM      8  C   UNL     1      31.208   9.499  28.077  1.00  0.00     0.006 C 
BRANCH   8   9
ATOM      9  C   UNL     1      30.378  10.499  28.892  1.00  0.00     0.053 C 
BRANCH   9  10
ATOM     10  C   UNL     1      29.120  10.852  28.163  1.00  0.00     0.041 C 
ATOM     11  O   UNL     1      28.046  11.022  28.799  1.00  0.00    -0.550 OA
ATOM     12  O   UNL     1      29.144  11.046  26.787  1.00  0.00    -0.550 OA
ENDBRANCH   9  10
ENDBRANCH   8   9
ENDBRANCH   7   8
ENDBRANCH   6   7
ENDBRANCH   5   6
ENDBRANCH   4   5
ENDBRANCH   3   4
ENDBRANCH   1   3
BRANCH   2  13
ATOM     13  C   UNL     1      35.951   7.506  33.103  1.00  0.00     0.027 C 
BRANCH  13  14
ATOM     14  C   UNL     1      35.886   7.037  31.643  1.00  0.00     0.004 C 
BRANCH  14  15
ATOM     15  C   UNL     1      36.301   8.133  30.649  1.00  0.00     0.000 C 
BRANCH  15  16
ATOM     16  C   UNL     1      35.096   8.890  30.066  1.00  0.00     0.000 C 
BRANCH  16  17
ATOM     17  C   UNL     1      34.858  10.204  30.819  1.00  0.00    -0.000 C 
BRANCH  17  18
ATOM     18  C   UNL     1      33.356  10.471  30.996  1.00  0.00    -0.000 C 
BRANCH  18  19
ATOM     19  C   UNL     1      33.004  10.949  32.414  1.00  0.00    -0.003 C 
ATOM     20  C   UNL     1      31.498  10.998  32.665  1.00  0.00     0.004 C 
ENDBRANCH  18  19
ENDBRANCH  17  18
ENDBRANCH  16  17
ENDBRANCH  15  16
ENDBRANCH  14  15
ENDBRANCH  13  14
ENDBRANCH   2  13
TORSDOF 15
ENDMDL
MODEL 8
REMARK VINA RESULT:    -3.780      2.636      4.296
REMARK INTER + INTRA:         -10.225
REMARK INTER:                  -7.587
REMARK INTRA:                  -2.639
REMARK UNBOUND:                -3.130
REMARK SMILES CCCCCCCCC=CCCCCCCCC(=O)[O-]
REMARK SMILES IDX 10 1 9 2 11 3 12 4 13 5 14 6 15 7 16 8 17 9 18 10 19 11
REMARK SMILES IDX 20 12 8 13 7 14 6 15 5 16 4 17 3 18 2 19 1 20
REMARK H PARENT
REMARK Flexibility Score: inf
ROOT
ATOM      1  C   UNL     1      34.121  10.099  32.032  1.00  0.00    -0.031 C 
ATOM      2  C   UNL     1      33.700   9.952  30.769  1.00  0.00    -0.031 C 
ENDROOT
BRANCH   1   3
ATOM      3  C   UNL     1      33.572  11.178  32.928  1.00  0.00     0.027 C 
BRANCH   3   4
ATOM      4  C   UNL     1      32.797  12.249  32.146  1.00  0.00     0.004 C 
BRANCH   4   5
ATOM      5  C   UNL     1      31.354  12.401  32.647  1.00  0.00     0.000 C 
BRANCH   5   6
ATOM      6  C   UNL     1      30.606  11.063  32.586  1.00  0.00     0.000 C 
BRANCH   6   7
ATOM      7  C   UNL     1      29.622  10.979  31.405  1.00  0.00     0.000 C 
BRANCH   7   8
ATOM      8  C   UNL     1      29.570  12.263  30.551  1.00  0.00     0.006 C 
BRANCH   8   9
ATOM      9  C   UNL     1      29.956  12.005  29.089  1.00  0.00     0.053 C 
BRANCH   9  10
ATOM     10  C   UNL     1      28.891  11.211  28.399  1.00  0.00     0.041 C 
ATOM     11  O   UNL     1      27.700  11.260  28.806  1.00  0.00    -0.550 OA
ATOM     12  O   UNL     1      29.204  10.460  27.273  1.00  0.00    -0.550 OA
ENDBRANCH   9  10
ENDBRANCH   8   9
ENDBRANCH   7   8
ENDBRANCH   6   7
ENDBRANCH   5   6
ENDBRANCH   4   5
ENDBRANCH   3   4
ENDBRANCH   1   3
BRANCH   2  13
ATOM     13  C   UNL     1      34.265   8.868  29.893  1.00  0.00     0.027 C 
BRANCH  13  14
ATOM     14  C   UNL     1      33.256   8.444  28.815  1.00  0.00     0.004 C 
BRANCH  14  15
ATOM     15  C   UNL     1      31.826   8.911  29.126  1.00  0.00     0.000 C 
BRANCH  15  16
ATOM     16  C   UNL     1      30.779   7.811  28.885  1.00  0.00     0.000 C 
BRANCH  16  17
ATOM     17  C   UNL     1      30.009   7.496  30.173  1.00  0.00    -0.000 C 
BRANCH  17  18
ATOM     18  C   UNL     1      30.878   6.691  31.150  1.00  0.00    -0.000 C 
BRANCH  18  19
ATOM     19  C   UNL     1      31.198   7.470  32.436  1.00  0.00    -0.003 C 
ATOM     20  C   UNL     1      31.601   6.559  33.595  1.00  0.00     0.004 C 
ENDBRANCH  18  19
ENDBRANCH  17  18
ENDBRANCH  16  17
ENDBRANCH  15  16
ENDBRANCH  14  15
ENDBRANCH  13  14
ENDBRANCH   2  13
TORSDOF 15
ENDMDL
MODEL 9
REMARK VINA RESULT:    -3.770      2.869      5.344
REMARK INTER + INTRA:         -10.205
REMARK INTER:                  -7.772
REMARK INTRA:                  -2.433
REMARK UNBOUND:                -3.130
REMARK SMILES CCCCCCCCC=CCCCCCCCC(=O)[O-]
REMARK SMILES IDX 10 1 9 2 11 3 12 4 13 5 14 6 15 7 16 8 17 9 18 10 19 11
REMARK SMILES IDX 20 12 8 13 7 14 6 15 5 16 4 17 3 18 2 19 1 20
REMARK H PARENT
REMARK Flexibility Score: inf
ROOT
ATOM      1  C   UNL     1      31.912   6.756  33.484  1.00  0.00    -0.031 C 
ATOM      2  C   UNL     1      33.126   7.258  33.749  1.00  0.00    -0.031 C 
ENDROOT
BRANCH   1   3
ATOM      3  C   UNL     1      31.006   7.381  32.455  1.00  0.00     0.027 C 
BRANCH   3   4
ATOM      4  C   UNL     1      31.428   7.038  31.019  1.00  0.00     0.004 C 
BRANCH   4   5
ATOM      5  C   UNL     1      30.235   6.619  30.148  1.00  0.00     0.000 C 
BRANCH   5   6
ATOM      6  C   UNL     1      30.262   7.341  28.794  1.00  0.00     0.000 C 
BRANCH   6   7
ATOM      7  C   UNL     1      31.514   8.215  28.605  1.00  0.00     0.000 C 
BRANCH   7   8
ATOM      8  C   UNL     1      31.195   9.705  28.354  1.00  0.00     0.006 C 
BRANCH   8   9
ATOM      9  C   UNL     1      29.973  10.179  29.150  1.00  0.00     0.053 C 
BRANCH   9  10
ATOM     10  C   UNL     1      29.130  11.096  28.320  1.00  0.00     0.041 C 
ATOM     11  O   UNL     1      28.470  12.019  28.867  1.00  0.00    -0.550 OA
ATOM     12  O   UNL     1      29.114  10.964  26.937  1.00  0.00    -0.550 OA
ENDBRANCH   9  10
ENDBRANCH   8   9
ENDBRANCH   7   8
ENDBRANCH   6   7
ENDBRANCH   5   6
ENDBRANCH   4   5
ENDBRANCH   3   4
ENDBRANCH   1   3
BRANCH   2  13
ATOM     13  C   UNL     1      34.012   6.618  34.781  1.00  0.00     0.027 C 
BRANCH  13  14
ATOM     14  C   UNL     1      35.464   6.532  34.289  1.00  0.00     0.004 C 
BRANCH  14  15
ATOM     15  C   UNL     1      35.798   7.602  33.237  1.00  0.00     0.000 C 
BRANCH  15  16
ATOM     16  C   UNL     1      36.472   7.013  31.987  1.00  0.00     0.000 C 
BRANCH  16  17
ATOM     17  C   UNL     1      36.296   7.942  30.781  1.00  0.00    -0.000 C 
BRANCH  17  18
ATOM     18  C   UNL     1      34.809   8.142  30.452  1.00  0.00    -0.000 C 
BRANCH  18  19
ATOM     19  C   UNL     1      34.423   9.625  30.344  1.00  0.00    -0.003 C 
ATOM     20  C   UNL     1      33.594  10.109  31.533  1.00  0.00     0.004 C 
ENDBRANCH  18  19
ENDBRANCH  17  18
ENDBRANCH  16  17
ENDBRANCH  15  16
ENDBRANCH  14  15
ENDBRANCH  13  14
ENDBRANCH   2  13
TORSDOF 15
ENDMDL
