MODEL 1
REMARK VINA RESULT:    -7.710      0.000      0.000
REMARK INTER + INTRA:          -9.513
REMARK INTER:                  -9.287
REMARK INTRA:                  -0.226
REMARK UNBOUND:                -0.226
REMARK SMILES O=c1c(O)c(-c2ccc(O)c(O)c2)oc2cc(O)cc(O)c12
REMARK SMILES IDX 5 1 3 2 2 3 1 4 22 5 20 6 19 7 17 8 16 9 15 10 14 11 6 12
REMARK SMILES IDX 7 13 8 14 9 15 13 16 11 17 10 18 12 20 4 22 21 24 18 26
REMARK H PARENT 10 19 12 21 4 23 21 25 18 27
REMARK Flexibility Score: inf
ROOT
ATOM      1  C   UNL     1      19.917  11.119  16.571  1.00  0.00     0.180 A 
ATOM      2  C   UNL     1      20.206  12.370  15.998  1.00  0.00     0.208 A 
ATOM      3  C   UNL     1      19.145  13.212  15.631  1.00  0.00     0.238 A 
ATOM      4  O   UNL     1      19.410  14.353  15.169  1.00  0.00    -0.285 OA
ATOM      5  C   UNL     1      17.808  12.788  15.825  1.00  0.00     0.111 A 
ATOM      6  C   UNL     1      16.655  13.544  15.453  1.00  0.00     0.134 A 
ATOM      7  C   UNL     1      15.382  13.083  15.812  1.00  0.00     0.093 A 
ATOM      8  C   UNL     1      15.217  11.862  16.472  1.00  0.00     0.123 A 
ATOM      9  C   UNL     1      16.334  11.089  16.786  1.00  0.00     0.094 A 
ATOM     10  C   UNL     1      17.619  11.539  16.473  1.00  0.00     0.146 A 
ATOM     11  O   UNL     1      18.655  10.777  16.801  1.00  0.00    -0.452 OA
ENDROOT
BRANCH   1  12
ATOM     12  C   UNL     1      20.981  10.167  16.960  1.00  0.00     0.025 A 
ATOM     13  C   UNL     1      21.159   9.846  18.316  1.00  0.00     0.016 A 
ATOM     14  C   UNL     1      22.144   8.933  18.704  1.00  0.00     0.051 A 
ATOM     15  C   UNL     1      22.953   8.316  17.745  1.00  0.00     0.157 A 
ATOM     16  C   UNL     1      21.783   9.529  15.996  1.00  0.00     0.062 A 
ATOM     17  C   UNL     1      22.770   8.611  16.383  1.00  0.00     0.158 A 
BRANCH  15  18
ATOM     18  O   UNL     1      23.928   7.411  18.162  1.00  0.00    -0.504 OA
ATOM     19  H   UNL     1      24.573   7.624  18.915  1.00  0.00     0.293 HD
ENDBRANCH  15  18
BRANCH  17  20
ATOM     20  O   UNL     1      23.564   7.989  15.421  1.00  0.00    -0.504 OA
ATOM     21  H   UNL     1      23.168   7.615  14.567  1.00  0.00     0.293 HD
ENDBRANCH  17  20
ENDBRANCH   1  12
BRANCH   2  22
ATOM     22  O   UNL     1      21.533  12.779  15.835  1.00  0.00    -0.502 OA
ATOM     23  H   UNL     1      22.310  12.130  15.873  1.00  0.00     0.293 HD
ENDBRANCH   2  22
BRANCH   6  24
ATOM     24  O   UNL     1      16.705  14.728  14.714  1.00  0.00    -0.507 OA
ATOM     25  H   UNL     1      15.898  15.256  14.418  1.00  0.00     0.293 HD
ENDBRANCH   6  24
BRANCH   8  26
ATOM     26  O   UNL     1      13.946  11.403  16.811  1.00  0.00    -0.508 OA
ATOM     27  H   UNL     1      13.618  10.490  16.521  1.00  0.00     0.293 HD
ENDBRANCH   8  26
TORSDOF 6
ENDMDL
MODEL 2
REMARK VINA RESULT:    -7.139      1.468      1.926
REMARK INTER + INTRA:          -8.825
REMARK INTER:                  -8.503
REMARK INTRA:                  -0.323
REMARK UNBOUND:                -0.226
REMARK SMILES O=c1c(O)c(-c2ccc(O)c(O)c2)oc2cc(O)cc(O)c12
REMARK SMILES IDX 5 1 3 2 2 3 1 4 22 5 20 6 19 7 17 8 16 9 15 10 14 11 6 12
REMARK SMILES IDX 7 13 8 14 9 15 13 16 11 17 10 18 12 20 4 22 21 24 18 26
REMARK H PARENT 10 19 12 21 4 23 21 25 18 27
REMARK Flexibility Score: inf
ROOT
ATOM      1  C   UNL     1      19.926  11.152  17.323  1.00  0.00     0.180 A 
ATOM      2  C   UNL     1      20.157  12.484  17.709  1.00  0.00     0.208 A 
ATOM      3  C   UNL     1      19.071  13.369  17.785  1.00  0.00     0.238 A 
ATOM      4  O   UNL     1      19.277  14.545  18.184  1.00  0.00    -0.285 OA
ATOM      5  C   UNL     1      17.770  12.918  17.459  1.00  0.00     0.111 A 
ATOM      6  C   UNL     1      16.602  13.739  17.462  1.00  0.00     0.134 A 
ATOM      7  C   UNL     1      15.347  13.156  17.249  1.00  0.00     0.093 A 
ATOM      8  C   UNL     1      15.224  11.792  16.968  1.00  0.00     0.123 A 
ATOM      9  C   UNL     1      16.364  10.994  16.904  1.00  0.00     0.094 A 
ATOM     10  C   UNL     1      17.627  11.540  17.147  1.00  0.00     0.146 A 
ATOM     11  O   UNL     1      18.686  10.742  17.087  1.00  0.00    -0.452 OA
ENDROOT
BRANCH   1  12
ATOM     12  C   UNL     1      21.024  10.167  17.196  1.00  0.00     0.025 A 
ATOM     13  C   UNL     1      21.729  10.070  15.986  1.00  0.00     0.016 A 
ATOM     14  C   UNL     1      22.782   9.162  15.850  1.00  0.00     0.051 A 
ATOM     15  C   UNL     1      23.157   8.349  16.925  1.00  0.00     0.157 A 
ATOM     16  C   UNL     1      21.417   9.364  18.282  1.00  0.00     0.062 A 
ATOM     17  C   UNL     1      22.475   8.453  18.149  1.00  0.00     0.158 A 
BRANCH  15  18
ATOM     18  O   UNL     1      24.211   7.451  16.759  1.00  0.00    -0.504 OA
ATOM     19  H   UNL     1      24.515   7.141  15.844  1.00  0.00     0.293 HD
ENDBRANCH  15  18
BRANCH  17  20
ATOM     20  O   UNL     1      22.853   7.656  19.228  1.00  0.00    -0.504 OA
ATOM     21  H   UNL     1      23.821   7.404  19.390  1.00  0.00     0.293 HD
ENDBRANCH  17  20
ENDBRANCH   1  12
BRANCH   2  22
ATOM     22  O   UNL     1      21.447  12.903  18.048  1.00  0.00    -0.502 OA
ATOM     23  H   UNL     1      21.927  12.571  18.876  1.00  0.00     0.293 HD
ENDBRANCH   2  22
BRANCH   6  24
ATOM     24  O   UNL     1      16.624  15.125  17.641  1.00  0.00    -0.507 OA
ATOM     25  H   UNL     1      16.270  15.606  18.453  1.00  0.00     0.293 HD
ENDBRANCH   6  24
BRANCH   8  26
ATOM     26  O   UNL     1      13.973  11.223  16.742  1.00  0.00    -0.508 OA
ATOM     27  H   UNL     1      13.797  10.632  15.937  1.00  0.00     0.293 HD
ENDBRANCH   8  26
TORSDOF 6
ENDMDL
MODEL 3
REMARK VINA RESULT:    -7.068      2.716      6.783
REMARK INTER + INTRA:          -8.740
REMARK INTER:                  -8.725
REMARK INTRA:                  -0.015
REMARK UNBOUND:                -0.226
REMARK SMILES O=c1c(O)c(-c2ccc(O)c(O)c2)oc2cc(O)cc(O)c12
REMARK SMILES IDX 5 1 3 2 2 3 1 4 22 5 20 6 19 7 17 8 16 9 15 10 14 11 6 12
REMARK SMILES IDX 7 13 8 14 9 15 13 16 11 17 10 18 12 20 4 22 21 24 18 26
REMARK H PARENT 10 19 12 21 4 23 21 25 18 27
REMARK Flexibility Score: inf
ROOT
ATOM      1  C   UNL     1      19.372  11.689  17.819  1.00  0.00     0.180 A 
ATOM      2  C   UNL     1      19.577  11.788  16.432  1.00  0.00     0.208 A 
ATOM      3  C   UNL     1      20.544  10.971  15.826  1.00  0.00     0.238 A 
ATOM      4  O   UNL     1      20.684  11.026  14.576  1.00  0.00    -0.285 OA
ATOM      5  C   UNL     1      21.306  10.076  16.615  1.00  0.00     0.111 A 
ATOM      6  C   UNL     1      22.340   9.230  16.113  1.00  0.00     0.134 A 
ATOM      7  C   UNL     1      22.938   8.291  16.962  1.00  0.00     0.093 A 
ATOM      8  C   UNL     1      22.585   8.213  18.312  1.00  0.00     0.123 A 
ATOM      9  C   UNL     1      21.619   9.075  18.826  1.00  0.00     0.094 A 
ATOM     10  C   UNL     1      20.979   9.998  17.995  1.00  0.00     0.146 A 
ATOM     11  O   UNL     1      20.056  10.794  18.522  1.00  0.00    -0.452 OA
ENDROOT
BRANCH   1  12
ATOM     12  C   UNL     1      18.389  12.534  18.533  1.00  0.00     0.025 A 
ATOM     13  C   UNL     1      17.049  12.539  18.114  1.00  0.00     0.016 A 
ATOM     14  C   UNL     1      16.100  13.314  18.787  1.00  0.00     0.051 A 
ATOM     15  C   UNL     1      16.470  14.081  19.895  1.00  0.00     0.157 A 
ATOM     16  C   UNL     1      18.755  13.290  19.661  1.00  0.00     0.062 A 
ATOM     17  C   UNL     1      17.803  14.067  20.339  1.00  0.00     0.158 A 
BRANCH  15  18
ATOM     18  O   UNL     1      15.502  14.846  20.545  1.00  0.00    -0.504 OA
ATOM     19  H   UNL     1      15.563  15.855  20.603  1.00  0.00     0.293 HD
ENDBRANCH  15  18
BRANCH  17  20
ATOM     20  O   UNL     1      18.177  14.818  21.452  1.00  0.00    -0.504 OA
ATOM     21  H   UNL     1      18.772  15.634  21.367  1.00  0.00     0.293 HD
ENDBRANCH  17  20
ENDBRANCH   1  12
BRANCH   2  22
ATOM     22  O   UNL     1      18.798  12.662  15.668  1.00  0.00    -0.502 OA
ATOM     23  H   UNL     1      18.352  13.481  16.065  1.00  0.00     0.293 HD
ENDBRANCH   2  22
BRANCH   6  24
ATOM     24  O   UNL     1      22.830   9.291  14.806  1.00  0.00    -0.507 OA
ATOM     25  H   UNL     1      23.681   8.852  14.489  1.00  0.00     0.293 HD
ENDBRANCH   6  24
BRANCH   8  26
ATOM     26  O   UNL     1      23.196   7.286  19.154  1.00  0.00    -0.508 OA
ATOM     27  H   UNL     1      24.184   7.073  19.078  1.00  0.00     0.293 HD
ENDBRANCH   8  26
TORSDOF 6
ENDMDL
MODEL 4
REMARK VINA RESULT:    -7.065      1.937      2.069
REMARK INTER + INTRA:          -8.736
REMARK INTER:                  -8.889
REMARK INTRA:                   0.154
REMARK UNBOUND:                -0.226
REMARK SMILES O=c1c(O)c(-c2ccc(O)c(O)c2)oc2cc(O)cc(O)c12
REMARK SMILES IDX 5 1 3 2 2 3 1 4 22 5 20 6 19 7 17 8 16 9 15 10 14 11 6 12
REMARK SMILES IDX 7 13 8 14 9 15 13 16 11 17 10 18 12 20 4 22 21 24 18 26
REMARK H PARENT 10 19 12 21 4 23 21 25 18 27
REMARK Flexibility Score: inf
ROOT
ATOM      1  C   UNL     1      19.188  11.075  17.615  1.00  0.00     0.180 A 
ATOM      2  C   UNL     1      18.956  12.107  18.540  1.00  0.00     0.208 A 
ATOM      3  C   UNL     1      17.736  12.799  18.496  1.00  0.00     0.238 A 
ATOM      4  O   UNL     1      17.513  13.686  19.362  1.00  0.00    -0.285 OA
ATOM      5  C   UNL     1      16.769  12.463  17.518  1.00  0.00     0.111 A 
ATOM      6  C   UNL     1      15.515  13.125  17.356  1.00  0.00     0.134 A 
ATOM      7  C   UNL     1      14.582  12.623  16.441  1.00  0.00     0.093 A 
ATOM      8  C   UNL     1      14.884  11.522  15.634  1.00  0.00     0.123 A 
ATOM      9  C   UNL     1      16.129  10.906  15.743  1.00  0.00     0.094 A 
ATOM     10  C   UNL     1      17.066  11.361  16.674  1.00  0.00     0.146 A 
ATOM     11  O   UNL     1      18.236  10.738  16.752  1.00  0.00    -0.452 OA
ENDROOT
BRANCH   1  12
ATOM     12  C   UNL     1      20.459  10.316  17.583  1.00  0.00     0.025 A 
ATOM     13  C   UNL     1      21.040   9.890  18.788  1.00  0.00     0.016 A 
ATOM     14  C   UNL     1      22.229   9.155  18.780  1.00  0.00     0.051 A 
ATOM     15  C   UNL     1      22.845   8.821  17.570  1.00  0.00     0.157 A 
ATOM     16  C   UNL     1      21.070   9.961  16.366  1.00  0.00     0.062 A 
ATOM     17  C   UNL     1      22.262   9.222  16.356  1.00  0.00     0.158 A 
BRANCH  15  18
ATOM     18  O   UNL     1      24.031   8.089  17.594  1.00  0.00    -0.504 OA
ATOM     19  H   UNL     1      24.484   7.771  16.745  1.00  0.00     0.293 HD
ENDBRANCH  15  18
BRANCH  17  20
ATOM     20  O   UNL     1      22.863   8.880  15.146  1.00  0.00    -0.504 OA
ATOM     21  H   UNL     1      22.352   8.909  14.272  1.00  0.00     0.293 HD
ENDBRANCH  17  20
ENDBRANCH   1  12
BRANCH   2  22
ATOM     22  O   UNL     1      19.915  12.408  19.511  1.00  0.00    -0.502 OA
ATOM     23  H   UNL     1      20.033  11.852  20.349  1.00  0.00     0.293 HD
ENDBRANCH   2  22
BRANCH   6  24
ATOM     24  O   UNL     1      15.151  14.286  18.045  1.00  0.00    -0.507 OA
ATOM     25  H   UNL     1      15.747  15.089  18.173  1.00  0.00     0.293 HD
ENDBRANCH   6  24
BRANCH   8  26
ATOM     26  O   UNL     1      13.955  11.039  14.715  1.00  0.00    -0.508 OA
ATOM     27  H   UNL     1      12.958  11.133  14.869  1.00  0.00     0.293 HD
ENDBRANCH   8  26
TORSDOF 6
ENDMDL
MODEL 5
REMARK VINA RESULT:    -7.057      2.661      3.736
REMARK INTER + INTRA:          -8.726
REMARK INTER:                  -8.466
REMARK INTRA:                  -0.260
REMARK UNBOUND:                -0.226
REMARK SMILES O=c1c(O)c(-c2ccc(O)c(O)c2)oc2cc(O)cc(O)c12
REMARK SMILES IDX 5 1 3 2 2 3 1 4 22 5 20 6 19 7 17 8 16 9 15 10 14 11 6 12
REMARK SMILES IDX 7 13 8 14 9 15 13 16 11 17 10 18 12 20 4 22 21 24 18 26
REMARK H PARENT 10 19 12 21 4 23 21 25 18 27
REMARK Flexibility Score: inf
ROOT
ATOM      1  C   UNL     1      20.050  11.958  17.192  1.00  0.00     0.180 A 
ATOM      2  C   UNL     1      20.065  10.804  16.391  1.00  0.00     0.208 A 
ATOM      3  C   UNL     1      18.865  10.358  15.816  1.00  0.00     0.238 A 
ATOM      4  O   UNL     1      18.895   9.355  15.056  1.00  0.00    -0.285 OA
ATOM      5  C   UNL     1      17.661  11.061  16.062  1.00  0.00     0.111 A 
ATOM      6  C   UNL     1      16.380  10.675  15.564  1.00  0.00     0.134 A 
ATOM      7  C   UNL     1      15.280  11.518  15.762  1.00  0.00     0.093 A 
ATOM      8  C   UNL     1      15.401  12.701  16.497  1.00  0.00     0.123 A 
ATOM      9  C   UNL     1      16.635  13.055  17.038  1.00  0.00     0.094 A 
ATOM     10  C   UNL     1      17.759  12.253  16.827  1.00  0.00     0.146 A 
ATOM     11  O   UNL     1      18.917  12.634  17.351  1.00  0.00    -0.452 OA
ENDROOT
BRANCH   1  12
ATOM     12  C   UNL     1      21.270  12.476  17.852  1.00  0.00     0.025 A 
ATOM     13  C   UNL     1      21.835  13.683  17.410  1.00  0.00     0.016 A 
ATOM     14  C   UNL     1      22.975  14.200  18.032  1.00  0.00     0.051 A 
ATOM     15  C   UNL     1      23.556  13.530  19.113  1.00  0.00     0.157 A 
ATOM     16  C   UNL     1      21.844  11.815  18.953  1.00  0.00     0.062 A 
ATOM     17  C   UNL     1      22.986  12.334  19.580  1.00  0.00     0.158 A 
BRANCH  15  18
ATOM     18  O   UNL     1      24.694  14.070  19.712  1.00  0.00    -0.504 OA
ATOM     19  H   UNL     1      24.971  15.034  19.569  1.00  0.00     0.293 HD
ENDBRANCH  15  18
BRANCH  17  20
ATOM     20  O   UNL     1      23.552  11.668  20.666  1.00  0.00    -0.504 OA
ATOM     21  H   UNL     1      23.566  12.079  21.592  1.00  0.00     0.293 HD
ENDBRANCH  17  20
ENDBRANCH   1  12
BRANCH   2  22
ATOM     22  O   UNL     1      21.268  10.137  16.143  1.00  0.00    -0.502 OA
ATOM     23  H   UNL     1      21.614   9.970  15.206  1.00  0.00     0.293 HD
ENDBRANCH   2  22
BRANCH   6  24
ATOM     24  O   UNL     1      16.133   9.472  14.898  1.00  0.00    -0.507 OA
ATOM     25  H   UNL     1      16.796   8.995  14.307  1.00  0.00     0.293 HD
ENDBRANCH   6  24
BRANCH   8  26
ATOM     26  O   UNL     1      14.297  13.526  16.703  1.00  0.00    -0.508 OA
ATOM     27  H   UNL     1      13.385  13.293  16.327  1.00  0.00     0.293 HD
ENDBRANCH   8  26
TORSDOF 6
ENDMDL
MODEL 6
REMARK VINA RESULT:    -7.019      1.720      7.017
REMARK INTER + INTRA:          -8.681
REMARK INTER:                  -8.490
REMARK INTRA:                  -0.191
REMARK UNBOUND:                -0.226
REMARK SMILES O=c1c(O)c(-c2ccc(O)c(O)c2)oc2cc(O)cc(O)c12
REMARK SMILES IDX 5 1 3 2 2 3 1 4 22 5 20 6 19 7 17 8 16 9 15 10 14 11 6 12
REMARK SMILES IDX 7 13 8 14 9 15 13 16 11 17 10 18 12 20 4 22 21 24 18 26
REMARK H PARENT 10 19 12 21 4 23 21 25 18 27
REMARK Flexibility Score: inf
ROOT
ATOM      1  C   UNL     1      18.615  11.126  16.570  1.00  0.00     0.180 A 
ATOM      2  C   UNL     1      18.841  11.494  17.908  1.00  0.00     0.208 A 
ATOM      3  C   UNL     1      20.004  11.044  18.551  1.00  0.00     0.238 A 
ATOM      4  O   UNL     1      20.227  11.421  19.731  1.00  0.00    -0.285 OA
ATOM      5  C   UNL     1      20.920  10.218  17.855  1.00  0.00     0.111 A 
ATOM      6  C   UNL     1      22.111   9.672  18.421  1.00  0.00     0.134 A 
ATOM      7  C   UNL     1      23.009   8.977  17.602  1.00  0.00     0.093 A 
ATOM      8  C   UNL     1      22.727   8.752  16.251  1.00  0.00     0.123 A 
ATOM      9  C   UNL     1      21.538   9.230  15.704  1.00  0.00     0.094 A 
ATOM     10  C   UNL     1      20.640   9.959  16.488  1.00  0.00     0.146 A 
ATOM     11  O   UNL     1      19.525  10.406  15.924  1.00  0.00    -0.452 OA
ENDROOT
BRANCH   1  12
ATOM     12  C   UNL     1      17.400  11.541  15.833  1.00  0.00     0.025 A 
ATOM     13  C   UNL     1      16.426  10.582  15.512  1.00  0.00     0.016 A 
ATOM     14  C   UNL     1      15.262  10.956  14.834  1.00  0.00     0.051 A 
ATOM     15  C   UNL     1      15.045  12.292  14.484  1.00  0.00     0.157 A 
ATOM     16  C   UNL     1      17.170  12.888  15.499  1.00  0.00     0.062 A 
ATOM     17  C   UNL     1      16.001  13.265  14.821  1.00  0.00     0.158 A 
BRANCH  15  18
ATOM     18  O   UNL     1      13.875  12.634  13.808  1.00  0.00    -0.504 OA
ATOM     19  H   UNL     1      13.844  13.392  13.136  1.00  0.00     0.293 HD
ENDBRANCH  15  18
BRANCH  17  20
ATOM     20  O   UNL     1      15.785  14.601  14.487  1.00  0.00    -0.504 OA
ATOM     21  H   UNL     1      15.180  14.866  13.719  1.00  0.00     0.293 HD
ENDBRANCH  17  20
ENDBRANCH   1  12
BRANCH   2  22
ATOM     22  O   UNL     1      17.934  12.327  18.570  1.00  0.00    -0.502 OA
ATOM     23  H   UNL     1      18.231  13.046  19.219  1.00  0.00     0.293 HD
ENDBRANCH   2  22
BRANCH   6  24
ATOM     24  O   UNL     1      22.442   9.760  19.776  1.00  0.00    -0.507 OA
ATOM     25  H   UNL     1      23.218  10.286  20.146  1.00  0.00     0.293 HD
ENDBRANCH   6  24
BRANCH   8  26
ATOM     26  O   UNL     1      23.619   8.046  15.447  1.00  0.00    -0.508 OA
ATOM     27  H   UNL     1      24.621   8.168  15.533  1.00  0.00     0.293 HD
ENDBRANCH   8  26
TORSDOF 6
ENDMDL
MODEL 7
REMARK VINA RESULT:    -6.891      2.572      3.217
REMARK INTER + INTRA:          -8.526
REMARK INTER:                  -8.693
REMARK INTRA:                   0.167
REMARK UNBOUND:                -0.226
REMARK SMILES O=c1c(O)c(-c2ccc(O)c(O)c2)oc2cc(O)cc(O)c12
REMARK SMILES IDX 5 1 3 2 2 3 1 4 22 5 20 6 19 7 17 8 16 9 15 10 14 11 6 12
REMARK SMILES IDX 7 13 8 14 9 15 13 16 11 17 10 18 12 20 4 22 21 24 18 26
REMARK H PARENT 10 19 12 21 4 23 21 25 18 27
REMARK Flexibility Score: inf
ROOT
ATOM      1  C   UNL     1      19.473  11.175  17.326  1.00  0.00     0.180 A 
ATOM      2  C   UNL     1      18.448  11.340  16.379  1.00  0.00     0.208 A 
ATOM      3  C   UNL     1      17.364  12.176  16.687  1.00  0.00     0.238 A 
ATOM      4  O   UNL     1      16.477  12.363  15.814  1.00  0.00    -0.285 OA
ATOM      5  C   UNL     1      17.308  12.823  17.945  1.00  0.00     0.111 A 
ATOM      6  C   UNL     1      16.236  13.661  18.379  1.00  0.00     0.134 A 
ATOM      7  C   UNL     1      16.349  14.354  19.591  1.00  0.00     0.093 A 
ATOM      8  C   UNL     1      17.465  14.188  20.415  1.00  0.00     0.123 A 
ATOM      9  C   UNL     1      18.489  13.326  20.027  1.00  0.00     0.094 A 
ATOM     10  C   UNL     1      18.422  12.649  18.807  1.00  0.00     0.146 A 
ATOM     11  O   UNL     1      19.425  11.847  18.471  1.00  0.00    -0.452 OA
ENDROOT
BRANCH   1  12
ATOM     12  C   UNL     1      20.635  10.291  17.084  1.00  0.00     0.025 A 
ATOM     13  C   UNL     1      21.262  10.304  15.827  1.00  0.00     0.016 A 
ATOM     14  C   UNL     1      22.374   9.493  15.583  1.00  0.00     0.051 A 
ATOM     15  C   UNL     1      22.885   8.671  16.592  1.00  0.00     0.157 A 
ATOM     16  C   UNL     1      21.164   9.479  18.103  1.00  0.00     0.062 A 
ATOM     17  C   UNL     1      22.281   8.666  17.860  1.00  0.00     0.158 A 
BRANCH  15  18
ATOM     18  O   UNL     1      23.994   7.871  16.318  1.00  0.00    -0.504 OA
ATOM     19  H   UNL     1      24.921   8.262  16.190  1.00  0.00     0.293 HD
ENDBRANCH  15  18
BRANCH  17  20
ATOM     20  O   UNL     1      22.794   7.860  18.875  1.00  0.00    -0.504 OA
ATOM     21  H   UNL     1      23.457   8.217  19.553  1.00  0.00     0.293 HD
ENDBRANCH  17  20
ENDBRANCH   1  12
BRANCH   2  22
ATOM     22  O   UNL     1      18.533  10.709  15.135  1.00  0.00    -0.502 OA
ATOM     23  H   UNL     1      18.116  11.099  14.298  1.00  0.00     0.293 HD
ENDBRANCH   2  22
BRANCH   6  24
ATOM     24  O   UNL     1      15.039  13.823  17.677  1.00  0.00    -0.507 OA
ATOM     25  H   UNL     1      14.945  14.331  16.811  1.00  0.00     0.293 HD
ENDBRANCH   6  24
BRANCH   8  26
ATOM     26  O   UNL     1      17.562  14.869  21.627  1.00  0.00    -0.508 OA
ATOM     27  H   UNL     1      16.741  15.082  22.182  1.00  0.00     0.293 HD
ENDBRANCH   8  26
TORSDOF 6
ENDMDL
MODEL 8
REMARK VINA RESULT:    -6.805      1.729      6.984
REMARK INTER + INTRA:          -8.423
REMARK INTER:                  -8.124
REMARK INTRA:                  -0.299
REMARK UNBOUND:                -0.226
REMARK SMILES O=c1c(O)c(-c2ccc(O)c(O)c2)oc2cc(O)cc(O)c12
REMARK SMILES IDX 5 1 3 2 2 3 1 4 22 5 20 6 19 7 17 8 16 9 15 10 14 11 6 12
REMARK SMILES IDX 7 13 8 14 9 15 13 16 11 17 10 18 12 20 4 22 21 24 18 26
REMARK H PARENT 10 19 12 21 4 23 21 25 18 27
REMARK Flexibility Score: inf
ROOT
ATOM      1  C   UNL     1      18.552  11.570  16.745  1.00  0.00     0.180 A 
ATOM      2  C   UNL     1      18.887  12.000  18.041  1.00  0.00     0.208 A 
ATOM      3  C   UNL     1      20.063  11.518  18.635  1.00  0.00     0.238 A 
ATOM      4  O   UNL     1      20.385  11.949  19.774  1.00  0.00    -0.285 OA
ATOM      5  C   UNL     1      20.881  10.600  17.935  1.00  0.00     0.111 A 
ATOM      6  C   UNL     1      22.075  10.015  18.458  1.00  0.00     0.134 A 
ATOM      7  C   UNL     1      22.875   9.220  17.627  1.00  0.00     0.093 A 
ATOM      8  C   UNL     1      22.491   8.935  16.314  1.00  0.00     0.123 A 
ATOM      9  C   UNL     1      21.297   9.453  15.815  1.00  0.00     0.094 A 
ATOM     10  C   UNL     1      20.496  10.279  16.607  1.00  0.00     0.146 A 
ATOM     11  O   UNL     1      19.373  10.759  16.089  1.00  0.00    -0.452 OA
ENDROOT
BRANCH   1  12
ATOM     12  C   UNL     1      17.316  12.015  16.063  1.00  0.00     0.025 A 
ATOM     13  C   UNL     1      17.301  13.251  15.396  1.00  0.00     0.016 A 
ATOM     14  C   UNL     1      16.152  13.681  14.727  1.00  0.00     0.051 A 
ATOM     15  C   UNL     1      15.008  12.878  14.700  1.00  0.00     0.157 A 
ATOM     16  C   UNL     1      16.170  11.200  16.016  1.00  0.00     0.062 A 
ATOM     17  C   UNL     1      15.017  11.629  15.344  1.00  0.00     0.158 A 
BRANCH  15  18
ATOM     18  O   UNL     1      13.875  13.334  14.027  1.00  0.00    -0.504 OA
ATOM     19  H   UNL     1      13.223  12.701  13.579  1.00  0.00     0.293 HD
ENDBRANCH  15  18
BRANCH  17  20
ATOM     20  O   UNL     1      13.884  10.817  15.309  1.00  0.00    -0.504 OA
ATOM     21  H   UNL     1      13.717  10.107  16.012  1.00  0.00     0.293 HD
ENDBRANCH  17  20
ENDBRANCH   1  12
BRANCH   2  22
ATOM     22  O   UNL     1      18.076  12.924  18.706  1.00  0.00    -0.502 OA
ATOM     23  H   UNL     1      18.069  13.015  19.714  1.00  0.00     0.293 HD
ENDBRANCH   2  22
BRANCH   6  24
ATOM     24  O   UNL     1      22.500  10.161  19.781  1.00  0.00    -0.507 OA
ATOM     25  H   UNL     1      22.670  11.044  20.236  1.00  0.00     0.293 HD
ENDBRANCH   6  24
BRANCH   8  26
ATOM     26  O   UNL     1      23.285   8.130  15.500  1.00  0.00    -0.508 OA
ATOM     27  H   UNL     1      23.660   7.249  15.831  1.00  0.00     0.293 HD
ENDBRANCH   8  26
TORSDOF 6
ENDMDL
MODEL 9
REMARK VINA RESULT:    -6.538      2.599      3.378
REMARK INTER + INTRA:          -8.102
REMARK INTER:                  -7.969
REMARK INTRA:                  -0.133
REMARK UNBOUND:                -0.226
REMARK SMILES O=c1c(O)c(-c2ccc(O)c(O)c2)oc2cc(O)cc(O)c12
REMARK SMILES IDX 5 1 3 2 2 3 1 4 22 5 20 6 19 7 17 8 16 9 15 10 14 11 6 12
REMARK SMILES IDX 7 13 8 14 9 15 13 16 11 17 10 18 12 20 4 22 21 24 18 26
REMARK H PARENT 10 19 12 21 4 23 21 25 18 27
REMARK Flexibility Score: inf
ROOT
ATOM      1  C   UNL     1      18.640  11.971  17.923  1.00  0.00     0.180 A 
ATOM      2  C   UNL     1      17.691  12.819  18.517  1.00  0.00     0.208 A 
ATOM      3  C   UNL     1      16.424  12.944  17.926  1.00  0.00     0.238 A 
ATOM      4  O   UNL     1      15.560  13.663  18.493  1.00  0.00    -0.285 OA
ATOM      5  C   UNL     1      16.128  12.235  16.737  1.00  0.00     0.111 A 
ATOM      6  C   UNL     1      14.891  12.318  16.029  1.00  0.00     0.134 A 
ATOM      7  C   UNL     1      14.661  11.471  14.938  1.00  0.00     0.093 A 
ATOM      8  C   UNL     1      15.649  10.591  14.488  1.00  0.00     0.123 A 
ATOM      9  C   UNL     1      16.882  10.545  15.137  1.00  0.00     0.094 A 
ATOM     10  C   UNL     1      17.127  11.352  16.251  1.00  0.00     0.146 A 
ATOM     11  O   UNL     1      18.311  11.268  16.845  1.00  0.00    -0.452 OA
ENDROOT
BRANCH   1  12
ATOM     12  C   UNL     1      20.004  11.807  18.474  1.00  0.00     0.025 A 
ATOM     13  C   UNL     1      20.855  12.921  18.558  1.00  0.00     0.016 A 
ATOM     14  C   UNL     1      22.139  12.792  19.094  1.00  0.00     0.051 A 
ATOM     15  C   UNL     1      22.586  11.555  19.569  1.00  0.00     0.157 A 
ATOM     16  C   UNL     1      20.449  10.568  18.973  1.00  0.00     0.062 A 
ATOM     17  C   UNL     1      21.736  10.438  19.513  1.00  0.00     0.158 A 
BRANCH  15  18
ATOM     18  O   UNL     1      23.873  11.457  20.097  1.00  0.00    -0.504 OA
ATOM     19  H   UNL     1      24.529  12.229  20.063  1.00  0.00     0.293 HD
ENDBRANCH  15  18
BRANCH  17  20
ATOM     20  O   UNL     1      22.170   9.205  19.998  1.00  0.00    -0.504 OA
ATOM     21  H   UNL     1      22.103   8.362  19.441  1.00  0.00     0.293 HD
ENDBRANCH  17  20
ENDBRANCH   1  12
BRANCH   2  22
ATOM     22  O   UNL     1      17.996  13.494  19.703  1.00  0.00    -0.502 OA
ATOM     23  H   UNL     1      18.738  13.193  20.324  1.00  0.00     0.293 HD
ENDBRANCH   2  22
BRANCH   6  24
ATOM     24  O   UNL     1      13.876  13.227  16.339  1.00  0.00    -0.507 OA
ATOM     25  H   UNL     1      13.652  14.047  15.796  1.00  0.00     0.293 HD
ENDBRANCH   6  24
BRANCH   8  26
ATOM     26  O   UNL     1      15.418   9.763  13.392  1.00  0.00    -0.508 OA
ATOM     27  H   UNL     1      16.130   9.605  12.688  1.00  0.00     0.293 HD
ENDBRANCH   8  26
TORSDOF 6
ENDMDL
