MODEL 1
REMARK VINA RESULT:    -2.812      0.000      0.000
REMARK INTER + INTRA:         -12.982
REMARK INTER:                  -7.414
REMARK INTRA:                  -5.568
REMARK UNBOUND:                -5.568
REMARK SMILES CCCCCCCCCCCCCCCCCCCCCCCCCCCCCC(=O)[O-]
REMARK SMILES IDX 16 1 17 2 18 3 19 4 20 5 21 6 22 7 23 8 24 9 25 10 26 11
REMARK SMILES IDX 27 12 28 13 29 14 30 15 31 16 32 17 15 18 14 19 13 20 12 21
REMARK SMILES IDX 11 22 10 23 9 24 8 25 7 26 6 27 5 28 4 29 3 30 2 31 1 32
REMARK H PARENT
REMARK Flexibility Score: inf
ROOT
ATOM      1  C   UNL     1      95.711  64.771 227.211  1.00  0.00     0.000 C 
ENDROOT
BRANCH   1   2
ATOM      2  C   UNL     1      95.350  65.677 226.018  1.00  0.00     0.000 C 
BRANCH   2   3
ATOM      3  C   UNL     1      96.291  65.570 224.804  1.00  0.00     0.000 C 
BRANCH   3   4
ATOM      4  C   UNL     1      97.455  64.589 225.026  1.00  0.00     0.000 C 
BRANCH   4   5
ATOM      5  C   UNL     1      98.821  65.295 225.047  1.00  0.00     0.000 C 
BRANCH   5   6
ATOM      6  C   UNL     1      98.701  66.817 225.219  1.00  0.00     0.000 C 
BRANCH   6   7
ATOM      7  C   UNL     1     100.014  67.415 225.747  1.00  0.00     0.000 C 
BRANCH   7   8
ATOM      8  C   UNL     1      99.855  68.093 227.118  1.00  0.00     0.000 C 
BRANCH   8   9
ATOM      9  C   UNL     1     100.668  67.393 228.220  1.00  0.00     0.000 C 
BRANCH   9  10
ATOM     10  C   UNL     1      99.831  66.393 229.039  1.00  0.00     0.000 C 
BRANCH  10  11
ATOM     11  C   UNL     1     100.435  64.982 229.166  1.00  0.00     0.000 C 
BRANCH  11  12
ATOM     12  C   UNL     1     100.263  64.137 227.893  1.00  0.00     0.000 C 
BRANCH  12  13
ATOM     13  C   UNL     1     101.558  63.413 227.487  1.00  0.00     0.006 C 
BRANCH  13  14
ATOM     14  C   UNL     1     101.531  62.954 226.023  1.00  0.00     0.053 C 
BRANCH  14  15
ATOM     15  C   UNL     1     102.456  63.787 225.190  1.00  0.00     0.041 C 
ATOM     16  O   UNL     1     101.991  64.646 224.396  1.00  0.00    -0.550 OA
ATOM     17  O   UNL     1     103.831  63.602 225.277  1.00  0.00    -0.550 OA
ENDBRANCH  14  15
ENDBRANCH  13  14
ENDBRANCH  12  13
ENDBRANCH  11  12
ENDBRANCH  10  11
ENDBRANCH   9  10
ENDBRANCH   8   9
ENDBRANCH   7   8
ENDBRANCH   6   7
ENDBRANCH   5   6
ENDBRANCH   4   5
ENDBRANCH   3   4
ENDBRANCH   2   3
ENDBRANCH   1   2
BRANCH   1  18
ATOM     18  C   UNL     1      96.383  65.537 228.365  1.00  0.00     0.000 C 
BRANCH  18  19
ATOM     19  C   UNL     1      96.351  67.068 228.169  1.00  0.00     0.000 C 
BRANCH  19  20
ATOM     20  C   UNL     1      96.525  67.870 229.472  1.00  0.00     0.000 C 
BRANCH  20  21
ATOM     21  C   UNL     1      95.982  67.185 230.740  1.00  0.00     0.000 C 
BRANCH  21  22
ATOM     22  C   UNL     1      96.977  67.109 231.918  1.00  0.00     0.000 C 
BRANCH  22  23
ATOM     23  C   UNL     1      97.134  65.712 232.551  1.00  0.00     0.000 C 
BRANCH  23  24
ATOM     24  C   UNL     1      98.117  64.774 231.823  1.00  0.00    -0.000 C 
BRANCH  24  25
ATOM     25  C   UNL     1      97.456  63.600 231.078  1.00  0.00    -0.000 C 
BRANCH  25  26
ATOM     26  C   UNL     1      98.293  62.311 231.145  1.00  0.00    -0.000 C 
BRANCH  26  27
ATOM     27  C   UNL     1      97.758  61.210 230.216  1.00  0.00    -0.000 C 
BRANCH  27  28
ATOM     28  C   UNL     1      97.649  61.668 228.755  1.00  0.00    -0.000 C 
BRANCH  28  29
ATOM     29  C   UNL     1      98.689  60.955 227.879  1.00  0.00    -0.000 C 
BRANCH  29  30
ATOM     30  C   UNL     1      98.276  59.502 227.602  1.00  0.00    -0.000 C 
BRANCH  30  31
ATOM     31  C   UNL     1      99.446  58.648 227.085  1.00  0.00    -0.003 C 
ATOM     32  C   UNL     1     100.788  59.371 227.170  1.00  0.00     0.004 C 
ENDBRANCH  30  31
ENDBRANCH  29  30
ENDBRANCH  28  29
ENDBRANCH  27  28
ENDBRANCH  26  27
ENDBRANCH  25  26
ENDBRANCH  24  25
ENDBRANCH  23  24
ENDBRANCH  22  23
ENDBRANCH  21  22
ENDBRANCH  20  21
ENDBRANCH  19  20
ENDBRANCH  18  19
ENDBRANCH   1  18
TORSDOF 28
ENDMDL
MODEL 2
REMARK VINA RESULT:    -2.810      1.560      4.983
REMARK INTER + INTRA:         -12.976
REMARK INTER:                  -6.746
REMARK INTRA:                  -6.231
REMARK UNBOUND:                -5.568
REMARK SMILES CCCCCCCCCCCCCCCCCCCCCCCCCCCCCC(=O)[O-]
REMARK SMILES IDX 16 1 17 2 18 3 19 4 20 5 21 6 22 7 23 8 24 9 25 10 26 11
REMARK SMILES IDX 27 12 28 13 29 14 30 15 31 16 32 17 15 18 14 19 13 20 12 21
REMARK SMILES IDX 11 22 10 23 9 24 8 25 7 26 6 27 5 28 4 29 3 30 2 31 1 32
REMARK H PARENT
REMARK Flexibility Score: inf
ROOT
ATOM      1  C   UNL     1      96.165  64.991 226.178  1.00  0.00     0.000 C 
ENDROOT
BRANCH   1   2
ATOM      2  C   UNL     1      97.110  64.733 224.988  1.00  0.00     0.000 C 
BRANCH   2   3
ATOM      3  C   UNL     1      98.611  64.876 225.300  1.00  0.00     0.000 C 
BRANCH   3   4
ATOM      4  C   UNL     1      99.105  63.881 226.364  1.00  0.00     0.000 C 
BRANCH   4   5
ATOM      5  C   UNL     1      99.678  64.584 227.605  1.00  0.00     0.000 C 
BRANCH   5   6
ATOM      6  C   UNL     1      99.027  64.107 228.913  1.00  0.00     0.000 C 
BRANCH   6   7
ATOM      7  C   UNL     1      97.836  63.180 228.626  1.00  0.00     0.000 C 
BRANCH   7   8
ATOM      8  C   UNL     1      98.020  61.769 229.209  1.00  0.00     0.000 C 
BRANCH   8   9
ATOM      9  C   UNL     1      98.316  60.717 228.125  1.00  0.00     0.000 C 
BRANCH   9  10
ATOM     10  C   UNL     1      99.822  60.522 227.874  1.00  0.00     0.000 C 
BRANCH  10  11
ATOM     11  C   UNL     1     100.731  60.787 229.088  1.00  0.00     0.000 C 
BRANCH  11  12
ATOM     12  C   UNL     1     102.161  61.190 228.693  1.00  0.00     0.000 C 
BRANCH  12  13
ATOM     13  C   UNL     1     102.208  61.978 227.373  1.00  0.00     0.006 C 
BRANCH  13  14
ATOM     14  C   UNL     1     103.080  63.236 227.479  1.00  0.00     0.053 C 
BRANCH  14  15
ATOM     15  C   UNL     1     103.416  63.765 226.119  1.00  0.00     0.041 C 
ATOM     16  O   UNL     1     102.578  64.459 225.487  1.00  0.00    -0.550 OA
ATOM     17  O   UNL     1     104.647  63.475 225.542  1.00  0.00    -0.550 OA
ENDBRANCH  14  15
ENDBRANCH  13  14
ENDBRANCH  12  13
ENDBRANCH  11  12
ENDBRANCH  10  11
ENDBRANCH   9  10
ENDBRANCH   8   9
ENDBRANCH   7   8
ENDBRANCH   6   7
ENDBRANCH   5   6
ENDBRANCH   4   5
ENDBRANCH   3   4
ENDBRANCH   2   3
ENDBRANCH   1   2
BRANCH   1  18
ATOM     18  C   UNL     1      95.142  66.107 225.902  1.00  0.00     0.000 C 
BRANCH  18  19
ATOM     19  C   UNL     1      95.087  66.516 224.414  1.00  0.00     0.000 C 
BRANCH  19  20
ATOM     20  C   UNL     1      95.435  67.995 224.158  1.00  0.00     0.000 C 
BRANCH  20  21
ATOM     21  C   UNL     1      96.343  68.647 225.218  1.00  0.00     0.000 C 
BRANCH  21  22
ATOM     22  C   UNL     1      97.856  68.519 224.948  1.00  0.00     0.000 C 
BRANCH  22  23
ATOM     23  C   UNL     1      98.738  68.415 226.208  1.00  0.00     0.000 C 
BRANCH  23  24
ATOM     24  C   UNL     1      98.051  67.781 227.433  1.00  0.00    -0.000 C 
BRANCH  24  25
ATOM     25  C   UNL     1      98.484  68.367 228.790  1.00  0.00    -0.000 C 
BRANCH  25  26
ATOM     26  C   UNL     1      97.782  67.686 229.978  1.00  0.00    -0.000 C 
BRANCH  26  27
ATOM     27  C   UNL     1      96.450  67.032 229.583  1.00  0.00    -0.000 C 
BRANCH  27  28
ATOM     28  C   UNL     1      96.062  65.869 230.508  1.00  0.00    -0.000 C 
BRANCH  28  29
ATOM     29  C   UNL     1      97.091  65.703 231.636  1.00  0.00    -0.000 C 
BRANCH  29  30
ATOM     30  C   UNL     1      97.146  64.248 232.125  1.00  0.00    -0.000 C 
BRANCH  30  31
ATOM     31  C   UNL     1      98.503  63.890 232.752  1.00  0.00    -0.003 C 
ATOM     32  C   UNL     1      99.528  65.015 232.625  1.00  0.00     0.004 C 
ENDBRANCH  30  31
ENDBRANCH  29  30
ENDBRANCH  28  29
ENDBRANCH  27  28
ENDBRANCH  26  27
ENDBRANCH  25  26
ENDBRANCH  24  25
ENDBRANCH  23  24
ENDBRANCH  22  23
ENDBRANCH  21  22
ENDBRANCH  20  21
ENDBRANCH  19  20
ENDBRANCH  18  19
ENDBRANCH   1  18
TORSDOF 28
ENDMDL
MODEL 3
REMARK VINA RESULT:    -2.788      7.923     10.955
REMARK INTER + INTRA:         -12.919
REMARK INTER:                  -6.607
REMARK INTRA:                  -6.312
REMARK UNBOUND:                -5.568
REMARK SMILES CCCCCCCCCCCCCCCCCCCCCCCCCCCCCC(=O)[O-]
REMARK SMILES IDX 16 1 17 2 18 3 19 4 20 5 21 6 22 7 23 8 24 9 25 10 26 11
REMARK SMILES IDX 27 12 28 13 29 14 30 15 31 16 32 17 15 18 14 19 13 20 12 21
REMARK SMILES IDX 11 22 10 23 9 24 8 25 7 26 6 27 5 28 4 29 3 30 2 31 1 32
REMARK H PARENT
REMARK Flexibility Score: inf
ROOT
ATOM      1  C   UNL     1      99.711  56.767 225.915  1.00  0.00     0.000 C 
ENDROOT
BRANCH   1   2
ATOM      2  C   UNL     1      99.858  57.569 224.608  1.00  0.00     0.000 C 
BRANCH   2   3
ATOM      3  C   UNL     1     100.544  56.820 223.452  1.00  0.00     0.000 C 
BRANCH   3   4
ATOM      4  C   UNL     1      99.702  56.793 222.164  1.00  0.00     0.000 C 
BRANCH   4   5
ATOM      5  C   UNL     1      98.708  57.964 222.089  1.00  0.00     0.000 C 
BRANCH   5   6
ATOM      6  C   UNL     1      97.253  57.498 221.924  1.00  0.00     0.000 C 
BRANCH   6   7
ATOM      7  C   UNL     1      97.155  55.967 222.000  1.00  0.00     0.000 C 
BRANCH   7   8
ATOM      8  C   UNL     1      96.072  55.389 221.075  1.00  0.00     0.000 C 
BRANCH   8   9
ATOM      9  C   UNL     1      95.989  56.130 219.729  1.00  0.00     0.000 C 
BRANCH   9  10
ATOM     10  C   UNL     1      96.630  55.344 218.570  1.00  0.00     0.000 C 
BRANCH  10  11
ATOM     11  C   UNL     1      97.668  56.125 217.743  1.00  0.00     0.000 C 
BRANCH  11  12
ATOM     12  C   UNL     1      98.802  56.713 218.599  1.00  0.00     0.000 C 
BRANCH  12  13
ATOM     13  C   UNL     1      99.426  57.970 217.969  1.00  0.00     0.006 C 
BRANCH  13  14
ATOM     14  C   UNL     1     100.746  58.363 218.645  1.00  0.00     0.053 C 
BRANCH  14  15
ATOM     15  C   UNL     1     100.610  59.677 219.349  1.00  0.00     0.041 C 
ATOM     16  O   UNL     1      99.470  60.167 219.557  1.00  0.00    -0.550 OA
ATOM     17  O   UNL     1     101.744  60.370 219.759  1.00  0.00    -0.550 OA
ENDBRANCH  14  15
ENDBRANCH  13  14
ENDBRANCH  12  13
ENDBRANCH  11  12
ENDBRANCH  10  11
ENDBRANCH   9  10
ENDBRANCH   8   9
ENDBRANCH   7   8
ENDBRANCH   6   7
ENDBRANCH   5   6
ENDBRANCH   4   5
ENDBRANCH   3   4
ENDBRANCH   2   3
ENDBRANCH   1   2
BRANCH   1  18
ATOM     18  C   UNL     1      98.281  56.802 226.485  1.00  0.00     0.000 C 
BRANCH  18  19
ATOM     19  C   UNL     1      97.388  57.858 225.800  1.00  0.00     0.000 C 
BRANCH  19  20
ATOM     20  C   UNL     1      96.022  57.318 225.336  1.00  0.00     0.000 C 
BRANCH  20  21
ATOM     21  C   UNL     1      95.638  55.937 225.900  1.00  0.00     0.000 C 
BRANCH  21  22
ATOM     22  C   UNL     1      95.203  54.899 224.845  1.00  0.00     0.000 C 
BRANCH  22  23
ATOM     23  C   UNL     1      95.849  53.507 224.994  1.00  0.00     0.000 C 
BRANCH  23  24
ATOM     24  C   UNL     1      96.961  53.415 226.057  1.00  0.00    -0.000 C 
BRANCH  24  25
ATOM     25  C   UNL     1      98.354  53.062 225.504  1.00  0.00    -0.000 C 
BRANCH  25  26
ATOM     26  C   UNL     1      98.629  53.712 224.137  1.00  0.00    -0.000 C 
BRANCH  26  27
ATOM     27  C   UNL     1      98.997  52.684 223.057  1.00  0.00    -0.000 C 
BRANCH  27  28
ATOM     28  C   UNL     1     100.125  53.171 222.135  1.00  0.00    -0.000 C 
BRANCH  28  29
ATOM     29  C   UNL     1     101.486  52.640 222.609  1.00  0.00    -0.000 C 
BRANCH  29  30
ATOM     30  C   UNL     1     102.486  53.787 222.815  1.00  0.00    -0.000 C 
BRANCH  30  31
ATOM     31  C   UNL     1     103.121  53.767 224.215  1.00  0.00    -0.003 C 
ATOM     32  C   UNL     1     102.095  53.940 225.332  1.00  0.00     0.004 C 
ENDBRANCH  30  31
ENDBRANCH  29  30
ENDBRANCH  28  29
ENDBRANCH  27  28
ENDBRANCH  26  27
ENDBRANCH  25  26
ENDBRANCH  24  25
ENDBRANCH  23  24
ENDBRANCH  22  23
ENDBRANCH  21  22
ENDBRANCH  20  21
ENDBRANCH  19  20
ENDBRANCH  18  19
ENDBRANCH   1  18
TORSDOF 28
ENDMDL
MODEL 4
REMARK VINA RESULT:    -2.773      1.403      3.477
REMARK INTER + INTRA:         -12.881
REMARK INTER:                  -6.468
REMARK INTRA:                  -6.413
REMARK UNBOUND:                -5.568
REMARK SMILES CCCCCCCCCCCCCCCCCCCCCCCCCCCCCC(=O)[O-]
REMARK SMILES IDX 16 1 17 2 18 3 19 4 20 5 21 6 22 7 23 8 24 9 25 10 26 11
REMARK SMILES IDX 27 12 28 13 29 14 30 15 31 16 32 17 15 18 14 19 13 20 12 21
REMARK SMILES IDX 11 22 10 23 9 24 8 25 7 26 6 27 5 28 4 29 3 30 2 31 1 32
REMARK H PARENT
REMARK Flexibility Score: inf
ROOT
ATOM      1  C   UNL     1      97.446  64.240 226.663  1.00  0.00     0.000 C 
ENDROOT
BRANCH   1   2
ATOM      2  C   UNL     1      97.512  64.555 225.156  1.00  0.00     0.000 C 
BRANCH   2   3
ATOM      3  C   UNL     1      96.405  65.487 224.632  1.00  0.00     0.000 C 
BRANCH   3   4
ATOM      4  C   UNL     1      95.507  66.048 225.748  1.00  0.00     0.000 C 
BRANCH   4   5
ATOM      5  C   UNL     1      95.272  67.561 225.609  1.00  0.00     0.000 C 
BRANCH   5   6
ATOM      6  C   UNL     1      95.393  68.307 226.947  1.00  0.00     0.000 C 
BRANCH   6   7
ATOM      7  C   UNL     1      96.053  67.419 228.013  1.00  0.00     0.000 C 
BRANCH   7   8
ATOM      8  C   UNL     1      96.540  68.213 229.236  1.00  0.00     0.000 C 
BRANCH   8   9
ATOM      9  C   UNL     1      98.068  68.159 229.405  1.00  0.00     0.000 C 
BRANCH   9  10
ATOM     10  C   UNL     1      98.824  68.844 228.251  1.00  0.00     0.000 C 
BRANCH  10  11
ATOM     11  C   UNL     1      99.694  67.909 227.390  1.00  0.00     0.000 C 
BRANCH  11  12
ATOM     12  C   UNL     1      99.176  67.761 225.950  1.00  0.00     0.000 C 
BRANCH  12  13
ATOM     13  C   UNL     1     100.230  67.160 225.004  1.00  0.00     0.006 C 
BRANCH  13  14
ATOM     14  C   UNL     1     101.327  66.403 225.766  1.00  0.00     0.053 C 
BRANCH  14  15
ATOM     15  C   UNL     1     101.630  65.097 225.099  1.00  0.00     0.041 C 
ATOM     16  O   UNL     1     100.866  64.653 224.202  1.00  0.00    -0.550 OA
ATOM     17  O   UNL     1     102.745  64.360 225.480  1.00  0.00    -0.550 OA
ENDBRANCH  14  15
ENDBRANCH  13  14
ENDBRANCH  12  13
ENDBRANCH  11  12
ENDBRANCH  10  11
ENDBRANCH   9  10
ENDBRANCH   8   9
ENDBRANCH   7   8
ENDBRANCH   6   7
ENDBRANCH   5   6
ENDBRANCH   4   5
ENDBRANCH   3   4
ENDBRANCH   2   3
ENDBRANCH   1   2
BRANCH   1  18
ATOM     18  C   UNL     1      98.827  64.262 227.344  1.00  0.00     0.000 C 
BRANCH  18  19
ATOM     19  C   UNL     1      98.756  64.667 228.832  1.00  0.00     0.000 C 
BRANCH  19  20
ATOM     20  C   UNL     1      97.384  64.412 229.486  1.00  0.00     0.000 C 
BRANCH  20  21
ATOM     21  C   UNL     1      97.323  64.674 231.002  1.00  0.00     0.000 C 
BRANCH  21  22
ATOM     22  C   UNL     1      97.496  63.422 231.888  1.00  0.00     0.000 C 
BRANCH  22  23
ATOM     23  C   UNL     1      98.617  62.460 231.447  1.00  0.00     0.000 C 
BRANCH  23  24
ATOM     24  C   UNL     1      98.274  60.962 231.569  1.00  0.00    -0.000 C 
BRANCH  24  25
ATOM     25  C   UNL     1      97.485  60.383 230.381  1.00  0.00    -0.000 C 
BRANCH  25  26
ATOM     26  C   UNL     1      97.868  61.036 229.042  1.00  0.00    -0.000 C 
BRANCH  26  27
ATOM     27  C   UNL     1      98.722  60.114 228.157  1.00  0.00    -0.000 C 
BRANCH  27  28
ATOM     28  C   UNL     1     100.015  60.787 227.674  1.00  0.00    -0.000 C 
BRANCH  28  29
ATOM     29  C   UNL     1     100.833  61.313 228.862  1.00  0.00    -0.000 C 
BRANCH  29  30
ATOM     30  C   UNL     1     101.862  62.358 228.406  1.00  0.00    -0.000 C 
BRANCH  30  31
ATOM     31  C   UNL     1     102.208  63.365 229.515  1.00  0.00    -0.003 C 
ATOM     32  C   UNL     1     102.426  64.779 228.982  1.00  0.00     0.004 C 
ENDBRANCH  30  31
ENDBRANCH  29  30
ENDBRANCH  28  29
ENDBRANCH  27  28
ENDBRANCH  26  27
ENDBRANCH  25  26
ENDBRANCH  24  25
ENDBRANCH  23  24
ENDBRANCH  22  23
ENDBRANCH  21  22
ENDBRANCH  20  21
ENDBRANCH  19  20
ENDBRANCH  18  19
ENDBRANCH   1  18
TORSDOF 28
ENDMDL
MODEL 5
REMARK VINA RESULT:    -2.734      2.714      5.159
REMARK INTER + INTRA:         -12.777
REMARK INTER:                  -6.104
REMARK INTRA:                  -6.673
REMARK UNBOUND:                -5.568
REMARK SMILES CCCCCCCCCCCCCCCCCCCCCCCCCCCCCC(=O)[O-]
REMARK SMILES IDX 16 1 17 2 18 3 19 4 20 5 21 6 22 7 23 8 24 9 25 10 26 11
REMARK SMILES IDX 27 12 28 13 29 14 30 15 31 16 32 17 15 18 14 19 13 20 12 21
REMARK SMILES IDX 11 22 10 23 9 24 8 25 7 26 6 27 5 28 4 29 3 30 2 31 1 32
REMARK H PARENT
REMARK Flexibility Score: inf
ROOT
ATOM      1  C   UNL     1      95.702  66.851 224.703  1.00  0.00     0.000 C 
ENDROOT
BRANCH   1   2
ATOM      2  C   UNL     1      96.126  65.395 224.434  1.00  0.00     0.000 C 
BRANCH   2   3
ATOM      3  C   UNL     1      96.934  64.728 225.562  1.00  0.00     0.000 C 
BRANCH   3   4
ATOM      4  C   UNL     1      98.436  64.617 225.245  1.00  0.00     0.000 C 
BRANCH   4   5
ATOM      5  C   UNL     1      99.263  65.715 225.934  1.00  0.00     0.000 C 
BRANCH   5   6
ATOM      6  C   UNL     1     100.571  66.029 225.190  1.00  0.00     0.000 C 
BRANCH   6   7
ATOM      7  C   UNL     1     101.439  64.769 225.052  1.00  0.00     0.000 C 
BRANCH   7   8
ATOM      8  C   UNL     1     102.464  64.621 226.189  1.00  0.00     0.000 C 
BRANCH   8   9
ATOM      9  C   UNL     1     102.144  63.440 227.122  1.00  0.00     0.000 C 
BRANCH   9  10
ATOM     10  C   UNL     1     101.173  62.424 226.492  1.00  0.00     0.000 C 
BRANCH  10  11
ATOM     11  C   UNL     1     100.214  61.734 227.480  1.00  0.00     0.000 C 
BRANCH  11  12
ATOM     12  C   UNL     1      99.333  62.727 228.255  1.00  0.00     0.000 C 
BRANCH  12  13
ATOM     13  C   UNL     1      97.954  62.141 228.606  1.00  0.00     0.006 C 
BRANCH  13  14
ATOM     14  C   UNL     1      98.065  60.811 229.364  1.00  0.00     0.053 C 
BRANCH  14  15
ATOM     15  C   UNL     1      97.457  60.927 230.727  1.00  0.00     0.041 C 
ATOM     16  O   UNL     1      97.658  61.955 231.424  1.00  0.00    -0.550 OA
ATOM     17  O   UNL     1      96.681  59.890 231.236  1.00  0.00    -0.550 OA
ENDBRANCH  14  15
ENDBRANCH  13  14
ENDBRANCH  12  13
ENDBRANCH  11  12
ENDBRANCH  10  11
ENDBRANCH   9  10
ENDBRANCH   8   9
ENDBRANCH   7   8
ENDBRANCH   6   7
ENDBRANCH   5   6
ENDBRANCH   4   5
ENDBRANCH   3   4
ENDBRANCH   2   3
ENDBRANCH   1   2
BRANCH   1  18
ATOM     18  C   UNL     1      96.728  67.880 224.193  1.00  0.00     0.000 C 
BRANCH  18  19
ATOM     19  C   UNL     1      97.325  68.743 225.326  1.00  0.00     0.000 C 
BRANCH  19  20
ATOM     20  C   UNL     1      96.486  68.750 226.618  1.00  0.00     0.000 C 
BRANCH  20  21
ATOM     21  C   UNL     1      97.155  68.086 227.836  1.00  0.00     0.000 C 
BRANCH  21  22
ATOM     22  C   UNL     1      96.333  66.963 228.500  1.00  0.00     0.000 C 
BRANCH  22  23
ATOM     23  C   UNL     1      97.166  65.816 229.107  1.00  0.00     0.000 C 
BRANCH  23  24
ATOM     24  C   UNL     1      96.581  65.193 230.390  1.00  0.00    -0.000 C 
BRANCH  24  25
ATOM     25  C   UNL     1      97.268  65.638 231.694  1.00  0.00    -0.000 C 
BRANCH  25  26
ATOM     26  C   UNL     1      96.860  67.059 232.122  1.00  0.00    -0.000 C 
BRANCH  26  27
ATOM     27  C   UNL     1      98.069  67.952 232.436  1.00  0.00    -0.000 C 
BRANCH  27  28
ATOM     28  C   UNL     1      98.748  68.497 231.171  1.00  0.00    -0.000 C 
BRANCH  28  29
ATOM     29  C   UNL     1     100.131  67.860 230.975  1.00  0.00    -0.000 C 
BRANCH  29  30
ATOM     30  C   UNL     1     100.408  67.585 229.490  1.00  0.00    -0.000 C 
BRANCH  30  31
ATOM     31  C   UNL     1     100.788  66.119 229.225  1.00  0.00    -0.003 C 
ATOM     32  C   UNL     1     100.732  65.257 230.485  1.00  0.00     0.004 C 
ENDBRANCH  30  31
ENDBRANCH  29  30
ENDBRANCH  28  29
ENDBRANCH  27  28
ENDBRANCH  26  27
ENDBRANCH  25  26
ENDBRANCH  24  25
ENDBRANCH  23  24
ENDBRANCH  22  23
ENDBRANCH  21  22
ENDBRANCH  20  21
ENDBRANCH  19  20
ENDBRANCH  18  19
ENDBRANCH   1  18
TORSDOF 28
ENDMDL
MODEL 6
REMARK VINA RESULT:    -2.731      1.498      4.371
REMARK INTER + INTRA:         -12.768
REMARK INTER:                  -6.518
REMARK INTRA:                  -6.250
REMARK UNBOUND:                -5.568
REMARK SMILES CCCCCCCCCCCCCCCCCCCCCCCCCCCCCC(=O)[O-]
REMARK SMILES IDX 16 1 17 2 18 3 19 4 20 5 21 6 22 7 23 8 24 9 25 10 26 11
REMARK SMILES IDX 27 12 28 13 29 14 30 15 31 16 32 17 15 18 14 19 13 20 12 21
REMARK SMILES IDX 11 22 10 23 9 24 8 25 7 26 6 27 5 28 4 29 3 30 2 31 1 32
REMARK H PARENT
REMARK Flexibility Score: inf
ROOT
ATOM      1  C   UNL     1      99.017  64.715 225.367  1.00  0.00     0.000 C 
ENDROOT
BRANCH   1   2
ATOM      2  C   UNL     1      99.191  66.246 225.378  1.00  0.00     0.000 C 
BRANCH   2   3
ATOM      3  C   UNL     1     100.334  66.769 226.267  1.00  0.00     0.000 C 
BRANCH   3   4
ATOM      4  C   UNL     1      99.862  67.210 227.663  1.00  0.00     0.000 C 
BRANCH   4   5
ATOM      5  C   UNL     1     100.632  66.506 228.793  1.00  0.00     0.000 C 
BRANCH   5   6
ATOM      6  C   UNL     1     101.190  65.139 228.370  1.00  0.00     0.000 C 
BRANCH   6   7
ATOM      7  C   UNL     1     102.285  64.669 229.339  1.00  0.00     0.000 C 
BRANCH   7   8
ATOM      8  C   UNL     1     101.781  63.632 230.356  1.00  0.00     0.000 C 
BRANCH   8   9
ATOM      9  C   UNL     1     102.421  62.248 230.154  1.00  0.00     0.000 C 
BRANCH   9  10
ATOM     10  C   UNL     1     101.415  61.184 229.677  1.00  0.00     0.000 C 
BRANCH  10  11
ATOM     11  C   UNL     1     101.732  60.547 228.312  1.00  0.00     0.000 C 
BRANCH  11  12
ATOM     12  C   UNL     1     100.761  60.986 227.203  1.00  0.00     0.000 C 
BRANCH  12  13
ATOM     13  C   UNL     1     101.312  62.154 226.366  1.00  0.00     0.006 C 
BRANCH  13  14
ATOM     14  C   UNL     1     102.809  61.997 226.068  1.00  0.00     0.053 C 
BRANCH  14  15
ATOM     15  C   UNL     1     103.395  63.293 225.602  1.00  0.00     0.041 C 
ATOM     16  O   UNL     1     102.642  64.223 225.214  1.00  0.00    -0.550 OA
ATOM     17  O   UNL     1     104.774  63.467 225.578  1.00  0.00    -0.550 OA
ENDBRANCH  14  15
ENDBRANCH  13  14
ENDBRANCH  12  13
ENDBRANCH  11  12
ENDBRANCH  10  11
ENDBRANCH   9  10
ENDBRANCH   8   9
ENDBRANCH   7   8
ENDBRANCH   6   7
ENDBRANCH   5   6
ENDBRANCH   4   5
ENDBRANCH   3   4
ENDBRANCH   2   3
ENDBRANCH   1   2
BRANCH   1  18
ATOM     18  C   UNL     1      97.541  64.278 225.350  1.00  0.00     0.000 C 
BRANCH  18  19
ATOM     19  C   UNL     1      96.574  65.442 225.044  1.00  0.00     0.000 C 
BRANCH  19  20
ATOM     20  C   UNL     1      95.388  65.543 226.022  1.00  0.00     0.000 C 
BRANCH  20  21
ATOM     21  C   UNL     1      95.043  66.971 226.487  1.00  0.00     0.000 C 
BRANCH  21  22
ATOM     22  C   UNL     1      96.036  68.062 226.036  1.00  0.00     0.000 C 
BRANCH  22  23
ATOM     23  C   UNL     1      96.732  68.825 227.180  1.00  0.00     0.000 C 
BRANCH  23  24
ATOM     24  C   UNL     1      96.172  68.541 228.588  1.00  0.00    -0.000 C 
BRANCH  24  25
ATOM     25  C   UNL     1      97.184  68.727 229.733  1.00  0.00    -0.000 C 
BRANCH  25  26
ATOM     26  C   UNL     1      97.285  67.487 230.639  1.00  0.00    -0.000 C 
BRANCH  26  27
ATOM     27  C   UNL     1      96.390  66.332 230.163  1.00  0.00    -0.000 C 
BRANCH  27  28
ATOM     28  C   UNL     1      97.096  64.970 230.228  1.00  0.00    -0.000 C 
BRANCH  28  29
ATOM     29  C   UNL     1      97.568  64.533 228.834  1.00  0.00    -0.000 C 
BRANCH  29  30
ATOM     30  C   UNL     1      97.943  63.044 228.818  1.00  0.00    -0.000 C 
BRANCH  30  31
ATOM     31  C   UNL     1      97.899  62.412 230.219  1.00  0.00    -0.003 C 
ATOM     32  C   UNL     1      97.727  60.896 230.179  1.00  0.00     0.004 C 
ENDBRANCH  30  31
ENDBRANCH  29  30
ENDBRANCH  28  29
ENDBRANCH  27  28
ENDBRANCH  26  27
ENDBRANCH  25  26
ENDBRANCH  24  25
ENDBRANCH  23  24
ENDBRANCH  22  23
ENDBRANCH  21  22
ENDBRANCH  20  21
ENDBRANCH  19  20
ENDBRANCH  18  19
ENDBRANCH   1  18
TORSDOF 28
ENDMDL
MODEL 7
REMARK VINA RESULT:    -2.699      1.837      4.615
REMARK INTER + INTRA:         -12.685
REMARK INTER:                  -6.454
REMARK INTRA:                  -6.231
REMARK UNBOUND:                -5.568
REMARK SMILES CCCCCCCCCCCCCCCCCCCCCCCCCCCCCC(=O)[O-]
REMARK SMILES IDX 16 1 17 2 18 3 19 4 20 5 21 6 22 7 23 8 24 9 25 10 26 11
REMARK SMILES IDX 27 12 28 13 29 14 30 15 31 16 32 17 15 18 14 19 13 20 12 21
REMARK SMILES IDX 11 22 10 23 9 24 8 25 7 26 6 27 5 28 4 29 3 30 2 31 1 32
REMARK H PARENT
REMARK Flexibility Score: inf
ROOT
ATOM      1  C   UNL     1      97.062  64.982 225.244  1.00  0.00     0.000 C 
ENDROOT
BRANCH   1   2
ATOM      2  C   UNL     1      97.037  64.589 226.734  1.00  0.00     0.000 C 
BRANCH   2   3
ATOM      3  C   UNL     1      95.984  65.318 227.587  1.00  0.00     0.000 C 
BRANCH   3   4
ATOM      4  C   UNL     1      96.598  66.140 228.734  1.00  0.00     0.000 C 
BRANCH   4   5
ATOM      5  C   UNL     1      96.089  65.693 230.115  1.00  0.00     0.000 C 
BRANCH   5   6
ATOM      6  C   UNL     1      97.227  65.317 231.075  1.00  0.00     0.000 C 
BRANCH   6   7
ATOM      7  C   UNL     1      97.759  63.907 230.771  1.00  0.00     0.000 C 
BRANCH   7   8
ATOM      8  C   UNL     1      99.294  63.844 230.719  1.00  0.00     0.000 C 
BRANCH   8   9
ATOM      9  C   UNL     1      99.901  64.957 229.847  1.00  0.00     0.000 C 
BRANCH   9  10
ATOM     10  C   UNL     1     100.948  65.802 230.596  1.00  0.00     0.000 C 
BRANCH  10  11
ATOM     11  C   UNL     1     102.414  65.506 230.229  1.00  0.00     0.000 C 
BRANCH  11  12
ATOM     12  C   UNL     1     102.556  64.632 228.971  1.00  0.00     0.000 C 
BRANCH  12  13
ATOM     13  C   UNL     1     103.714  63.625 229.081  1.00  0.00     0.006 C 
BRANCH  13  14
ATOM     14  C   UNL     1     105.061  64.245 228.685  1.00  0.00     0.053 C 
BRANCH  14  15
ATOM     15  C   UNL     1     105.008  64.777 227.286  1.00  0.00     0.041 C 
ATOM     16  O   UNL     1     104.888  66.013 227.084  1.00  0.00    -0.550 OA
ATOM     17  O   UNL     1     105.071  63.905 226.205  1.00  0.00    -0.550 OA
ENDBRANCH  14  15
ENDBRANCH  13  14
ENDBRANCH  12  13
ENDBRANCH  11  12
ENDBRANCH  10  11
ENDBRANCH   9  10
ENDBRANCH   8   9
ENDBRANCH   7   8
ENDBRANCH   6   7
ENDBRANCH   5   6
ENDBRANCH   4   5
ENDBRANCH   3   4
ENDBRANCH   2   3
ENDBRANCH   1   2
BRANCH   1  18
ATOM     18  C   UNL     1      95.888  65.894 224.843  1.00  0.00     0.000 C 
BRANCH  18  19
ATOM     19  C   UNL     1      96.347  67.296 224.388  1.00  0.00     0.000 C 
BRANCH  19  20
ATOM     20  C   UNL     1      97.769  67.670 224.847  1.00  0.00     0.000 C 
BRANCH  20  21
ATOM     21  C   UNL     1      97.842  68.493 226.147  1.00  0.00     0.000 C 
BRANCH  21  22
ATOM     22  C   UNL     1      99.181  68.395 226.907  1.00  0.00     0.000 C 
BRANCH  22  23
ATOM     23  C   UNL     1      99.781  66.977 226.993  1.00  0.00     0.000 C 
BRANCH  23  24
ATOM     24  C   UNL     1     101.189  66.828 226.385  1.00  0.00    -0.000 C 
BRANCH  24  25
ATOM     25  C   UNL     1     101.211  66.412 224.903  1.00  0.00    -0.000 C 
BRANCH  25  26
ATOM     26  C   UNL     1     100.792  64.946 224.695  1.00  0.00    -0.000 C 
BRANCH  26  27
ATOM     27  C   UNL     1     101.930  63.957 224.996  1.00  0.00    -0.000 C 
BRANCH  27  28
ATOM     28  C   UNL     1     101.513  62.857 225.984  1.00  0.00    -0.000 C 
BRANCH  28  29
ATOM     29  C   UNL     1     100.133  63.159 226.587  1.00  0.00    -0.000 C 
BRANCH  29  30
ATOM     30  C   UNL     1      99.717  62.071 227.587  1.00  0.00    -0.000 C 
BRANCH  30  31
ATOM     31  C   UNL     1     100.843  61.060 227.859  1.00  0.00    -0.003 C 
ATOM     32  C   UNL     1     101.182  60.938 229.342  1.00  0.00     0.004 C 
ENDBRANCH  30  31
ENDBRANCH  29  30
ENDBRANCH  28  29
ENDBRANCH  27  28
ENDBRANCH  26  27
ENDBRANCH  25  26
ENDBRANCH  24  25
ENDBRANCH  23  24
ENDBRANCH  22  23
ENDBRANCH  21  22
ENDBRANCH  20  21
ENDBRANCH  19  20
ENDBRANCH  18  19
ENDBRANCH   1  18
TORSDOF 28
ENDMDL
MODEL 8
REMARK VINA RESULT:    -2.676      3.093      5.681
REMARK INTER + INTRA:         -12.626
REMARK INTER:                  -7.117
REMARK INTRA:                  -5.509
REMARK UNBOUND:                -5.568
REMARK SMILES CCCCCCCCCCCCCCCCCCCCCCCCCCCCCC(=O)[O-]
REMARK SMILES IDX 16 1 17 2 18 3 19 4 20 5 21 6 22 7 23 8 24 9 25 10 26 11
REMARK SMILES IDX 27 12 28 13 29 14 30 15 31 16 32 17 15 18 14 19 13 20 12 21
REMARK SMILES IDX 11 22 10 23 9 24 8 25 7 26 6 27 5 28 4 29 3 30 2 31 1 32
REMARK H PARENT
REMARK Flexibility Score: inf
ROOT
ATOM      1  C   UNL     1      99.942  67.471 226.338  1.00  0.00     0.000 C 
ENDROOT
BRANCH   1   2
ATOM      2  C   UNL     1     101.023  66.386 226.166  1.00  0.00     0.000 C 
BRANCH   2   3
ATOM      3  C   UNL     1     101.217  65.875 224.727  1.00  0.00     0.000 C 
BRANCH   3   4
ATOM      4  C   UNL     1     101.243  64.340 224.628  1.00  0.00     0.000 C 
BRANCH   4   5
ATOM      5  C   UNL     1     101.829  63.681 225.888  1.00  0.00     0.000 C 
BRANCH   5   6
ATOM      6  C   UNL     1     102.637  62.413 225.573  1.00  0.00     0.000 C 
BRANCH   6   7
ATOM      7  C   UNL     1     101.938  61.164 226.131  1.00  0.00     0.000 C 
BRANCH   7   8
ATOM      8  C   UNL     1     100.818  61.499 227.128  1.00  0.00     0.000 C 
BRANCH   8   9
ATOM      9  C   UNL     1     100.942  60.710 228.443  1.00  0.00     0.000 C 
BRANCH   9  10
ATOM     10  C   UNL     1      99.694  59.864 228.756  1.00  0.00     0.000 C 
BRANCH  10  11
ATOM     11  C   UNL     1      98.636  59.816 227.637  1.00  0.00     0.000 C 
BRANCH  11  12
ATOM     12  C   UNL     1      97.932  58.453 227.533  1.00  0.00     0.000 C 
BRANCH  12  13
ATOM     13  C   UNL     1      97.207  58.266 226.189  1.00  0.00     0.006 C 
BRANCH  13  14
ATOM     14  C   UNL     1      96.400  56.962 226.142  1.00  0.00     0.053 C 
BRANCH  14  15
ATOM     15  C   UNL     1      96.018  56.625 224.734  1.00  0.00     0.041 C 
ATOM     16  O   UNL     1      95.919  57.535 223.872  1.00  0.00    -0.550 OA
ATOM     17  O   UNL     1      95.754  55.307 224.379  1.00  0.00    -0.550 OA
ENDBRANCH  14  15
ENDBRANCH  13  14
ENDBRANCH  12  13
ENDBRANCH  11  12
ENDBRANCH  10  11
ENDBRANCH   9  10
ENDBRANCH   8   9
ENDBRANCH   7   8
ENDBRANCH   6   7
ENDBRANCH   5   6
ENDBRANCH   4   5
ENDBRANCH   3   4
ENDBRANCH   2   3
ENDBRANCH   1   2
BRANCH   1  18
ATOM     18  C   UNL     1      99.391  67.548 227.774  1.00  0.00     0.000 C 
BRANCH  18  19
ATOM     19  C   UNL     1      97.965  68.136 227.838  1.00  0.00     0.000 C 
BRANCH  19  20
ATOM     20  C   UNL     1      97.231  67.857 229.163  1.00  0.00     0.000 C 
BRANCH  20  21
ATOM     21  C   UNL     1      96.406  66.556 229.194  1.00  0.00     0.000 C 
BRANCH  21  22
ATOM     22  C   UNL     1      96.016  66.064 230.603  1.00  0.00     0.000 C 
BRANCH  22  23
ATOM     23  C   UNL     1      97.181  65.972 231.608  1.00  0.00     0.000 C 
BRANCH  23  24
ATOM     24  C   UNL     1      98.089  64.738 231.442  1.00  0.00    -0.000 C 
BRANCH  24  25
ATOM     25  C   UNL     1      99.367  64.984 230.621  1.00  0.00    -0.000 C 
BRANCH  25  26
ATOM     26  C   UNL     1      99.407  64.155 229.325  1.00  0.00    -0.000 C 
BRANCH  26  27
ATOM     27  C   UNL     1      98.199  63.215 229.188  1.00  0.00    -0.000 C 
BRANCH  27  28
ATOM     28  C   UNL     1      97.459  63.392 227.853  1.00  0.00    -0.000 C 
BRANCH  28  29
ATOM     29  C   UNL     1      98.339  64.131 226.835  1.00  0.00    -0.000 C 
BRANCH  29  30
ATOM     30  C   UNL     1      97.586  64.362 225.517  1.00  0.00    -0.000 C 
BRANCH  30  31
ATOM     31  C   UNL     1      96.266  65.123 225.720  1.00  0.00    -0.003 C 
ATOM     32  C   UNL     1      96.286  66.517 225.099  1.00  0.00     0.004 C 
ENDBRANCH  30  31
ENDBRANCH  29  30
ENDBRANCH  28  29
ENDBRANCH  27  28
ENDBRANCH  26  27
ENDBRANCH  25  26
ENDBRANCH  24  25
ENDBRANCH  23  24
ENDBRANCH  22  23
ENDBRANCH  21  22
ENDBRANCH  20  21
ENDBRANCH  19  20
ENDBRANCH  18  19
ENDBRANCH   1  18
TORSDOF 28
ENDMDL
MODEL 9
REMARK VINA RESULT:    -2.636      8.845     12.191
REMARK INTER + INTRA:         -12.519
REMARK INTER:                  -6.784
REMARK INTRA:                  -5.735
REMARK UNBOUND:                -5.568
REMARK SMILES CCCCCCCCCCCCCCCCCCCCCCCCCCCCCC(=O)[O-]
REMARK SMILES IDX 16 1 17 2 18 3 19 4 20 5 21 6 22 7 23 8 24 9 25 10 26 11
REMARK SMILES IDX 27 12 28 13 29 14 30 15 31 16 32 17 15 18 14 19 13 20 12 21
REMARK SMILES IDX 11 22 10 23 9 24 8 25 7 26 6 27 5 28 4 29 3 30 2 31 1 32
REMARK H PARENT
REMARK Flexibility Score: inf
ROOT
ATOM      1  C   UNL     1      97.993  56.232 218.867  1.00  0.00     0.000 C 
ENDROOT
BRANCH   1   2
ATOM      2  C   UNL     1      96.481  55.981 219.022  1.00  0.00     0.000 C 
BRANCH   2   3
ATOM      3  C   UNL     1      96.014  55.652 220.451  1.00  0.00     0.000 C 
BRANCH   3   4
ATOM      4  C   UNL     1      95.984  54.142 220.745  1.00  0.00     0.000 C 
BRANCH   4   5
ATOM      5  C   UNL     1      95.926  53.837 222.251  1.00  0.00     0.000 C 
BRANCH   5   6
ATOM      6  C   UNL     1      94.895  54.702 222.993  1.00  0.00     0.000 C 
BRANCH   6   7
ATOM      7  C   UNL     1      95.148  54.680 224.508  1.00  0.00     0.000 C 
BRANCH   7   8
ATOM      8  C   UNL     1      96.064  55.822 224.978  1.00  0.00     0.000 C 
BRANCH   8   9
ATOM      9  C   UNL     1      95.994  57.053 224.057  1.00  0.00     0.000 C 
BRANCH   9  10
ATOM     10  C   UNL     1      97.375  57.490 223.534  1.00  0.00     0.000 C 
BRANCH  10  11
ATOM     11  C   UNL     1      98.561  56.638 224.022  1.00  0.00     0.000 C 
BRANCH  11  12
ATOM     12  C   UNL     1      99.833  57.466 224.273  1.00  0.00     0.000 C 
BRANCH  12  13
ATOM     13  C   UNL     1     100.873  57.302 223.152  1.00  0.00     0.006 C 
BRANCH  13  14
ATOM     14  C   UNL     1     101.021  55.841 222.707  1.00  0.00     0.053 C 
BRANCH  14  15
ATOM     15  C   UNL     1     102.352  55.294 223.120  1.00  0.00     0.041 C 
ATOM     16  O   UNL     1     102.765  54.207 222.640  1.00  0.00    -0.550 OA
ATOM     17  O   UNL     1     103.129  55.975 224.051  1.00  0.00    -0.550 OA
ENDBRANCH  14  15
ENDBRANCH  13  14
ENDBRANCH  12  13
ENDBRANCH  11  12
ENDBRANCH  10  11
ENDBRANCH   9  10
ENDBRANCH   8   9
ENDBRANCH   7   8
ENDBRANCH   6   7
ENDBRANCH   5   6
ENDBRANCH   4   5
ENDBRANCH   3   4
ENDBRANCH   2   3
ENDBRANCH   1   2
BRANCH   1  18
ATOM     18  C   UNL     1      98.663  56.696 220.173  1.00  0.00     0.000 C 
BRANCH  18  19
ATOM     19  C   UNL     1      98.768  58.233 220.279  1.00  0.00     0.000 C 
BRANCH  19  20
ATOM     20  C   UNL     1     100.010  58.825 219.587  1.00  0.00     0.000 C 
BRANCH  20  21
ATOM     21  C   UNL     1      99.730  60.006 218.638  1.00  0.00     0.000 C 
BRANCH  21  22
ATOM     22  C   UNL     1     100.118  59.765 217.164  1.00  0.00     0.000 C 
BRANCH  22  23
ATOM     23  C   UNL     1     100.003  58.303 216.689  1.00  0.00     0.000 C 
BRANCH  23  24
ATOM     24  C   UNL     1     101.261  57.741 215.998  1.00  0.00    -0.000 C 
BRANCH  24  25
ATOM     25  C   UNL     1     102.260  57.048 216.942  1.00  0.00    -0.000 C 
BRANCH  25  26
ATOM     26  C   UNL     1     101.595  55.978 217.825  1.00  0.00    -0.000 C 
BRANCH  26  27
ATOM     27  C   UNL     1     102.202  55.914 219.235  1.00  0.00    -0.000 C 
BRANCH  27  28
ATOM     28  C   UNL     1     103.723  56.130 219.235  1.00  0.00    -0.000 C 
BRANCH  28  29
ATOM     29  C   UNL     1     104.148  57.015 220.416  1.00  0.00    -0.000 C 
BRANCH  29  30
ATOM     30  C   UNL     1     103.289  58.285 220.494  1.00  0.00    -0.000 C 
BRANCH  30  31
ATOM     31  C   UNL     1     103.709  59.343 219.460  1.00  0.00    -0.003 C 
ATOM     32  C   UNL     1     105.189  59.707 219.556  1.00  0.00     0.004 C 
ENDBRANCH  30  31
ENDBRANCH  29  30
ENDBRANCH  28  29
ENDBRANCH  27  28
ENDBRANCH  26  27
ENDBRANCH  25  26
ENDBRANCH  24  25
ENDBRANCH  23  24
ENDBRANCH  22  23
ENDBRANCH  21  22
ENDBRANCH  20  21
ENDBRANCH  19  20
ENDBRANCH  18  19
ENDBRANCH   1  18
TORSDOF 28
ENDMDL
