MODEL 1
REMARK VINA RESULT:    -6.380      0.000      0.000
REMARK INTER + INTRA:          -7.882
REMARK INTER:                  -7.686
REMARK INTRA:                  -0.197
REMARK UNBOUND:                -0.197
REMARK SMILES O=c1c(O)c(-c2ccc(O)c(O)c2)oc2cc(O)cc(O)c12
REMARK SMILES IDX 5 1 3 2 2 3 1 4 22 5 20 6 19 7 17 8 16 9 15 10 14 11 6 12
REMARK SMILES IDX 7 13 8 14 9 15 13 16 11 17 10 18 12 20 4 22 21 24 18 26
REMARK H PARENT 10 19 12 21 4 23 21 25 18 27
REMARK Flexibility Score: inf
ROOT
ATOM      1  C   UNL     1       1.742  -3.893  21.834  1.00  0.00     0.180 A 
ATOM      2  C   UNL     1       2.809  -3.574  22.692  1.00  0.00     0.208 A 
ATOM      3  C   UNL     1       2.532  -3.251  24.030  1.00  0.00     0.238 A 
ATOM      4  O   UNL     1       3.495  -3.019  24.807  1.00  0.00    -0.285 OA
ATOM      5  C   UNL     1       1.194  -3.236  24.489  1.00  0.00     0.111 A 
ATOM      6  C   UNL     1       0.795  -2.884  25.814  1.00  0.00     0.134 A 
ATOM      7  C   UNL     1      -0.545  -3.030  26.194  1.00  0.00     0.093 A 
ATOM      8  C   UNL     1      -1.511  -3.452  25.281  1.00  0.00     0.123 A 
ATOM      9  C   UNL     1      -1.142  -3.741  23.966  1.00  0.00     0.094 A 
ATOM     10  C   UNL     1       0.192  -3.639  23.567  1.00  0.00     0.146 A 
ATOM     11  O   UNL     1       0.503  -3.934  22.310  1.00  0.00    -0.452 OA
ENDROOT
BRANCH   1  12
ATOM     12  C   UNL     1       1.951  -4.219  20.404  1.00  0.00     0.025 A 
ATOM     13  C   UNL     1       2.564  -5.432  20.054  1.00  0.00     0.016 A 
ATOM     14  C   UNL     1       2.753  -5.769  18.711  1.00  0.00     0.051 A 
ATOM     15  C   UNL     1       2.320  -4.908  17.699  1.00  0.00     0.157 A 
ATOM     16  C   UNL     1       1.498  -3.364  19.384  1.00  0.00     0.062 A 
ATOM     17  C   UNL     1       1.684  -3.700  18.035  1.00  0.00     0.158 A 
BRANCH  15  18
ATOM     18  O   UNL     1       2.523  -5.269  16.368  1.00  0.00    -0.504 OA
ATOM     19  H   UNL     1       2.834  -6.196  16.103  1.00  0.00     0.293 HD
ENDBRANCH  15  18
BRANCH  17  20
ATOM     20  O   UNL     1       1.236  -2.844  17.031  1.00  0.00    -0.504 OA
ATOM     21  H   UNL     1       0.526  -2.143  17.207  1.00  0.00     0.293 HD
ENDBRANCH  17  20
ENDBRANCH   1  12
BRANCH   2  22
ATOM     22  O   UNL     1       4.124  -3.616  22.222  1.00  0.00    -0.502 OA
ATOM     23  H   UNL     1       4.874  -4.056  22.744  1.00  0.00     0.293 HD
ENDBRANCH   2  22
BRANCH   6  24
ATOM     24  O   UNL     1       1.664  -2.365  26.778  1.00  0.00    -0.507 OA
ATOM     25  H   UNL     1       1.406  -1.688  27.479  1.00  0.00     0.293 HD
ENDBRANCH   6  24
BRANCH   8  26
ATOM     26  O   UNL     1      -2.837  -3.571  25.689  1.00  0.00    -0.508 OA
ATOM     27  H   UNL     1      -3.420  -2.757  25.842  1.00  0.00     0.293 HD
ENDBRANCH   8  26
TORSDOF 6
ENDMDL
MODEL 2
REMARK VINA RESULT:    -6.115      1.846      6.648
REMARK INTER + INTRA:          -7.563
REMARK INTER:                  -7.524
REMARK INTRA:                  -0.040
REMARK UNBOUND:                -0.197
REMARK SMILES O=c1c(O)c(-c2ccc(O)c(O)c2)oc2cc(O)cc(O)c12
REMARK SMILES IDX 5 1 3 2 2 3 1 4 22 5 20 6 19 7 17 8 16 9 15 10 14 11 6 12
REMARK SMILES IDX 7 13 8 14 9 15 13 16 11 17 10 18 12 20 4 22 21 24 18 26
REMARK H PARENT 10 19 12 21 4 23 21 25 18 27
REMARK Flexibility Score: inf
ROOT
ATOM      1  C   UNL     1       2.300  -4.039  22.235  1.00  0.00     0.180 A 
ATOM      2  C   UNL     1       2.898  -5.017  21.422  1.00  0.00     0.208 A 
ATOM      3  C   UNL     1       2.647  -5.000  20.040  1.00  0.00     0.238 A 
ATOM      4  O   UNL     1       3.229  -5.844  19.310  1.00  0.00    -0.285 OA
ATOM      5  C   UNL     1       1.791  -4.016  19.492  1.00  0.00     0.111 A 
ATOM      6  C   UNL     1       1.435  -3.928  18.112  1.00  0.00     0.134 A 
ATOM      7  C   UNL     1       0.685  -2.836  17.660  1.00  0.00     0.093 A 
ATOM      8  C   UNL     1       0.222  -1.864  18.546  1.00  0.00     0.123 A 
ATOM      9  C   UNL     1       0.513  -1.971  19.907  1.00  0.00     0.094 A 
ATOM     10  C   UNL     1       1.290  -3.030  20.382  1.00  0.00     0.146 A 
ATOM     11  O   UNL     1       1.553  -3.090  21.682  1.00  0.00    -0.452 OA
ENDROOT
BRANCH   1  12
ATOM     12  C   UNL     1       2.495  -4.007  23.703  1.00  0.00     0.025 A 
ATOM     13  C   UNL     1       3.795  -3.928  24.225  1.00  0.00     0.016 A 
ATOM     14  C   UNL     1       4.001  -3.877  25.606  1.00  0.00     0.051 A 
ATOM     15  C   UNL     1       2.913  -3.889  26.484  1.00  0.00     0.157 A 
ATOM     16  C   UNL     1       1.401  -3.998  24.587  1.00  0.00     0.062 A 
ATOM     17  C   UNL     1       1.605  -3.945  25.973  1.00  0.00     0.158 A 
BRANCH  15  18
ATOM     18  O   UNL     1       3.149  -3.838  27.858  1.00  0.00    -0.504 OA
ATOM     19  H   UNL     1       4.065  -3.635  28.240  1.00  0.00     0.293 HD
ENDBRANCH  15  18
BRANCH  17  20
ATOM     20  O   UNL     1       0.516  -3.942  26.843  1.00  0.00    -0.504 OA
ATOM     21  H   UNL     1      -0.103  -4.741  26.922  1.00  0.00     0.293 HD
ENDBRANCH  17  20
ENDBRANCH   1  12
BRANCH   2  22
ATOM     22  O   UNL     1       3.758  -5.966  21.981  1.00  0.00    -0.502 OA
ATOM     23  H   UNL     1       3.847  -6.095  22.983  1.00  0.00     0.293 HD
ENDBRANCH   2  22
BRANCH   6  24
ATOM     24  O   UNL     1       1.769  -4.894  17.158  1.00  0.00    -0.507 OA
ATOM     25  H   UNL     1       1.340  -5.804  17.087  1.00  0.00     0.293 HD
ENDBRANCH   6  24
BRANCH   8  26
ATOM     26  O   UNL     1      -0.535  -0.799  18.064  1.00  0.00    -0.508 OA
ATOM     27  H   UNL     1      -1.548  -0.810  18.098  1.00  0.00     0.293 HD
ENDBRANCH   8  26
TORSDOF 6
ENDMDL
MODEL 3
REMARK VINA RESULT:    -5.810      6.124      7.932
REMARK INTER + INTRA:          -7.196
REMARK INTER:                  -7.572
REMARK INTRA:                   0.375
REMARK UNBOUND:                -0.197
REMARK SMILES O=c1c(O)c(-c2ccc(O)c(O)c2)oc2cc(O)cc(O)c12
REMARK SMILES IDX 5 1 3 2 2 3 1 4 22 5 20 6 19 7 17 8 16 9 15 10 14 11 6 12
REMARK SMILES IDX 7 13 8 14 9 15 13 16 11 17 10 18 12 20 4 22 21 24 18 26
REMARK H PARENT 10 19 12 21 4 23 21 25 18 27
REMARK Flexibility Score: inf
ROOT
ATOM      1  C   UNL     1      -2.595  -0.879  18.687  1.00  0.00     0.180 A 
ATOM      2  C   UNL     1      -3.196  -0.558  19.916  1.00  0.00     0.208 A 
ATOM      3  C   UNL     1      -4.394   0.175  19.916  1.00  0.00     0.238 A 
ATOM      4  O   UNL     1      -4.957   0.412  21.018  1.00  0.00    -0.285 OA
ATOM      5  C   UNL     1      -4.967   0.590  18.691  1.00  0.00     0.111 A 
ATOM      6  C   UNL     1      -6.156   1.371  18.575  1.00  0.00     0.134 A 
ATOM      7  C   UNL     1      -6.703   1.613  17.309  1.00  0.00     0.093 A 
ATOM      8  C   UNL     1      -6.070   1.160  16.152  1.00  0.00     0.123 A 
ATOM      9  C   UNL     1      -4.874   0.447  16.250  1.00  0.00     0.094 A 
ATOM     10  C   UNL     1      -4.324   0.159  17.501  1.00  0.00     0.146 A 
ATOM     11  O   UNL     1      -3.191  -0.531  17.552  1.00  0.00    -0.452 OA
ENDROOT
BRANCH   1  12
ATOM     12  C   UNL     1      -1.319  -1.626  18.605  1.00  0.00     0.025 A 
ATOM     13  C   UNL     1      -0.430  -1.596  19.691  1.00  0.00     0.016 A 
ATOM     14  C   UNL     1       0.771  -2.310  19.643  1.00  0.00     0.051 A 
ATOM     15  C   UNL     1       1.094  -3.075  18.518  1.00  0.00     0.157 A 
ATOM     16  C   UNL     1      -1.000  -2.413  17.483  1.00  0.00     0.062 A 
ATOM     17  C   UNL     1       0.203  -3.131  17.434  1.00  0.00     0.158 A 
BRANCH  15  18
ATOM     18  O   UNL     1       2.300  -3.775  18.498  1.00  0.00    -0.504 OA
ATOM     19  H   UNL     1       2.962  -3.686  17.737  1.00  0.00     0.293 HD
ENDBRANCH  15  18
BRANCH  17  20
ATOM     20  O   UNL     1       0.512  -3.904  16.316  1.00  0.00    -0.504 OA
ATOM     21  H   UNL     1      -0.208  -4.257  15.697  1.00  0.00     0.293 HD
ENDBRANCH  17  20
ENDBRANCH   1  12
BRANCH   2  22
ATOM     22  O   UNL     1      -2.625  -0.998  21.113  1.00  0.00    -0.502 OA
ATOM     23  H   UNL     1      -2.389  -0.364  21.868  1.00  0.00     0.293 HD
ENDBRANCH   2  22
BRANCH   6  24
ATOM     24  O   UNL     1      -6.819   1.949  19.662  1.00  0.00    -0.507 OA
ATOM     25  H   UNL     1      -6.361   2.375  20.453  1.00  0.00     0.293 HD
ENDBRANCH   6  24
BRANCH   8  26
ATOM     26  O   UNL     1      -6.634   1.432  14.908  1.00  0.00    -0.508 OA
ATOM     27  H   UNL     1      -7.638   1.443  14.772  1.00  0.00     0.293 HD
ENDBRANCH   8  26
TORSDOF 6
ENDMDL
MODEL 4
REMARK VINA RESULT:    -5.784      4.463      6.162
REMARK INTER + INTRA:          -7.164
REMARK INTER:                  -6.846
REMARK INTRA:                  -0.319
REMARK UNBOUND:                -0.197
REMARK SMILES O=c1c(O)c(-c2ccc(O)c(O)c2)oc2cc(O)cc(O)c12
REMARK SMILES IDX 5 1 3 2 2 3 1 4 22 5 20 6 19 7 17 8 16 9 15 10 14 11 6 12
REMARK SMILES IDX 7 13 8 14 9 15 13 16 11 17 10 18 12 20 4 22 21 24 18 26
REMARK H PARENT 10 19 12 21 4 23 21 25 18 27
REMARK Flexibility Score: inf
ROOT
ATOM      1  C   UNL     1      -2.711  -0.920  22.733  1.00  0.00     0.180 A 
ATOM      2  C   UNL     1      -2.621  -0.093  23.866  1.00  0.00     0.208 A 
ATOM      3  C   UNL     1      -1.744  -0.453  24.902  1.00  0.00     0.238 A 
ATOM      4  O   UNL     1      -1.627   0.320  25.889  1.00  0.00    -0.285 OA
ATOM      5  C   UNL     1      -0.982  -1.640  24.800  1.00  0.00     0.111 A 
ATOM      6  C   UNL     1      -0.092  -2.122  25.807  1.00  0.00     0.134 A 
ATOM      7  C   UNL     1       0.710  -3.239  25.544  1.00  0.00     0.093 A 
ATOM      8  C   UNL     1       0.607  -3.932  24.338  1.00  0.00     0.123 A 
ATOM      9  C   UNL     1      -0.303  -3.505  23.369  1.00  0.00     0.094 A 
ATOM     10  C   UNL     1      -1.089  -2.372  23.589  1.00  0.00     0.146 A 
ATOM     11  O   UNL     1      -1.935  -1.993  22.638  1.00  0.00    -0.452 OA
ENDROOT
BRANCH   1  12
ATOM     12  C   UNL     1      -3.631  -0.622  21.611  1.00  0.00     0.025 A 
ATOM     13  C   UNL     1      -4.929  -1.156  21.621  1.00  0.00     0.016 A 
ATOM     14  C   UNL     1      -5.820  -0.872  20.584  1.00  0.00     0.051 A 
ATOM     15  C   UNL     1      -5.434  -0.039  19.529  1.00  0.00     0.157 A 
ATOM     16  C   UNL     1      -3.252   0.232  20.559  1.00  0.00     0.062 A 
ATOM     17  C   UNL     1      -4.145   0.521  19.518  1.00  0.00     0.158 A 
BRANCH  15  18
ATOM     18  O   UNL     1      -6.344   0.226  18.506  1.00  0.00    -0.504 OA
ATOM     19  H   UNL     1      -6.872  -0.509  18.050  1.00  0.00     0.293 HD
ENDBRANCH  15  18
BRANCH  17  20
ATOM     20  O   UNL     1      -3.760   1.363  18.477  1.00  0.00    -0.504 OA
ATOM     21  H   UNL     1      -3.884   1.101  17.507  1.00  0.00     0.293 HD
ENDBRANCH  17  20
ENDBRANCH   1  12
BRANCH   2  22
ATOM     22  O   UNL     1      -3.367   1.086  23.936  1.00  0.00    -0.502 OA
ATOM     23  H   UNL     1      -3.880   1.357  24.767  1.00  0.00     0.293 HD
ENDBRANCH   2  22
BRANCH   6  24
ATOM     24  O   UNL     1       0.021  -1.559  27.082  1.00  0.00    -0.507 OA
ATOM     25  H   UNL     1       0.216  -0.586  27.266  1.00  0.00     0.293 HD
ENDBRANCH   6  24
BRANCH   8  26
ATOM     26  O   UNL     1       1.409  -5.049  24.116  1.00  0.00    -0.508 OA
ATOM     27  H   UNL     1       2.312  -4.972  23.663  1.00  0.00     0.293 HD
ENDBRANCH   8  26
TORSDOF 6
ENDMDL
MODEL 5
REMARK VINA RESULT:    -5.633      1.466      2.763
REMARK INTER + INTRA:          -6.982
REMARK INTER:                  -7.329
REMARK INTRA:                   0.346
REMARK UNBOUND:                -0.197
REMARK SMILES O=c1c(O)c(-c2ccc(O)c(O)c2)oc2cc(O)cc(O)c12
REMARK SMILES IDX 5 1 3 2 2 3 1 4 22 5 20 6 19 7 17 8 16 9 15 10 14 11 6 12
REMARK SMILES IDX 7 13 8 14 9 15 13 16 11 17 10 18 12 20 4 22 21 24 18 26
REMARK H PARENT 10 19 12 21 4 23 21 25 18 27
REMARK Flexibility Score: inf
ROOT
ATOM      1  C   UNL     1       1.666  -3.879  21.822  1.00  0.00     0.180 A 
ATOM      2  C   UNL     1       0.635  -3.018  22.237  1.00  0.00     0.208 A 
ATOM      3  C   UNL     1       0.455  -2.785  23.610  1.00  0.00     0.238 A 
ATOM      4  O   UNL     1      -0.434  -1.970  23.973  1.00  0.00    -0.285 OA
ATOM      5  C   UNL     1       1.295  -3.427  24.550  1.00  0.00     0.111 A 
ATOM      6  C   UNL     1       1.177  -3.295  25.966  1.00  0.00     0.134 A 
ATOM      7  C   UNL     1       2.145  -3.872  26.797  1.00  0.00     0.093 A 
ATOM      8  C   UNL     1       3.189  -4.631  26.268  1.00  0.00     0.123 A 
ATOM      9  C   UNL     1       3.280  -4.817  24.888  1.00  0.00     0.094 A 
ATOM     10  C   UNL     1       2.350  -4.223  24.032  1.00  0.00     0.146 A 
ATOM     11  O   UNL     1       2.479  -4.415  22.724  1.00  0.00    -0.452 OA
ENDROOT
BRANCH   1  12
ATOM     12  C   UNL     1       1.902  -4.194  20.394  1.00  0.00     0.025 A 
ATOM     13  C   UNL     1       2.487  -5.421  20.045  1.00  0.00     0.016 A 
ATOM     14  C   UNL     1       2.701  -5.748  18.704  1.00  0.00     0.051 A 
ATOM     15  C   UNL     1       2.321  -4.862  17.691  1.00  0.00     0.157 A 
ATOM     16  C   UNL     1       1.501  -3.314  19.373  1.00  0.00     0.062 A 
ATOM     17  C   UNL     1       1.713  -3.640  18.026  1.00  0.00     0.158 A 
BRANCH  15  18
ATOM     18  O   UNL     1       2.548  -5.214  16.361  1.00  0.00    -0.504 OA
ATOM     19  H   UNL     1       2.064  -5.986  15.918  1.00  0.00     0.293 HD
ENDBRANCH  15  18
BRANCH  17  20
ATOM     20  O   UNL     1       1.318  -2.759  17.021  1.00  0.00    -0.504 OA
ATOM     21  H   UNL     1       0.403  -2.821  16.589  1.00  0.00     0.293 HD
ENDBRANCH  17  20
ENDBRANCH   1  12
BRANCH   2  22
ATOM     22  O   UNL     1      -0.169  -2.377  21.291  1.00  0.00    -0.502 OA
ATOM     23  H   UNL     1      -0.726  -2.887  20.615  1.00  0.00     0.293 HD
ENDBRANCH   2  22
BRANCH   6  24
ATOM     24  O   UNL     1       0.122  -2.635  26.603  1.00  0.00    -0.507 OA
ATOM     25  H   UNL     1      -0.303  -1.781  26.276  1.00  0.00     0.293 HD
ENDBRANCH   6  24
BRANCH   8  26
ATOM     26  O   UNL     1       4.125  -5.204  27.125  1.00  0.00    -0.508 OA
ATOM     27  H   UNL     1       4.916  -5.729  26.772  1.00  0.00     0.293 HD
ENDBRANCH   8  26
TORSDOF 6
ENDMDL
MODEL 6
REMARK VINA RESULT:    -5.612      3.442      5.669
REMARK INTER + INTRA:          -6.957
REMARK INTER:                  -6.639
REMARK INTRA:                  -0.319
REMARK UNBOUND:                -0.197
REMARK SMILES O=c1c(O)c(-c2ccc(O)c(O)c2)oc2cc(O)cc(O)c12
REMARK SMILES IDX 5 1 3 2 2 3 1 4 22 5 20 6 19 7 17 8 16 9 15 10 14 11 6 12
REMARK SMILES IDX 7 13 8 14 9 15 13 16 11 17 10 18 12 20 4 22 21 24 18 26
REMARK H PARENT 10 19 12 21 4 23 21 25 18 27
REMARK Flexibility Score: inf
ROOT
ATOM      1  C   UNL     1      -0.491  -3.043  24.264  1.00  0.00     0.180 A 
ATOM      2  C   UNL     1      -0.051  -2.515  25.490  1.00  0.00     0.208 A 
ATOM      3  C   UNL     1       1.165  -2.965  26.028  1.00  0.00     0.238 A 
ATOM      4  O   UNL     1       1.580  -2.448  27.098  1.00  0.00    -0.285 OA
ATOM      5  C   UNL     1       1.918  -3.947  25.342  1.00  0.00     0.111 A 
ATOM      6  C   UNL     1       3.144  -4.504  25.815  1.00  0.00     0.134 A 
ATOM      7  C   UNL     1       3.871  -5.374  24.992  1.00  0.00     0.093 A 
ATOM      8  C   UNL     1       3.384  -5.758  23.743  1.00  0.00     0.123 A 
ATOM      9  C   UNL     1       2.157  -5.266  23.295  1.00  0.00     0.094 A 
ATOM     10  C   UNL     1       1.428  -4.368  24.079  1.00  0.00     0.146 A 
ATOM     11  O   UNL     1       0.270  -3.915  23.613  1.00  0.00    -0.452 OA
ENDROOT
BRANCH   1  12
ATOM     12  C   UNL     1      -1.774  -2.638  23.646  1.00  0.00     0.025 A 
ATOM     13  C   UNL     1      -2.939  -3.366  23.933  1.00  0.00     0.016 A 
ATOM     14  C   UNL     1      -4.165  -2.990  23.377  1.00  0.00     0.051 A 
ATOM     15  C   UNL     1      -4.248  -1.874  22.539  1.00  0.00     0.157 A 
ATOM     16  C   UNL     1      -1.864  -1.503  22.819  1.00  0.00     0.062 A 
ATOM     17  C   UNL     1      -3.093  -1.122  22.261  1.00  0.00     0.158 A 
BRANCH  15  18
ATOM     18  O   UNL     1      -5.484  -1.523  21.997  1.00  0.00    -0.504 OA
ATOM     19  H   UNL     1      -6.202  -1.066  22.545  1.00  0.00     0.293 HD
ENDBRANCH  15  18
BRANCH  17  20
ATOM     20  O   UNL     1      -3.171   0.000  21.439  1.00  0.00    -0.504 OA
ATOM     21  H   UNL     1      -3.974   0.168  20.845  1.00  0.00     0.293 HD
ENDBRANCH  17  20
ENDBRANCH   1  12
BRANCH   2  22
ATOM     22  O   UNL     1      -0.800  -1.529  26.139  1.00  0.00    -0.502 OA
ATOM     23  H   UNL     1      -1.799  -1.616  26.290  1.00  0.00     0.293 HD
ENDBRANCH   2  22
BRANCH   6  24
ATOM     24  O   UNL     1       3.675  -4.259  27.084  1.00  0.00    -0.507 OA
ATOM     25  H   UNL     1       3.582  -3.390  27.588  1.00  0.00     0.293 HD
ENDBRANCH   6  24
BRANCH   8  26
ATOM     26  O   UNL     1       4.125  -6.637  22.957  1.00  0.00    -0.508 OA
ATOM     27  H   UNL     1       4.013  -6.672  21.950  1.00  0.00     0.293 HD
ENDBRANCH   8  26
TORSDOF 6
ENDMDL
MODEL 7
REMARK VINA RESULT:    -5.573      3.142      5.173
REMARK INTER + INTRA:          -6.910
REMARK INTER:                  -6.679
REMARK INTRA:                  -0.231
REMARK UNBOUND:                -0.197
REMARK SMILES O=c1c(O)c(-c2ccc(O)c(O)c2)oc2cc(O)cc(O)c12
REMARK SMILES IDX 5 1 3 2 2 3 1 4 22 5 20 6 19 7 17 8 16 9 15 10 14 11 6 12
REMARK SMILES IDX 7 13 8 14 9 15 13 16 11 17 10 18 12 20 4 22 21 24 18 26
REMARK H PARENT 10 19 12 21 4 23 21 25 18 27
REMARK Flexibility Score: inf
ROOT
ATOM      1  C   UNL     1      -0.690  -2.758  23.737  1.00  0.00     0.180 A 
ATOM      2  C   UNL     1      -1.262  -2.745  25.021  1.00  0.00     0.208 A 
ATOM      3  C   UNL     1      -2.446  -2.021  25.231  1.00  0.00     0.238 A 
ATOM      4  O   UNL     1      -2.984  -2.058  26.369  1.00  0.00    -0.285 OA
ATOM      5  C   UNL     1      -3.034  -1.307  24.160  1.00  0.00     0.111 A 
ATOM      6  C   UNL     1      -4.212  -0.507  24.269  1.00  0.00     0.134 A 
ATOM      7  C   UNL     1      -4.779   0.049  23.115  1.00  0.00     0.093 A 
ATOM      8  C   UNL     1      -4.175  -0.110  21.868  1.00  0.00     0.123 A 
ATOM      9  C   UNL     1      -2.990  -0.840  21.759  1.00  0.00     0.094 A 
ATOM     10  C   UNL     1      -2.422  -1.437  22.886  1.00  0.00     0.146 A 
ATOM     11  O   UNL     1      -1.300  -2.132  22.738  1.00  0.00    -0.452 OA
ENDROOT
BRANCH   1  12
ATOM     12  C   UNL     1       0.572  -3.477  23.444  1.00  0.00     0.025 A 
ATOM     13  C   UNL     1       0.568  -4.879  23.374  1.00  0.00     0.016 A 
ATOM     14  C   UNL     1       1.742  -5.576  23.078  1.00  0.00     0.051 A 
ATOM     15  C   UNL     1       2.933  -4.885  22.834  1.00  0.00     0.157 A 
ATOM     16  C   UNL     1       1.766  -2.783  23.178  1.00  0.00     0.062 A 
ATOM     17  C   UNL     1       2.945  -3.480  22.879  1.00  0.00     0.158 A 
BRANCH  15  18
ATOM     18  O   UNL     1       4.089  -5.608  22.544  1.00  0.00    -0.504 OA
ATOM     19  H   UNL     1       4.751  -5.305  21.840  1.00  0.00     0.293 HD
ENDBRANCH  15  18
BRANCH  17  20
ATOM     20  O   UNL     1       4.125  -2.785  22.622  1.00  0.00    -0.504 OA
ATOM     21  H   UNL     1       5.024  -3.251  22.609  1.00  0.00     0.293 HD
ENDBRANCH  17  20
ENDBRANCH   1  12
BRANCH   2  22
ATOM     22  O   UNL     1      -0.676  -3.475  26.059  1.00  0.00    -0.502 OA
ATOM     23  H   UNL     1       0.271  -3.305  26.377  1.00  0.00     0.293 HD
ENDBRANCH   2  22
BRANCH   6  24
ATOM     24  O   UNL     1      -4.844  -0.209  25.479  1.00  0.00    -0.507 OA
ATOM     25  H   UNL     1      -5.689   0.333  25.568  1.00  0.00     0.293 HD
ENDBRANCH   6  24
BRANCH   8  26
ATOM     26  O   UNL     1      -4.758   0.470  20.743  1.00  0.00    -0.508 OA
ATOM     27  H   UNL     1      -5.757   0.428  20.583  1.00  0.00     0.293 HD
ENDBRANCH   8  26
TORSDOF 6
ENDMDL
MODEL 8
REMARK VINA RESULT:    -5.561      5.161      6.253
REMARK INTER + INTRA:          -6.895
REMARK INTER:                  -6.708
REMARK INTRA:                  -0.187
REMARK UNBOUND:                -0.197
REMARK SMILES O=c1c(O)c(-c2ccc(O)c(O)c2)oc2cc(O)cc(O)c12
REMARK SMILES IDX 5 1 3 2 2 3 1 4 22 5 20 6 19 7 17 8 16 9 15 10 14 11 6 12
REMARK SMILES IDX 7 13 8 14 9 15 13 16 11 17 10 18 12 20 4 22 21 24 18 26
REMARK H PARENT 10 19 12 21 4 23 21 25 18 27
REMARK Flexibility Score: inf
ROOT
ATOM      1  C   UNL     1      -3.098  -1.148  23.029  1.00  0.00     0.180 A 
ATOM      2  C   UNL     1      -3.066  -2.418  23.632  1.00  0.00     0.208 A 
ATOM      3  C   UNL     1      -2.384  -2.576  24.849  1.00  0.00     0.238 A 
ATOM      4  O   UNL     1      -2.405  -3.703  25.411  1.00  0.00    -0.285 OA
ATOM      5  C   UNL     1      -1.730  -1.469  25.440  1.00  0.00     0.111 A 
ATOM      6  C   UNL     1      -0.976  -1.524  26.650  1.00  0.00     0.134 A 
ATOM      7  C   UNL     1      -0.482  -0.340  27.211  1.00  0.00     0.093 A 
ATOM      8  C   UNL     1      -0.657   0.888  26.573  1.00  0.00     0.123 A 
ATOM      9  C   UNL     1      -1.342   0.945  25.357  1.00  0.00     0.094 A 
ATOM     10  C   UNL     1      -1.877  -0.214  24.792  1.00  0.00     0.146 A 
ATOM     11  O   UNL     1      -2.530  -0.115  23.641  1.00  0.00    -0.452 OA
ENDROOT
BRANCH   1  12
ATOM     12  C   UNL     1      -3.774  -0.908  21.734  1.00  0.00     0.025 A 
ATOM     13  C   UNL     1      -5.175  -0.974  21.663  1.00  0.00     0.016 A 
ATOM     14  C   UNL     1      -5.835  -0.730  20.455  1.00  0.00     0.051 A 
ATOM     15  C   UNL     1      -5.109  -0.404  19.306  1.00  0.00     0.157 A 
ATOM     16  C   UNL     1      -3.048  -0.559  20.581  1.00  0.00     0.062 A 
ATOM     17  C   UNL     1      -3.708  -0.312  19.369  1.00  0.00     0.158 A 
BRANCH  15  18
ATOM     18  O   UNL     1      -5.794  -0.168  18.115  1.00  0.00    -0.504 OA
ATOM     19  H   UNL     1      -6.449  -0.837  17.729  1.00  0.00     0.293 HD
ENDBRANCH  15  18
BRANCH  17  20
ATOM     20  O   UNL     1      -2.979   0.028  18.231  1.00  0.00    -0.504 OA
ATOM     21  H   UNL     1      -2.030  -0.298  18.091  1.00  0.00     0.293 HD
ENDBRANCH  17  20
ENDBRANCH   1  12
BRANCH   2  22
ATOM     22  O   UNL     1      -3.737  -3.492  23.042  1.00  0.00    -0.502 OA
ATOM     23  H   UNL     1      -3.274  -4.150  22.426  1.00  0.00     0.293 HD
ENDBRANCH   2  22
BRANCH   6  24
ATOM     24  O   UNL     1      -0.664  -2.709  27.322  1.00  0.00    -0.507 OA
ATOM     25  H   UNL     1      -1.314  -3.460  27.495  1.00  0.00     0.293 HD
ENDBRANCH   6  24
BRANCH   8  26
ATOM     26  O   UNL     1      -0.139   2.044  27.151  1.00  0.00    -0.508 OA
ATOM     27  H   UNL     1       0.045   2.103  28.145  1.00  0.00     0.293 HD
ENDBRANCH   8  26
TORSDOF 6
ENDMDL
MODEL 9
REMARK VINA RESULT:    -5.533      2.290      6.923
REMARK INTER + INTRA:          -6.862
REMARK INTER:                  -6.535
REMARK INTRA:                  -0.327
REMARK UNBOUND:                -0.197
REMARK SMILES O=c1c(O)c(-c2ccc(O)c(O)c2)oc2cc(O)cc(O)c12
REMARK SMILES IDX 5 1 3 2 2 3 1 4 22 5 20 6 19 7 17 8 16 9 15 10 14 11 6 12
REMARK SMILES IDX 7 13 8 14 9 15 13 16 11 17 10 18 12 20 4 22 21 24 18 26
REMARK H PARENT 10 19 12 21 4 23 21 25 18 27
REMARK Flexibility Score: inf
ROOT
ATOM      1  C   UNL     1       0.162  -2.499  24.821  1.00  0.00     0.180 A 
ATOM      2  C   UNL     1       1.054  -3.082  25.738  1.00  0.00     0.208 A 
ATOM      3  C   UNL     1       2.101  -3.883  25.253  1.00  0.00     0.238 A 
ATOM      4  O   UNL     1       2.929  -4.357  26.075  1.00  0.00    -0.285 OA
ATOM      5  C   UNL     1       2.233  -4.103  23.862  1.00  0.00     0.111 A 
ATOM      6  C   UNL     1       3.232  -4.928  23.263  1.00  0.00     0.134 A 
ATOM      7  C   UNL     1       3.350  -4.969  21.868  1.00  0.00     0.093 A 
ATOM      8  C   UNL     1       2.464  -4.268  21.050  1.00  0.00     0.123 A 
ATOM      9  C   UNL     1       1.446  -3.505  21.624  1.00  0.00     0.094 A 
ATOM     10  C   UNL     1       1.327  -3.416  23.012  1.00  0.00     0.146 A 
ATOM     11  O   UNL     1       0.351  -2.671  23.518  1.00  0.00    -0.452 OA
ENDROOT
BRANCH   1  12
ATOM     12  C   UNL     1      -0.981  -1.664  25.257  1.00  0.00     0.025 A 
ATOM     13  C   UNL     1      -0.862  -0.265  25.238  1.00  0.00     0.016 A 
ATOM     14  C   UNL     1      -1.935   0.542  25.625  1.00  0.00     0.051 A 
ATOM     15  C   UNL     1      -3.145  -0.033  26.022  1.00  0.00     0.157 A 
ATOM     16  C   UNL     1      -2.207  -2.240  25.637  1.00  0.00     0.062 A 
ATOM     17  C   UNL     1      -3.285  -1.432  26.024  1.00  0.00     0.158 A 
BRANCH  15  18
ATOM     18  O   UNL     1      -4.198   0.797  26.405  1.00  0.00    -0.504 OA
ATOM     19  H   UNL     1      -5.154   0.621  26.122  1.00  0.00     0.293 HD
ENDBRANCH  15  18
BRANCH  17  20
ATOM     20  O   UNL     1      -4.494  -2.012  26.405  1.00  0.00    -0.504 OA
ATOM     21  H   UNL     1      -5.255  -1.457  26.778  1.00  0.00     0.293 HD
ENDBRANCH  17  20
ENDBRANCH   1  12
BRANCH   2  22
ATOM     22  O   UNL     1       0.918  -2.833  27.106  1.00  0.00    -0.502 OA
ATOM     23  H   UNL     1       0.894  -3.576  27.794  1.00  0.00     0.293 HD
ENDBRANCH   2  22
BRANCH   6  24
ATOM     24  O   UNL     1       4.109  -5.741  23.987  1.00  0.00    -0.507 OA
ATOM     25  H   UNL     1       4.441  -6.643  23.681  1.00  0.00     0.293 HD
ENDBRANCH   6  24
BRANCH   8  26
ATOM     26  O   UNL     1       2.601  -4.344  19.666  1.00  0.00    -0.508 OA
ATOM     27  H   UNL     1       3.220  -3.723  19.159  1.00  0.00     0.293 HD
ENDBRANCH   8  26
TORSDOF 6
ENDMDL
