MODEL 1
REMARK VINA RESULT:    -4.022      0.000      0.000
REMARK INTER + INTRA:         -16.558
REMARK INTER:                 -10.605
REMARK INTRA:                  -5.953
REMARK UNBOUND:                -5.953
REMARK SMILES CCCCCCCCCCCCCCCCCCCCCCCCCCCCCC(=O)[O-]
REMARK SMILES IDX 16 1 17 2 18 3 19 4 20 5 21 6 22 7 23 8 24 9 25 10 26 11
REMARK SMILES IDX 27 12 28 13 29 14 30 15 31 16 32 17 15 18 14 19 13 20 12 21
REMARK SMILES IDX 11 22 10 23 9 24 8 25 7 26 6 27 5 28 4 29 3 30 2 31 1 32
REMARK H PARENT
REMARK Flexibility Score: inf
ROOT
ATOM      1  C   UNL     1      32.259   8.781  28.094  1.00  0.00     0.000 C 
ENDROOT
BRANCH   1   2
ATOM      2  C   UNL     1      30.814   8.246  28.189  1.00  0.00     0.000 C 
BRANCH   2   3
ATOM      3  C   UNL     1      30.264   8.151  29.627  1.00  0.00     0.000 C 
BRANCH   3   4
ATOM      4  C   UNL     1      30.190   6.733  30.226  1.00  0.00     0.000 C 
BRANCH   4   5
ATOM      5  C   UNL     1      30.877   6.552  31.593  1.00  0.00     0.000 C 
BRANCH   5   6
ATOM      6  C   UNL     1      30.894   7.838  32.439  1.00  0.00     0.000 C 
BRANCH   6   7
ATOM      7  C   UNL     1      31.503   7.614  33.831  1.00  0.00     0.000 C 
BRANCH   7   8
ATOM      8  C   UNL     1      31.964   8.917  34.501  1.00  0.00     0.000 C 
BRANCH   8   9
ATOM      9  C   UNL     1      30.794   9.901  34.633  1.00  0.00     0.000 C 
BRANCH   9  10
ATOM     10  C   UNL     1      31.084  11.275  34.004  1.00  0.00     0.000 C 
BRANCH  10  11
ATOM     11  C   UNL     1      30.305  11.547  32.702  1.00  0.00     0.000 C 
BRANCH  11  12
ATOM     12  C   UNL     1      31.156  11.303  31.444  1.00  0.00     0.000 C 
BRANCH  12  13
ATOM     13  C   UNL     1      30.963  12.400  30.378  1.00  0.00     0.006 C 
BRANCH  13  14
ATOM     14  C   UNL     1      30.229  11.916  29.113  1.00  0.00     0.053 C 
BRANCH  14  15
ATOM     15  C   UNL     1      28.741  11.924  29.299  1.00  0.00     0.041 C 
ATOM     16  O   UNL     1      28.030  11.042  28.753  1.00  0.00    -0.550 OA
ATOM     17  O   UNL     1      28.151  12.865  30.135  1.00  0.00    -0.550 OA
ENDBRANCH  14  15
ENDBRANCH  13  14
ENDBRANCH  12  13
ENDBRANCH  11  12
ENDBRANCH  10  11
ENDBRANCH   9  10
ENDBRANCH   8   9
ENDBRANCH   7   8
ENDBRANCH   6   7
ENDBRANCH   5   6
ENDBRANCH   4   5
ENDBRANCH   3   4
ENDBRANCH   2   3
ENDBRANCH   1   2
BRANCH   1  18
ATOM     18  C   UNL     1      32.838   9.215  29.453  1.00  0.00     0.000 C 
BRANCH  18  19
ATOM     19  C   UNL     1      34.133   8.469  29.818  1.00  0.00     0.000 C 
BRANCH  19  20
ATOM     20  C   UNL     1      34.224   8.137  31.316  1.00  0.00     0.000 C 
BRANCH  20  21
ATOM     21  C   UNL     1      35.544   7.431  31.683  1.00  0.00     0.000 C 
BRANCH  21  22
ATOM     22  C   UNL     1      36.715   7.695  30.713  1.00  0.00     0.000 C 
BRANCH  22  23
ATOM     23  C   UNL     1      37.638   8.864  31.104  1.00  0.00     0.000 C 
BRANCH  23  24
ATOM     24  C   UNL     1      37.333  10.156  30.326  1.00  0.00    -0.000 C 
BRANCH  24  25
ATOM     25  C   UNL     1      36.970  11.335  31.241  1.00  0.00    -0.000 C 
BRANCH  25  26
ATOM     26  C   UNL     1      36.506  10.877  32.635  1.00  0.00    -0.000 C 
BRANCH  26  27
ATOM     27  C   UNL     1      35.060  11.297  32.941  1.00  0.00    -0.000 C 
BRANCH  27  28
ATOM     28  C   UNL     1      34.523  12.328  31.934  1.00  0.00    -0.000 C 
BRANCH  28  29
ATOM     29  C   UNL     1      34.773  13.775  32.395  1.00  0.00    -0.000 C 
BRANCH  29  30
ATOM     30  C   UNL     1      33.974  14.157  33.663  1.00  0.00    -0.000 C 
BRANCH  30  31
ATOM     31  C   UNL     1      32.543  14.631  33.362  1.00  0.00    -0.003 C 
ATOM     32  C   UNL     1      32.446  15.413  32.055  1.00  0.00     0.004 C 
ENDBRANCH  30  31
ENDBRANCH  29  30
ENDBRANCH  28  29
ENDBRANCH  27  28
ENDBRANCH  26  27
ENDBRANCH  25  26
ENDBRANCH  24  25
ENDBRANCH  23  24
ENDBRANCH  22  23
ENDBRANCH  21  22
ENDBRANCH  20  21
ENDBRANCH  19  20
ENDBRANCH  18  19
ENDBRANCH   1  18
TORSDOF 28
ENDMDL
MODEL 2
REMARK VINA RESULT:    -3.977      2.712      5.644
REMARK INTER + INTRA:         -16.441
REMARK INTER:                 -10.945
REMARK INTRA:                  -5.496
REMARK UNBOUND:                -5.953
REMARK SMILES CCCCCCCCCCCCCCCCCCCCCCCCCCCCCC(=O)[O-]
REMARK SMILES IDX 16 1 17 2 18 3 19 4 20 5 21 6 22 7 23 8 24 9 25 10 26 11
REMARK SMILES IDX 27 12 28 13 29 14 30 15 31 16 32 17 15 18 14 19 13 20 12 21
REMARK SMILES IDX 11 22 10 23 9 24 8 25 7 26 6 27 5 28 4 29 3 30 2 31 1 32
REMARK H PARENT
REMARK Flexibility Score: inf
ROOT
ATOM      1  C   UNL     1      31.933  10.925  32.213  1.00  0.00     0.000 C 
ENDROOT
BRANCH   1   2
ATOM      2  C   UNL     1      30.835  11.811  31.586  1.00  0.00     0.000 C 
BRANCH   2   3
ATOM      3  C   UNL     1      29.395  11.346  31.885  1.00  0.00     0.000 C 
BRANCH   3   4
ATOM      4  C   UNL     1      28.272  12.186  31.247  1.00  0.00     0.000 C 
BRANCH   4   5
ATOM      5  C   UNL     1      28.195  12.136  29.710  1.00  0.00     0.000 C 
BRANCH   5   6
ATOM      6  C   UNL     1      28.441  10.729  29.134  1.00  0.00     0.000 C 
BRANCH   6   7
ATOM      7  C   UNL     1      28.791  10.762  27.639  1.00  0.00     0.000 C 
BRANCH   7   8
ATOM      8  C   UNL     1      30.092  10.017  27.310  1.00  0.00     0.000 C 
BRANCH   8   9
ATOM      9  C   UNL     1      31.025   9.992  28.529  1.00  0.00     0.000 C 
BRANCH   9  10
ATOM     10  C   UNL     1      32.097   8.891  28.450  1.00  0.00     0.000 C 
BRANCH  10  11
ATOM     11  C   UNL     1      31.980   7.819  29.553  1.00  0.00     0.000 C 
BRANCH  11  12
ATOM     12  C   UNL     1      30.664   7.927  30.343  1.00  0.00     0.000 C 
BRANCH  12  13
ATOM     13  C   UNL     1      29.636   6.857  29.926  1.00  0.00     0.006 C 
BRANCH  13  14
ATOM     14  C   UNL     1      30.023   5.426  30.342  1.00  0.00     0.053 C 
BRANCH  14  15
ATOM     15  C   UNL     1      29.064   4.411  29.795  1.00  0.00     0.041 C 
ATOM     16  O   UNL     1      29.175   4.010  28.608  1.00  0.00    -0.550 OA
ATOM     17  O   UNL     1      28.093   3.857  30.621  1.00  0.00    -0.550 OA
ENDBRANCH  14  15
ENDBRANCH  13  14
ENDBRANCH  12  13
ENDBRANCH  11  12
ENDBRANCH  10  11
ENDBRANCH   9  10
ENDBRANCH   8   9
ENDBRANCH   7   8
ENDBRANCH   6   7
ENDBRANCH   5   6
ENDBRANCH   4   5
ENDBRANCH   3   4
ENDBRANCH   2   3
ENDBRANCH   1   2
BRANCH   1  18
ATOM     18  C   UNL     1      33.360  11.407  31.891  1.00  0.00     0.000 C 
BRANCH  18  19
ATOM     19  C   UNL     1      34.116  10.453  30.951  1.00  0.00     0.000 C 
BRANCH  19  20
ATOM     20  C   UNL     1      35.632  10.704  30.945  1.00  0.00     0.000 C 
BRANCH  20  21
ATOM     21  C   UNL     1      36.427   9.501  30.402  1.00  0.00     0.000 C 
BRANCH  21  22
ATOM     22  C   UNL     1      35.734   8.132  30.575  1.00  0.00     0.000 C 
BRANCH  22  23
ATOM     23  C   UNL     1      36.546   7.082  31.355  1.00  0.00     0.000 C 
BRANCH  23  24
ATOM     24  C   UNL     1      37.419   7.700  32.462  1.00  0.00    -0.000 C 
BRANCH  24  25
ATOM     25  C   UNL     1      37.769   6.701  33.576  1.00  0.00    -0.000 C 
BRANCH  25  26
ATOM     26  C   UNL     1      36.997   6.976  34.878  1.00  0.00    -0.000 C 
BRANCH  26  27
ATOM     27  C   UNL     1      35.581   6.379  34.859  1.00  0.00    -0.000 C 
BRANCH  27  28
ATOM     28  C   UNL     1      34.501   7.419  35.205  1.00  0.00    -0.000 C 
BRANCH  28  29
ATOM     29  C   UNL     1      34.050   8.219  33.970  1.00  0.00    -0.000 C 
BRANCH  29  30
ATOM     30  C   UNL     1      33.134   7.412  33.022  1.00  0.00    -0.000 C 
BRANCH  30  31
ATOM     31  C   UNL     1      31.897   6.826  33.721  1.00  0.00    -0.003 C 
ATOM     32  C   UNL     1      30.891   7.900  34.131  1.00  0.00     0.004 C 
ENDBRANCH  30  31
ENDBRANCH  29  30
ENDBRANCH  28  29
ENDBRANCH  27  28
ENDBRANCH  26  27
ENDBRANCH  25  26
ENDBRANCH  24  25
ENDBRANCH  23  24
ENDBRANCH  22  23
ENDBRANCH  21  22
ENDBRANCH  20  21
ENDBRANCH  19  20
ENDBRANCH  18  19
ENDBRANCH   1  18
TORSDOF 28
ENDMDL
MODEL 3
REMARK VINA RESULT:    -3.937      2.257      5.990
REMARK INTER + INTRA:         -16.333
REMARK INTER:                  -9.443
REMARK INTRA:                  -6.890
REMARK UNBOUND:                -5.953
REMARK SMILES CCCCCCCCCCCCCCCCCCCCCCCCCCCCCC(=O)[O-]
REMARK SMILES IDX 16 1 17 2 18 3 19 4 20 5 21 6 22 7 23 8 24 9 25 10 26 11
REMARK SMILES IDX 27 12 28 13 29 14 30 15 31 16 32 17 15 18 14 19 13 20 12 21
REMARK SMILES IDX 11 22 10 23 9 24 8 25 7 26 6 27 5 28 4 29 3 30 2 31 1 32
REMARK H PARENT
REMARK Flexibility Score: inf
ROOT
ATOM      1  C   UNL     1      30.714   8.855  34.688  1.00  0.00     0.000 C 
ENDROOT
BRANCH   1   2
ATOM      2  C   UNL     1      31.864   9.820  35.048  1.00  0.00     0.000 C 
BRANCH   2   3
ATOM      3  C   UNL     1      32.986   9.186  35.896  1.00  0.00     0.000 C 
BRANCH   3   4
ATOM      4  C   UNL     1      34.296   8.871  35.149  1.00  0.00     0.000 C 
BRANCH   4   5
ATOM      5  C   UNL     1      34.897   7.479  35.417  1.00  0.00     0.000 C 
BRANCH   5   6
ATOM      6  C   UNL     1      35.291   6.729  34.130  1.00  0.00     0.000 C 
BRANCH   6   7
ATOM      7  C   UNL     1      36.207   7.566  33.225  1.00  0.00     0.000 C 
BRANCH   7   8
ATOM      8  C   UNL     1      36.394   6.953  31.830  1.00  0.00     0.000 C 
BRANCH   8   9
ATOM      9  C   UNL     1      36.723   8.042  30.799  1.00  0.00     0.000 C 
BRANCH   9  10
ATOM     10  C   UNL     1      36.928   9.431  31.429  1.00  0.00     0.000 C 
BRANCH  10  11
ATOM     11  C   UNL     1      36.693  10.603  30.456  1.00  0.00     0.000 C 
BRANCH  11  12
ATOM     12  C   UNL     1      36.242  11.886  31.175  1.00  0.00     0.000 C 
BRANCH  12  13
ATOM     13  C   UNL     1      35.913  11.645  32.662  1.00  0.00     0.006 C 
BRANCH  13  14
ATOM     14  C   UNL     1      34.519  12.148  33.081  1.00  0.00     0.053 C 
BRANCH  14  15
ATOM     15  C   UNL     1      34.468  13.646  33.146  1.00  0.00     0.041 C 
ATOM     16  O   UNL     1      34.022  14.307  32.174  1.00  0.00    -0.550 OA
ATOM     17  O   UNL     1      34.845  14.303  34.311  1.00  0.00    -0.550 OA
ENDBRANCH  14  15
ENDBRANCH  13  14
ENDBRANCH  12  13
ENDBRANCH  11  12
ENDBRANCH  10  11
ENDBRANCH   9  10
ENDBRANCH   8   9
ENDBRANCH   7   8
ENDBRANCH   6   7
ENDBRANCH   5   6
ENDBRANCH   4   5
ENDBRANCH   3   4
ENDBRANCH   2   3
ENDBRANCH   1   2
BRANCH   1  18
ATOM     18  C   UNL     1      31.040   7.381  34.992  1.00  0.00     0.000 C 
BRANCH  18  19
ATOM     19  C   UNL     1      31.439   6.585  33.738  1.00  0.00     0.000 C 
BRANCH  19  20
ATOM     20  C   UNL     1      31.344   7.418  32.450  1.00  0.00     0.000 C 
BRANCH  20  21
ATOM     21  C   UNL     1      32.721   7.661  31.803  1.00  0.00     0.000 C 
BRANCH  21  22
ATOM     22  C   UNL     1      33.103   9.146  31.624  1.00  0.00     0.000 C 
BRANCH  22  23
ATOM     23  C   UNL     1      33.178   9.631  30.165  1.00  0.00     0.000 C 
BRANCH  23  24
ATOM     24  C   UNL     1      33.509   8.502  29.173  1.00  0.00    -0.000 C 
BRANCH  24  25
ATOM     25  C   UNL     1      32.582   8.490  27.947  1.00  0.00    -0.000 C 
BRANCH  25  26
ATOM     26  C   UNL     1      31.247   9.208  28.212  1.00  0.00    -0.000 C 
BRANCH  26  27
ATOM     27  C   UNL     1      30.227   8.307  28.926  1.00  0.00    -0.000 C 
BRANCH  27  28
ATOM     28  C   UNL     1      29.443   9.058  30.015  1.00  0.00    -0.000 C 
BRANCH  28  29
ATOM     29  C   UNL     1      29.033  10.472  29.564  1.00  0.00    -0.000 C 
BRANCH  29  30
ATOM     30  C   UNL     1      28.972  11.488  30.727  1.00  0.00    -0.000 C 
BRANCH  30  31
ATOM     31  C   UNL     1      29.862  11.105  31.920  1.00  0.00    -0.003 C 
ATOM     32  C   UNL     1      30.940  12.147  32.208  1.00  0.00     0.004 C 
ENDBRANCH  30  31
ENDBRANCH  29  30
ENDBRANCH  28  29
ENDBRANCH  27  28
ENDBRANCH  26  27
ENDBRANCH  25  26
ENDBRANCH  24  25
ENDBRANCH  23  24
ENDBRANCH  22  23
ENDBRANCH  21  22
ENDBRANCH  20  21
ENDBRANCH  19  20
ENDBRANCH  18  19
ENDBRANCH   1  18
TORSDOF 28
ENDMDL
MODEL 4
REMARK VINA RESULT:    -3.931      1.142      4.971
REMARK INTER + INTRA:         -16.319
REMARK INTER:                 -10.011
REMARK INTRA:                  -6.309
REMARK UNBOUND:                -5.953
REMARK SMILES CCCCCCCCCCCCCCCCCCCCCCCCCCCCCC(=O)[O-]
REMARK SMILES IDX 16 1 17 2 18 3 19 4 20 5 21 6 22 7 23 8 24 9 25 10 26 11
REMARK SMILES IDX 27 12 28 13 29 14 30 15 31 16 32 17 15 18 14 19 13 20 12 21
REMARK SMILES IDX 11 22 10 23 9 24 8 25 7 26 6 27 5 28 4 29 3 30 2 31 1 32
REMARK H PARENT
REMARK Flexibility Score: inf
ROOT
ATOM      1  C   UNL     1      31.657   9.162  34.877  1.00  0.00     0.000 C 
ENDROOT
BRANCH   1   2
ATOM      2  C   UNL     1      31.000   8.547  33.623  1.00  0.00     0.000 C 
BRANCH   2   3
ATOM      3  C   UNL     1      31.343   7.061  33.389  1.00  0.00     0.000 C 
BRANCH   3   4
ATOM      4  C   UNL     1      31.428   6.614  31.917  1.00  0.00     0.000 C 
BRANCH   4   5
ATOM      5  C   UNL     1      30.331   7.168  30.989  1.00  0.00     0.000 C 
BRANCH   5   6
ATOM      6  C   UNL     1      30.720   7.131  29.499  1.00  0.00     0.000 C 
BRANCH   6   7
ATOM      7  C   UNL     1      30.465   8.471  28.795  1.00  0.00     0.000 C 
BRANCH   7   8
ATOM      8  C   UNL     1      31.757   9.169  28.346  1.00  0.00     0.000 C 
BRANCH   8   9
ATOM      9  C   UNL     1      32.903   8.867  29.322  1.00  0.00     0.000 C 
BRANCH   9  10
ATOM     10  C   UNL     1      32.889   9.766  30.570  1.00  0.00     0.000 C 
BRANCH  10  11
ATOM     11  C   UNL     1      32.067  11.060  30.405  1.00  0.00     0.000 C 
BRANCH  11  12
ATOM     12  C   UNL     1      30.897  11.147  31.400  1.00  0.00     0.000 C 
BRANCH  12  13
ATOM     13  C   UNL     1      29.712  11.964  30.848  1.00  0.00     0.006 C 
BRANCH  13  14
ATOM     14  C   UNL     1      29.782  12.214  29.330  1.00  0.00     0.053 C 
BRANCH  14  15
ATOM     15  C   UNL     1      28.666  11.525  28.603  1.00  0.00     0.041 C 
ATOM     16  O   UNL     1      27.587  11.268  29.196  1.00  0.00    -0.550 OA
ATOM     17  O   UNL     1      28.794  11.233  27.250  1.00  0.00    -0.550 OA
ENDBRANCH  14  15
ENDBRANCH  13  14
ENDBRANCH  12  13
ENDBRANCH  11  12
ENDBRANCH  10  11
ENDBRANCH   9  10
ENDBRANCH   8   9
ENDBRANCH   7   8
ENDBRANCH   6   7
ENDBRANCH   5   6
ENDBRANCH   4   5
ENDBRANCH   3   4
ENDBRANCH   2   3
ENDBRANCH   1   2
BRANCH   1  18
ATOM     18  C   UNL     1      32.705  10.241  34.547  1.00  0.00     0.000 C 
BRANCH  18  19
ATOM     19  C   UNL     1      32.526  11.524  35.377  1.00  0.00     0.000 C 
BRANCH  19  20
ATOM     20  C   UNL     1      31.748  12.614  34.623  1.00  0.00     0.000 C 
BRANCH  20  21
ATOM     21  C   UNL     1      32.644  13.795  34.204  1.00  0.00     0.000 C 
BRANCH  21  22
ATOM     22  C   UNL     1      32.704  14.060  32.685  1.00  0.00     0.000 C 
BRANCH  22  23
ATOM     23  C   UNL     1      34.096  13.902  32.047  1.00  0.00     0.000 C 
BRANCH  23  24
ATOM     24  C   UNL     1      35.025  12.980  32.856  1.00  0.00    -0.000 C 
BRANCH  24  25
ATOM     25  C   UNL     1      35.314  11.648  32.146  1.00  0.00    -0.000 C 
BRANCH  25  26
ATOM     26  C   UNL     1      36.319  11.803  30.991  1.00  0.00    -0.000 C 
BRANCH  26  27
ATOM     27  C   UNL     1      36.769  10.450  30.418  1.00  0.00    -0.000 C 
BRANCH  27  28
ATOM     28  C   UNL     1      36.734   9.327  31.469  1.00  0.00    -0.000 C 
BRANCH  28  29
ATOM     29  C   UNL     1      36.246   7.993  30.877  1.00  0.00    -0.000 C 
BRANCH  29  30
ATOM     30  C   UNL     1      35.264   7.239  31.803  1.00  0.00    -0.000 C 
BRANCH  30  31
ATOM     31  C   UNL     1      35.250   7.776  33.244  1.00  0.00    -0.003 C 
ATOM     32  C   UNL     1      34.813   6.721  34.258  1.00  0.00     0.004 C 
ENDBRANCH  30  31
ENDBRANCH  29  30
ENDBRANCH  28  29
ENDBRANCH  27  28
ENDBRANCH  26  27
ENDBRANCH  25  26
ENDBRANCH  24  25
ENDBRANCH  23  24
ENDBRANCH  22  23
ENDBRANCH  21  22
ENDBRANCH  20  21
ENDBRANCH  19  20
ENDBRANCH  18  19
ENDBRANCH   1  18
TORSDOF 28
ENDMDL
MODEL 5
REMARK VINA RESULT:    -3.913      1.362      2.401
REMARK INTER + INTRA:         -16.270
REMARK INTER:                  -9.928
REMARK INTRA:                  -6.342
REMARK UNBOUND:                -5.953
REMARK SMILES CCCCCCCCCCCCCCCCCCCCCCCCCCCCCC(=O)[O-]
REMARK SMILES IDX 16 1 17 2 18 3 19 4 20 5 21 6 22 7 23 8 24 9 25 10 26 11
REMARK SMILES IDX 27 12 28 13 29 14 30 15 31 16 32 17 15 18 14 19 13 20 12 21
REMARK SMILES IDX 11 22 10 23 9 24 8 25 7 26 6 27 5 28 4 29 3 30 2 31 1 32
REMARK H PARENT
REMARK Flexibility Score: inf
ROOT
ATOM      1  C   UNL     1      30.594   8.689  29.352  1.00  0.00     0.000 C 
ENDROOT
BRANCH   1   2
ATOM      2  C   UNL     1      30.274   7.185  29.496  1.00  0.00     0.000 C 
BRANCH   2   3
ATOM      3  C   UNL     1      30.623   6.589  30.875  1.00  0.00     0.000 C 
BRANCH   3   4
ATOM      4  C   UNL     1      31.299   7.551  31.871  1.00  0.00     0.000 C 
BRANCH   4   5
ATOM      5  C   UNL     1      31.652   6.948  33.244  1.00  0.00     0.000 C 
BRANCH   5   6
ATOM      6  C   UNL     1      30.849   7.566  34.403  1.00  0.00     0.000 C 
BRANCH   6   7
ATOM      7  C   UNL     1      31.753   8.062  35.541  1.00  0.00     0.000 C 
BRANCH   7   8
ATOM      8  C   UNL     1      31.493   9.527  35.921  1.00  0.00     0.000 C 
BRANCH   8   9
ATOM      9  C   UNL     1      30.839  10.281  34.754  1.00  0.00     0.000 C 
BRANCH   9  10
ATOM     10  C   UNL     1      31.247  11.762  34.685  1.00  0.00     0.000 C 
BRANCH  10  11
ATOM     11  C   UNL     1      31.347  12.321  33.251  1.00  0.00     0.000 C 
BRANCH  11  12
ATOM     12  C   UNL     1      31.159  11.232  32.180  1.00  0.00     0.000 C 
BRANCH  12  13
ATOM     13  C   UNL     1      31.339  11.775  30.749  1.00  0.00     0.006 C 
BRANCH  13  14
ATOM     14  C   UNL     1      30.361  12.907  30.385  1.00  0.00     0.053 C 
BRANCH  14  15
ATOM     15  C   UNL     1      29.024  12.371  29.968  1.00  0.00     0.041 C 
ATOM     16  O   UNL     1      28.879  11.842  28.836  1.00  0.00    -0.550 OA
ATOM     17  O   UNL     1      27.958  12.393  30.859  1.00  0.00    -0.550 OA
ENDBRANCH  14  15
ENDBRANCH  13  14
ENDBRANCH  12  13
ENDBRANCH  11  12
ENDBRANCH  10  11
ENDBRANCH   9  10
ENDBRANCH   8   9
ENDBRANCH   7   8
ENDBRANCH   6   7
ENDBRANCH   5   6
ENDBRANCH   4   5
ENDBRANCH   3   4
ENDBRANCH   2   3
ENDBRANCH   1   2
BRANCH   1  18
ATOM     18  C   UNL     1      31.589   8.992  28.216  1.00  0.00     0.000 C 
BRANCH  18  19
ATOM     19  C   UNL     1      33.006   8.467  28.504  1.00  0.00     0.000 C 
BRANCH  19  20
ATOM     20  C   UNL     1      33.664   9.163  29.707  1.00  0.00     0.000 C 
BRANCH  20  21
ATOM     21  C   UNL     1      34.809   8.331  30.314  1.00  0.00     0.000 C 
BRANCH  21  22
ATOM     22  C   UNL     1      36.194   9.012  30.286  1.00  0.00     0.000 C 
BRANCH  22  23
ATOM     23  C   UNL     1      37.232   8.424  31.260  1.00  0.00     0.000 C 
BRANCH  23  24
ATOM     24  C   UNL     1      36.808   7.063  31.839  1.00  0.00    -0.000 C 
BRANCH  24  25
ATOM     25  C   UNL     1      36.671   7.080  33.370  1.00  0.00    -0.000 C 
BRANCH  25  26
ATOM     26  C   UNL     1      35.263   7.498  33.830  1.00  0.00    -0.000 C 
BRANCH  26  27
ATOM     27  C   UNL     1      35.233   8.919  34.414  1.00  0.00    -0.000 C 
BRANCH  27  28
ATOM     28  C   UNL     1      34.335   9.868  33.602  1.00  0.00    -0.000 C 
BRANCH  28  29
ATOM     29  C   UNL     1      34.963  11.264  33.439  1.00  0.00    -0.000 C 
BRANCH  29  30
ATOM     30  C   UNL     1      34.884  11.801  31.992  1.00  0.00    -0.000 C 
BRANCH  30  31
ATOM     31  C   UNL     1      35.812  13.000  31.734  1.00  0.00    -0.003 C 
ATOM     32  C   UNL     1      37.286  12.653  31.924  1.00  0.00     0.004 C 
ENDBRANCH  30  31
ENDBRANCH  29  30
ENDBRANCH  28  29
ENDBRANCH  27  28
ENDBRANCH  26  27
ENDBRANCH  25  26
ENDBRANCH  24  25
ENDBRANCH  23  24
ENDBRANCH  22  23
ENDBRANCH  21  22
ENDBRANCH  20  21
ENDBRANCH  19  20
ENDBRANCH  18  19
ENDBRANCH   1  18
TORSDOF 28
ENDMDL
MODEL 6
REMARK VINA RESULT:    -3.894      3.016      5.914
REMARK INTER + INTRA:         -16.222
REMARK INTER:                 -10.285
REMARK INTRA:                  -5.937
REMARK UNBOUND:                -5.953
REMARK SMILES CCCCCCCCCCCCCCCCCCCCCCCCCCCCCC(=O)[O-]
REMARK SMILES IDX 16 1 17 2 18 3 19 4 20 5 21 6 22 7 23 8 24 9 25 10 26 11
REMARK SMILES IDX 27 12 28 13 29 14 30 15 31 16 32 17 15 18 14 19 13 20 12 21
REMARK SMILES IDX 11 22 10 23 9 24 8 25 7 26 6 27 5 28 4 29 3 30 2 31 1 32
REMARK H PARENT
REMARK Flexibility Score: inf
ROOT
ATOM      1  C   UNL     1      36.377   7.114  31.831  1.00  0.00     0.000 C 
ENDROOT
BRANCH   1   2
ATOM      2  C   UNL     1      35.040   7.405  31.117  1.00  0.00     0.000 C 
BRANCH   2   3
ATOM      3  C   UNL     1      35.008   8.737  30.341  1.00  0.00     0.000 C 
BRANCH   3   4
ATOM      4  C   UNL     1      33.615   9.224  29.897  1.00  0.00     0.000 C 
BRANCH   4   5
ATOM      5  C   UNL     1      33.026   8.519  28.662  1.00  0.00     0.000 C 
BRANCH   5   6
ATOM      6  C   UNL     1      31.653   9.075  28.242  1.00  0.00     0.000 C 
BRANCH   6   7
ATOM      7  C   UNL     1      30.518   8.066  28.473  1.00  0.00     0.000 C 
BRANCH   7   8
ATOM      8  C   UNL     1      30.020   8.045  29.926  1.00  0.00     0.000 C 
BRANCH   8   9
ATOM      9  C   UNL     1      30.307   6.684  30.577  1.00  0.00     0.000 C 
BRANCH   9  10
ATOM     10  C   UNL     1      31.372   6.755  31.685  1.00  0.00     0.000 C 
BRANCH  10  11
ATOM     11  C   UNL     1      31.028   7.734  32.825  1.00  0.00     0.000 C 
BRANCH  11  12
ATOM     12  C   UNL     1      32.261   8.499  33.337  1.00  0.00     0.000 C 
BRANCH  12  13
ATOM     13  C   UNL     1      32.810   7.920  34.656  1.00  0.00     0.006 C 
BRANCH  13  14
ATOM     14  C   UNL     1      33.817   6.772  34.460  1.00  0.00     0.053 C 
BRANCH  14  15
ATOM     15  C   UNL     1      35.005   6.916  35.364  1.00  0.00     0.041 C 
ATOM     16  O   UNL     1      35.082   7.888  36.158  1.00  0.00    -0.550 OA
ATOM     17  O   UNL     1      35.990   5.935  35.379  1.00  0.00    -0.550 OA
ENDBRANCH  14  15
ENDBRANCH  13  14
ENDBRANCH  12  13
ENDBRANCH  11  12
ENDBRANCH  10  11
ENDBRANCH   9  10
ENDBRANCH   8   9
ENDBRANCH   7   8
ENDBRANCH   6   7
ENDBRANCH   5   6
ENDBRANCH   4   5
ENDBRANCH   3   4
ENDBRANCH   2   3
ENDBRANCH   1   2
BRANCH   1  18
ATOM     18  C   UNL     1      37.424   8.227  31.637  1.00  0.00     0.000 C 
BRANCH  18  19
ATOM     19  C   UNL     1      37.737   8.988  32.937  1.00  0.00     0.000 C 
BRANCH  19  20
ATOM     20  C   UNL     1      37.072  10.372  32.990  1.00  0.00     0.000 C 
BRANCH  20  21
ATOM     21  C   UNL     1      35.671  10.327  33.630  1.00  0.00     0.000 C 
BRANCH  21  22
ATOM     22  C   UNL     1      34.621  11.240  32.962  1.00  0.00     0.000 C 
BRANCH  22  23
ATOM     23  C   UNL     1      35.179  12.223  31.916  1.00  0.00     0.000 C 
BRANCH  23  24
ATOM     24  C   UNL     1      34.644  13.655  32.094  1.00  0.00    -0.000 C 
BRANCH  24  25
ATOM     25  C   UNL     1      33.207  13.696  32.636  1.00  0.00    -0.000 C 
BRANCH  25  26
ATOM     26  C   UNL     1      32.194  14.173  31.581  1.00  0.00    -0.000 C 
BRANCH  26  27
ATOM     27  C   UNL     1      31.415  13.010  30.946  1.00  0.00    -0.000 C 
BRANCH  27  28
ATOM     28  C   UNL     1      31.080  11.905  31.962  1.00  0.00    -0.000 C 
BRANCH  28  29
ATOM     29  C   UNL     1      29.826  11.108  31.559  1.00  0.00    -0.000 C 
BRANCH  29  30
ATOM     30  C   UNL     1      28.698  11.996  30.986  1.00  0.00    -0.000 C 
BRANCH  30  31
ATOM     31  C   UNL     1      28.006  11.386  29.757  1.00  0.00    -0.003 C 
ATOM     32  C   UNL     1      28.848  11.504  28.489  1.00  0.00     0.004 C 
ENDBRANCH  30  31
ENDBRANCH  29  30
ENDBRANCH  28  29
ENDBRANCH  27  28
ENDBRANCH  26  27
ENDBRANCH  25  26
ENDBRANCH  24  25
ENDBRANCH  23  24
ENDBRANCH  22  23
ENDBRANCH  21  22
ENDBRANCH  20  21
ENDBRANCH  19  20
ENDBRANCH  18  19
ENDBRANCH   1  18
TORSDOF 28
ENDMDL
MODEL 7
REMARK VINA RESULT:    -3.891      1.353      5.698
REMARK INTER + INTRA:         -16.212
REMARK INTER:                  -9.719
REMARK INTRA:                  -6.493
REMARK UNBOUND:                -5.953
REMARK SMILES CCCCCCCCCCCCCCCCCCCCCCCCCCCCCC(=O)[O-]
REMARK SMILES IDX 16 1 17 2 18 3 19 4 20 5 21 6 22 7 23 8 24 9 25 10 26 11
REMARK SMILES IDX 27 12 28 13 29 14 30 15 31 16 32 17 15 18 14 19 13 20 12 21
REMARK SMILES IDX 11 22 10 23 9 24 8 25 7 26 6 27 5 28 4 29 3 30 2 31 1 32
REMARK H PARENT
REMARK Flexibility Score: inf
ROOT
ATOM      1  C   UNL     1      36.355  11.391  32.400  1.00  0.00     0.000 C 
ENDROOT
BRANCH   1   2
ATOM      2  C   UNL     1      36.296  12.924  32.576  1.00  0.00     0.000 C 
BRANCH   2   3
ATOM      3  C   UNL     1      35.111  13.602  31.858  1.00  0.00     0.000 C 
BRANCH   3   4
ATOM      4  C   UNL     1      34.511  14.833  32.564  1.00  0.00     0.000 C 
BRANCH   4   5
ATOM      5  C   UNL     1      32.997  15.036  32.375  1.00  0.00     0.000 C 
BRANCH   5   6
ATOM      6  C   UNL     1      32.193  14.853  33.677  1.00  0.00     0.000 C 
BRANCH   6   7
ATOM      7  C   UNL     1      33.066  14.355  34.837  1.00  0.00     0.000 C 
BRANCH   7   8
ATOM      8  C   UNL     1      32.618  12.990  35.382  1.00  0.00     0.000 C 
BRANCH   8   9
ATOM      9  C   UNL     1      33.428  11.857  34.735  1.00  0.00     0.000 C 
BRANCH   9  10
ATOM     10  C   UNL     1      32.551  10.706  34.213  1.00  0.00     0.000 C 
BRANCH  10  11
ATOM     11  C   UNL     1      31.495  11.141  33.177  1.00  0.00     0.000 C 
BRANCH  11  12
ATOM     12  C   UNL     1      32.105  11.413  31.791  1.00  0.00     0.000 C 
BRANCH  12  13
ATOM     13  C   UNL     1      31.126  12.139  30.848  1.00  0.00     0.006 C 
BRANCH  13  14
ATOM     14  C   UNL     1      29.734  11.485  30.771  1.00  0.00     0.053 C 
BRANCH  14  15
ATOM     15  C   UNL     1      29.157  11.570  29.389  1.00  0.00     0.041 C 
ATOM     16  O   UNL     1      29.892  11.868  28.413  1.00  0.00    -0.550 OA
ATOM     17  O   UNL     1      27.822  11.249  29.173  1.00  0.00    -0.550 OA
ENDBRANCH  14  15
ENDBRANCH  13  14
ENDBRANCH  12  13
ENDBRANCH  11  12
ENDBRANCH  10  11
ENDBRANCH   9  10
ENDBRANCH   8   9
ENDBRANCH   7   8
ENDBRANCH   6   7
ENDBRANCH   5   6
ENDBRANCH   4   5
ENDBRANCH   3   4
ENDBRANCH   2   3
ENDBRANCH   1   2
BRANCH   1  18
ATOM     18  C   UNL     1      35.699  10.903  31.095  1.00  0.00     0.000 C 
BRANCH  18  19
ATOM     19  C   UNL     1      36.458   9.734  30.443  1.00  0.00     0.000 C 
BRANCH  19  20
ATOM     20  C   UNL     1      35.540   8.553  30.092  1.00  0.00     0.000 C 
BRANCH  20  21
ATOM     21  C   UNL     1      34.050   8.946  30.088  1.00  0.00     0.000 C 
BRANCH  21  22
ATOM     22  C   UNL     1      33.268   8.522  28.826  1.00  0.00     0.000 C 
BRANCH  22  23
ATOM     23  C   UNL     1      31.849   9.107  28.708  1.00  0.00     0.000 C 
BRANCH  23  24
ATOM     24  C   UNL     1      30.759   8.024  28.629  1.00  0.00    -0.000 C 
BRANCH  24  25
ATOM     25  C   UNL     1      29.964   7.877  29.936  1.00  0.00    -0.000 C 
BRANCH  25  26
ATOM     26  C   UNL     1      30.632   6.907  30.926  1.00  0.00    -0.000 C 
BRANCH  26  27
ATOM     27  C   UNL     1      31.243   7.631  32.136  1.00  0.00    -0.000 C 
BRANCH  27  28
ATOM     28  C   UNL     1      31.579   6.667  33.287  1.00  0.00    -0.000 C 
BRANCH  28  29
ATOM     29  C   UNL     1      32.792   7.142  34.106  1.00  0.00    -0.000 C 
BRANCH  29  30
ATOM     30  C   UNL     1      34.117   7.103  33.310  1.00  0.00    -0.000 C 
BRANCH  30  31
ATOM     31  C   UNL     1      35.141   8.151  33.777  1.00  0.00    -0.003 C 
ATOM     32  C   UNL     1      36.583   7.687  33.588  1.00  0.00     0.004 C 
ENDBRANCH  30  31
ENDBRANCH  29  30
ENDBRANCH  28  29
ENDBRANCH  27  28
ENDBRANCH  26  27
ENDBRANCH  25  26
ENDBRANCH  24  25
ENDBRANCH  23  24
ENDBRANCH  22  23
ENDBRANCH  21  22
ENDBRANCH  20  21
ENDBRANCH  19  20
ENDBRANCH  18  19
ENDBRANCH   1  18
TORSDOF 28
ENDMDL
MODEL 8
REMARK VINA RESULT:    -3.881      1.190      3.397
REMARK INTER + INTRA:         -16.186
REMARK INTER:                 -10.152
REMARK INTRA:                  -6.035
REMARK UNBOUND:                -5.953
REMARK SMILES CCCCCCCCCCCCCCCCCCCCCCCCCCCCCC(=O)[O-]
REMARK SMILES IDX 16 1 17 2 18 3 19 4 20 5 21 6 22 7 23 8 24 9 25 10 26 11
REMARK SMILES IDX 27 12 28 13 29 14 30 15 31 16 32 17 15 18 14 19 13 20 12 21
REMARK SMILES IDX 11 22 10 23 9 24 8 25 7 26 6 27 5 28 4 29 3 30 2 31 1 32
REMARK H PARENT
REMARK Flexibility Score: inf
ROOT
ATOM      1  C   UNL     1      32.884   8.828  33.858  1.00  0.00     0.000 C 
ENDROOT
BRANCH   1   2
ATOM      2  C   UNL     1      32.172   7.628  34.519  1.00  0.00     0.000 C 
BRANCH   2   3
ATOM      3  C   UNL     1      31.364   6.750  33.542  1.00  0.00     0.000 C 
BRANCH   3   4
ATOM      4  C   UNL     1      30.983   7.410  32.203  1.00  0.00     0.000 C 
BRANCH   4   5
ATOM      5  C   UNL     1      30.964   6.473  30.981  1.00  0.00     0.000 C 
BRANCH   5   6
ATOM      6  C   UNL     1      29.780   6.737  30.032  1.00  0.00     0.000 C 
BRANCH   6   7
ATOM      7  C   UNL     1      30.056   7.894  29.061  1.00  0.00     0.000 C 
BRANCH   7   8
ATOM      8  C   UNL     1      31.440   7.808  28.401  1.00  0.00     0.000 C 
BRANCH   8   9
ATOM      9  C   UNL     1      32.172   9.153  28.501  1.00  0.00     0.000 C 
BRANCH   9  10
ATOM     10  C   UNL     1      33.217   9.193  29.630  1.00  0.00     0.000 C 
BRANCH  10  11
ATOM     11  C   UNL     1      32.939  10.261  30.706  1.00  0.00     0.000 C 
BRANCH  11  12
ATOM     12  C   UNL     1      31.664  11.073  30.417  1.00  0.00     0.000 C 
BRANCH  12  13
ATOM     13  C   UNL     1      30.481  10.652  31.310  1.00  0.00     0.006 C 
BRANCH  13  14
ATOM     14  C   UNL     1      29.494  11.795  31.616  1.00  0.00     0.053 C 
BRANCH  14  15
ATOM     15  C   UNL     1      28.592  12.074  30.451  1.00  0.00     0.041 C 
ATOM     16  O   UNL     1      28.372  13.259  30.090  1.00  0.00    -0.550 OA
ATOM     17  O   UNL     1      28.052  11.021  29.722  1.00  0.00    -0.550 OA
ENDBRANCH  14  15
ENDBRANCH  13  14
ENDBRANCH  12  13
ENDBRANCH  11  12
ENDBRANCH  10  11
ENDBRANCH   9  10
ENDBRANCH   8   9
ENDBRANCH   7   8
ENDBRANCH   6   7
ENDBRANCH   5   6
ENDBRANCH   4   5
ENDBRANCH   3   4
ENDBRANCH   2   3
ENDBRANCH   1   2
BRANCH   1  18
ATOM     18  C   UNL     1      34.417   8.779  34.000  1.00  0.00     0.000 C 
BRANCH  18  19
ATOM     19  C   UNL     1      35.003   7.391  33.688  1.00  0.00     0.000 C 
BRANCH  19  20
ATOM     20  C   UNL     1      35.125   7.123  32.180  1.00  0.00     0.000 C 
BRANCH  20  21
ATOM     21  C   UNL     1      36.563   7.317  31.661  1.00  0.00     0.000 C 
BRANCH  21  22
ATOM     22  C   UNL     1      36.691   8.230  30.424  1.00  0.00     0.000 C 
BRANCH  22  23
ATOM     23  C   UNL     1      36.724   9.740  30.725  1.00  0.00     0.000 C 
BRANCH  23  24
ATOM     24  C   UNL     1      37.504  10.079  32.008  1.00  0.00    -0.000 C 
BRANCH  24  25
ATOM     25  C   UNL     1      36.851  11.204  32.826  1.00  0.00    -0.000 C 
BRANCH  25  26
ATOM     26  C   UNL     1      35.716  11.906  32.061  1.00  0.00    -0.000 C 
BRANCH  26  27
ATOM     27  C   UNL     1      35.988  13.404  31.849  1.00  0.00    -0.000 C 
BRANCH  27  28
ATOM     28  C   UNL     1      34.968  14.294  32.580  1.00  0.00    -0.000 C 
BRANCH  28  29
ATOM     29  C   UNL     1      33.527  14.036  32.104  1.00  0.00    -0.000 C 
BRANCH  29  30
ATOM     30  C   UNL     1      32.514  13.926  33.266  1.00  0.00    -0.000 C 
BRANCH  30  31
ATOM     31  C   UNL     1      32.411  12.510  33.856  1.00  0.00    -0.003 C 
ATOM     32  C   UNL     1      32.556  12.495  35.376  1.00  0.00     0.004 C 
ENDBRANCH  30  31
ENDBRANCH  29  30
ENDBRANCH  28  29
ENDBRANCH  27  28
ENDBRANCH  26  27
ENDBRANCH  25  26
ENDBRANCH  24  25
ENDBRANCH  23  24
ENDBRANCH  22  23
ENDBRANCH  21  22
ENDBRANCH  20  21
ENDBRANCH  19  20
ENDBRANCH  18  19
ENDBRANCH   1  18
TORSDOF 28
ENDMDL
MODEL 9
REMARK VINA RESULT:    -3.850      2.097      4.054
REMARK INTER + INTRA:         -16.104
REMARK INTER:                 -10.495
REMARK INTRA:                  -5.609
REMARK UNBOUND:                -5.953
REMARK SMILES CCCCCCCCCCCCCCCCCCCCCCCCCCCCCC(=O)[O-]
REMARK SMILES IDX 16 1 17 2 18 3 19 4 20 5 21 6 22 7 23 8 24 9 25 10 26 11
REMARK SMILES IDX 27 12 28 13 29 14 30 15 31 16 32 17 15 18 14 19 13 20 12 21
REMARK SMILES IDX 11 22 10 23 9 24 8 25 7 26 6 27 5 28 4 29 3 30 2 31 1 32
REMARK H PARENT
REMARK Flexibility Score: inf
ROOT
ATOM      1  C   UNL     1      31.519   7.362  31.786  1.00  0.00     0.000 C 
ENDROOT
BRANCH   1   2
ATOM      2  C   UNL     1      30.357   6.939  30.862  1.00  0.00     0.000 C 
BRANCH   2   3
ATOM      3  C   UNL     1      30.466   7.470  29.418  1.00  0.00     0.000 C 
BRANCH   3   4
ATOM      4  C   UNL     1      31.807   8.131  29.044  1.00  0.00     0.000 C 
BRANCH   4   5
ATOM      5  C   UNL     1      31.742   9.176  27.915  1.00  0.00     0.000 C 
BRANCH   5   6
ATOM      6  C   UNL     1      30.337   9.776  27.724  1.00  0.00     0.000 C 
BRANCH   6   7
ATOM      7  C   UNL     1      30.178  11.129  28.433  1.00  0.00     0.000 C 
BRANCH   7   8
ATOM      8  C   UNL     1      28.743  11.391  28.913  1.00  0.00     0.000 C 
BRANCH   8   9
ATOM      9  C   UNL     1      28.710  11.593  30.435  1.00  0.00     0.000 C 
BRANCH   9  10
ATOM     10  C   UNL     1      30.049  11.270  31.119  1.00  0.00     0.000 C 
BRANCH  10  11
ATOM     11  C   UNL     1      29.907  10.510  32.453  1.00  0.00     0.000 C 
BRANCH  11  12
ATOM     12  C   UNL     1      31.160  10.630  33.337  1.00  0.00     0.000 C 
BRANCH  12  13
ATOM     13  C   UNL     1      30.817  10.731  34.837  1.00  0.00     0.006 C 
BRANCH  13  14
ATOM     14  C   UNL     1      30.160   9.462  35.412  1.00  0.00     0.053 C 
BRANCH  14  15
ATOM     15  C   UNL     1      28.747   9.718  35.845  1.00  0.00     0.041 C 
ATOM     16  O   UNL     1      28.046   8.780  36.303  1.00  0.00    -0.550 OA
ATOM     17  O   UNL     1      28.233  11.009  35.810  1.00  0.00    -0.550 OA
ENDBRANCH  14  15
ENDBRANCH  13  14
ENDBRANCH  12  13
ENDBRANCH  11  12
ENDBRANCH  10  11
ENDBRANCH   9  10
ENDBRANCH   8   9
ENDBRANCH   7   8
ENDBRANCH   6   7
ENDBRANCH   5   6
ENDBRANCH   4   5
ENDBRANCH   3   4
ENDBRANCH   2   3
ENDBRANCH   1   2
BRANCH   1  18
ATOM     18  C   UNL     1      31.465   6.697  33.174  1.00  0.00     0.000 C 
BRANCH  18  19
ATOM     19  C   UNL     1      32.704   7.003  34.033  1.00  0.00     0.000 C 
BRANCH  19  20
ATOM     20  C   UNL     1      33.776   7.796  33.269  1.00  0.00     0.000 C 
BRANCH  20  21
ATOM     21  C   UNL     1      35.046   6.965  33.004  1.00  0.00     0.000 C 
BRANCH  21  22
ATOM     22  C   UNL     1      35.887   7.428  31.796  1.00  0.00     0.000 C 
BRANCH  22  23
ATOM     23  C   UNL     1      35.079   7.999  30.616  1.00  0.00     0.000 C 
BRANCH  23  24
ATOM     24  C   UNL     1      35.361   9.490  30.362  1.00  0.00    -0.000 C 
BRANCH  24  25
ATOM     25  C   UNL     1      34.203  10.402  30.798  1.00  0.00    -0.000 C 
BRANCH  25  26
ATOM     26  C   UNL     1      34.535  11.208  32.066  1.00  0.00    -0.000 C 
BRANCH  26  27
ATOM     27  C   UNL     1      35.392  12.448  31.766  1.00  0.00    -0.000 C 
BRANCH  27  28
ATOM     28  C   UNL     1      34.876  13.705  32.486  1.00  0.00    -0.000 C 
BRANCH  28  29
ATOM     29  C   UNL     1      33.501  14.153  31.957  1.00  0.00    -0.000 C 
BRANCH  29  30
ATOM     30  C   UNL     1      32.392  14.111  33.033  1.00  0.00    -0.000 C 
BRANCH  30  31
ATOM     31  C   UNL     1      32.921  13.810  34.444  1.00  0.00    -0.003 C 
ATOM     32  C   UNL     1      32.097  14.487  35.537  1.00  0.00     0.004 C 
ENDBRANCH  30  31
ENDBRANCH  29  30
ENDBRANCH  28  29
ENDBRANCH  27  28
ENDBRANCH  26  27
ENDBRANCH  25  26
ENDBRANCH  24  25
ENDBRANCH  23  24
ENDBRANCH  22  23
ENDBRANCH  21  22
ENDBRANCH  20  21
ENDBRANCH  19  20
ENDBRANCH  18  19
ENDBRANCH   1  18
TORSDOF 28
ENDMDL
