MODEL 1
REMARK VINA RESULT:    -5.504      0.000      0.000
REMARK INTER + INTRA:         -10.761
REMARK INTER:                  -9.366
REMARK INTRA:                  -1.395
REMARK UNBOUND:                -1.395
REMARK SMILES CCCCCCCCCCCCCC(=O)[O-]
REMARK SMILES IDX 8 1 9 2 10 3 11 4 12 5 13 6 14 7 15 8 16 9 7 10 6 11 5 12
REMARK SMILES IDX 4 13 3 14 2 15 1 16
REMARK H PARENT
REMARK Flexibility Score: inf
ROOT
ATOM      1  C   UNL     1       5.748 -55.634 -30.505  1.00  0.00     0.000 C 
ENDROOT
BRANCH   1   2
ATOM      2  C   UNL     1       4.455 -56.460 -30.630  1.00  0.00     0.000 C 
BRANCH   2   3
ATOM      3  C   UNL     1       3.768 -56.702 -29.279  1.00  0.00     0.000 C 
BRANCH   3   4
ATOM      4  C   UNL     1       3.500 -55.379 -28.553  1.00  0.00     0.000 C 
BRANCH   4   5
ATOM      5  C   UNL     1       3.809 -55.500 -27.053  1.00  0.00     0.006 C 
BRANCH   5   6
ATOM      6  C   UNL     1       4.802 -56.631 -26.754  1.00  0.00     0.053 C 
BRANCH   6   7
ATOM      7  C   UNL     1       4.517 -57.287 -25.438  1.00  0.00     0.041 C 
ATOM      8  O   UNL     1       3.369 -57.211 -24.927  1.00  0.00    -0.550 OA
ATOM      9  O   UNL     1       5.511 -58.011 -24.793  1.00  0.00    -0.550 OA
ENDBRANCH   6   7
ENDBRANCH   5   6
ENDBRANCH   4   5
ENDBRANCH   3   4
ENDBRANCH   2   3
ENDBRANCH   1   2
BRANCH   1  10
ATOM     10  C   UNL     1       6.931 -56.376 -29.849  1.00  0.00     0.000 C 
BRANCH  10  11
ATOM     11  C   UNL     1       7.800 -55.522 -28.904  1.00  0.00    -0.000 C 
BRANCH  11  12
ATOM     12  C   UNL     1       9.227 -56.051 -28.669  1.00  0.00    -0.000 C 
BRANCH  12  13
ATOM     13  C   UNL     1      10.308 -55.142 -29.279  1.00  0.00    -0.000 C 
BRANCH  13  14
ATOM     14  C   UNL     1       9.763 -54.221 -30.386  1.00  0.00    -0.000 C 
BRANCH  14  15
ATOM     15  C   UNL     1      10.043 -54.695 -31.824  1.00  0.00    -0.003 C 
ATOM     16  C   UNL     1       8.770 -54.947 -32.631  1.00  0.00     0.004 C 
ENDBRANCH  14  15
ENDBRANCH  13  14
ENDBRANCH  12  13
ENDBRANCH  11  12
ENDBRANCH  10  11
ENDBRANCH   1  10
TORSDOF 12
ENDMDL
MODEL 2
REMARK VINA RESULT:    -5.455      1.238      2.464
REMARK INTER + INTRA:         -10.676
REMARK INTER:                  -9.213
REMARK INTRA:                  -1.463
REMARK UNBOUND:                -1.395
REMARK SMILES CCCCCCCCCCCCCC(=O)[O-]
REMARK SMILES IDX 8 1 9 2 10 3 11 4 12 5 13 6 14 7 15 8 16 9 7 10 6 11 5 12
REMARK SMILES IDX 4 13 3 14 2 15 1 16
REMARK H PARENT
REMARK Flexibility Score: inf
ROOT
ATOM      1  C   UNL     1       7.213 -55.691 -28.867  1.00  0.00     0.000 C 
ENDROOT
BRANCH   1   2
ATOM      2  C   UNL     1       6.637 -56.461 -30.068  1.00  0.00     0.000 C 
BRANCH   2   3
ATOM      3  C   UNL     1       5.475 -55.723 -30.749  1.00  0.00     0.000 C 
BRANCH   3   4
ATOM      4  C   UNL     1       4.164 -56.503 -30.600  1.00  0.00     0.000 C 
BRANCH   4   5
ATOM      5  C   UNL     1       3.809 -56.709 -29.119  1.00  0.00     0.006 C 
BRANCH   5   6
ATOM      6  C   UNL     1       3.438 -55.393 -28.424  1.00  0.00     0.053 C 
BRANCH   6   7
ATOM      7  C   UNL     1       3.820 -55.403 -26.976  1.00  0.00     0.041 C 
ATOM      8  O   UNL     1       4.677 -56.222 -26.552  1.00  0.00    -0.550 OA
ATOM      9  O   UNL     1       3.253 -54.486 -26.101  1.00  0.00    -0.550 OA
ENDBRANCH   6   7
ENDBRANCH   5   6
ENDBRANCH   4   5
ENDBRANCH   3   4
ENDBRANCH   2   3
ENDBRANCH   1   2
BRANCH   1  10
ATOM     10  C   UNL     1       8.620 -56.141 -28.423  1.00  0.00     0.000 C 
BRANCH  10  11
ATOM     11  C   UNL     1       9.780 -55.641 -29.308  1.00  0.00    -0.000 C 
BRANCH  11  12
ATOM     12  C   UNL     1       9.614 -54.215 -29.863  1.00  0.00    -0.000 C 
BRANCH  12  13
ATOM     13  C   UNL     1       9.780 -54.145 -31.390  1.00  0.00    -0.000 C 
BRANCH  13  14
ATOM     14  C   UNL     1       8.438 -54.206 -32.142  1.00  0.00    -0.000 C 
BRANCH  14  15
ATOM     15  C   UNL     1       8.314 -55.351 -33.164  1.00  0.00    -0.003 C 
ATOM     16  C   UNL     1       9.523 -56.286 -33.167  1.00  0.00     0.004 C 
ENDBRANCH  14  15
ENDBRANCH  13  14
ENDBRANCH  12  13
ENDBRANCH  11  12
ENDBRANCH  10  11
ENDBRANCH   1  10
TORSDOF 12
ENDMDL
MODEL 3
REMARK VINA RESULT:    -5.357      1.452      2.570
REMARK INTER + INTRA:         -10.510
REMARK INTER:                  -9.346
REMARK INTRA:                  -1.164
REMARK UNBOUND:                -1.395
REMARK SMILES CCCCCCCCCCCCCC(=O)[O-]
REMARK SMILES IDX 8 1 9 2 10 3 11 4 12 5 13 6 14 7 15 8 16 9 7 10 6 11 5 12
REMARK SMILES IDX 4 13 3 14 2 15 1 16
REMARK H PARENT
REMARK Flexibility Score: inf
ROOT
ATOM      1  C   UNL     1       4.206 -56.782 -29.662  1.00  0.00     0.000 C 
ENDROOT
BRANCH   1   2
ATOM      2  C   UNL     1       3.571 -55.918 -28.558  1.00  0.00     0.000 C 
BRANCH   2   3
ATOM      3  C   UNL     1       4.443 -55.823 -27.299  1.00  0.00     0.000 C 
BRANCH   3   4
ATOM      4  C   UNL     1       3.617 -56.090 -26.035  1.00  0.00     0.000 C 
BRANCH   4   5
ATOM      5  C   UNL     1       4.229 -57.228 -25.205  1.00  0.00     0.006 C 
BRANCH   5   6
ATOM      6  C   UNL     1       5.356 -57.951 -25.954  1.00  0.00     0.053 C 
BRANCH   6   7
ATOM      7  C   UNL     1       6.586 -58.086 -25.110  1.00  0.00     0.041 C 
ATOM      8  O   UNL     1       6.498 -58.072 -23.854  1.00  0.00    -0.550 OA
ATOM      9  O   UNL     1       7.825 -58.261 -25.711  1.00  0.00    -0.550 OA
ENDBRANCH   6   7
ENDBRANCH   5   6
ENDBRANCH   4   5
ENDBRANCH   3   4
ENDBRANCH   2   3
ENDBRANCH   1   2
BRANCH   1  10
ATOM     10  C   UNL     1       4.797 -55.989 -30.847  1.00  0.00     0.000 C 
BRANCH  10  11
ATOM     11  C   UNL     1       6.204 -55.403 -30.609  1.00  0.00    -0.000 C 
BRANCH  11  12
ATOM     12  C   UNL     1       7.248 -56.399 -30.073  1.00  0.00    -0.000 C 
BRANCH  12  13
ATOM     13  C   UNL     1       7.768 -56.026 -28.675  1.00  0.00    -0.000 C 
BRANCH  13  14
ATOM     14  C   UNL     1       9.302 -55.907 -28.619  1.00  0.00    -0.000 C 
BRANCH  14  15
ATOM     15  C   UNL     1       9.843 -54.466 -28.562  1.00  0.00    -0.003 C 
ATOM     16  C   UNL     1       9.649 -53.701 -29.871  1.00  0.00     0.004 C 
ENDBRANCH  14  15
ENDBRANCH  13  14
ENDBRANCH  12  13
ENDBRANCH  11  12
ENDBRANCH  10  11
ENDBRANCH   1  10
TORSDOF 12
ENDMDL
MODEL 4
REMARK VINA RESULT:    -5.340      1.051      2.348
REMARK INTER + INTRA:         -10.481
REMARK INTER:                  -9.377
REMARK INTRA:                  -1.104
REMARK UNBOUND:                -1.395
REMARK SMILES CCCCCCCCCCCCCC(=O)[O-]
REMARK SMILES IDX 8 1 9 2 10 3 11 4 12 5 13 6 14 7 15 8 16 9 7 10 6 11 5 12
REMARK SMILES IDX 4 13 3 14 2 15 1 16
REMARK H PARENT
REMARK Flexibility Score: inf
ROOT
ATOM      1  C   UNL     1       5.962 -55.021 -32.262  1.00  0.00     0.000 C 
ENDROOT
BRANCH   1   2
ATOM      2  C   UNL     1       4.871 -55.696 -31.412  1.00  0.00     0.000 C 
BRANCH   2   3
ATOM      3  C   UNL     1       5.179 -55.661 -29.908  1.00  0.00     0.000 C 
BRANCH   3   4
ATOM      4  C   UNL     1       3.912 -55.376 -29.094  1.00  0.00     0.000 C 
BRANCH   4   5
ATOM      5  C   UNL     1       4.071 -55.852 -27.642  1.00  0.00     0.006 C 
BRANCH   5   6
ATOM      6  C   UNL     1       4.760 -57.220 -27.552  1.00  0.00     0.053 C 
BRANCH   6   7
ATOM      7  C   UNL     1       5.128 -57.565 -26.142  1.00  0.00     0.041 C 
ATOM      8  O   UNL     1       6.315 -57.871 -25.854  1.00  0.00    -0.550 OA
ATOM      9  O   UNL     1       4.168 -57.516 -25.140  1.00  0.00    -0.550 OA
ENDBRANCH   6   7
ENDBRANCH   5   6
ENDBRANCH   4   5
ENDBRANCH   3   4
ENDBRANCH   2   3
ENDBRANCH   1   2
BRANCH   1  10
ATOM     10  C   UNL     1       7.227 -54.604 -31.483  1.00  0.00     0.000 C 
BRANCH  10  11
ATOM     11  C   UNL     1       8.564 -54.934 -32.175  1.00  0.00    -0.000 C 
BRANCH  11  12
ATOM     12  C   UNL     1       9.826 -54.534 -31.388  1.00  0.00    -0.000 C 
BRANCH  12  13
ATOM     13  C   UNL     1       9.503 -53.865 -30.042  1.00  0.00    -0.000 C 
BRANCH  13  14
ATOM     14  C   UNL     1      10.353 -54.414 -28.881  1.00  0.00    -0.000 C 
BRANCH  14  15
ATOM     15  C   UNL     1      10.002 -55.845 -28.435  1.00  0.00    -0.003 C 
ATOM     16  C   UNL     1       8.500 -56.128 -28.456  1.00  0.00     0.004 C 
ENDBRANCH  14  15
ENDBRANCH  13  14
ENDBRANCH  12  13
ENDBRANCH  11  12
ENDBRANCH  10  11
ENDBRANCH   1  10
TORSDOF 12
ENDMDL
MODEL 5
REMARK VINA RESULT:    -5.318      3.387      6.920
REMARK INTER + INTRA:         -10.444
REMARK INTER:                  -9.492
REMARK INTRA:                  -0.952
REMARK UNBOUND:                -1.395
REMARK SMILES CCCCCCCCCCCCCC(=O)[O-]
REMARK SMILES IDX 8 1 9 2 10 3 11 4 12 5 13 6 14 7 15 8 16 9 7 10 6 11 5 12
REMARK SMILES IDX 4 13 3 14 2 15 1 16
REMARK H PARENT
REMARK Flexibility Score: inf
ROOT
ATOM      1  C   UNL     1       5.952 -55.863 -30.258  1.00  0.00     0.000 C 
ENDROOT
BRANCH   1   2
ATOM      2  C   UNL     1       6.714 -56.016 -28.930  1.00  0.00     0.000 C 
BRANCH   2   3
ATOM      3  C   UNL     1       8.235 -56.094 -29.120  1.00  0.00     0.000 C 
BRANCH   3   4
ATOM      4  C   UNL     1       8.815 -54.724 -29.491  1.00  0.00     0.000 C 
BRANCH   4   5
ATOM      5  C   UNL     1      10.025 -54.871 -30.426  1.00  0.00     0.006 C 
BRANCH   5   6
ATOM      6  C   UNL     1       9.714 -54.402 -31.853  1.00  0.00     0.053 C 
BRANCH   6   7
ATOM      7  C   UNL     1       9.012 -55.462 -32.646  1.00  0.00     0.041 C 
ATOM      8  O   UNL     1       9.459 -56.639 -32.666  1.00  0.00    -0.550 OA
ATOM      9  O   UNL     1       7.846 -55.157 -33.335  1.00  0.00    -0.550 OA
ENDBRANCH   6   7
ENDBRANCH   5   6
ENDBRANCH   4   5
ENDBRANCH   3   4
ENDBRANCH   2   3
ENDBRANCH   1   2
BRANCH   1  10
ATOM     10  C   UNL     1       4.489 -55.393 -30.117  1.00  0.00     0.000 C 
BRANCH  10  11
ATOM     11  C   UNL     1       3.682 -56.084 -29.000  1.00  0.00    -0.000 C 
BRANCH  11  12
ATOM     12  C   UNL     1       2.948 -55.133 -28.037  1.00  0.00    -0.000 C 
BRANCH  12  13
ATOM     13  C   UNL     1       3.165 -55.495 -26.559  1.00  0.00    -0.000 C 
BRANCH  13  14
ATOM     14  C   UNL     1       4.347 -56.459 -26.345  1.00  0.00    -0.000 C 
BRANCH  14  15
ATOM     15  C   UNL     1       4.204 -57.409 -25.141  1.00  0.00    -0.003 C 
ATOM     16  C   UNL     1       5.527 -58.048 -24.721  1.00  0.00     0.004 C 
ENDBRANCH  14  15
ENDBRANCH  13  14
ENDBRANCH  12  13
ENDBRANCH  11  12
ENDBRANCH  10  11
ENDBRANCH   1  10
TORSDOF 12
ENDMDL
MODEL 6
REMARK VINA RESULT:    -5.254      2.462      6.297
REMARK INTER + INTRA:         -10.335
REMARK INTER:                  -9.383
REMARK INTRA:                  -0.952
REMARK UNBOUND:                -1.395
REMARK SMILES CCCCCCCCCCCCCC(=O)[O-]
REMARK SMILES IDX 8 1 9 2 10 3 11 4 12 5 13 6 14 7 15 8 16 9 7 10 6 11 5 12
REMARK SMILES IDX 4 13 3 14 2 15 1 16
REMARK H PARENT
REMARK Flexibility Score: inf
ROOT
ATOM      1  C   UNL     1       5.857 -56.087 -29.974  1.00  0.00     0.000 C 
ENDROOT
BRANCH   1   2
ATOM      2  C   UNL     1       5.411 -55.351 -31.249  1.00  0.00     0.000 C 
BRANCH   2   3
ATOM      3  C   UNL     1       6.591 -54.927 -32.136  1.00  0.00     0.000 C 
BRANCH   3   4
ATOM      4  C   UNL     1       7.923 -55.405 -31.547  1.00  0.00     0.000 C 
BRANCH   4   5
ATOM      5  C   UNL     1       8.754 -54.221 -31.029  1.00  0.00     0.006 C 
BRANCH   5   6
ATOM      6  C   UNL     1      10.032 -54.678 -30.315  1.00  0.00     0.053 C 
BRANCH   6   7
ATOM      7  C   UNL     1       9.792 -54.942 -28.860  1.00  0.00     0.041 C 
ATOM      8  O   UNL     1      10.154 -54.101 -27.995  1.00  0.00    -0.550 OA
ATOM      9  O   UNL     1       9.139 -56.101 -28.463  1.00  0.00    -0.550 OA
ENDBRANCH   6   7
ENDBRANCH   5   6
ENDBRANCH   4   5
ENDBRANCH   3   4
ENDBRANCH   2   3
ENDBRANCH   1   2
BRANCH   1  10
ATOM     10  C   UNL     1       4.743 -56.878 -29.258  1.00  0.00     0.000 C 
BRANCH  10  11
ATOM     11  C   UNL     1       3.379 -56.163 -29.174  1.00  0.00    -0.000 C 
BRANCH  11  12
ATOM     12  C   UNL     1       3.301 -55.020 -28.146  1.00  0.00    -0.000 C 
BRANCH  12  13
ATOM     13  C   UNL     1       2.517 -55.406 -26.881  1.00  0.00    -0.000 C 
BRANCH  13  14
ATOM     14  C   UNL     1       3.385 -55.391 -25.609  1.00  0.00    -0.000 C 
BRANCH  14  15
ATOM     15  C   UNL     1       3.632 -56.770 -24.971  1.00  0.00    -0.003 C 
ATOM     16  C   UNL     1       4.784 -57.535 -25.622  1.00  0.00     0.004 C 
ENDBRANCH  14  15
ENDBRANCH  13  14
ENDBRANCH  12  13
ENDBRANCH  11  12
ENDBRANCH  10  11
ENDBRANCH   1  10
TORSDOF 12
ENDMDL
MODEL 7
REMARK VINA RESULT:    -5.221      1.625      2.165
REMARK INTER + INTRA:         -10.278
REMARK INTER:                  -9.286
REMARK INTRA:                  -0.992
REMARK UNBOUND:                -1.395
REMARK SMILES CCCCCCCCCCCCCC(=O)[O-]
REMARK SMILES IDX 8 1 9 2 10 3 11 4 12 5 13 6 14 7 15 8 16 9 7 10 6 11 5 12
REMARK SMILES IDX 4 13 3 14 2 15 1 16
REMARK H PARENT
REMARK Flexibility Score: inf
ROOT
ATOM      1  C   UNL     1       5.603 -55.622 -30.469  1.00  0.00     0.000 C 
ENDROOT
BRANCH   1   2
ATOM      2  C   UNL     1       4.354 -56.511 -30.336  1.00  0.00     0.000 C 
BRANCH   2   3
ATOM      3  C   UNL     1       4.161 -57.060 -28.915  1.00  0.00     0.000 C 
BRANCH   3   4
ATOM      4  C   UNL     1       4.282 -55.943 -27.872  1.00  0.00     0.000 C 
BRANCH   4   5
ATOM      5  C   UNL     1       3.018 -55.070 -27.850  1.00  0.00     0.006 C 
BRANCH   5   6
ATOM      6  C   UNL     1       2.213 -55.247 -26.556  1.00  0.00     0.053 C 
BRANCH   6   7
ATOM      7  C   UNL     1       2.697 -54.334 -25.472  1.00  0.00     0.041 C 
ATOM      8  O   UNL     1       2.829 -54.762 -24.295  1.00  0.00    -0.550 OA
ATOM      9  O   UNL     1       3.032 -53.019 -25.767  1.00  0.00    -0.550 OA
ENDBRANCH   6   7
ENDBRANCH   5   6
ENDBRANCH   4   5
ENDBRANCH   3   4
ENDBRANCH   2   3
ENDBRANCH   1   2
BRANCH   1  10
ATOM     10  C   UNL     1       6.946 -56.362 -30.299  1.00  0.00     0.000 C 
BRANCH  10  11
ATOM     11  C   UNL     1       7.868 -55.804 -29.196  1.00  0.00    -0.000 C 
BRANCH  11  12
ATOM     12  C   UNL     1       9.272 -55.383 -29.666  1.00  0.00    -0.000 C 
BRANCH  12  13
ATOM     13  C   UNL     1       9.269 -54.052 -30.437  1.00  0.00    -0.000 C 
BRANCH  13  14
ATOM     14  C   UNL     1       9.356 -54.244 -31.963  1.00  0.00    -0.000 C 
BRANCH  14  15
ATOM     15  C   UNL     1       9.971 -55.580 -32.418  1.00  0.00    -0.003 C 
ATOM     16  C   UNL     1       9.458 -56.043 -33.781  1.00  0.00     0.004 C 
ENDBRANCH  14  15
ENDBRANCH  13  14
ENDBRANCH  12  13
ENDBRANCH  11  12
ENDBRANCH  10  11
ENDBRANCH   1  10
TORSDOF 12
ENDMDL
MODEL 8
REMARK VINA RESULT:    -5.187      2.314      3.195
REMARK INTER + INTRA:         -10.221
REMARK INTER:                  -9.254
REMARK INTRA:                  -0.968
REMARK UNBOUND:                -1.395
REMARK SMILES CCCCCCCCCCCCCC(=O)[O-]
REMARK SMILES IDX 8 1 9 2 10 3 11 4 12 5 13 6 14 7 15 8 16 9 7 10 6 11 5 12
REMARK SMILES IDX 4 13 3 14 2 15 1 16
REMARK H PARENT
REMARK Flexibility Score: inf
ROOT
ATOM      1  C   UNL     1       5.071 -55.530 -31.120  1.00  0.00     0.000 C 
ENDROOT
BRANCH   1   2
ATOM      2  C   UNL     1       5.706 -55.894 -29.766  1.00  0.00     0.000 C 
BRANCH   2   3
ATOM      3  C   UNL     1       4.663 -56.169 -28.673  1.00  0.00     0.000 C 
BRANCH   3   4
ATOM      4  C   UNL     1       3.491 -55.186 -28.769  1.00  0.00     0.000 C 
BRANCH   4   5
ATOM      5  C   UNL     1       2.623 -55.236 -27.503  1.00  0.00     0.006 C 
BRANCH   5   6
ATOM      6  C   UNL     1       3.279 -54.514 -26.321  1.00  0.00     0.053 C 
BRANCH   6   7
ATOM      7  C   UNL     1       2.511 -53.291 -25.921  1.00  0.00     0.041 C 
ATOM      8  O   UNL     1       3.114 -52.207 -25.702  1.00  0.00    -0.550 OA
ATOM      9  O   UNL     1       1.127 -53.341 -25.822  1.00  0.00    -0.550 OA
ENDBRANCH   6   7
ENDBRANCH   5   6
ENDBRANCH   4   5
ENDBRANCH   3   4
ENDBRANCH   2   3
ENDBRANCH   1   2
BRANCH   1  10
ATOM     10  C   UNL     1       6.049 -54.945 -32.159  1.00  0.00     0.000 C 
BRANCH  10  11
ATOM     11  C   UNL     1       7.405 -54.476 -31.594  1.00  0.00    -0.000 C 
BRANCH  11  12
ATOM     12  C   UNL     1       8.639 -55.196 -32.169  1.00  0.00    -0.000 C 
BRANCH  12  13
ATOM     13  C   UNL     1       9.938 -54.837 -31.429  1.00  0.00    -0.000 C 
BRANCH  13  14
ATOM     14  C   UNL     1       9.700 -53.937 -30.201  1.00  0.00    -0.000 C 
BRANCH  14  15
ATOM     15  C   UNL     1      10.077 -54.568 -28.848  1.00  0.00    -0.003 C 
ATOM     16  C   UNL     1       9.275 -55.830 -28.530  1.00  0.00     0.004 C 
ENDBRANCH  14  15
ENDBRANCH  13  14
ENDBRANCH  12  13
ENDBRANCH  11  12
ENDBRANCH  10  11
ENDBRANCH   1  10
TORSDOF 12
ENDMDL
MODEL 9
REMARK VINA RESULT:    -5.173      1.173      2.280
REMARK INTER + INTRA:         -10.196
REMARK INTER:                  -9.316
REMARK INTRA:                  -0.881
REMARK UNBOUND:                -1.395
REMARK SMILES CCCCCCCCCCCCCC(=O)[O-]
REMARK SMILES IDX 8 1 9 2 10 3 11 4 12 5 13 6 14 7 15 8 16 9 7 10 6 11 5 12
REMARK SMILES IDX 4 13 3 14 2 15 1 16
REMARK H PARENT
REMARK Flexibility Score: inf
ROOT
ATOM      1  C   UNL     1       4.707 -56.695 -29.962  1.00  0.00     0.000 C 
ENDROOT
BRANCH   1   2
ATOM      2  C   UNL     1       3.377 -56.309 -29.291  1.00  0.00     0.000 C 
BRANCH   2   3
ATOM      3  C   UNL     1       3.514 -55.114 -28.337  1.00  0.00     0.000 C 
BRANCH   3   4
ATOM      4  C   UNL     1       2.677 -55.323 -27.070  1.00  0.00     0.000 C 
BRANCH   4   5
ATOM      5  C   UNL     1       3.572 -55.410 -25.825  1.00  0.00     0.006 C 
BRANCH   5   6
ATOM      6  C   UNL     1       3.622 -56.829 -25.245  1.00  0.00     0.053 C 
BRANCH   6   7
ATOM      7  C   UNL     1       4.956 -57.472 -25.466  1.00  0.00     0.041 C 
ATOM      8  O   UNL     1       5.418 -57.591 -26.632  1.00  0.00    -0.550 OA
ATOM      9  O   UNL     1       5.705 -57.912 -24.382  1.00  0.00    -0.550 OA
ENDBRANCH   6   7
ENDBRANCH   5   6
ENDBRANCH   4   5
ENDBRANCH   3   4
ENDBRANCH   2   3
ENDBRANCH   1   2
BRANCH   1  10
ATOM     10  C   UNL     1       5.244 -55.667 -30.979  1.00  0.00     0.000 C 
BRANCH  10  11
ATOM     11  C   UNL     1       6.701 -55.216 -30.751  1.00  0.00    -0.000 C 
BRANCH  11  12
ATOM     12  C   UNL     1       7.441 -54.731 -32.010  1.00  0.00    -0.000 C 
BRANCH  12  13
ATOM     13  C   UNL     1       8.876 -54.260 -31.716  1.00  0.00    -0.000 C 
BRANCH  13  14
ATOM     14  C   UNL     1       9.111 -53.954 -30.225  1.00  0.00    -0.000 C 
BRANCH  14  15
ATOM     15  C   UNL     1      10.241 -54.765 -29.563  1.00  0.00    -0.003 C 
ATOM     16  C   UNL     1       9.733 -55.762 -28.522  1.00  0.00     0.004 C 
ENDBRANCH  14  15
ENDBRANCH  13  14
ENDBRANCH  12  13
ENDBRANCH  11  12
ENDBRANCH  10  11
ENDBRANCH   1  10
TORSDOF 12
ENDMDL
