MODEL 1
REMARK VINA RESULT:    -3.881      0.000      0.000
REMARK INTER + INTRA:         -15.435
REMARK INTER:                 -10.235
REMARK INTRA:                  -5.201
REMARK UNBOUND:                -5.201
REMARK SMILES CCCCCCCCCCCCCCCCCCCCCCCCCCCCCC(=O)[O-]
REMARK SMILES IDX 16 1 17 2 18 3 19 4 20 5 21 6 22 7 23 8 24 9 25 10 26 11
REMARK SMILES IDX 27 12 28 13 29 14 30 15 31 16 32 17 15 18 14 19 13 20 12 21
REMARK SMILES IDX 11 22 10 23 9 24 8 25 7 26 6 27 5 28 4 29 3 30 2 31 1 32
REMARK H PARENT
REMARK Flexibility Score: inf
ROOT
ATOM      1  C   UNL     1      32.518  23.826 -19.479  1.00  0.00     0.000 C 
ENDROOT
BRANCH   1   2
ATOM      2  C   UNL     1      30.980  23.715 -19.547  1.00  0.00     0.000 C 
BRANCH   2   3
ATOM      3  C   UNL     1      30.389  22.603 -18.662  1.00  0.00     0.000 C 
BRANCH   3   4
ATOM      4  C   UNL     1      29.008  22.128 -19.141  1.00  0.00     0.000 C 
BRANCH   4   5
ATOM      5  C   UNL     1      28.611  22.696 -20.519  1.00  0.00     0.000 C 
BRANCH   5   6
ATOM      6  C   UNL     1      27.204  23.323 -20.604  1.00  0.00     0.000 C 
BRANCH   6   7
ATOM      7  C   UNL     1      27.127  24.732 -19.992  1.00  0.00     0.000 C 
BRANCH   7   8
ATOM      8  C   UNL     1      26.094  24.827 -18.856  1.00  0.00     0.000 C 
BRANCH   8   9
ATOM      9  C   UNL     1      26.700  25.356 -17.545  1.00  0.00     0.000 C 
BRANCH   9  10
ATOM     10  C   UNL     1      28.239  25.311 -17.543  1.00  0.00     0.000 C 
BRANCH  10  11
ATOM     11  C   UNL     1      28.863  26.471 -16.749  1.00  0.00     0.000 C 
BRANCH  11  12
ATOM     12  C   UNL     1      27.898  27.650 -16.562  1.00  0.00     0.000 C 
BRANCH  12  13
ATOM     13  C   UNL     1      28.113  28.760 -17.603  1.00  0.00     0.006 C 
BRANCH  13  14
ATOM     14  C   UNL     1      26.909  29.708 -17.651  1.00  0.00     0.053 C 
BRANCH  14  15
ATOM     15  C   UNL     1      26.959  30.584 -18.866  1.00  0.00     0.041 C 
ATOM     16  O   UNL     1      26.014  31.382 -19.108  1.00  0.00    -0.550 OA
ATOM     17  O   UNL     1      28.063  30.546 -19.712  1.00  0.00    -0.550 OA
ENDBRANCH  14  15
ENDBRANCH  13  14
ENDBRANCH  12  13
ENDBRANCH  11  12
ENDBRANCH  10  11
ENDBRANCH   9  10
ENDBRANCH   8   9
ENDBRANCH   7   8
ENDBRANCH   6   7
ENDBRANCH   5   6
ENDBRANCH   4   5
ENDBRANCH   3   4
ENDBRANCH   2   3
ENDBRANCH   1   2
BRANCH   1  18
ATOM     18  C   UNL     1      33.011  25.270 -19.680  1.00  0.00     0.000 C 
BRANCH  18  19
ATOM     19  C   UNL     1      33.527  25.898 -18.375  1.00  0.00     0.000 C 
BRANCH  19  20
ATOM     20  C   UNL     1      32.423  26.007 -17.308  1.00  0.00     0.000 C 
BRANCH  20  21
ATOM     21  C   UNL     1      32.981  26.328 -15.913  1.00  0.00     0.000 C 
BRANCH  21  22
ATOM     22  C   UNL     1      31.870  26.642 -14.894  1.00  0.00     0.000 C 
BRANCH  22  23
ATOM     23  C   UNL     1      32.095  25.938 -13.547  1.00  0.00     0.000 C 
BRANCH  23  24
ATOM     24  C   UNL     1      30.890  26.080 -12.599  1.00  0.00    -0.000 C 
BRANCH  24  25
ATOM     25  C   UNL     1      29.583  26.397 -13.358  1.00  0.00    -0.000 C 
BRANCH  25  26
ATOM     26  C   UNL     1      28.307  25.983 -12.605  1.00  0.00    -0.000 C 
BRANCH  26  27
ATOM     27  C   UNL     1      27.172  25.538 -13.542  1.00  0.00    -0.000 C 
BRANCH  27  28
ATOM     28  C   UNL     1      26.904  24.027 -13.475  1.00  0.00    -0.000 C 
BRANCH  28  29
ATOM     29  C   UNL     1      27.471  23.267 -14.683  1.00  0.00    -0.000 C 
BRANCH  29  30
ATOM     30  C   UNL     1      28.767  22.534 -14.304  1.00  0.00    -0.000 C 
BRANCH  30  31
ATOM     31  C   UNL     1      29.976  23.010 -15.123  1.00  0.00    -0.003 C 
ATOM     32  C   UNL     1      31.311  22.679 -14.455  1.00  0.00     0.004 C 
ENDBRANCH  30  31
ENDBRANCH  29  30
ENDBRANCH  28  29
ENDBRANCH  27  28
ENDBRANCH  26  27
ENDBRANCH  25  26
ENDBRANCH  24  25
ENDBRANCH  23  24
ENDBRANCH  22  23
ENDBRANCH  21  22
ENDBRANCH  20  21
ENDBRANCH  19  20
ENDBRANCH  18  19
ENDBRANCH   1  18
TORSDOF 28
ENDMDL
MODEL 2
REMARK VINA RESULT:    -3.880      3.292      7.240
REMARK INTER + INTRA:         -15.432
REMARK INTER:                  -9.093
REMARK INTRA:                  -6.339
REMARK UNBOUND:                -5.201
REMARK SMILES CCCCCCCCCCCCCCCCCCCCCCCCCCCCCC(=O)[O-]
REMARK SMILES IDX 16 1 17 2 18 3 19 4 20 5 21 6 22 7 23 8 24 9 25 10 26 11
REMARK SMILES IDX 27 12 28 13 29 14 30 15 31 16 32 17 15 18 14 19 13 20 12 21
REMARK SMILES IDX 11 22 10 23 9 24 8 25 7 26 6 27 5 28 4 29 3 30 2 31 1 32
REMARK H PARENT
REMARK Flexibility Score: inf
ROOT
ATOM      1  C   UNL     1      31.386  26.738 -15.474  1.00  0.00     0.000 C 
ENDROOT
BRANCH   1   2
ATOM      2  C   UNL     1      31.140  25.388 -14.767  1.00  0.00     0.000 C 
BRANCH   2   3
ATOM      3  C   UNL     1      30.858  25.509 -13.259  1.00  0.00     0.000 C 
BRANCH   3   4
ATOM      4  C   UNL     1      30.056  26.769 -12.900  1.00  0.00     0.000 C 
BRANCH   4   5
ATOM      5  C   UNL     1      28.529  26.553 -12.942  1.00  0.00     0.000 C 
BRANCH   5   6
ATOM      6  C   UNL     1      28.056  25.089 -12.841  1.00  0.00     0.000 C 
BRANCH   6   7
ATOM      7  C   UNL     1      26.762  24.811 -13.623  1.00  0.00     0.000 C 
BRANCH   7   8
ATOM      8  C   UNL     1      26.843  23.524 -14.462  1.00  0.00     0.000 C 
BRANCH   8   9
ATOM      9  C   UNL     1      28.260  22.926 -14.496  1.00  0.00     0.000 C 
BRANCH   9  10
ATOM     10  C   UNL     1      28.703  22.532 -15.917  1.00  0.00     0.000 C 
BRANCH  10  11
ATOM     11  C   UNL     1      28.892  21.013 -16.077  1.00  0.00     0.000 C 
BRANCH  11  12
ATOM     12  C   UNL     1      29.861  20.652 -17.212  1.00  0.00     0.000 C 
BRANCH  12  13
ATOM     13  C   UNL     1      29.193  19.813 -18.313  1.00  0.00     0.006 C 
BRANCH  13  14
ATOM     14  C   UNL     1      30.244  19.130 -19.196  1.00  0.00     0.053 C 
BRANCH  14  15
ATOM     15  C   UNL     1      29.980  19.389 -20.648  1.00  0.00     0.041 C 
ATOM     16  O   UNL     1      28.796  19.480 -21.068  1.00  0.00    -0.550 OA
ATOM     17  O   UNL     1      31.041  19.564 -21.532  1.00  0.00    -0.550 OA
ENDBRANCH  14  15
ENDBRANCH  13  14
ENDBRANCH  12  13
ENDBRANCH  11  12
ENDBRANCH  10  11
ENDBRANCH   9  10
ENDBRANCH   8   9
ENDBRANCH   7   8
ENDBRANCH   6   7
ENDBRANCH   5   6
ENDBRANCH   4   5
ENDBRANCH   3   4
ENDBRANCH   2   3
ENDBRANCH   1   2
BRANCH   1  18
ATOM     18  C   UNL     1      30.545  26.891 -16.755  1.00  0.00     0.000 C 
BRANCH  18  19
ATOM     19  C   UNL     1      29.566  28.074 -16.673  1.00  0.00     0.000 C 
BRANCH  19  20
ATOM     20  C   UNL     1      28.098  27.617 -16.726  1.00  0.00     0.000 C 
BRANCH  20  21
ATOM     21  C   UNL     1      27.959  26.090 -16.831  1.00  0.00     0.000 C 
BRANCH  21  22
ATOM     22  C   UNL     1      26.633  25.664 -17.487  1.00  0.00     0.000 C 
BRANCH  22  23
ATOM     23  C   UNL     1      26.769  24.363 -18.292  1.00  0.00     0.000 C 
BRANCH  23  24
ATOM     24  C   UNL     1      26.389  24.544 -19.772  1.00  0.00    -0.000 C 
BRANCH  24  25
ATOM     25  C   UNL     1      27.486  24.027 -20.727  1.00  0.00    -0.000 C 
BRANCH  25  26
ATOM     26  C   UNL     1      28.270  22.819 -20.184  1.00  0.00    -0.000 C 
BRANCH  26  27
ATOM     27  C   UNL     1      29.792  23.041 -20.178  1.00  0.00    -0.000 C 
BRANCH  27  28
ATOM     28  C   UNL     1      30.265  23.886 -18.985  1.00  0.00    -0.000 C 
BRANCH  28  29
ATOM     29  C   UNL     1      31.796  23.960 -18.878  1.00  0.00    -0.000 C 
BRANCH  29  30
ATOM     30  C   UNL     1      32.275  23.390 -17.535  1.00  0.00    -0.000 C 
BRANCH  30  31
ATOM     31  C   UNL     1      33.141  22.133 -17.702  1.00  0.00    -0.003 C 
ATOM     32  C   UNL     1      33.090  21.562 -19.120  1.00  0.00     0.004 C 
ENDBRANCH  30  31
ENDBRANCH  29  30
ENDBRANCH  28  29
ENDBRANCH  27  28
ENDBRANCH  26  27
ENDBRANCH  25  26
ENDBRANCH  24  25
ENDBRANCH  23  24
ENDBRANCH  22  23
ENDBRANCH  21  22
ENDBRANCH  20  21
ENDBRANCH  19  20
ENDBRANCH  18  19
ENDBRANCH   1  18
TORSDOF 28
ENDMDL
MODEL 3
REMARK VINA RESULT:    -3.855      4.453      7.685
REMARK INTER + INTRA:         -15.367
REMARK INTER:                 -10.735
REMARK INTRA:                  -4.632
REMARK UNBOUND:                -5.201
REMARK SMILES CCCCCCCCCCCCCCCCCCCCCCCCCCCCCC(=O)[O-]
REMARK SMILES IDX 16 1 17 2 18 3 19 4 20 5 21 6 22 7 23 8 24 9 25 10 26 11
REMARK SMILES IDX 27 12 28 13 29 14 30 15 31 16 32 17 15 18 14 19 13 20 12 21
REMARK SMILES IDX 11 22 10 23 9 24 8 25 7 26 6 27 5 28 4 29 3 30 2 31 1 32
REMARK H PARENT
REMARK Flexibility Score: inf
ROOT
ATOM      1  C   UNL     1      28.862  22.910 -19.985  1.00  0.00     0.000 C 
ENDROOT
BRANCH   1   2
ATOM      2  C   UNL     1      30.189  23.604 -19.611  1.00  0.00     0.000 C 
BRANCH   2   3
ATOM      3  C   UNL     1      30.853  23.048 -18.338  1.00  0.00     0.000 C 
BRANCH   3   4
ATOM      4  C   UNL     1      32.103  23.839 -17.922  1.00  0.00     0.000 C 
BRANCH   4   5
ATOM      5  C   UNL     1      32.509  24.922 -18.943  1.00  0.00     0.000 C 
BRANCH   5   6
ATOM      6  C   UNL     1      33.304  26.115 -18.373  1.00  0.00     0.000 C 
BRANCH   6   7
ATOM      7  C   UNL     1      33.847  25.864 -16.957  1.00  0.00     0.000 C 
BRANCH   7   8
ATOM      8  C   UNL     1      35.380  25.970 -16.884  1.00  0.00     0.000 C 
BRANCH   8   9
ATOM      9  C   UNL     1      36.037  26.029 -18.274  1.00  0.00     0.000 C 
BRANCH   9  10
ATOM     10  C   UNL     1      37.507  26.483 -18.214  1.00  0.00     0.000 C 
BRANCH  10  11
ATOM     11  C   UNL     1      37.964  26.818 -16.784  1.00  0.00     0.000 C 
BRANCH  11  12
ATOM     12  C   UNL     1      38.589  28.216 -16.671  1.00  0.00     0.000 C 
BRANCH  12  13
ATOM     13  C   UNL     1      38.864  28.851 -18.043  1.00  0.00     0.006 C 
BRANCH  13  14
ATOM     14  C   UNL     1      40.313  29.341 -18.140  1.00  0.00     0.053 C 
BRANCH  14  15
ATOM     15  C   UNL     1      40.987  28.796 -19.362  1.00  0.00     0.041 C 
ATOM     16  O   UNL     1      40.502  27.797 -19.959  1.00  0.00    -0.550 OA
ATOM     17  O   UNL     1      42.132  29.408 -19.863  1.00  0.00    -0.550 OA
ENDBRANCH  14  15
ENDBRANCH  13  14
ENDBRANCH  12  13
ENDBRANCH  11  12
ENDBRANCH  10  11
ENDBRANCH   9  10
ENDBRANCH   8   9
ENDBRANCH   7   8
ENDBRANCH   6   7
ENDBRANCH   5   6
ENDBRANCH   4   5
ENDBRANCH   3   4
ENDBRANCH   2   3
ENDBRANCH   1   2
BRANCH   1  18
ATOM     18  C   UNL     1      27.704  23.911 -20.151  1.00  0.00     0.000 C 
BRANCH  18  19
ATOM     19  C   UNL     1      26.844  24.025 -18.881  1.00  0.00     0.000 C 
BRANCH  19  20
ATOM     20  C   UNL     1      27.312  25.170 -17.965  1.00  0.00     0.000 C 
BRANCH  20  21
ATOM     21  C   UNL     1      27.490  24.723 -16.506  1.00  0.00     0.000 C 
BRANCH  21  22
ATOM     22  C   UNL     1      27.975  23.266 -16.393  1.00  0.00     0.000 C 
BRANCH  22  23
ATOM     23  C   UNL     1      28.297  22.866 -14.944  1.00  0.00     0.000 C 
BRANCH  23  24
ATOM     24  C   UNL     1      27.312  23.476 -13.932  1.00  0.00    -0.000 C 
BRANCH  24  25
ATOM     25  C   UNL     1      28.034  24.225 -12.791  1.00  0.00    -0.000 C 
BRANCH  25  26
ATOM     26  C   UNL     1      27.844  25.752 -12.827  1.00  0.00    -0.000 C 
BRANCH  26  27
ATOM     27  C   UNL     1      29.142  26.513 -13.143  1.00  0.00    -0.000 C 
BRANCH  27  28
ATOM     28  C   UNL     1      30.319  25.576 -13.458  1.00  0.00    -0.000 C 
BRANCH  28  29
ATOM     29  C   UNL     1      30.778  25.668 -14.921  1.00  0.00    -0.000 C 
BRANCH  29  30
ATOM     30  C   UNL     1      30.730  27.121 -15.416  1.00  0.00    -0.000 C 
BRANCH  30  31
ATOM     31  C   UNL     1      30.110  27.248 -16.815  1.00  0.00    -0.003 C 
ATOM     32  C   UNL     1      29.016  28.315 -16.884  1.00  0.00     0.004 C 
ENDBRANCH  30  31
ENDBRANCH  29  30
ENDBRANCH  28  29
ENDBRANCH  27  28
ENDBRANCH  26  27
ENDBRANCH  25  26
ENDBRANCH  24  25
ENDBRANCH  23  24
ENDBRANCH  22  23
ENDBRANCH  21  22
ENDBRANCH  20  21
ENDBRANCH  19  20
ENDBRANCH  18  19
ENDBRANCH   1  18
TORSDOF 28
ENDMDL
MODEL 4
REMARK VINA RESULT:    -3.846      4.053      6.676
REMARK INTER + INTRA:         -15.342
REMARK INTER:                 -10.577
REMARK INTRA:                  -4.764
REMARK UNBOUND:                -5.201
REMARK SMILES CCCCCCCCCCCCCCCCCCCCCCCCCCCCCC(=O)[O-]
REMARK SMILES IDX 16 1 17 2 18 3 19 4 20 5 21 6 22 7 23 8 24 9 25 10 26 11
REMARK SMILES IDX 27 12 28 13 29 14 30 15 31 16 32 17 15 18 14 19 13 20 12 21
REMARK SMILES IDX 11 22 10 23 9 24 8 25 7 26 6 27 5 28 4 29 3 30 2 31 1 32
REMARK H PARENT
REMARK Flexibility Score: inf
ROOT
ATOM      1  C   UNL     1      26.113  25.081 -19.078  1.00  0.00     0.000 C 
ENDROOT
BRANCH   1   2
ATOM      2  C   UNL     1      26.937  24.069 -19.902  1.00  0.00     0.000 C 
BRANCH   2   3
ATOM      3  C   UNL     1      28.110  23.436 -19.132  1.00  0.00     0.000 C 
BRANCH   3   4
ATOM      4  C   UNL     1      29.387  23.318 -19.978  1.00  0.00     0.000 C 
BRANCH   4   5
ATOM      5  C   UNL     1      30.677  23.266 -19.132  1.00  0.00     0.000 C 
BRANCH   5   6
ATOM      6  C   UNL     1      31.099  24.595 -18.473  1.00  0.00     0.000 C 
BRANCH   6   7
ATOM      7  C   UNL     1      32.280  24.444 -17.501  1.00  0.00     0.000 C 
BRANCH   7   8
ATOM      8  C   UNL     1      33.503  25.277 -17.922  1.00  0.00     0.000 C 
BRANCH   8   9
ATOM      9  C   UNL     1      34.409  25.644 -16.734  1.00  0.00     0.000 C 
BRANCH   9  10
ATOM     10  C   UNL     1      35.827  26.051 -17.174  1.00  0.00     0.000 C 
BRANCH  10  11
ATOM     11  C   UNL     1      36.779  26.256 -15.983  1.00  0.00     0.000 C 
BRANCH  11  12
ATOM     12  C   UNL     1      38.001  27.114 -16.340  1.00  0.00     0.000 C 
BRANCH  12  13
ATOM     13  C   UNL     1      38.474  26.895 -17.786  1.00  0.00     0.006 C 
BRANCH  13  14
ATOM     14  C   UNL     1      38.710  28.233 -18.495  1.00  0.00     0.053 C 
BRANCH  14  15
ATOM     15  C   UNL     1      40.169  28.571 -18.541  1.00  0.00     0.041 C 
ATOM     16  O   UNL     1      40.582  29.657 -18.051  1.00  0.00    -0.550 OA
ATOM     17  O   UNL     1      41.079  27.674 -19.093  1.00  0.00    -0.550 OA
ENDBRANCH  14  15
ENDBRANCH  13  14
ENDBRANCH  12  13
ENDBRANCH  11  12
ENDBRANCH  10  11
ENDBRANCH   9  10
ENDBRANCH   8   9
ENDBRANCH   7   8
ENDBRANCH   6   7
ENDBRANCH   5   6
ENDBRANCH   4   5
ENDBRANCH   3   4
ENDBRANCH   2   3
ENDBRANCH   1   2
BRANCH   1  18
ATOM     18  C   UNL     1      26.551  25.130 -17.603  1.00  0.00     0.000 C 
BRANCH  18  19
ATOM     19  C   UNL     1      27.325  26.416 -17.266  1.00  0.00     0.000 C 
BRANCH  19  20
ATOM     20  C   UNL     1      28.747  26.120 -16.757  1.00  0.00     0.000 C 
BRANCH  20  21
ATOM     21  C   UNL     1      29.558  27.399 -16.496  1.00  0.00     0.000 C 
BRANCH  21  22
ATOM     22  C   UNL     1      30.727  27.164 -15.522  1.00  0.00     0.000 C 
BRANCH  22  23
ATOM     23  C   UNL     1      30.539  25.896 -14.675  1.00  0.00     0.000 C 
BRANCH  23  24
ATOM     24  C   UNL     1      30.337  26.210 -13.182  1.00  0.00    -0.000 C 
BRANCH  24  25
ATOM     25  C   UNL     1      28.915  26.729 -12.880  1.00  0.00    -0.000 C 
BRANCH  25  26
ATOM     26  C   UNL     1      27.889  25.617 -12.598  1.00  0.00    -0.000 C 
BRANCH  26  27
ATOM     27  C   UNL     1      26.832  25.477 -13.706  1.00  0.00    -0.000 C 
BRANCH  27  28
ATOM     28  C   UNL     1      26.630  24.021 -14.154  1.00  0.00    -0.000 C 
BRANCH  28  29
ATOM     29  C   UNL     1      27.925  23.197 -14.100  1.00  0.00    -0.000 C 
BRANCH  29  30
ATOM     30  C   UNL     1      28.323  22.718 -15.504  1.00  0.00    -0.000 C 
BRANCH  30  31
ATOM     31  C   UNL     1      29.820  22.390 -15.614  1.00  0.00    -0.003 C 
ATOM     32  C   UNL     1      30.082  21.030 -16.264  1.00  0.00     0.004 C 
ENDBRANCH  30  31
ENDBRANCH  29  30
ENDBRANCH  28  29
ENDBRANCH  27  28
ENDBRANCH  26  27
ENDBRANCH  25  26
ENDBRANCH  24  25
ENDBRANCH  23  24
ENDBRANCH  22  23
ENDBRANCH  21  22
ENDBRANCH  20  21
ENDBRANCH  19  20
ENDBRANCH  18  19
ENDBRANCH   1  18
TORSDOF 28
ENDMDL
MODEL 5
REMARK VINA RESULT:    -3.811      3.435      6.635
REMARK INTER + INTRA:         -15.250
REMARK INTER:                  -9.907
REMARK INTRA:                  -5.343
REMARK UNBOUND:                -5.201
REMARK SMILES CCCCCCCCCCCCCCCCCCCCCCCCCCCCCC(=O)[O-]
REMARK SMILES IDX 16 1 17 2 18 3 19 4 20 5 21 6 22 7 23 8 24 9 25 10 26 11
REMARK SMILES IDX 27 12 28 13 29 14 30 15 31 16 32 17 15 18 14 19 13 20 12 21
REMARK SMILES IDX 11 22 10 23 9 24 8 25 7 26 6 27 5 28 4 29 3 30 2 31 1 32
REMARK H PARENT
REMARK Flexibility Score: inf
ROOT
ATOM      1  C   UNL     1      27.024  24.349 -18.898  1.00  0.00     0.000 C 
ENDROOT
BRANCH   1   2
ATOM      2  C   UNL     1      28.533  24.036 -18.808  1.00  0.00     0.000 C 
BRANCH   2   3
ATOM      3  C   UNL     1      28.881  22.552 -19.025  1.00  0.00     0.000 C 
BRANCH   3   4
ATOM      4  C   UNL     1      30.165  22.353 -19.845  1.00  0.00     0.000 C 
BRANCH   4   5
ATOM      5  C   UNL     1      31.348  23.207 -19.345  1.00  0.00     0.000 C 
BRANCH   5   6
ATOM      6  C   UNL     1      32.731  22.839 -19.922  1.00  0.00     0.000 C 
BRANCH   6   7
ATOM      7  C   UNL     1      33.767  23.967 -19.785  1.00  0.00     0.000 C 
BRANCH   7   8
ATOM      8  C   UNL     1      33.139  25.366 -19.911  1.00  0.00     0.000 C 
BRANCH   8   9
ATOM      9  C   UNL     1      33.942  26.446 -19.166  1.00  0.00     0.000 C 
BRANCH   9  10
ATOM     10  C   UNL     1      35.170  25.873 -18.437  1.00  0.00     0.000 C 
BRANCH  10  11
ATOM     11  C   UNL     1      34.991  25.850 -16.908  1.00  0.00     0.000 C 
BRANCH  11  12
ATOM     12  C   UNL     1      36.173  25.192 -16.182  1.00  0.00     0.000 C 
BRANCH  12  13
ATOM     13  C   UNL     1      37.476  25.259 -16.994  1.00  0.00     0.006 C 
BRANCH  13  14
ATOM     14  C   UNL     1      38.406  26.349 -16.452  1.00  0.00     0.053 C 
BRANCH  14  15
ATOM     15  C   UNL     1      38.591  27.450 -17.451  1.00  0.00     0.041 C 
ATOM     16  O   UNL     1      38.417  27.224 -18.679  1.00  0.00    -0.550 OA
ATOM     17  O   UNL     1      38.920  28.734 -17.026  1.00  0.00    -0.550 OA
ENDBRANCH  14  15
ENDBRANCH  13  14
ENDBRANCH  12  13
ENDBRANCH  11  12
ENDBRANCH  10  11
ENDBRANCH   9  10
ENDBRANCH   8   9
ENDBRANCH   7   8
ENDBRANCH   6   7
ENDBRANCH   5   6
ENDBRANCH   4   5
ENDBRANCH   3   4
ENDBRANCH   2   3
ENDBRANCH   1   2
BRANCH   1  18
ATOM     18  C   UNL     1      26.563  25.329 -17.804  1.00  0.00     0.000 C 
BRANCH  18  19
ATOM     19  C   UNL     1      27.219  25.036 -16.444  1.00  0.00     0.000 C 
BRANCH  19  20
ATOM     20  C   UNL     1      27.704  26.319 -15.746  1.00  0.00     0.000 C 
BRANCH  20  21
ATOM     21  C   UNL     1      27.988  27.459 -16.737  1.00  0.00     0.000 C 
BRANCH  21  22
ATOM     22  C   UNL     1      29.477  27.845 -16.777  1.00  0.00     0.000 C 
BRANCH  22  23
ATOM     23  C   UNL     1      30.211  27.487 -15.476  1.00  0.00     0.000 C 
BRANCH  23  24
ATOM     24  C   UNL     1      31.533  26.742 -15.731  1.00  0.00    -0.000 C 
BRANCH  24  25
ATOM     25  C   UNL     1      31.348  25.521 -16.656  1.00  0.00    -0.000 C 
BRANCH  25  26
ATOM     26  C   UNL     1      31.618  24.170 -15.972  1.00  0.00    -0.000 C 
BRANCH  26  27
ATOM     27  C   UNL     1      30.344  23.506 -15.424  1.00  0.00    -0.000 C 
BRANCH  27  28
ATOM     28  C   UNL     1      30.359  23.362 -13.895  1.00  0.00    -0.000 C 
BRANCH  28  29
ATOM     29  C   UNL     1      29.684  24.541 -13.179  1.00  0.00    -0.000 C 
BRANCH  29  30
ATOM     30  C   UNL     1      30.715  25.359 -12.387  1.00  0.00    -0.000 C 
BRANCH  30  31
ATOM     31  C   UNL     1      30.174  26.728 -11.949  1.00  0.00    -0.003 C 
ATOM     32  C   UNL     1      28.660  26.851 -12.128  1.00  0.00     0.004 C 
ENDBRANCH  30  31
ENDBRANCH  29  30
ENDBRANCH  28  29
ENDBRANCH  27  28
ENDBRANCH  26  27
ENDBRANCH  25  26
ENDBRANCH  24  25
ENDBRANCH  23  24
ENDBRANCH  22  23
ENDBRANCH  21  22
ENDBRANCH  20  21
ENDBRANCH  19  20
ENDBRANCH  18  19
ENDBRANCH   1  18
TORSDOF 28
ENDMDL
MODEL 6
REMARK VINA RESULT:    -3.801      2.144      6.569
REMARK INTER + INTRA:         -15.224
REMARK INTER:                 -10.322
REMARK INTRA:                  -4.902
REMARK UNBOUND:                -5.201
REMARK SMILES CCCCCCCCCCCCCCCCCCCCCCCCCCCCCC(=O)[O-]
REMARK SMILES IDX 16 1 17 2 18 3 19 4 20 5 21 6 22 7 23 8 24 9 25 10 26 11
REMARK SMILES IDX 27 12 28 13 29 14 30 15 31 16 32 17 15 18 14 19 13 20 12 21
REMARK SMILES IDX 11 22 10 23 9 24 8 25 7 26 6 27 5 28 4 29 3 30 2 31 1 32
REMARK H PARENT
REMARK Flexibility Score: inf
ROOT
ATOM      1  C   UNL     1      26.379  24.887 -17.552  1.00  0.00     0.000 C 
ENDROOT
BRANCH   1   2
ATOM      2  C   UNL     1      26.539  24.911 -16.016  1.00  0.00     0.000 C 
BRANCH   2   3
ATOM      3  C   UNL     1      27.679  24.022 -15.488  1.00  0.00     0.000 C 
BRANCH   3   4
ATOM      4  C   UNL     1      28.163  24.437 -14.090  1.00  0.00     0.000 C 
BRANCH   4   5
ATOM      5  C   UNL     1      27.925  25.929 -13.780  1.00  0.00     0.000 C 
BRANCH   5   6
ATOM      6  C   UNL     1      28.463  26.425 -12.422  1.00  0.00     0.000 C 
BRANCH   6   7
ATOM      7  C   UNL     1      29.910  26.941 -12.492  1.00  0.00     0.000 C 
BRANCH   7   8
ATOM      8  C   UNL     1      30.947  25.810 -12.374  1.00  0.00     0.000 C 
BRANCH   8   9
ATOM      9  C   UNL     1      31.931  25.783 -13.557  1.00  0.00     0.000 C 
BRANCH   9  10
ATOM     10  C   UNL     1      31.473  26.669 -14.729  1.00  0.00     0.000 C 
BRANCH  10  11
ATOM     11  C   UNL     1      31.214  25.862 -16.013  1.00  0.00     0.000 C 
BRANCH  11  12
ATOM     12  C   UNL     1      30.134  26.493 -16.903  1.00  0.00     0.000 C 
BRANCH  12  13
ATOM     13  C   UNL     1      29.671  27.865 -16.387  1.00  0.00     0.006 C 
BRANCH  13  14
ATOM     14  C   UNL     1      28.206  28.125 -16.758  1.00  0.00     0.053 C 
BRANCH  14  15
ATOM     15  C   UNL     1      28.070  29.370 -17.580  1.00  0.00     0.041 C 
ATOM     16  O   UNL     1      29.056  29.808 -18.232  1.00  0.00    -0.550 OA
ATOM     17  O   UNL     1      26.846  30.030 -17.655  1.00  0.00    -0.550 OA
ENDBRANCH  14  15
ENDBRANCH  13  14
ENDBRANCH  12  13
ENDBRANCH  11  12
ENDBRANCH  10  11
ENDBRANCH   9  10
ENDBRANCH   8   9
ENDBRANCH   7   8
ENDBRANCH   6   7
ENDBRANCH   5   6
ENDBRANCH   4   5
ENDBRANCH   3   4
ENDBRANCH   2   3
ENDBRANCH   1   2
BRANCH   1  18
ATOM     18  C   UNL     1      27.701  24.567 -18.274  1.00  0.00     0.000 C 
BRANCH  18  19
ATOM     19  C   UNL     1      27.479  23.764 -19.567  1.00  0.00     0.000 C 
BRANCH  19  20
ATOM     20  C   UNL     1      28.610  22.752 -19.822  1.00  0.00     0.000 C 
BRANCH  20  21
ATOM     21  C   UNL     1      29.950  23.433 -20.142  1.00  0.00     0.000 C 
BRANCH  21  22
ATOM     22  C   UNL     1      31.071  23.008 -19.176  1.00  0.00     0.000 C 
BRANCH  22  23
ATOM     23  C   UNL     1      32.128  24.107 -18.985  1.00  0.00     0.000 C 
BRANCH  23  24
ATOM     24  C   UNL     1      33.456  23.558 -18.434  1.00  0.00    -0.000 C 
BRANCH  24  25
ATOM     25  C   UNL     1      34.590  24.603 -18.493  1.00  0.00    -0.000 C 
BRANCH  25  26
ATOM     26  C   UNL     1      34.240  25.946 -17.828  1.00  0.00    -0.000 C 
BRANCH  26  27
ATOM     27  C   UNL     1      34.917  26.136 -16.460  1.00  0.00    -0.000 C 
BRANCH  27  28
ATOM     28  C   UNL     1      35.549  24.842 -15.925  1.00  0.00    -0.000 C 
BRANCH  28  29
ATOM     29  C   UNL     1      37.050  24.990 -15.632  1.00  0.00    -0.000 C 
BRANCH  29  30
ATOM     30  C   UNL     1      37.816  25.382 -16.904  1.00  0.00    -0.000 C 
BRANCH  30  31
ATOM     31  C   UNL     1      38.522  26.740 -16.773  1.00  0.00    -0.003 C 
ATOM     32  C   UNL     1      38.417  27.329 -15.366  1.00  0.00     0.004 C 
ENDBRANCH  30  31
ENDBRANCH  29  30
ENDBRANCH  28  29
ENDBRANCH  27  28
ENDBRANCH  26  27
ENDBRANCH  25  26
ENDBRANCH  24  25
ENDBRANCH  23  24
ENDBRANCH  22  23
ENDBRANCH  21  22
ENDBRANCH  20  21
ENDBRANCH  19  20
ENDBRANCH  18  19
ENDBRANCH   1  18
TORSDOF 28
ENDMDL
MODEL 7
REMARK VINA RESULT:    -3.776      2.572      6.552
REMARK INTER + INTRA:         -15.157
REMARK INTER:                  -8.766
REMARK INTRA:                  -6.392
REMARK UNBOUND:                -5.201
REMARK SMILES CCCCCCCCCCCCCCCCCCCCCCCCCCCCCC(=O)[O-]
REMARK SMILES IDX 16 1 17 2 18 3 19 4 20 5 21 6 22 7 23 8 24 9 25 10 26 11
REMARK SMILES IDX 27 12 28 13 29 14 30 15 31 16 32 17 15 18 14 19 13 20 12 21
REMARK SMILES IDX 11 22 10 23 9 24 8 25 7 26 6 27 5 28 4 29 3 30 2 31 1 32
REMARK H PARENT
REMARK Flexibility Score: inf
ROOT
ATOM      1  C   UNL     1      31.611  26.576 -16.530  1.00  0.00     0.000 C 
ENDROOT
BRANCH   1   2
ATOM      2  C   UNL     1      30.168  26.412 -17.053  1.00  0.00     0.000 C 
BRANCH   2   3
ATOM      3  C   UNL     1      29.271  27.641 -16.821  1.00  0.00     0.000 C 
BRANCH   3   4
ATOM      4  C   UNL     1      27.815  27.267 -16.500  1.00  0.00     0.000 C 
BRANCH   4   5
ATOM      5  C   UNL     1      27.691  26.098 -15.501  1.00  0.00     0.000 C 
BRANCH   5   6
ATOM      6  C   UNL     1      27.953  26.450 -14.022  1.00  0.00     0.000 C 
BRANCH   6   7
ATOM      7  C   UNL     1      28.792  25.393 -13.284  1.00  0.00     0.000 C 
BRANCH   7   8
ATOM      8  C   UNL     1      28.898  24.072 -14.065  1.00  0.00     0.000 C 
BRANCH   8   9
ATOM      9  C   UNL     1      30.106  23.223 -13.633  1.00  0.00     0.000 C 
BRANCH   9  10
ATOM     10  C   UNL     1      30.706  22.412 -14.795  1.00  0.00     0.000 C 
BRANCH  10  11
ATOM     11  C   UNL     1      30.414  23.043 -16.168  1.00  0.00     0.000 C 
BRANCH  11  12
ATOM     12  C   UNL     1      29.664  22.092 -17.111  1.00  0.00     0.000 C 
BRANCH  12  13
ATOM     13  C   UNL     1      28.344  22.688 -17.624  1.00  0.00     0.006 C 
BRANCH  13  14
ATOM     14  C   UNL     1      28.572  23.516 -18.894  1.00  0.00     0.053 C 
BRANCH  14  15
ATOM     15  C   UNL     1      27.286  24.091 -19.403  1.00  0.00     0.041 C 
ATOM     16  O   UNL     1      27.011  24.033 -20.631  1.00  0.00    -0.550 OA
ATOM     17  O   UNL     1      26.375  24.661 -18.518  1.00  0.00    -0.550 OA
ENDBRANCH  14  15
ENDBRANCH  13  14
ENDBRANCH  12  13
ENDBRANCH  11  12
ENDBRANCH  10  11
ENDBRANCH   9  10
ENDBRANCH   8   9
ENDBRANCH   7   8
ENDBRANCH   6   7
ENDBRANCH   5   6
ENDBRANCH   4   5
ENDBRANCH   3   4
ENDBRANCH   2   3
ENDBRANCH   1   2
BRANCH   1  18
ATOM     18  C   UNL     1      31.671  26.656 -14.994  1.00  0.00     0.000 C 
BRANCH  18  19
ATOM     19  C   UNL     1      32.777  25.764 -14.405  1.00  0.00     0.000 C 
BRANCH  19  20
ATOM     20  C   UNL     1      34.137  26.001 -15.086  1.00  0.00     0.000 C 
BRANCH  20  21
ATOM     21  C   UNL     1      34.911  24.696 -15.328  1.00  0.00     0.000 C 
BRANCH  21  22
ATOM     22  C   UNL     1      34.019  23.583 -15.907  1.00  0.00     0.000 C 
BRANCH  22  23
ATOM     23  C   UNL     1      34.646  22.911 -17.139  1.00  0.00     0.000 C 
BRANCH  23  24
ATOM     24  C   UNL     1      33.612  22.623 -18.242  1.00  0.00    -0.000 C 
BRANCH  24  25
ATOM     25  C   UNL     1      32.758  23.863 -18.582  1.00  0.00    -0.000 C 
BRANCH  25  26
ATOM     26  C   UNL     1      33.218  24.613 -19.844  1.00  0.00    -0.000 C 
BRANCH  26  27
ATOM     27  C   UNL     1      33.493  26.105 -19.592  1.00  0.00    -0.000 C 
BRANCH  27  28
ATOM     28  C   UNL     1      34.698  26.339 -18.668  1.00  0.00    -0.000 C 
BRANCH  28  29
ATOM     29  C   UNL     1      35.983  25.675 -19.185  1.00  0.00    -0.000 C 
BRANCH  29  30
ATOM     30  C   UNL     1      37.218  26.497 -18.788  1.00  0.00    -0.000 C 
BRANCH  30  31
ATOM     31  C   UNL     1      37.348  26.669 -17.267  1.00  0.00    -0.003 C 
ATOM     32  C   UNL     1      38.400  25.743 -16.654  1.00  0.00     0.004 C 
ENDBRANCH  30  31
ENDBRANCH  29  30
ENDBRANCH  28  29
ENDBRANCH  27  28
ENDBRANCH  26  27
ENDBRANCH  25  26
ENDBRANCH  24  25
ENDBRANCH  23  24
ENDBRANCH  22  23
ENDBRANCH  21  22
ENDBRANCH  20  21
ENDBRANCH  19  20
ENDBRANCH  18  19
ENDBRANCH   1  18
TORSDOF 28
ENDMDL
MODEL 8
REMARK VINA RESULT:    -3.775      2.964      6.279
REMARK INTER + INTRA:         -15.155
REMARK INTER:                  -9.276
REMARK INTRA:                  -5.879
REMARK UNBOUND:                -5.201
REMARK SMILES CCCCCCCCCCCCCCCCCCCCCCCCCCCCCC(=O)[O-]
REMARK SMILES IDX 16 1 17 2 18 3 19 4 20 5 21 6 22 7 23 8 24 9 25 10 26 11
REMARK SMILES IDX 27 12 28 13 29 14 30 15 31 16 32 17 15 18 14 19 13 20 12 21
REMARK SMILES IDX 11 22 10 23 9 24 8 25 7 26 6 27 5 28 4 29 3 30 2 31 1 32
REMARK H PARENT
REMARK Flexibility Score: inf
ROOT
ATOM      1  C   UNL     1      34.232  26.034 -14.241  1.00  0.00     0.000 C 
ENDROOT
BRANCH   1   2
ATOM      2  C   UNL     1      32.711  25.797 -14.363  1.00  0.00     0.000 C 
BRANCH   2   3
ATOM      3  C   UNL     1      32.122  26.182 -15.731  1.00  0.00     0.000 C 
BRANCH   3   4
ATOM      4  C   UNL     1      30.980  27.205 -15.624  1.00  0.00     0.000 C 
BRANCH   4   5
ATOM      5  C   UNL     1      29.996  27.148 -16.810  1.00  0.00     0.000 C 
BRANCH   5   6
ATOM      6  C   UNL     1      28.554  27.604 -16.506  1.00  0.00     0.000 C 
BRANCH   6   7
ATOM      7  C   UNL     1      27.629  26.452 -16.078  1.00  0.00     0.000 C 
BRANCH   7   8
ATOM      8  C   UNL     1      27.612  26.243 -14.554  1.00  0.00     0.000 C 
BRANCH   8   9
ATOM      9  C   UNL     1      27.788  24.767 -14.155  1.00  0.00     0.000 C 
BRANCH   9  10
ATOM     10  C   UNL     1      29.239  24.280 -14.315  1.00  0.00     0.000 C 
BRANCH  10  11
ATOM     11  C   UNL     1      29.348  23.035 -15.214  1.00  0.00     0.000 C 
BRANCH  11  12
ATOM     12  C   UNL     1      29.708  23.381 -16.666  1.00  0.00     0.000 C 
BRANCH  12  13
ATOM     13  C   UNL     1      28.532  23.168 -17.632  1.00  0.00     0.006 C 
BRANCH  13  14
ATOM     14  C   UNL     1      28.675  24.054 -18.875  1.00  0.00     0.053 C 
BRANCH  14  15
ATOM     15  C   UNL     1      27.967  23.454 -20.051  1.00  0.00     0.041 C 
ATOM     16  O   UNL     1      28.414  22.406 -20.590  1.00  0.00    -0.550 OA
ATOM     17  O   UNL     1      26.795  24.029 -20.532  1.00  0.00    -0.550 OA
ENDBRANCH  14  15
ENDBRANCH  13  14
ENDBRANCH  12  13
ENDBRANCH  11  12
ENDBRANCH  10  11
ENDBRANCH   9  10
ENDBRANCH   8   9
ENDBRANCH   7   8
ENDBRANCH   6   7
ENDBRANCH   5   6
ENDBRANCH   4   5
ENDBRANCH   3   4
ENDBRANCH   2   3
ENDBRANCH   1   2
BRANCH   1  18
ATOM     18  C   UNL     1      34.937  26.028 -15.609  1.00  0.00     0.000 C 
BRANCH  18  19
ATOM     19  C   UNL     1      36.322  25.361 -15.549  1.00  0.00     0.000 C 
BRANCH  19  20
ATOM     20  C   UNL     1      37.456  26.350 -15.873  1.00  0.00     0.000 C 
BRANCH  20  21
ATOM     21  C   UNL     1      38.237  25.959 -17.137  1.00  0.00     0.000 C 
BRANCH  21  22
ATOM     22  C   UNL     1      37.504  24.895 -17.975  1.00  0.00     0.000 C 
BRANCH  22  23
ATOM     23  C   UNL     1      37.194  25.382 -19.399  1.00  0.00     0.000 C 
BRANCH  23  24
ATOM     24  C   UNL     1      36.792  26.867 -19.440  1.00  0.00    -0.000 C 
BRANCH  24  25
ATOM     25  C   UNL     1      35.367  27.073 -19.997  1.00  0.00    -0.000 C 
BRANCH  25  26
ATOM     26  C   UNL     1      34.256  26.492 -19.104  1.00  0.00    -0.000 C 
BRANCH  26  27
ATOM     27  C   UNL     1      33.447  25.382 -19.794  1.00  0.00    -0.000 C 
BRANCH  27  28
ATOM     28  C   UNL     1      32.465  24.683 -18.842  1.00  0.00    -0.000 C 
BRANCH  28  29
ATOM     29  C   UNL     1      32.827  23.212 -18.587  1.00  0.00    -0.000 C 
BRANCH  29  30
ATOM     30  C   UNL     1      34.310  23.075 -18.211  1.00  0.00    -0.000 C 
BRANCH  30  31
ATOM     31  C   UNL     1      34.515  22.365 -16.865  1.00  0.00    -0.003 C 
ATOM     32  C   UNL     1      33.339  22.561 -15.907  1.00  0.00     0.004 C 
ENDBRANCH  30  31
ENDBRANCH  29  30
ENDBRANCH  28  29
ENDBRANCH  27  28
ENDBRANCH  26  27
ENDBRANCH  25  26
ENDBRANCH  24  25
ENDBRANCH  23  24
ENDBRANCH  22  23
ENDBRANCH  21  22
ENDBRANCH  20  21
ENDBRANCH  19  20
ENDBRANCH  18  19
ENDBRANCH   1  18
TORSDOF 28
ENDMDL
MODEL 9
REMARK VINA RESULT:    -3.772      3.153      7.068
REMARK INTER + INTRA:         -15.148
REMARK INTER:                  -8.828
REMARK INTRA:                  -6.320
REMARK UNBOUND:                -5.201
REMARK SMILES CCCCCCCCCCCCCCCCCCCCCCCCCCCCCC(=O)[O-]
REMARK SMILES IDX 16 1 17 2 18 3 19 4 20 5 21 6 22 7 23 8 24 9 25 10 26 11
REMARK SMILES IDX 27 12 28 13 29 14 30 15 31 16 32 17 15 18 14 19 13 20 12 21
REMARK SMILES IDX 11 22 10 23 9 24 8 25 7 26 6 27 5 28 4 29 3 30 2 31 1 32
REMARK H PARENT
REMARK Flexibility Score: inf
ROOT
ATOM      1  C   UNL     1      26.506  25.201 -16.872  1.00  0.00     0.000 C 
ENDROOT
BRANCH   1   2
ATOM      2  C   UNL     1      27.445  26.162 -16.112  1.00  0.00     0.000 C 
BRANCH   2   3
ATOM      3  C   UNL     1      27.769  27.460 -16.874  1.00  0.00     0.000 C 
BRANCH   3   4
ATOM      4  C   UNL     1      29.259  27.828 -16.821  1.00  0.00     0.000 C 
BRANCH   4   5
ATOM      5  C   UNL     1      30.176  26.624 -16.520  1.00  0.00     0.000 C 
BRANCH   5   6
ATOM      6  C   UNL     1      31.236  26.847 -15.423  1.00  0.00     0.000 C 
BRANCH   6   7
ATOM      7  C   UNL     1      30.936  26.084 -14.122  1.00  0.00     0.000 C 
BRANCH   7   8
ATOM      8  C   UNL     1      29.802  26.729 -13.306  1.00  0.00     0.000 C 
BRANCH   8   9
ATOM      9  C   UNL     1      28.914  25.691 -12.599  1.00  0.00     0.000 C 
BRANCH   9  10
ATOM     10  C   UNL     1      29.165  24.258 -13.100  1.00  0.00     0.000 C 
BRANCH  10  11
ATOM     11  C   UNL     1      27.881  23.575 -13.604  1.00  0.00     0.000 C 
BRANCH  11  12
ATOM     12  C   UNL     1      28.146  22.581 -14.743  1.00  0.00     0.000 C 
BRANCH  12  13
ATOM     13  C   UNL     1      29.312  23.013 -15.646  1.00  0.00     0.006 C 
BRANCH  13  14
ATOM     14  C   UNL     1      30.245  21.833 -15.940  1.00  0.00     0.053 C 
BRANCH  14  15
ATOM     15  C   UNL     1      29.468  20.613 -16.329  1.00  0.00     0.041 C 
ATOM     16  O   UNL     1      28.841  20.585 -17.421  1.00  0.00    -0.550 OA
ATOM     17  O   UNL     1      29.464  19.492 -15.503  1.00  0.00    -0.550 OA
ENDBRANCH  14  15
ENDBRANCH  13  14
ENDBRANCH  12  13
ENDBRANCH  11  12
ENDBRANCH  10  11
ENDBRANCH   9  10
ENDBRANCH   8   9
ENDBRANCH   7   8
ENDBRANCH   6   7
ENDBRANCH   5   6
ENDBRANCH   4   5
ENDBRANCH   3   4
ENDBRANCH   2   3
ENDBRANCH   1   2
BRANCH   1  18
ATOM     18  C   UNL     1      26.257  25.650 -18.323  1.00  0.00     0.000 C 
BRANCH  18  19
ATOM     19  C   UNL     1      26.553  24.534 -19.338  1.00  0.00     0.000 C 
BRANCH  19  20
ATOM     20  C   UNL     1      27.617  23.548 -18.823  1.00  0.00     0.000 C 
BRANCH  20  21
ATOM     21  C   UNL     1      29.043  23.957 -19.223  1.00  0.00     0.000 C 
BRANCH  21  22
ATOM     22  C   UNL     1      29.796  22.827 -19.950  1.00  0.00     0.000 C 
BRANCH  22  23
ATOM     23  C   UNL     1      31.286  22.784 -19.580  1.00  0.00     0.000 C 
BRANCH  23  24
ATOM     24  C   UNL     1      31.710  23.971 -18.699  1.00  0.00    -0.000 C 
BRANCH  24  25
ATOM     25  C   UNL     1      32.799  24.837 -19.367  1.00  0.00    -0.000 C 
BRANCH  25  26
ATOM     26  C   UNL     1      33.176  26.097 -18.568  1.00  0.00    -0.000 C 
BRANCH  26  27
ATOM     27  C   UNL     1      34.585  26.026 -17.958  1.00  0.00    -0.000 C 
BRANCH  27  28
ATOM     28  C   UNL     1      34.566  25.974 -16.422  1.00  0.00    -0.000 C 
BRANCH  28  29
ATOM     29  C   UNL     1      35.200  24.692 -15.862  1.00  0.00    -0.000 C 
BRANCH  29  30
ATOM     30  C   UNL     1      34.278  23.485 -16.091  1.00  0.00    -0.000 C 
BRANCH  30  31
ATOM     31  C   UNL     1      34.074  22.647 -14.820  1.00  0.00    -0.003 C 
ATOM     32  C   UNL     1      32.999  23.224 -13.897  1.00  0.00     0.004 C 
ENDBRANCH  30  31
ENDBRANCH  29  30
ENDBRANCH  28  29
ENDBRANCH  27  28
ENDBRANCH  26  27
ENDBRANCH  25  26
ENDBRANCH  24  25
ENDBRANCH  23  24
ENDBRANCH  22  23
ENDBRANCH  21  22
ENDBRANCH  20  21
ENDBRANCH  19  20
ENDBRANCH  18  19
ENDBRANCH   1  18
TORSDOF 28
ENDMDL
