MODEL 1
REMARK VINA RESULT:    -6.874      0.000      0.000
REMARK INTER + INTRA:          -8.575
REMARK INTER:                  -8.280
REMARK INTRA:                  -0.295
REMARK UNBOUND:                -0.295
REMARK SMILES Oc1cc(O)c2cc(O)c(-c3ccc(O)c(O)c3)[o+]c2c1
REMARK SMILES IDX 10 1 19 2 20 3 21 4 2 5 3 6 4 7 6 8 7 9 8 10 11 11 12 12
REMARK SMILES IDX 13 13 14 14 18 15 16 16 15 17 17 19 9 21 1 23 5 25
REMARK H PARENT 15 18 17 20 9 22 1 24 5 26
REMARK Flexibility Score: inf
ROOT
ATOM      1  C   UNL     1      17.289  -1.622  10.256  1.00  0.00     0.402 A 
ATOM      2  O   UNL     1      17.329  -1.886   8.953  1.00  0.00    -0.202 OA
ATOM      3  C   UNL     1      16.247  -2.150   8.228  1.00  0.00     0.368 A 
ATOM      4  C   UNL     1      16.391  -2.419   6.864  1.00  0.00     0.162 A 
ATOM      5  C   UNL     1      15.270  -2.702   6.078  1.00  0.00     0.128 A 
ATOM      6  C   UNL     1      14.000  -2.718   6.660  1.00  0.00     0.093 A 
ATOM      7  C   UNL     1      13.829  -2.453   8.024  1.00  0.00     0.136 A 
ATOM      8  C   UNL     1      14.964  -2.162   8.825  1.00  0.00     0.125 A 
ATOM      9  C   UNL     1      14.886  -1.872  10.197  1.00  0.00     0.078 A 
ATOM     10  C   UNL     1      16.049  -1.589  10.921  1.00  0.00     0.223 A 
ENDROOT
BRANCH   1  11
ATOM     11  C   UNL     1      18.565  -1.354  10.956  1.00  0.00     0.087 A 
ATOM     12  C   UNL     1      19.126  -2.288  11.841  1.00  0.00     0.022 A 
ATOM     13  C   UNL     1      20.342  -2.022  12.471  1.00  0.00     0.051 A 
ATOM     14  C   UNL     1      21.030  -0.828  12.223  1.00  0.00     0.157 A 
ATOM     15  C   UNL     1      19.264  -0.165  10.688  1.00  0.00     0.068 A 
ATOM     16  C   UNL     1      20.485   0.110  11.315  1.00  0.00     0.158 A 
BRANCH  14  17
ATOM     17  O   UNL     1      22.239  -0.621  12.889  1.00  0.00    -0.504 OA
ATOM     18  H   UNL     1      23.145  -0.703  12.452  1.00  0.00     0.293 HD
ENDBRANCH  14  17
BRANCH  16  19
ATOM     19  O   UNL     1      21.116   1.318  11.010  1.00  0.00    -0.504 OA
ATOM     20  H   UNL     1      20.722   2.226  11.207  1.00  0.00     0.293 HD
ENDBRANCH  16  19
ENDBRANCH   1  11
BRANCH  10  21
ATOM     21  O   UNL     1      15.967  -1.253  12.271  1.00  0.00    -0.500 OA
ATOM     22  H   UNL     1      15.420  -0.463  12.592  1.00  0.00     0.294 HD
ENDBRANCH  10  21
BRANCH   5  23
ATOM     23  O   UNL     1      15.405  -2.969   4.718  1.00  0.00    -0.507 OA
ATOM     24  H   UNL     1      15.880  -2.324   4.096  1.00  0.00     0.293 HD
ENDBRANCH   5  23
BRANCH   7  25
ATOM     25  O   UNL     1      12.526  -2.492   8.529  1.00  0.00    -0.507 OA
ATOM     26  H   UNL     1      11.950  -1.678   8.687  1.00  0.00     0.293 HD
ENDBRANCH   7  25
TORSDOF 6
ENDMDL
MODEL 2
REMARK VINA RESULT:    -6.451      1.334      6.953
REMARK INTER + INTRA:          -8.066
REMARK INTER:                  -7.792
REMARK INTRA:                  -0.274
REMARK UNBOUND:                -0.295
REMARK SMILES Oc1cc(O)c2cc(O)c(-c3ccc(O)c(O)c3)[o+]c2c1
REMARK SMILES IDX 10 1 19 2 20 3 21 4 2 5 3 6 4 7 6 8 7 9 8 10 11 11 12 12
REMARK SMILES IDX 13 13 14 14 18 15 16 16 15 17 17 19 9 21 1 23 5 25
REMARK H PARENT 15 18 17 20 9 22 1 24 5 26
REMARK Flexibility Score: inf
ROOT
ATOM      1  C   UNL     1      17.589  -1.421  10.727  1.00  0.00     0.402 A 
ATOM      2  O   UNL     1      18.485  -0.504  10.370  1.00  0.00    -0.202 OA
ATOM      3  C   UNL     1      19.533  -0.177  11.118  1.00  0.00     0.368 A 
ATOM      4  C   UNL     1      20.418   0.802  10.659  1.00  0.00     0.162 A 
ATOM      5  C   UNL     1      21.528   1.167  11.427  1.00  0.00     0.128 A 
ATOM      6  C   UNL     1      21.752   0.550  12.659  1.00  0.00     0.093 A 
ATOM      7  C   UNL     1      20.880  -0.433  13.143  1.00  0.00     0.136 A 
ATOM      8  C   UNL     1      19.754  -0.809  12.365  1.00  0.00     0.125 A 
ATOM      9  C   UNL     1      18.835  -1.793  12.764  1.00  0.00     0.078 A 
ATOM     10  C   UNL     1      17.750  -2.113  11.941  1.00  0.00     0.223 A 
ENDROOT
BRANCH   1  11
ATOM     11  C   UNL     1      16.458  -1.689   9.811  1.00  0.00     0.087 A 
ATOM     12  C   UNL     1      15.145  -1.315  10.140  1.00  0.00     0.022 A 
ATOM     13  C   UNL     1      14.098  -1.558   9.250  1.00  0.00     0.051 A 
ATOM     14  C   UNL     1      14.339  -2.164   8.011  1.00  0.00     0.157 A 
ATOM     15  C   UNL     1      16.705  -2.277   8.560  1.00  0.00     0.068 A 
ATOM     16  C   UNL     1      15.661  -2.524   7.660  1.00  0.00     0.158 A 
BRANCH  14  17
ATOM     17  O   UNL     1      13.248  -2.383   7.168  1.00  0.00    -0.504 OA
ATOM     18  H   UNL     1      13.144  -3.195   6.578  1.00  0.00     0.293 HD
ENDBRANCH  14  17
BRANCH  16  19
ATOM     19  O   UNL     1      15.981  -3.124   6.440  1.00  0.00    -0.504 OA
ATOM     20  H   UNL     1      16.065  -2.621   5.569  1.00  0.00     0.293 HD
ENDBRANCH  16  19
ENDBRANCH   1  11
BRANCH  10  21
ATOM     21  O   UNL     1      16.866  -3.125  12.313  1.00  0.00    -0.500 OA
ATOM     22  H   UNL     1      15.995  -2.923  12.789  1.00  0.00     0.294 HD
ENDBRANCH  10  21
BRANCH   5  23
ATOM     23  O   UNL     1      22.415   2.141  10.975  1.00  0.00    -0.507 OA
ATOM     24  H   UNL     1      23.062   1.957  10.216  1.00  0.00     0.293 HD
ENDBRANCH   5  23
BRANCH   7  25
ATOM     25  O   UNL     1      21.174  -0.998  14.387  1.00  0.00    -0.507 OA
ATOM     26  H   UNL     1      21.035  -1.971  14.619  1.00  0.00     0.293 HD
ENDBRANCH   7  25
TORSDOF 6
ENDMDL
MODEL 3
REMARK VINA RESULT:    -6.273      3.057      5.127
REMARK INTER + INTRA:          -7.851
REMARK INTER:                  -7.646
REMARK INTRA:                  -0.204
REMARK UNBOUND:                -0.295
REMARK SMILES Oc1cc(O)c2cc(O)c(-c3ccc(O)c(O)c3)[o+]c2c1
REMARK SMILES IDX 10 1 19 2 20 3 21 4 2 5 3 6 4 7 6 8 7 9 8 10 11 11 12 12
REMARK SMILES IDX 13 13 14 14 18 15 16 16 15 17 17 19 9 21 1 23 5 25
REMARK H PARENT 15 18 17 20 9 22 1 24 5 26
REMARK Flexibility Score: inf
ROOT
ATOM      1  C   UNL     1      14.568  -2.105  11.245  1.00  0.00     0.402 A 
ATOM      2  O   UNL     1      13.611  -2.387  10.366  1.00  0.00    -0.202 OA
ATOM      3  C   UNL     1      13.808  -2.409   9.052  1.00  0.00     0.368 A 
ATOM      4  C   UNL     1      12.738  -2.714   8.208  1.00  0.00     0.162 A 
ATOM      5  C   UNL     1      12.918  -2.741   6.821  1.00  0.00     0.128 A 
ATOM      6  C   UNL     1      14.173  -2.461   6.279  1.00  0.00     0.093 A 
ATOM      7  C   UNL     1      15.262  -2.152   7.103  1.00  0.00     0.136 A 
ATOM      8  C   UNL     1      15.086  -2.126   8.511  1.00  0.00     0.125 A 
ATOM      9  C   UNL     1      16.122  -1.839   9.414  1.00  0.00     0.078 A 
ATOM     10  C   UNL     1      15.872  -1.837  10.790  1.00  0.00     0.223 A 
ENDROOT
BRANCH   1  11
ATOM     11  C   UNL     1      14.220  -2.103  12.684  1.00  0.00     0.087 A 
ATOM     12  C   UNL     1      14.764  -3.046  13.570  1.00  0.00     0.022 A 
ATOM     13  C   UNL     1      14.439  -3.009  14.927  1.00  0.00     0.051 A 
ATOM     14  C   UNL     1      13.577  -2.027  15.429  1.00  0.00     0.157 A 
ATOM     15  C   UNL     1      13.373  -1.103  13.189  1.00  0.00     0.068 A 
ATOM     16  C   UNL     1      13.041  -1.058  14.549  1.00  0.00     0.158 A 
BRANCH  14  17
ATOM     17  O   UNL     1      13.288  -2.048  16.795  1.00  0.00    -0.504 OA
ATOM     18  H   UNL     1      13.528  -1.305  17.434  1.00  0.00     0.293 HD
ENDBRANCH  14  17
BRANCH  16  19
ATOM     19  O   UNL     1      12.183  -0.043  14.976  1.00  0.00    -0.504 OA
ATOM     20  H   UNL     1      12.064   0.836  14.495  1.00  0.00     0.293 HD
ENDBRANCH  16  19
ENDBRANCH   1  11
BRANCH  10  21
ATOM     21  O   UNL     1      16.912  -1.601  11.688  1.00  0.00    -0.500 OA
ATOM     22  H   UNL     1      16.736  -1.316  12.644  1.00  0.00     0.294 HD
ENDBRANCH  10  21
BRANCH   5  23
ATOM     23  O   UNL     1      11.855  -3.046   5.973  1.00  0.00    -0.507 OA
ATOM     24  H   UNL     1      11.998  -3.553   5.107  1.00  0.00     0.293 HD
ENDBRANCH   5  23
BRANCH   7  25
ATOM     25  O   UNL     1      16.484  -1.880   6.480  1.00  0.00    -0.507 OA
ATOM     26  H   UNL     1      17.141  -2.585   6.179  1.00  0.00     0.293 HD
ENDBRANCH   7  25
TORSDOF 6
ENDMDL
MODEL 4
REMARK VINA RESULT:    -6.088      2.943      7.351
REMARK INTER + INTRA:          -7.628
REMARK INTER:                  -7.436
REMARK INTRA:                  -0.192
REMARK UNBOUND:                -0.295
REMARK SMILES Oc1cc(O)c2cc(O)c(-c3ccc(O)c(O)c3)[o+]c2c1
REMARK SMILES IDX 10 1 19 2 20 3 21 4 2 5 3 6 4 7 6 8 7 9 8 10 11 11 12 12
REMARK SMILES IDX 13 13 14 14 18 15 16 16 15 17 17 19 9 21 1 23 5 25
REMARK H PARENT 15 18 17 20 9 22 1 24 5 26
REMARK Flexibility Score: inf
ROOT
ATOM      1  C   UNL     1      16.161  -1.785  12.388  1.00  0.00     0.402 A 
ATOM      2  O   UNL     1      17.088  -1.798  13.342  1.00  0.00    -0.202 OA
ATOM      3  C   UNL     1      18.389  -1.685  13.098  1.00  0.00     0.368 A 
ATOM      4  C   UNL     1      19.287  -1.714  14.168  1.00  0.00     0.162 A 
ATOM      5  C   UNL     1      20.662  -1.599  13.939  1.00  0.00     0.128 A 
ATOM      6  C   UNL     1      21.139  -1.458  12.634  1.00  0.00     0.093 A 
ATOM      7  C   UNL     1      20.260  -1.428  11.544  1.00  0.00     0.136 A 
ATOM      8  C   UNL     1      18.864  -1.540  11.772  1.00  0.00     0.125 A 
ATOM      9  C   UNL     1      17.909  -1.507  10.743  1.00  0.00     0.078 A 
ATOM     10  C   UNL     1      16.548  -1.619  11.046  1.00  0.00     0.223 A 
ENDROOT
BRANCH   1  11
ATOM     11  C   UNL     1      14.743  -1.929  12.787  1.00  0.00     0.087 A 
ATOM     12  C   UNL     1      13.957  -2.997  12.325  1.00  0.00     0.022 A 
ATOM     13  C   UNL     1      12.629  -3.125  12.733  1.00  0.00     0.051 A 
ATOM     14  C   UNL     1      12.062  -2.201  13.619  1.00  0.00     0.157 A 
ATOM     15  C   UNL     1      14.183  -1.014  13.693  1.00  0.00     0.068 A 
ATOM     16  C   UNL     1      12.851  -1.134  14.109  1.00  0.00     0.158 A 
BRANCH  14  17
ATOM     17  O   UNL     1      10.727  -2.383  13.985  1.00  0.00    -0.504 OA
ATOM     18  H   UNL     1       9.999  -1.704  13.820  1.00  0.00     0.293 HD
ENDBRANCH  14  17
BRANCH  16  19
ATOM     19  O   UNL     1      12.358  -0.179  15.001  1.00  0.00    -0.504 OA
ATOM     20  H   UNL     1      12.898   0.601  15.346  1.00  0.00     0.293 HD
ENDBRANCH  16  19
ENDBRANCH   1  11
BRANCH  10  21
ATOM     21  O   UNL     1      15.597  -1.536  10.029  1.00  0.00    -0.500 OA
ATOM     22  H   UNL     1      14.950  -2.292   9.841  1.00  0.00     0.294 HD
ENDBRANCH  10  21
BRANCH   5  23
ATOM     23  O   UNL     1      21.563  -1.625  15.000  1.00  0.00    -0.507 OA
ATOM     24  H   UNL     1      21.689  -2.456  15.568  1.00  0.00     0.293 HD
ENDBRANCH   5  23
BRANCH   7  25
ATOM     25  O   UNL     1      20.819  -1.287  10.271  1.00  0.00    -0.507 OA
ATOM     26  H   UNL     1      21.625  -1.798   9.941  1.00  0.00     0.293 HD
ENDBRANCH   7  25
TORSDOF 6
ENDMDL
MODEL 5
REMARK VINA RESULT:    -6.043      2.223      3.761
REMARK INTER + INTRA:          -7.574
REMARK INTER:                  -7.226
REMARK INTRA:                  -0.349
REMARK UNBOUND:                -0.295
REMARK SMILES Oc1cc(O)c2cc(O)c(-c3ccc(O)c(O)c3)[o+]c2c1
REMARK SMILES IDX 10 1 19 2 20 3 21 4 2 5 3 6 4 7 6 8 7 9 8 10 11 11 12 12
REMARK SMILES IDX 13 13 14 14 18 15 16 16 15 17 17 19 9 21 1 23 5 25
REMARK H PARENT 15 18 17 20 9 22 1 24 5 26
REMARK Flexibility Score: inf
ROOT
ATOM      1  C   UNL     1      18.215  -1.247  12.258  1.00  0.00     0.402 A 
ATOM      2  O   UNL     1      17.020  -1.620  12.707  1.00  0.00    -0.202 OA
ATOM      3  C   UNL     1      16.020  -1.981  11.910  1.00  0.00     0.368 A 
ATOM      4  C   UNL     1      14.799  -2.355  12.477  1.00  0.00     0.162 A 
ATOM      5  C   UNL     1      13.729  -2.737  11.661  1.00  0.00     0.128 A 
ATOM      6  C   UNL     1      13.883  -2.743  10.273  1.00  0.00     0.093 A 
ATOM      7  C   UNL     1      15.096  -2.372   9.680  1.00  0.00     0.136 A 
ATOM      8  C   UNL     1      16.185  -1.987  10.504  1.00  0.00     0.125 A 
ATOM      9  C   UNL     1      17.440  -1.613   9.999  1.00  0.00     0.078 A 
ATOM     10  C   UNL     1      18.469  -1.250  10.874  1.00  0.00     0.223 A 
ENDROOT
BRANCH   1  11
ATOM     11  C   UNL     1      19.246  -0.857  13.247  1.00  0.00     0.087 A 
ATOM     12  C   UNL     1      20.142  -1.797  13.779  1.00  0.00     0.022 A 
ATOM     13  C   UNL     1      21.120  -1.402  14.693  1.00  0.00     0.051 A 
ATOM     14  C   UNL     1      21.232  -0.062  15.084  1.00  0.00     0.157 A 
ATOM     15  C   UNL     1      19.371   0.490  13.621  1.00  0.00     0.068 A 
ATOM     16  C   UNL     1      20.348   0.897  14.537  1.00  0.00     0.158 A 
BRANCH  14  17
ATOM     17  O   UNL     1      22.228   0.267  16.005  1.00  0.00    -0.504 OA
ATOM     18  H   UNL     1      22.507  -0.327  16.772  1.00  0.00     0.293 HD
ENDBRANCH  14  17
BRANCH  16  19
ATOM     19  O   UNL     1      20.404   2.252  14.872  1.00  0.00    -0.504 OA
ATOM     20  H   UNL     1      20.018   2.990  14.302  1.00  0.00     0.293 HD
ENDBRANCH  16  19
ENDBRANCH   1  11
BRANCH  10  21
ATOM     21  O   UNL     1      19.730  -0.926  10.374  1.00  0.00    -0.500 OA
ATOM     22  H   UNL     1      20.569  -1.389  10.703  1.00  0.00     0.294 HD
ENDBRANCH  10  21
BRANCH   5  23
ATOM     23  O   UNL     1      12.510  -3.112  12.219  1.00  0.00    -0.507 OA
ATOM     24  H   UNL     1      11.629  -2.801  11.824  1.00  0.00     0.293 HD
ENDBRANCH   5  23
BRANCH   7  25
ATOM     25  O   UNL     1      15.166  -2.402   8.284  1.00  0.00    -0.507 OA
ATOM     26  H   UNL     1      14.364  -2.362   7.672  1.00  0.00     0.293 HD
ENDBRANCH   7  25
TORSDOF 6
ENDMDL
MODEL 6
REMARK VINA RESULT:    -6.007      3.710      5.162
REMARK INTER + INTRA:          -7.531
REMARK INTER:                  -7.291
REMARK INTRA:                  -0.240
REMARK UNBOUND:                -0.295
REMARK SMILES Oc1cc(O)c2cc(O)c(-c3ccc(O)c(O)c3)[o+]c2c1
REMARK SMILES IDX 10 1 19 2 20 3 21 4 2 5 3 6 4 7 6 8 7 9 8 10 11 11 12 12
REMARK SMILES IDX 13 13 14 14 18 15 16 16 15 17 17 19 9 21 1 23 5 25
REMARK H PARENT 15 18 17 20 9 22 1 24 5 26
REMARK Flexibility Score: inf
ROOT
ATOM      1  C   UNL     1      17.168  -1.060  13.698  1.00  0.00     0.402 A 
ATOM      2  O   UNL     1      16.090  -0.738  14.408  1.00  0.00    -0.202 OA
ATOM      3  C   UNL     1      14.848  -0.978  14.001  1.00  0.00     0.368 A 
ATOM      4  C   UNL     1      13.779  -0.599  14.817  1.00  0.00     0.162 A 
ATOM      5  C   UNL     1      12.462  -0.838  14.412  1.00  0.00     0.128 A 
ATOM      6  C   UNL     1      12.215  -1.456  13.185  1.00  0.00     0.093 A 
ATOM      7  C   UNL     1      13.269  -1.845  12.348  1.00  0.00     0.136 A 
ATOM      8  C   UNL     1      14.607  -1.608  12.756  1.00  0.00     0.125 A 
ATOM      9  C   UNL     1      15.724  -1.974  11.989  1.00  0.00     0.078 A 
ATOM     10  C   UNL     1      17.015  -1.712  12.461  1.00  0.00     0.223 A 
ENDROOT
BRANCH   1  11
ATOM     11  C   UNL     1      18.499  -0.730  14.256  1.00  0.00     0.087 A 
ATOM     12  C   UNL     1      19.375  -1.733  14.701  1.00  0.00     0.022 A 
ATOM     13  C   UNL     1      20.634  -1.399  15.202  1.00  0.00     0.051 A 
ATOM     14  C   UNL     1      21.050  -0.063  15.256  1.00  0.00     0.157 A 
ATOM     15  C   UNL     1      18.923   0.608  14.288  1.00  0.00     0.068 A 
ATOM     16  C   UNL     1      20.185   0.953  14.788  1.00  0.00     0.158 A 
BRANCH  14  17
ATOM     17  O   UNL     1      22.320   0.204  15.772  1.00  0.00    -0.504 OA
ATOM     18  H   UNL     1      23.181  -0.049  15.311  1.00  0.00     0.293 HD
ENDBRANCH  14  17
BRANCH  16  19
ATOM     19  O   UNL     1      20.533   2.306  14.803  1.00  0.00    -0.504 OA
ATOM     20  H   UNL     1      20.460   2.915  14.001  1.00  0.00     0.293 HD
ENDBRANCH  16  19
ENDBRANCH   1  11
BRANCH  10  21
ATOM     21  O   UNL     1      18.125  -2.120  11.722  1.00  0.00    -0.500 OA
ATOM     22  H   UNL     1      18.068  -2.873  11.047  1.00  0.00     0.294 HD
ENDBRANCH  10  21
BRANCH   5  23
ATOM     23  O   UNL     1      11.392  -0.464  15.221  1.00  0.00    -0.507 OA
ATOM     24  H   UNL     1      10.443  -0.442  14.866  1.00  0.00     0.293 HD
ENDBRANCH   5  23
BRANCH   7  25
ATOM     25  O   UNL     1      12.936  -2.455  11.135  1.00  0.00    -0.507 OA
ATOM     26  H   UNL     1      12.257  -3.196  11.036  1.00  0.00     0.293 HD
ENDBRANCH   7  25
TORSDOF 6
ENDMDL
MODEL 7
REMARK VINA RESULT:    -5.979      3.815      7.523
REMARK INTER + INTRA:          -7.497
REMARK INTER:                  -7.144
REMARK INTRA:                  -0.353
REMARK UNBOUND:                -0.295
REMARK SMILES Oc1cc(O)c2cc(O)c(-c3ccc(O)c(O)c3)[o+]c2c1
REMARK SMILES IDX 10 1 19 2 20 3 21 4 2 5 3 6 4 7 6 8 7 9 8 10 11 11 12 12
REMARK SMILES IDX 13 13 14 14 18 15 16 16 15 17 17 19 9 21 1 23 5 25
REMARK H PARENT 15 18 17 20 9 22 1 24 5 26
REMARK Flexibility Score: inf
ROOT
ATOM      1  C   UNL     1      16.853  -1.302  13.677  1.00  0.00     0.402 A 
ATOM      2  O   UNL     1      17.715  -0.425  14.183  1.00  0.00    -0.202 OA
ATOM      3  C   UNL     1      18.840  -0.070  13.571  1.00  0.00     0.368 A 
ATOM      4  C   UNL     1      19.685   0.858  14.185  1.00  0.00     0.162 A 
ATOM      5  C   UNL     1      20.876   1.248  13.564  1.00  0.00     0.128 A 
ATOM      6  C   UNL     1      21.223   0.705  12.325  1.00  0.00     0.093 A 
ATOM      7  C   UNL     1      20.394  -0.227  11.689  1.00  0.00     0.136 A 
ATOM      8  C   UNL     1      19.182  -0.623  12.314  1.00  0.00     0.125 A 
ATOM      9  C   UNL     1      18.285  -1.541  11.746  1.00  0.00     0.078 A 
ATOM     10  C   UNL     1      17.107  -1.879  12.419  1.00  0.00     0.223 A 
ENDROOT
BRANCH   1  11
ATOM     11  C   UNL     1      15.639  -1.623  14.461  1.00  0.00     0.087 A 
ATOM     12  C   UNL     1      15.608  -2.708  15.351  1.00  0.00     0.022 A 
ATOM     13  C   UNL     1      14.459  -2.977  16.096  1.00  0.00     0.051 A 
ATOM     14  C   UNL     1      13.325  -2.164  15.981  1.00  0.00     0.157 A 
ATOM     15  C   UNL     1      14.511  -0.793  14.360  1.00  0.00     0.068 A 
ATOM     16  C   UNL     1      13.354  -1.055  15.104  1.00  0.00     0.158 A 
BRANCH  14  17
ATOM     17  O   UNL     1      12.208  -2.490  16.751  1.00  0.00    -0.504 OA
ATOM     18  H   UNL     1      12.116  -3.345  17.280  1.00  0.00     0.293 HD
ENDBRANCH  14  17
BRANCH  16  19
ATOM     19  O   UNL     1      12.266  -0.194  14.941  1.00  0.00    -0.504 OA
ATOM     20  H   UNL     1      12.344   0.811  14.896  1.00  0.00     0.293 HD
ENDBRANCH  16  19
ENDBRANCH   1  11
BRANCH  10  21
ATOM     21  O   UNL     1      16.192  -2.752  11.832  1.00  0.00    -0.500 OA
ATOM     22  H   UNL     1      15.967  -3.648  12.248  1.00  0.00     0.294 HD
ENDBRANCH  10  21
BRANCH   5  23
ATOM     23  O   UNL     1      21.723   2.173  14.169  1.00  0.00    -0.507 OA
ATOM     24  H   UNL     1      21.849   2.197  15.175  1.00  0.00     0.293 HD
ENDBRANCH   5  23
BRANCH   7  25
ATOM     25  O   UNL     1      20.814  -0.725  10.452  1.00  0.00    -0.507 OA
ATOM     26  H   UNL     1      21.349  -0.198   9.777  1.00  0.00     0.293 HD
ENDBRANCH   7  25
TORSDOF 6
ENDMDL
MODEL 8
REMARK VINA RESULT:    -5.956      5.139      7.837
REMARK INTER + INTRA:          -7.470
REMARK INTER:                  -7.122
REMARK INTRA:                  -0.348
REMARK UNBOUND:                -0.295
REMARK SMILES Oc1cc(O)c2cc(O)c(-c3ccc(O)c(O)c3)[o+]c2c1
REMARK SMILES IDX 10 1 19 2 20 3 21 4 2 5 3 6 4 7 6 8 7 9 8 10 11 11 12 12
REMARK SMILES IDX 13 13 14 14 18 15 16 16 15 17 17 19 9 21 1 23 5 25
REMARK H PARENT 15 18 17 20 9 22 1 24 5 26
REMARK Flexibility Score: inf
ROOT
ATOM      1  C   UNL     1      17.558  -0.638  14.900  1.00  0.00     0.402 A 
ATOM      2  O   UNL     1      18.278  -1.354  14.041  1.00  0.00    -0.202 OA
ATOM      3  C   UNL     1      19.513  -1.027  13.672  1.00  0.00     0.368 A 
ATOM      4  C   UNL     1      20.188  -1.842  12.760  1.00  0.00     0.162 A 
ATOM      5  C   UNL     1      21.487  -1.520  12.353  1.00  0.00     0.128 A 
ATOM      6  C   UNL     1      22.110  -0.378  12.860  1.00  0.00     0.093 A 
ATOM      7  C   UNL     1      21.455   0.455  13.774  1.00  0.00     0.136 A 
ATOM      8  C   UNL     1      20.138   0.131  14.193  1.00  0.00     0.125 A 
ATOM      9  C   UNL     1      19.410   0.900  15.114  1.00  0.00     0.078 A 
ATOM     10  C   UNL     1      18.117   0.514  15.483  1.00  0.00     0.223 A 
ENDROOT
BRANCH   1  11
ATOM     11  C   UNL     1      16.190  -1.101  15.223  1.00  0.00     0.087 A 
ATOM     12  C   UNL     1      15.952  -2.008  16.268  1.00  0.00     0.022 A 
ATOM     13  C   UNL     1      14.650  -2.412  16.569  1.00  0.00     0.051 A 
ATOM     14  C   UNL     1      13.561  -1.911  15.846  1.00  0.00     0.157 A 
ATOM     15  C   UNL     1      15.097  -0.580  14.512  1.00  0.00     0.068 A 
ATOM     16  C   UNL     1      13.788  -0.979  14.806  1.00  0.00     0.158 A 
BRANCH  14  17
ATOM     17  O   UNL     1      12.286  -2.359  16.194  1.00  0.00    -0.504 OA
ATOM     18  H   UNL     1      12.107  -3.066  16.892  1.00  0.00     0.293 HD
ENDBRANCH  14  17
BRANCH  16  19
ATOM     19  O   UNL     1      12.753  -0.429  14.048  1.00  0.00    -0.504 OA
ATOM     20  H   UNL     1      12.117   0.277  14.389  1.00  0.00     0.293 HD
ENDBRANCH  16  19
ENDBRANCH   1  11
BRANCH  10  21
ATOM     21  O   UNL     1      17.413   1.250  16.435  1.00  0.00    -0.500 OA
ATOM     22  H   UNL     1      17.666   1.234  17.416  1.00  0.00     0.294 HD
ENDBRANCH  10  21
BRANCH   5  23
ATOM     23  O   UNL     1      22.167  -2.328  11.445  1.00  0.00    -0.507 OA
ATOM     24  H   UNL     1      22.877  -2.985  11.749  1.00  0.00     0.293 HD
ENDBRANCH   5  23
BRANCH   7  25
ATOM     25  O   UNL     1      22.147   1.581  14.231  1.00  0.00    -0.507 OA
ATOM     26  H   UNL     1      23.109   1.790  14.005  1.00  0.00     0.293 HD
ENDBRANCH   7  25
TORSDOF 6
ENDMDL
MODEL 9
REMARK VINA RESULT:    -5.936      2.169      2.734
REMARK INTER + INTRA:          -7.445
REMARK INTER:                  -7.113
REMARK INTRA:                  -0.332
REMARK UNBOUND:                -0.295
REMARK SMILES Oc1cc(O)c2cc(O)c(-c3ccc(O)c(O)c3)[o+]c2c1
REMARK SMILES IDX 10 1 19 2 20 3 21 4 2 5 3 6 4 7 6 8 7 9 8 10 11 11 12 12
REMARK SMILES IDX 13 13 14 14 18 15 16 16 15 17 17 19 9 21 1 23 5 25
REMARK H PARENT 15 18 17 20 9 22 1 24 5 26
REMARK Flexibility Score: inf
ROOT
ATOM      1  C   UNL     1      17.961  -1.257  12.697  1.00  0.00     0.402 A 
ATOM      2  O   UNL     1      17.956  -1.248  11.367  1.00  0.00    -0.202 OA
ATOM      3  C   UNL     1      16.929  -1.669  10.637  1.00  0.00     0.368 A 
ATOM      4  C   UNL     1      17.019  -1.623   9.243  1.00  0.00     0.162 A 
ATOM      5  C   UNL     1      15.954  -2.063   8.451  1.00  0.00     0.128 A 
ATOM      6  C   UNL     1      14.795  -2.552   9.057  1.00  0.00     0.093 A 
ATOM      7  C   UNL     1      14.679  -2.610  10.451  1.00  0.00     0.136 A 
ATOM      8  C   UNL     1      15.756  -2.162  11.259  1.00  0.00     0.125 A 
ATOM      9  C   UNL     1      15.724  -2.171  12.662  1.00  0.00     0.078 A 
ATOM     10  C   UNL     1      16.824  -1.708  13.392  1.00  0.00     0.223 A 
ENDROOT
BRANCH   1  11
ATOM     11  C   UNL     1      19.171  -0.770  13.397  1.00  0.00     0.087 A 
ATOM     12  C   UNL     1      20.289  -1.598  13.588  1.00  0.00     0.022 A 
ATOM     13  C   UNL     1      21.427  -1.109  14.230  1.00  0.00     0.051 A 
ATOM     14  C   UNL     1      21.480   0.215  14.682  1.00  0.00     0.157 A 
ATOM     15  C   UNL     1      19.230   0.564  13.828  1.00  0.00     0.068 A 
ATOM     16  C   UNL     1      20.368   1.064  14.473  1.00  0.00     0.158 A 
BRANCH  14  17
ATOM     17  O   UNL     1      22.646   0.641  15.320  1.00  0.00    -0.504 OA
ATOM     18  H   UNL     1      23.168   0.078  15.976  1.00  0.00     0.293 HD
ENDBRANCH  14  17
BRANCH  16  19
ATOM     19  O   UNL     1      20.350   2.398  14.887  1.00  0.00    -0.504 OA
ATOM     20  H   UNL     1      20.984   2.785  15.570  1.00  0.00     0.293 HD
ENDBRANCH  16  19
ENDBRANCH   1  11
BRANCH  10  21
ATOM     21  O   UNL     1      16.772  -1.670  14.785  1.00  0.00    -0.500 OA
ATOM     22  H   UNL     1      17.525  -2.036  15.356  1.00  0.00     0.294 HD
ENDBRANCH  10  21
BRANCH   5  23
ATOM     23  O   UNL     1      16.037  -2.018   7.061  1.00  0.00    -0.507 OA
ATOM     24  H   UNL     1      16.615  -1.333   6.587  1.00  0.00     0.293 HD
ENDBRANCH   5  23
BRANCH   7  25
ATOM     25  O   UNL     1      13.487  -3.116  10.977  1.00  0.00    -0.507 OA
ATOM     26  H   UNL     1      13.185  -2.988  11.932  1.00  0.00     0.293 HD
ENDBRANCH   7  25
TORSDOF 6
ENDMDL
