MODEL 1
REMARK VINA RESULT:    -5.423      0.000      0.000
REMARK INTER + INTRA:          -6.871
REMARK INTER:                  -6.532
REMARK INTRA:                  -0.338
REMARK UNBOUND:                -0.338
REMARK SMILES Oc1cc(O)c2cc(O)c(-c3ccc(O)c(O)c3)[o+]c2c1.[Cl-]
REMARK SMILES IDX 10 1 19 2 20 3 21 4 2 5 3 6 4 7 6 8 7 9 8 10 11 11 12 12
REMARK SMILES IDX 13 13 14 14 18 15 16 16 15 17 17 19 9 21 1 23 5 25
REMARK H PARENT 15 18 17 20 9 22 1 24 5 26
REMARK Flexibility Score: inf
ROOT
ATOM      1  C   UNL     1      -4.213  88.240  -8.423  1.00  0.00     0.402 A 
ATOM      2  O   UNL     1      -4.886  87.281  -9.053  1.00  0.00    -0.202 OA
ATOM      3  C   UNL     1      -4.521  86.004  -9.041  1.00  0.00     0.368 A 
ATOM      4  C   UNL     1      -5.291  85.069  -9.736  1.00  0.00     0.162 A 
ATOM      5  C   UNL     1      -4.928  83.719  -9.742  1.00  0.00     0.128 A 
ATOM      6  C   UNL     1      -3.790  83.303  -9.050  1.00  0.00     0.093 A 
ATOM      7  C   UNL     1      -3.000  84.220  -8.344  1.00  0.00     0.136 A 
ATOM      8  C   UNL     1      -3.366  85.590  -8.334  1.00  0.00     0.125 A 
ATOM      9  C   UNL     1      -2.643  86.577  -7.644  1.00  0.00     0.078 A 
ATOM     10  C   UNL     1      -3.068  87.909  -7.675  1.00  0.00     0.223 A 
ENDROOT
BRANCH   1  11
ATOM     11  C   UNL     1      -4.716  89.629  -8.521  1.00  0.00     0.087 A 
ATOM     12  C   UNL     1      -5.575  90.124  -7.528  1.00  0.00     0.022 A 
ATOM     13  C   UNL     1      -6.078  91.425  -7.610  1.00  0.00     0.051 A 
ATOM     14  C   UNL     1      -5.741  92.245  -8.696  1.00  0.00     0.157 A 
ATOM     15  C   UNL     1      -4.396  90.449  -9.620  1.00  0.00     0.068 A 
ATOM     16  C   UNL     1      -4.901  91.755  -9.704  1.00  0.00     0.158 A 
BRANCH  14  17
ATOM     17  O   UNL     1      -6.238  93.544  -8.781  1.00  0.00    -0.504 OA
ATOM     18  H   UNL     1      -5.927  94.273  -8.150  1.00  0.00     0.293 HD
ENDBRANCH  14  17
BRANCH  16  19
ATOM     19  O   UNL     1      -4.579  92.566 -10.789  1.00  0.00    -0.504 OA
ATOM     20  H   UNL     1      -5.001  93.479 -10.913  1.00  0.00     0.293 HD
ENDBRANCH  16  19
ENDBRANCH   1  11
BRANCH  10  21
ATOM     21  O   UNL     1      -2.379  88.880  -6.949  1.00  0.00    -0.500 OA
ATOM     22  H   UNL     1      -1.482  89.238  -7.256  1.00  0.00     0.294 HD
ENDBRANCH  10  21
BRANCH   5  23
ATOM     23  O   UNL     1      -5.692  82.781 -10.434  1.00  0.00    -0.507 OA
ATOM     24  H   UNL     1      -5.999  82.946 -11.386  1.00  0.00     0.293 HD
ENDBRANCH   5  23
BRANCH   7  25
ATOM     25  O   UNL     1      -1.875  83.723  -7.679  1.00  0.00    -0.507 OA
ATOM     26  H   UNL     1      -1.573  84.026  -6.765  1.00  0.00     0.293 HD
ENDBRANCH   7  25
TORSDOF 6
ENDMDL
MODEL 2
REMARK VINA RESULT:    -5.242      6.959      8.652
REMARK INTER + INTRA:          -6.653
REMARK INTER:                  -6.370
REMARK INTRA:                  -0.283
REMARK UNBOUND:                -0.338
REMARK SMILES Oc1cc(O)c2cc(O)c(-c3ccc(O)c(O)c3)[o+]c2c1.[Cl-]
REMARK SMILES IDX 10 1 19 2 20 3 21 4 2 5 3 6 4 7 6 8 7 9 8 10 11 11 12 12
REMARK SMILES IDX 13 13 14 14 18 15 16 16 15 17 17 19 9 21 1 23 5 25
REMARK H PARENT 15 18 17 20 9 22 1 24 5 26
REMARK Flexibility Score: inf
ROOT
ATOM      1  C   UNL     1      -8.382  91.477 -13.551  1.00  0.00     0.402 A 
ATOM      2  O   UNL     1      -7.711  91.145 -14.651  1.00  0.00    -0.202 OA
ATOM      3  C   UNL     1      -6.393  91.264 -14.766  1.00  0.00     0.368 A 
ATOM      4  C   UNL     1      -5.779  90.892 -15.964  1.00  0.00     0.162 A 
ATOM      5  C   UNL     1      -4.393  91.010 -16.113  1.00  0.00     0.128 A 
ATOM      6  C   UNL     1      -3.621  91.503 -15.061  1.00  0.00     0.093 A 
ATOM      7  C   UNL     1      -4.212  91.883 -13.849  1.00  0.00     0.136 A 
ATOM      8  C   UNL     1      -5.617  91.763 -13.693  1.00  0.00     0.125 A 
ATOM      9  C   UNL     1      -6.294  92.107 -12.511  1.00  0.00     0.078 A 
ATOM     10  C   UNL     1      -7.682  91.957 -12.428  1.00  0.00     0.223 A 
ENDROOT
BRANCH   1  11
ATOM     11  C   UNL     1      -9.853  91.308 -13.550  1.00  0.00     0.087 A 
ATOM     12  C   UNL     1     -10.678  92.442 -13.617  1.00  0.00     0.022 A 
ATOM     13  C   UNL     1     -12.069  92.308 -13.597  1.00  0.00     0.051 A 
ATOM     14  C   UNL     1     -12.654  91.039 -13.493  1.00  0.00     0.157 A 
ATOM     15  C   UNL     1     -10.445  90.038 -13.425  1.00  0.00     0.068 A 
ATOM     16  C   UNL     1     -11.841  89.903 -13.404  1.00  0.00     0.158 A 
BRANCH  14  17
ATOM     17  O   UNL     1     -14.041  90.901 -13.475  1.00  0.00    -0.504 OA
ATOM     18  H   UNL     1     -14.654  91.707 -13.445  1.00  0.00     0.293 HD
ENDBRANCH  14  17
BRANCH  16  19
ATOM     19  O   UNL     1     -12.426  88.643 -13.286  1.00  0.00    -0.504 OA
ATOM     20  H   UNL     1     -12.789  88.149 -14.092  1.00  0.00     0.293 HD
ENDBRANCH  16  19
ENDBRANCH   1  11
BRANCH  10  21
ATOM     21  O   UNL     1      -8.348  92.251 -11.239  1.00  0.00    -0.500 OA
ATOM     22  H   UNL     1      -9.112  92.915 -11.207  1.00  0.00     0.294 HD
ENDBRANCH  10  21
BRANCH   5  23
ATOM     23  O   UNL     1      -3.773  90.640 -17.305  1.00  0.00    -0.507 OA
ATOM     24  H   UNL     1      -2.834  90.948 -17.531  1.00  0.00     0.293 HD
ENDBRANCH   5  23
BRANCH   7  25
ATOM     25  O   UNL     1      -3.369  92.370 -12.845  1.00  0.00    -0.507 OA
ATOM     26  H   UNL     1      -3.576  93.169 -12.265  1.00  0.00     0.293 HD
ENDBRANCH   7  25
TORSDOF 6
ENDMDL
MODEL 3
REMARK VINA RESULT:    -5.067     10.771     13.427
REMARK INTER + INTRA:          -6.442
REMARK INTER:                  -6.166
REMARK INTRA:                  -0.277
REMARK UNBOUND:                -0.338
REMARK SMILES Oc1cc(O)c2cc(O)c(-c3ccc(O)c(O)c3)[o+]c2c1.[Cl-]
REMARK SMILES IDX 10 1 19 2 20 3 21 4 2 5 3 6 4 7 6 8 7 9 8 10 11 11 12 12
REMARK SMILES IDX 13 13 14 14 18 15 16 16 15 17 17 19 9 21 1 23 5 25
REMARK H PARENT 15 18 17 20 9 22 1 24 5 26
REMARK Flexibility Score: inf
ROOT
ATOM      1  C   UNL     1      -2.891  91.844 -19.710  1.00  0.00     0.402 A 
ATOM      2  O   UNL     1      -3.344  92.975 -20.244  1.00  0.00    -0.202 OA
ATOM      3  C   UNL     1      -3.269  93.252 -21.541  1.00  0.00     0.368 A 
ATOM      4  C   UNL     1      -3.771  94.469 -22.007  1.00  0.00     0.162 A 
ATOM      5  C   UNL     1      -3.703  94.787 -23.366  1.00  0.00     0.128 A 
ATOM      6  C   UNL     1      -3.130  93.884 -24.263  1.00  0.00     0.093 A 
ATOM      7  C   UNL     1      -2.620  92.656 -23.822  1.00  0.00     0.136 A 
ATOM      8  C   UNL     1      -2.689  92.328 -22.443  1.00  0.00     0.125 A 
ATOM      9  C   UNL     1      -2.216  91.117 -21.913  1.00  0.00     0.078 A 
ATOM     10  C   UNL     1      -2.323  90.861 -20.543  1.00  0.00     0.223 A 
ENDROOT
BRANCH   1  11
ATOM     11  C   UNL     1      -3.022  91.657 -18.248  1.00  0.00     0.087 A 
ATOM     12  C   UNL     1      -1.875  91.709 -17.439  1.00  0.00     0.022 A 
ATOM     13  C   UNL     1      -1.972  91.516 -16.059  1.00  0.00     0.051 A 
ATOM     14  C   UNL     1      -3.215  91.251 -15.469  1.00  0.00     0.157 A 
ATOM     15  C   UNL     1      -4.265  91.370 -17.653  1.00  0.00     0.068 A 
ATOM     16  C   UNL     1      -4.363  91.175 -16.267  1.00  0.00     0.158 A 
BRANCH  14  17
ATOM     17  O   UNL     1      -3.317  91.060 -14.092  1.00  0.00    -0.504 OA
ATOM     18  H   UNL     1      -3.173  90.150 -13.671  1.00  0.00     0.293 HD
ENDBRANCH  14  17
BRANCH  16  19
ATOM     19  O   UNL     1      -5.595  90.898 -15.680  1.00  0.00    -0.504 OA
ATOM     20  H   UNL     1      -6.341  90.447 -16.198  1.00  0.00     0.293 HD
ENDBRANCH  16  19
ENDBRANCH   1  11
BRANCH  10  21
ATOM     21  O   UNL     1      -1.899  89.638 -20.024  1.00  0.00    -0.500 OA
ATOM     22  H   UNL     1      -2.549  88.983 -19.606  1.00  0.00     0.294 HD
ENDBRANCH  10  21
BRANCH   5  23
ATOM     23  O   UNL     1      -4.201  96.000 -23.838  1.00  0.00    -0.507 OA
ATOM     24  H   UNL     1      -4.967  96.036 -24.501  1.00  0.00     0.293 HD
ENDBRANCH   5  23
BRANCH   7  25
ATOM     25  O   UNL     1      -2.060  91.808 -24.783  1.00  0.00    -0.507 OA
ATOM     26  H   UNL     1      -2.120  90.801 -24.760  1.00  0.00     0.293 HD
ENDBRANCH   7  25
TORSDOF 6
ENDMDL
MODEL 4
REMARK VINA RESULT:    -5.060      5.846      7.925
REMARK INTER + INTRA:          -6.434
REMARK INTER:                  -6.144
REMARK INTRA:                  -0.291
REMARK UNBOUND:                -0.338
REMARK SMILES Oc1cc(O)c2cc(O)c(-c3ccc(O)c(O)c3)[o+]c2c1.[Cl-]
REMARK SMILES IDX 10 1 19 2 20 3 21 4 2 5 3 6 4 7 6 8 7 9 8 10 11 11 12 12
REMARK SMILES IDX 13 13 14 14 18 15 16 16 15 17 17 19 9 21 1 23 5 25
REMARK H PARENT 15 18 17 20 9 22 1 24 5 26
REMARK Flexibility Score: inf
ROOT
ATOM      1  C   UNL     1      -6.172  91.972 -14.591  1.00  0.00     0.402 A 
ATOM      2  O   UNL     1      -6.878  90.932 -14.156  1.00  0.00    -0.202 OA
ATOM      3  C   UNL     1      -6.667  90.347 -12.982  1.00  0.00     0.368 A 
ATOM      4  C   UNL     1      -7.459  89.257 -12.613  1.00  0.00     0.162 A 
ATOM      5  C   UNL     1      -7.256  88.621 -11.384  1.00  0.00     0.128 A 
ATOM      6  C   UNL     1      -6.258  89.077 -10.523  1.00  0.00     0.093 A 
ATOM      7  C   UNL     1      -5.450  90.168 -10.868  1.00  0.00     0.136 A 
ATOM      8  C   UNL     1      -5.653  90.818 -12.113  1.00  0.00     0.125 A 
ATOM      9  C   UNL     1      -4.901  91.926 -12.537  1.00  0.00     0.078 A 
ATOM     10  C   UNL     1      -5.163  92.518 -13.776  1.00  0.00     0.223 A 
ENDROOT
BRANCH   1  11
ATOM     11  C   UNL     1      -6.496  92.530 -15.924  1.00  0.00     0.087 A 
ATOM     12  C   UNL     1      -7.244  93.715 -16.013  1.00  0.00     0.022 A 
ATOM     13  C   UNL     1      -7.579  94.249 -17.260  1.00  0.00     0.051 A 
ATOM     14  C   UNL     1      -7.184  93.598 -18.436  1.00  0.00     0.157 A 
ATOM     15  C   UNL     1      -6.120  91.868 -17.108  1.00  0.00     0.068 A 
ATOM     16  C   UNL     1      -6.457  92.403 -18.360  1.00  0.00     0.158 A 
BRANCH  14  17
ATOM     17  O   UNL     1      -7.514  94.128 -19.682  1.00  0.00    -0.504 OA
ATOM     18  H   UNL     1      -8.476  94.305 -19.945  1.00  0.00     0.293 HD
ENDBRANCH  14  17
BRANCH  16  19
ATOM     19  O   UNL     1      -6.078  91.749 -19.530  1.00  0.00    -0.504 OA
ATOM     20  H   UNL     1      -5.919  90.749 -19.552  1.00  0.00     0.293 HD
ENDBRANCH  16  19
ENDBRANCH   1  11
BRANCH  10  21
ATOM     21  O   UNL     1      -4.450  93.649 -14.175  1.00  0.00    -0.500 OA
ATOM     22  H   UNL     1      -4.014  93.708 -15.087  1.00  0.00     0.294 HD
ENDBRANCH  10  21
BRANCH   5  23
ATOM     23  O   UNL     1      -8.043  87.533 -11.010  1.00  0.00    -0.507 OA
ATOM     24  H   UNL     1      -9.006  87.651 -10.717  1.00  0.00     0.293 HD
ENDBRANCH   5  23
BRANCH   7  25
ATOM     25  O   UNL     1      -4.471  90.560  -9.951  1.00  0.00    -0.507 OA
ATOM     26  H   UNL     1      -4.103  91.497  -9.875  1.00  0.00     0.293 HD
ENDBRANCH   7  25
TORSDOF 6
ENDMDL
MODEL 5
REMARK VINA RESULT:    -5.011      7.192     10.039
REMARK INTER + INTRA:          -6.375
REMARK INTER:                  -6.025
REMARK INTRA:                  -0.350
REMARK UNBOUND:                -0.338
REMARK SMILES Oc1cc(O)c2cc(O)c(-c3ccc(O)c(O)c3)[o+]c2c1.[Cl-]
REMARK SMILES IDX 10 1 19 2 20 3 21 4 2 5 3 6 4 7 6 8 7 9 8 10 11 11 12 12
REMARK SMILES IDX 13 13 14 14 18 15 16 16 15 17 17 19 9 21 1 23 5 25
REMARK H PARENT 15 18 17 20 9 22 1 24 5 26
REMARK Flexibility Score: inf
ROOT
ATOM      1  C   UNL     1      -3.940  92.007 -15.790  1.00  0.00     0.402 A 
ATOM      2  O   UNL     1      -4.808  92.600 -16.606  1.00  0.00    -0.202 OA
ATOM      3  C   UNL     1      -4.623  92.703 -17.918  1.00  0.00     0.368 A 
ATOM      4  C   UNL     1      -5.591  93.347 -18.692  1.00  0.00     0.162 A 
ATOM      5  C   UNL     1      -5.421  93.472 -20.074  1.00  0.00     0.128 A 
ATOM      6  C   UNL     1      -4.277  92.952 -20.683  1.00  0.00     0.093 A 
ATOM      7  C   UNL     1      -3.292  92.302 -19.929  1.00  0.00     0.136 A 
ATOM      8  C   UNL     1      -3.462  92.171 -18.527  1.00  0.00     0.125 A 
ATOM      9  C   UNL     1      -2.534  91.524 -17.694  1.00  0.00     0.078 A 
ATOM     10  C   UNL     1      -2.771  91.428 -16.319  1.00  0.00     0.223 A 
ENDROOT
BRANCH   1  11
ATOM     11  C   UNL     1      -4.254  91.966 -14.344  1.00  0.00     0.087 A 
ATOM     12  C   UNL     1      -4.999  90.892 -13.830  1.00  0.00     0.022 A 
ATOM     13  C   UNL     1      -5.325  90.841 -12.473  1.00  0.00     0.051 A 
ATOM     14  C   UNL     1      -4.924  91.872 -11.612  1.00  0.00     0.157 A 
ATOM     15  C   UNL     1      -3.872  93.008 -13.479  1.00  0.00     0.068 A 
ATOM     16  C   UNL     1      -4.199  92.958 -12.116  1.00  0.00     0.158 A 
BRANCH  14  17
ATOM     17  O   UNL     1      -5.245  91.824 -10.256  1.00  0.00    -0.504 OA
ATOM     18  H   UNL     1      -6.205  91.754  -9.941  1.00  0.00     0.293 HD
ENDBRANCH  14  17
BRANCH  16  19
ATOM     19  O   UNL     1      -3.815  93.989 -11.261  1.00  0.00    -0.504 OA
ATOM     20  H   UNL     1      -4.496  94.593 -10.818  1.00  0.00     0.293 HD
ENDBRANCH  16  19
ENDBRANCH   1  11
BRANCH  10  21
ATOM     21  O   UNL     1      -1.875  90.743 -15.500  1.00  0.00    -0.500 OA
ATOM     22  H   UNL     1      -1.864  89.731 -15.453  1.00  0.00     0.294 HD
ENDBRANCH  10  21
BRANCH   5  23
ATOM     23  O   UNL     1      -6.382  94.113 -20.853  1.00  0.00    -0.507 OA
ATOM     24  H   UNL     1      -7.145  94.632 -20.432  1.00  0.00     0.293 HD
ENDBRANCH   5  23
BRANCH   7  25
ATOM     25  O   UNL     1      -2.176  91.812 -20.614  1.00  0.00    -0.507 OA
ATOM     26  H   UNL     1      -1.426  92.388 -20.968  1.00  0.00     0.293 HD
ENDBRANCH   7  25
TORSDOF 6
ENDMDL
MODEL 6
REMARK VINA RESULT:    -4.995      8.863     11.765
REMARK INTER + INTRA:          -6.356
REMARK INTER:                  -6.024
REMARK INTRA:                  -0.331
REMARK UNBOUND:                -0.338
REMARK SMILES Oc1cc(O)c2cc(O)c(-c3ccc(O)c(O)c3)[o+]c2c1.[Cl-]
REMARK SMILES IDX 10 1 19 2 20 3 21 4 2 5 3 6 4 7 6 8 7 9 8 10 11 11 12 12
REMARK SMILES IDX 13 13 14 14 18 15 16 16 15 17 17 19 9 21 1 23 5 25
REMARK H PARENT 15 18 17 20 9 22 1 24 5 26
REMARK Flexibility Score: inf
ROOT
ATOM      1  C   UNL     1      -4.008  91.931 -17.776  1.00  0.00     0.402 A 
ATOM      2  O   UNL     1      -4.871  92.695 -18.440  1.00  0.00    -0.202 OA
ATOM      3  C   UNL     1      -4.654  93.139 -19.673  1.00  0.00     0.368 A 
ATOM      4  C   UNL     1      -5.620  93.940 -20.287  1.00  0.00     0.162 A 
ATOM      5  C   UNL     1      -5.416  94.423 -21.583  1.00  0.00     0.128 A 
ATOM      6  C   UNL     1      -4.241  94.106 -22.266  1.00  0.00     0.093 A 
ATOM      7  C   UNL     1      -3.256  93.305 -21.672  1.00  0.00     0.136 A 
ATOM      8  C   UNL     1      -3.460  92.810 -20.358  1.00  0.00     0.125 A 
ATOM      9  C   UNL     1      -2.536  91.991 -19.690  1.00  0.00     0.078 A 
ATOM     10  C   UNL     1      -2.808  91.536 -18.396  1.00  0.00     0.223 A 
ENDROOT
BRANCH   1  11
ATOM     11  C   UNL     1      -4.360  91.508 -16.401  1.00  0.00     0.087 A 
ATOM     12  C   UNL     1      -5.301  90.482 -16.214  1.00  0.00     0.022 A 
ATOM     13  C   UNL     1      -5.664  90.080 -14.926  1.00  0.00     0.051 A 
ATOM     14  C   UNL     1      -5.103  90.708 -13.807  1.00  0.00     0.157 A 
ATOM     15  C   UNL     1      -3.816  92.149 -15.273  1.00  0.00     0.068 A 
ATOM     16  C   UNL     1      -4.180  91.747 -13.980  1.00  0.00     0.158 A 
BRANCH  14  17
ATOM     17  O   UNL     1      -5.461  90.309 -12.520  1.00  0.00    -0.504 OA
ATOM     18  H   UNL     1      -5.090  89.462 -12.105  1.00  0.00     0.293 HD
ENDBRANCH  14  17
BRANCH  16  19
ATOM     19  O   UNL     1      -3.635  92.380 -12.865  1.00  0.00    -0.504 OA
ATOM     20  H   UNL     1      -3.175  93.279 -12.937  1.00  0.00     0.293 HD
ENDBRANCH  16  19
ENDBRANCH   1  11
BRANCH  10  21
ATOM     21  O   UNL     1      -1.913  90.682 -17.752  1.00  0.00    -0.500 OA
ATOM     22  H   UNL     1      -1.533  90.901 -16.839  1.00  0.00     0.294 HD
ENDBRANCH  10  21
BRANCH   5  23
ATOM     23  O   UNL     1      -6.375  95.222 -22.202  1.00  0.00    -0.507 OA
ATOM     24  H   UNL     1      -6.229  96.216 -22.338  1.00  0.00     0.293 HD
ENDBRANCH   5  23
BRANCH   7  25
ATOM     25  O   UNL     1      -2.107  93.035 -22.422  1.00  0.00    -0.507 OA
ATOM     26  H   UNL     1      -2.051  92.337 -23.148  1.00  0.00     0.293 HD
ENDBRANCH   7  25
TORSDOF 6
ENDMDL
MODEL 7
REMARK VINA RESULT:    -4.987      5.459      8.265
REMARK INTER + INTRA:          -6.345
REMARK INTER:                  -6.090
REMARK INTRA:                  -0.255
REMARK UNBOUND:                -0.338
REMARK SMILES Oc1cc(O)c2cc(O)c(-c3ccc(O)c(O)c3)[o+]c2c1.[Cl-]
REMARK SMILES IDX 10 1 19 2 20 3 21 4 2 5 3 6 4 7 6 8 7 9 8 10 11 11 12 12
REMARK SMILES IDX 13 13 14 14 18 15 16 16 15 17 17 19 9 21 1 23 5 25
REMARK H PARENT 15 18 17 20 9 22 1 24 5 26
REMARK Flexibility Score: inf
ROOT
ATOM      1  C   UNL     1      -9.761  84.131  -8.770  1.00  0.00     0.402 A 
ATOM      2  O   UNL     1      -8.712  83.481  -9.266  1.00  0.00    -0.202 OA
ATOM      3  C   UNL     1      -7.496  84.009  -9.343  1.00  0.00     0.368 A 
ATOM      4  C   UNL     1      -6.457  83.248  -9.884  1.00  0.00     0.162 A 
ATOM      5  C   UNL     1      -5.168  83.781  -9.980  1.00  0.00     0.128 A 
ATOM      6  C   UNL     1      -4.918  85.079  -9.534  1.00  0.00     0.093 A 
ATOM      7  C   UNL     1      -5.942  85.864  -8.987  1.00  0.00     0.136 A 
ATOM      8  C   UNL     1      -7.251  85.327  -8.886  1.00  0.00     0.125 A 
ATOM      9  C   UNL     1      -8.335  86.034  -8.341  1.00  0.00     0.078 A 
ATOM     10  C   UNL     1      -9.598  85.437  -8.269  1.00  0.00     0.223 A 
ENDROOT
BRANCH   1  11
ATOM     11  C   UNL     1     -11.069  83.438  -8.747  1.00  0.00     0.087 A 
ATOM     12  C   UNL     1     -11.231  82.295  -7.948  1.00  0.00     0.022 A 
ATOM     13  C   UNL     1     -12.450  81.612  -7.927  1.00  0.00     0.051 A 
ATOM     14  C   UNL     1     -13.520  82.054  -8.716  1.00  0.00     0.157 A 
ATOM     15  C   UNL     1     -12.141  83.865  -9.554  1.00  0.00     0.068 A 
ATOM     16  C   UNL     1     -13.364  83.180  -9.533  1.00  0.00     0.158 A 
BRANCH  14  17
ATOM     17  O   UNL     1     -14.738  81.377  -8.696  1.00  0.00    -0.504 OA
ATOM     18  H   UNL     1     -15.619  81.867  -8.799  1.00  0.00     0.293 HD
ENDBRANCH  14  17
BRANCH  16  19
ATOM     19  O   UNL     1     -14.425  83.608 -10.328  1.00  0.00    -0.504 OA
ATOM     20  H   UNL     1     -15.248  83.035 -10.469  1.00  0.00     0.293 HD
ENDBRANCH  16  19
ENDBRANCH   1  11
BRANCH  10  21
ATOM     21  O   UNL     1     -10.662  86.120  -7.683  1.00  0.00    -0.500 OA
ATOM     22  H   UNL     1     -10.593  87.098  -7.430  1.00  0.00     0.294 HD
ENDBRANCH  10  21
BRANCH   5  23
ATOM     23  O   UNL     1      -4.126  83.027 -10.518  1.00  0.00    -0.507 OA
ATOM     24  H   UNL     1      -3.674  83.293 -11.386  1.00  0.00     0.293 HD
ENDBRANCH   5  23
BRANCH   7  25
ATOM     25  O   UNL     1      -5.610  87.155  -8.567  1.00  0.00    -0.507 OA
ATOM     26  H   UNL     1      -6.194  87.967  -8.703  1.00  0.00     0.293 HD
ENDBRANCH   7  25
TORSDOF 6
ENDMDL
MODEL 8
REMARK VINA RESULT:    -4.983      4.724      7.773
REMARK INTER + INTRA:          -6.341
REMARK INTER:                  -6.161
REMARK INTRA:                  -0.179
REMARK UNBOUND:                -0.338
REMARK SMILES Oc1cc(O)c2cc(O)c(-c3ccc(O)c(O)c3)[o+]c2c1.[Cl-]
REMARK SMILES IDX 10 1 19 2 20 3 21 4 2 5 3 6 4 7 6 8 7 9 8 10 11 11 12 12
REMARK SMILES IDX 13 13 14 14 18 15 16 16 15 17 17 19 9 21 1 23 5 25
REMARK H PARENT 15 18 17 20 9 22 1 24 5 26
REMARK Flexibility Score: inf
ROOT
ATOM      1  C   UNL     1      -7.624  84.023  -8.849  1.00  0.00     0.402 A 
ATOM      2  O   UNL     1      -8.475  83.037  -9.122  1.00  0.00    -0.202 OA
ATOM      3  C   UNL     1      -9.790  83.209  -9.204  1.00  0.00     0.368 A 
ATOM      4  C   UNL     1     -10.603  82.111  -9.492  1.00  0.00     0.162 A 
ATOM      5  C   UNL     1     -11.990  82.264  -9.583  1.00  0.00     0.128 A 
ATOM      6  C   UNL     1     -12.565  83.520  -9.383  1.00  0.00     0.093 A 
ATOM      7  C   UNL     1     -11.772  84.638  -9.093  1.00  0.00     0.136 A 
ATOM      8  C   UNL     1     -10.364  84.488  -9.002  1.00  0.00     0.125 A 
ATOM      9  C   UNL     1      -9.490  85.553  -8.729  1.00  0.00     0.078 A 
ATOM     10  C   UNL     1      -8.111  85.330  -8.661  1.00  0.00     0.223 A 
ENDROOT
BRANCH   1  11
ATOM     11  C   UNL     1      -6.181  83.702  -8.774  1.00  0.00     0.087 A 
ATOM     12  C   UNL     1      -5.491  83.904  -7.567  1.00  0.00     0.022 A 
ATOM     13  C   UNL     1      -4.125  83.627  -7.478  1.00  0.00     0.051 A 
ATOM     14  C   UNL     1      -3.425  83.158  -8.598  1.00  0.00     0.157 A 
ATOM     15  C   UNL     1      -5.469  83.251  -9.901  1.00  0.00     0.068 A 
ATOM     16  C   UNL     1      -4.097  82.973  -9.812  1.00  0.00     0.158 A 
BRANCH  14  17
ATOM     17  O   UNL     1      -2.062  82.879  -8.512  1.00  0.00    -0.504 OA
ATOM     18  H   UNL     1      -1.377  83.613  -8.378  1.00  0.00     0.293 HD
ENDBRANCH  14  17
BRANCH  16  19
ATOM     19  O   UNL     1      -3.396  82.521 -10.928  1.00  0.00    -0.504 OA
ATOM     20  H   UNL     1      -2.703  81.786 -10.857  1.00  0.00     0.293 HD
ENDBRANCH  16  19
ENDBRANCH   1  11
BRANCH  10  21
ATOM     21  O   UNL     1      -7.240  86.396  -8.440  1.00  0.00    -0.500 OA
ATOM     22  H   UNL     1      -6.834  86.919  -9.206  1.00  0.00     0.294 HD
ENDBRANCH  10  21
BRANCH   5  23
ATOM     23  O   UNL     1     -12.808  81.173  -9.870  1.00  0.00    -0.507 OA
ATOM     24  H   UNL     1     -13.479  80.823  -9.196  1.00  0.00     0.293 HD
ENDBRANCH   5  23
BRANCH   7  25
ATOM     25  O   UNL     1     -12.425  85.859  -8.903  1.00  0.00    -0.507 OA
ATOM     26  H   UNL     1     -13.065  86.272  -9.565  1.00  0.00     0.293 HD
ENDBRANCH   7  25
TORSDOF 6
ENDMDL
MODEL 9
REMARK VINA RESULT:    -4.971      3.971      6.261
REMARK INTER + INTRA:          -6.327
REMARK INTER:                  -5.980
REMARK INTRA:                  -0.347
REMARK UNBOUND:                -0.338
REMARK SMILES Oc1cc(O)c2cc(O)c(-c3ccc(O)c(O)c3)[o+]c2c1.[Cl-]
REMARK SMILES IDX 10 1 19 2 20 3 21 4 2 5 3 6 4 7 6 8 7 9 8 10 11 11 12 12
REMARK SMILES IDX 13 13 14 14 18 15 16 16 15 17 17 19 9 21 1 23 5 25
REMARK H PARENT 15 18 17 20 9 22 1 24 5 26
REMARK Flexibility Score: inf
ROOT
ATOM      1  C   UNL     1      -6.129  90.106 -11.972  1.00  0.00     0.402 A 
ATOM      2  O   UNL     1      -5.239  90.598 -11.115  1.00  0.00    -0.202 OA
ATOM      3  C   UNL     1      -5.124  90.177  -9.860  1.00  0.00     0.368 A 
ATOM      4  C   UNL     1      -4.160  90.758  -9.034  1.00  0.00     0.162 A 
ATOM      5  C   UNL     1      -4.019  90.336  -7.708  1.00  0.00     0.128 A 
ATOM      6  C   UNL     1      -4.847  89.329  -7.208  1.00  0.00     0.093 A 
ATOM      7  C   UNL     1      -5.821  88.729  -8.016  1.00  0.00     0.136 A 
ATOM      8  C   UNL     1      -5.966  89.154  -9.362  1.00  0.00     0.125 A 
ATOM      9  C   UNL     1      -6.906  88.601 -10.249  1.00  0.00     0.078 A 
ATOM     10  C   UNL     1      -6.987  89.067 -11.565  1.00  0.00     0.223 A 
ENDROOT
BRANCH   1  11
ATOM     11  C   UNL     1      -6.167  90.666 -13.342  1.00  0.00     0.087 A 
ATOM     12  C   UNL     1      -7.076  91.694 -13.643  1.00  0.00     0.022 A 
ATOM     13  C   UNL     1      -7.143  92.224 -14.934  1.00  0.00     0.051 A 
ATOM     14  C   UNL     1      -6.314  91.724 -15.946  1.00  0.00     0.157 A 
ATOM     15  C   UNL     1      -5.351  90.153 -14.368  1.00  0.00     0.068 A 
ATOM     16  C   UNL     1      -5.419  90.685 -15.664  1.00  0.00     0.158 A 
BRANCH  14  17
ATOM     17  O   UNL     1      -6.376  92.252 -17.235  1.00  0.00    -0.504 OA
ATOM     18  H   UNL     1      -7.152  92.049 -17.854  1.00  0.00     0.293 HD
ENDBRANCH  14  17
BRANCH  16  19
ATOM     19  O   UNL     1      -4.606  90.179 -16.676  1.00  0.00    -0.504 OA
ATOM     20  H   UNL     1      -4.844  90.291 -17.654  1.00  0.00     0.293 HD
ENDBRANCH  16  19
ENDBRANCH   1  11
BRANCH  10  21
ATOM     21  O   UNL     1      -7.886  88.485 -12.458  1.00  0.00    -0.500 OA
ATOM     22  H   UNL     1      -8.173  88.956 -13.307  1.00  0.00     0.294 HD
ENDBRANCH  10  21
BRANCH   5  23
ATOM     23  O   UNL     1      -3.059  90.911  -6.878  1.00  0.00    -0.507 OA
ATOM     24  H   UNL     1      -2.081  90.653  -6.941  1.00  0.00     0.293 HD
ENDBRANCH   5  23
BRANCH   7  25
ATOM     25  O   UNL     1      -6.611  87.731  -7.439  1.00  0.00    -0.507 OA
ATOM     26  H   UNL     1      -6.512  86.745  -7.629  1.00  0.00     0.293 HD
ENDBRANCH   7  25
TORSDOF 6
ENDMDL
