MODEL 1
REMARK VINA RESULT:    -5.489      0.000      0.000
REMARK INTER + INTRA:         -13.228
REMARK INTER:                 -10.624
REMARK INTRA:                  -2.604
REMARK UNBOUND:                -2.604
REMARK SMILES CCCCCCCCCCCCCCCCCC(=O)[O-]
REMARK SMILES IDX 10 1 11 2 12 3 13 4 14 5 15 6 16 7 17 8 18 9 19 10 20 11
REMARK SMILES IDX 9 12 8 13 7 14 6 15 5 16 4 17 3 18 2 19 1 20
REMARK H PARENT
REMARK Flexibility Score: inf
ROOT
ATOM      1  C   UNL     1      55.802  17.080  -0.796  1.00  0.00     0.000 C 
ENDROOT
BRANCH   1   2
ATOM      2  C   UNL     1      54.578  17.944  -1.135  1.00  0.00     0.000 C 
BRANCH   2   3
ATOM      3  C   UNL     1      53.380  17.105  -1.611  1.00  0.00     0.000 C 
BRANCH   3   4
ATOM      4  C   UNL     1      53.723  15.615  -1.760  1.00  0.00     0.000 C 
BRANCH   4   5
ATOM      5  C   UNL     1      52.907  14.724  -0.811  1.00  0.00     0.000 C 
BRANCH   5   6
ATOM      6  C   UNL     1      53.802  14.113   0.274  1.00  0.00     0.000 C 
BRANCH   6   7
ATOM      7  C   UNL     1      54.867  13.198  -0.341  1.00  0.00     0.006 C 
BRANCH   7   8
ATOM      8  C   UNL     1      56.189  13.300   0.427  1.00  0.00     0.053 C 
BRANCH   8   9
ATOM      9  C   UNL     1      56.863  11.965   0.490  1.00  0.00     0.041 C 
ATOM     10  O   UNL     1      56.997  11.375   1.595  1.00  0.00    -0.550 OA
ATOM     11  O   UNL     1      57.386  11.395  -0.664  1.00  0.00    -0.550 OA
ENDBRANCH   8   9
ENDBRANCH   7   8
ENDBRANCH   6   7
ENDBRANCH   5   6
ENDBRANCH   4   5
ENDBRANCH   3   4
ENDBRANCH   2   3
ENDBRANCH   1   2
BRANCH   1  12
ATOM     12  C   UNL     1      56.088  17.028   0.715  1.00  0.00     0.000 C 
BRANCH  12  13
ATOM     13  C   UNL     1      55.061  17.817   1.547  1.00  0.00    -0.000 C 
BRANCH  13  14
ATOM     14  C   UNL     1      54.250  16.975   2.551  1.00  0.00    -0.000 C 
BRANCH  14  15
ATOM     15  C   UNL     1      52.857  17.560   2.836  1.00  0.00    -0.000 C 
BRANCH  15  16
ATOM     16  C   UNL     1      51.962  17.587   1.587  1.00  0.00    -0.000 C 
BRANCH  16  17
ATOM     17  C   UNL     1      50.480  17.808   1.925  1.00  0.00    -0.000 C 
BRANCH  17  18
ATOM     18  C   UNL     1      49.843  18.817   0.961  1.00  0.00    -0.000 C 
BRANCH  18  19
ATOM     19  C   UNL     1      50.652  18.924  -0.337  1.00  0.00    -0.003 C 
ATOM     20  C   UNL     1      49.865  18.378  -1.524  1.00  0.00     0.004 C 
ENDBRANCH  18  19
ENDBRANCH  17  18
ENDBRANCH  16  17
ENDBRANCH  15  16
ENDBRANCH  14  15
ENDBRANCH  13  14
ENDBRANCH  12  13
ENDBRANCH   1  12
TORSDOF 16
ENDMDL
MODEL 2
REMARK VINA RESULT:    -5.461      1.377      3.494
REMARK INTER + INTRA:         -13.173
REMARK INTER:                 -10.354
REMARK INTRA:                  -2.820
REMARK UNBOUND:                -2.604
REMARK SMILES CCCCCCCCCCCCCCCCCC(=O)[O-]
REMARK SMILES IDX 10 1 11 2 12 3 13 4 14 5 15 6 16 7 17 8 18 9 19 10 20 11
REMARK SMILES IDX 9 12 8 13 7 14 6 15 5 16 4 17 3 18 2 19 1 20
REMARK H PARENT
REMARK Flexibility Score: inf
ROOT
ATOM      1  C   UNL     1      53.837  17.931  -1.156  1.00  0.00     0.000 C 
ENDROOT
BRANCH   1   2
ATOM      2  C   UNL     1      55.232  17.371  -0.843  1.00  0.00     0.000 C 
BRANCH   2   3
ATOM      3  C   UNL     1      55.747  17.811   0.539  1.00  0.00     0.000 C 
BRANCH   3   4
ATOM      4  C   UNL     1      56.896  16.929   1.051  1.00  0.00     0.000 C 
BRANCH   4   5
ATOM      5  C   UNL     1      57.243  15.790   0.080  1.00  0.00     0.000 C 
BRANCH   5   6
ATOM      6  C   UNL     1      58.686  15.313   0.286  1.00  0.00     0.000 C 
BRANCH   6   7
ATOM      7  C   UNL     1      58.796  13.795   0.105  1.00  0.00     0.006 C 
BRANCH   7   8
ATOM      8  C   UNL     1      57.575  13.081   0.692  1.00  0.00     0.053 C 
BRANCH   8   9
ATOM      9  C   UNL     1      57.472  11.689   0.153  1.00  0.00     0.041 C 
ATOM     10  O   UNL     1      58.490  10.947   0.115  1.00  0.00    -0.550 OA
ATOM     11  O   UNL     1      56.263  11.227  -0.352  1.00  0.00    -0.550 OA
ENDBRANCH   8   9
ENDBRANCH   7   8
ENDBRANCH   6   7
ENDBRANCH   5   6
ENDBRANCH   4   5
ENDBRANCH   3   4
ENDBRANCH   2   3
ENDBRANCH   1   2
BRANCH   1  12
ATOM     12  C   UNL     1      52.916  16.888  -1.814  1.00  0.00     0.000 C 
BRANCH  12  13
ATOM     13  C   UNL     1      53.535  15.479  -1.849  1.00  0.00    -0.000 C 
BRANCH  13  14
ATOM     14  C   UNL     1      52.972  14.494  -0.807  1.00  0.00    -0.000 C 
BRANCH  14  15
ATOM     15  C   UNL     1      54.043  13.977   0.168  1.00  0.00    -0.000 C 
BRANCH  15  16
ATOM     16  C   UNL     1      53.921  14.606   1.565  1.00  0.00    -0.000 C 
BRANCH  16  17
ATOM     17  C   UNL     1      52.768  15.616   1.661  1.00  0.00    -0.000 C 
BRANCH  17  18
ATOM     18  C   UNL     1      53.207  16.878   2.415  1.00  0.00    -0.000 C 
BRANCH  18  19
ATOM     19  C   UNL     1      52.050  17.875   2.540  1.00  0.00    -0.003 C 
ATOM     20  C   UNL     1      51.147  17.829   1.311  1.00  0.00     0.004 C 
ENDBRANCH  18  19
ENDBRANCH  17  18
ENDBRANCH  16  17
ENDBRANCH  15  16
ENDBRANCH  14  15
ENDBRANCH  13  14
ENDBRANCH  12  13
ENDBRANCH   1  12
TORSDOF 16
ENDMDL
MODEL 3
REMARK VINA RESULT:    -5.309      1.397      3.510
REMARK INTER + INTRA:         -12.878
REMARK INTER:                 -10.429
REMARK INTRA:                  -2.449
REMARK UNBOUND:                -2.604
REMARK SMILES CCCCCCCCCCCCCCCCCC(=O)[O-]
REMARK SMILES IDX 10 1 11 2 12 3 13 4 14 5 15 6 16 7 17 8 18 9 19 10 20 11
REMARK SMILES IDX 9 12 8 13 7 14 6 15 5 16 4 17 3 18 2 19 1 20
REMARK H PARENT
REMARK Flexibility Score: inf
ROOT
ATOM      1  C   UNL     1      54.446  17.831   1.938  1.00  0.00     0.000 C 
ENDROOT
BRANCH   1   2
ATOM      2  C   UNL     1      55.834  17.214   1.710  1.00  0.00     0.000 C 
BRANCH   2   3
ATOM      3  C   UNL     1      56.257  17.249   0.231  1.00  0.00     0.000 C 
BRANCH   3   4
ATOM      4  C   UNL     1      57.085  16.020  -0.176  1.00  0.00     0.000 C 
BRANCH   4   5
ATOM      5  C   UNL     1      58.430  15.944   0.563  1.00  0.00     0.000 C 
BRANCH   5   6
ATOM      6  C   UNL     1      58.815  14.488   0.855  1.00  0.00     0.000 C 
BRANCH   6   7
ATOM      7  C   UNL     1      58.166  13.533  -0.153  1.00  0.00     0.006 C 
BRANCH   7   8
ATOM      8  C   UNL     1      58.386  12.073   0.252  1.00  0.00     0.053 C 
BRANCH   8   9
ATOM      9  C   UNL     1      57.105  11.460   0.723  1.00  0.00     0.041 C 
ATOM     10  O   UNL     1      56.961  11.149   1.935  1.00  0.00    -0.550 OA
ATOM     11  O   UNL     1      56.089  11.189  -0.184  1.00  0.00    -0.550 OA
ENDBRANCH   8   9
ENDBRANCH   7   8
ENDBRANCH   6   7
ENDBRANCH   5   6
ENDBRANCH   4   5
ENDBRANCH   3   4
ENDBRANCH   2   3
ENDBRANCH   1   2
BRANCH   1  12
ATOM     12  C   UNL     1      53.480  16.866   2.648  1.00  0.00     0.000 C 
BRANCH  12  13
ATOM     13  C   UNL     1      52.896  15.800   1.704  1.00  0.00    -0.000 C 
BRANCH  13  14
ATOM     14  C   UNL     1      53.722  14.504   1.595  1.00  0.00    -0.000 C 
BRANCH  14  15
ATOM     15  C   UNL     1      54.119  14.167   0.148  1.00  0.00    -0.000 C 
BRANCH  15  16
ATOM     16  C   UNL     1      53.062  14.618  -0.873  1.00  0.00    -0.000 C 
BRANCH  16  17
ATOM     17  C   UNL     1      53.596  15.677  -1.850  1.00  0.00    -0.000 C 
BRANCH  17  18
ATOM     18  C   UNL     1      52.533  16.745  -2.133  1.00  0.00    -0.000 C 
BRANCH  18  19
ATOM     19  C   UNL     1      52.647  17.911  -1.144  1.00  0.00    -0.003 C 
ATOM     20  C   UNL     1      51.282  18.285  -0.573  1.00  0.00     0.004 C 
ENDBRANCH  18  19
ENDBRANCH  17  18
ENDBRANCH  16  17
ENDBRANCH  15  16
ENDBRANCH  14  15
ENDBRANCH  13  14
ENDBRANCH  12  13
ENDBRANCH   1  12
TORSDOF 16
ENDMDL
MODEL 4
REMARK VINA RESULT:    -5.285      3.553      6.206
REMARK INTER + INTRA:         -12.833
REMARK INTER:                 -10.388
REMARK INTRA:                  -2.446
REMARK UNBOUND:                -2.604
REMARK SMILES CCCCCCCCCCCCCCCCCC(=O)[O-]
REMARK SMILES IDX 10 1 11 2 12 3 13 4 14 5 15 6 16 7 17 8 18 9 19 10 20 11
REMARK SMILES IDX 9 12 8 13 7 14 6 15 5 16 4 17 3 18 2 19 1 20
REMARK H PARENT
REMARK Flexibility Score: inf
ROOT
ATOM      1  C   UNL     1      53.801  16.761  -1.697  1.00  0.00     0.000 C 
ENDROOT
BRANCH   1   2
ATOM      2  C   UNL     1      52.705  17.673  -1.125  1.00  0.00     0.000 C 
BRANCH   2   3
ATOM      3  C   UNL     1      51.358  17.499  -1.848  1.00  0.00     0.000 C 
BRANCH   3   4
ATOM      4  C   UNL     1      50.823  18.818  -2.429  1.00  0.00     0.000 C 
BRANCH   4   5
ATOM      5  C   UNL     1      50.463  19.839  -1.340  1.00  0.00     0.000 C 
BRANCH   5   6
ATOM      6  C   UNL     1      49.009  19.667  -0.884  1.00  0.00     0.000 C 
BRANCH   6   7
ATOM      7  C   UNL     1      48.909  19.652   0.646  1.00  0.00     0.006 C 
BRANCH   7   8
ATOM      8  C   UNL     1      50.179  19.070   1.274  1.00  0.00     0.053 C 
BRANCH   8   9
ATOM      9  C   UNL     1      49.869  18.440   2.595  1.00  0.00     0.041 C 
ATOM     10  O   UNL     1      50.557  18.728   3.611  1.00  0.00    -0.550 OA
ATOM     11  O   UNL     1      48.852  17.499   2.696  1.00  0.00    -0.550 OA
ENDBRANCH   8   9
ENDBRANCH   7   8
ENDBRANCH   6   7
ENDBRANCH   5   6
ENDBRANCH   4   5
ENDBRANCH   3   4
ENDBRANCH   2   3
ENDBRANCH   1   2
BRANCH   1  12
ATOM     12  C   UNL     1      53.277  15.356  -2.044  1.00  0.00     0.000 C 
BRANCH  12  13
ATOM     13  C   UNL     1      53.016  14.489  -0.800  1.00  0.00    -0.000 C 
BRANCH  13  14
ATOM     14  C   UNL     1      54.252  14.222   0.080  1.00  0.00    -0.000 C 
BRANCH  14  15
ATOM     15  C   UNL     1      54.018  14.560   1.561  1.00  0.00    -0.000 C 
BRANCH  15  16
ATOM     16  C   UNL     1      52.789  15.459   1.773  1.00  0.00    -0.000 C 
BRANCH  16  17
ATOM     17  C   UNL     1      53.167  16.890   2.185  1.00  0.00    -0.000 C 
BRANCH  17  18
ATOM     18  C   UNL     1      54.663  16.990   2.508  1.00  0.00    -0.000 C 
BRANCH  18  19
ATOM     19  C   UNL     1      55.389  17.871   1.486  1.00  0.00    -0.003 C 
ATOM     20  C   UNL     1      56.582  17.140   0.877  1.00  0.00     0.004 C 
ENDBRANCH  18  19
ENDBRANCH  17  18
ENDBRANCH  16  17
ENDBRANCH  15  16
ENDBRANCH  14  15
ENDBRANCH  13  14
ENDBRANCH  12  13
ENDBRANCH   1  12
TORSDOF 16
ENDMDL
MODEL 5
REMARK VINA RESULT:    -5.268      3.720      6.902
REMARK INTER + INTRA:         -12.800
REMARK INTER:                 -10.255
REMARK INTRA:                  -2.546
REMARK UNBOUND:                -2.604
REMARK SMILES CCCCCCCCCCCCCCCCCC(=O)[O-]
REMARK SMILES IDX 10 1 11 2 12 3 13 4 14 5 15 6 16 7 17 8 18 9 19 10 20 11
REMARK SMILES IDX 9 12 8 13 7 14 6 15 5 16 4 17 3 18 2 19 1 20
REMARK H PARENT
REMARK Flexibility Score: inf
ROOT
ATOM      1  C   UNL     1      54.685  17.088   2.436  1.00  0.00     0.000 C 
ENDROOT
BRANCH   1   2
ATOM      2  C   UNL     1      55.457  17.902   1.388  1.00  0.00     0.000 C 
BRANCH   2   3
ATOM      3  C   UNL     1      56.117  17.012   0.321  1.00  0.00     0.000 C 
BRANCH   3   4
ATOM      4  C   UNL     1      55.613  17.317  -1.099  1.00  0.00     0.000 C 
BRANCH   4   5
ATOM      5  C   UNL     1      54.178  17.864  -1.110  1.00  0.00     0.000 C 
BRANCH   5   6
ATOM      6  C   UNL     1      53.230  16.907  -1.843  1.00  0.00     0.000 C 
BRANCH   6   7
ATOM      7  C   UNL     1      51.772  17.357  -1.698  1.00  0.00     0.006 C 
BRANCH   7   8
ATOM      8  C   UNL     1      51.688  18.772  -1.119  1.00  0.00     0.053 C 
BRANCH   8   9
ATOM      9  C   UNL     1      50.526  19.511  -1.706  1.00  0.00     0.041 C 
ATOM     10  O   UNL     1      49.443  18.909  -1.934  1.00  0.00    -0.550 OA
ATOM     11  O   UNL     1      50.655  20.852  -2.045  1.00  0.00    -0.550 OA
ENDBRANCH   8   9
ENDBRANCH   7   8
ENDBRANCH   6   7
ENDBRANCH   5   6
ENDBRANCH   4   5
ENDBRANCH   3   4
ENDBRANCH   2   3
ENDBRANCH   1   2
BRANCH   1  12
ATOM     12  C   UNL     1      53.160  17.180   2.250  1.00  0.00     0.000 C 
BRANCH  12  13
ATOM     13  C   UNL     1      52.525  15.843   1.831  1.00  0.00    -0.000 C 
BRANCH  13  14
ATOM     14  C   UNL     1      53.527  14.730   1.470  1.00  0.00    -0.000 C 
BRANCH  14  15
ATOM     15  C   UNL     1      53.281  14.131   0.075  1.00  0.00    -0.000 C 
BRANCH  15  16
ATOM     16  C   UNL     1      54.586  13.752  -0.642  1.00  0.00    -0.000 C 
BRANCH  16  17
ATOM     17  C   UNL     1      55.698  13.334   0.334  1.00  0.00    -0.000 C 
BRANCH  17  18
ATOM     18  C   UNL     1      56.191  11.915   0.027  1.00  0.00    -0.000 C 
BRANCH  18  19
ATOM     19  C   UNL     1      57.092  11.390   1.150  1.00  0.00    -0.003 C 
ATOM     20  C   UNL     1      58.496  11.086   0.635  1.00  0.00     0.004 C 
ENDBRANCH  18  19
ENDBRANCH  17  18
ENDBRANCH  16  17
ENDBRANCH  15  16
ENDBRANCH  14  15
ENDBRANCH  13  14
ENDBRANCH  12  13
ENDBRANCH   1  12
TORSDOF 16
ENDMDL
MODEL 6
REMARK VINA RESULT:    -5.229      3.568      6.596
REMARK INTER + INTRA:         -12.724
REMARK INTER:                 -10.220
REMARK INTRA:                  -2.504
REMARK UNBOUND:                -2.604
REMARK SMILES CCCCCCCCCCCCCCCCCC(=O)[O-]
REMARK SMILES IDX 10 1 11 2 12 3 13 4 14 5 15 6 16 7 17 8 18 9 19 10 20 11
REMARK SMILES IDX 9 12 8 13 7 14 6 15 5 16 4 17 3 18 2 19 1 20
REMARK H PARENT
REMARK Flexibility Score: inf
ROOT
ATOM      1  C   UNL     1      53.853  14.526   0.489  1.00  0.00     0.000 C 
ENDROOT
BRANCH   1   2
ATOM      2  C   UNL     1      52.964  14.681  -0.754  1.00  0.00     0.000 C 
BRANCH   2   3
ATOM      3  C   UNL     1      53.626  15.535  -1.848  1.00  0.00     0.000 C 
BRANCH   3   4
ATOM      4  C   UNL     1      53.278  17.027  -1.727  1.00  0.00     0.000 C 
BRANCH   4   5
ATOM      5  C   UNL     1      51.766  17.273  -1.615  1.00  0.00     0.000 C 
BRANCH   5   6
ATOM      6  C   UNL     1      51.474  18.566  -0.845  1.00  0.00     0.000 C 
BRANCH   6   7
ATOM      7  C   UNL     1      50.355  18.356   0.181  1.00  0.00     0.006 C 
BRANCH   7   8
ATOM      8  C   UNL     1      50.544  19.269   1.396  1.00  0.00     0.053 C 
BRANCH   8   9
ATOM      9  C   UNL     1      50.047  18.599   2.638  1.00  0.00     0.041 C 
ATOM     10  O   UNL     1      48.938  18.003   2.635  1.00  0.00    -0.550 OA
ATOM     11  O   UNL     1      50.786  18.674   3.812  1.00  0.00    -0.550 OA
ENDBRANCH   8   9
ENDBRANCH   7   8
ENDBRANCH   6   7
ENDBRANCH   5   6
ENDBRANCH   4   5
ENDBRANCH   3   4
ENDBRANCH   2   3
ENDBRANCH   1   2
BRANCH   1  12
ATOM     12  C   UNL     1      53.143  14.964   1.782  1.00  0.00     0.000 C 
BRANCH  12  13
ATOM     13  C   UNL     1      52.977  16.491   1.886  1.00  0.00    -0.000 C 
BRANCH  13  14
ATOM     14  C   UNL     1      54.203  17.244   2.435  1.00  0.00    -0.000 C 
BRANCH  14  15
ATOM     15  C   UNL     1      55.074  17.858   1.327  1.00  0.00    -0.000 C 
BRANCH  15  16
ATOM     16  C   UNL     1      56.478  17.234   1.267  1.00  0.00    -0.000 C 
BRANCH  16  17
ATOM     17  C   UNL     1      56.742  16.496  -0.055  1.00  0.00    -0.000 C 
BRANCH  17  18
ATOM     18  C   UNL     1      57.616  15.257   0.175  1.00  0.00    -0.000 C 
BRANCH  18  19
ATOM     19  C   UNL     1      58.881  15.615   0.965  1.00  0.00    -0.003 C 
ATOM     20  C   UNL     1      60.107  14.914   0.389  1.00  0.00     0.004 C 
ENDBRANCH  18  19
ENDBRANCH  17  18
ENDBRANCH  16  17
ENDBRANCH  15  16
ENDBRANCH  14  15
ENDBRANCH  13  14
ENDBRANCH  12  13
ENDBRANCH   1  12
TORSDOF 16
ENDMDL
MODEL 7
REMARK VINA RESULT:    -5.210      3.900      6.526
REMARK INTER + INTRA:         -12.688
REMARK INTER:                 -10.426
REMARK INTRA:                  -2.262
REMARK UNBOUND:                -2.604
REMARK SMILES CCCCCCCCCCCCCCCCCC(=O)[O-]
REMARK SMILES IDX 10 1 11 2 12 3 13 4 14 5 15 6 16 7 17 8 18 9 19 10 20 11
REMARK SMILES IDX 9 12 8 13 7 14 6 15 5 16 4 17 3 18 2 19 1 20
REMARK H PARENT
REMARK Flexibility Score: inf
ROOT
ATOM      1  C   UNL     1      55.338  17.873   1.541  1.00  0.00     0.000 C 
ENDROOT
BRANCH   1   2
ATOM      2  C   UNL     1      54.534  17.071   2.576  1.00  0.00     0.000 C 
BRANCH   2   3
ATOM      3  C   UNL     1      53.061  16.896   2.169  1.00  0.00     0.000 C 
BRANCH   3   4
ATOM      4  C   UNL     1      52.158  18.010   2.720  1.00  0.00     0.000 C 
BRANCH   4   5
ATOM      5  C   UNL     1      50.762  18.009   2.078  1.00  0.00     0.000 C 
BRANCH   5   6
ATOM      6  C   UNL     1      50.222  19.438   1.934  1.00  0.00     0.000 C 
BRANCH   6   7
ATOM      7  C   UNL     1      49.121  19.507   0.871  1.00  0.00     0.006 C 
BRANCH   7   8
ATOM      8  C   UNL     1      49.625  18.982  -0.477  1.00  0.00     0.053 C 
BRANCH   8   9
ATOM      9  C   UNL     1      49.730  20.098  -1.468  1.00  0.00     0.041 C 
ATOM     10  O   UNL     1      48.689  20.606  -1.963  1.00  0.00    -0.550 OA
ATOM     11  O   UNL     1      50.978  20.545  -1.881  1.00  0.00    -0.550 OA
ENDBRANCH   8   9
ENDBRANCH   7   8
ENDBRANCH   6   7
ENDBRANCH   5   6
ENDBRANCH   4   5
ENDBRANCH   3   4
ENDBRANCH   2   3
ENDBRANCH   1   2
BRANCH   1  12
ATOM     12  C   UNL     1      56.627  17.153   1.109  1.00  0.00     0.000 C 
BRANCH  12  13
ATOM     13  C   UNL     1      56.398  16.145  -0.031  1.00  0.00    -0.000 C 
BRANCH  13  14
ATOM     14  C   UNL     1      56.734  14.682   0.316  1.00  0.00    -0.000 C 
BRANCH  14  15
ATOM     15  C   UNL     1      55.615  13.701  -0.072  1.00  0.00    -0.000 C 
BRANCH  15  16
ATOM     16  C   UNL     1      54.222  14.204   0.342  1.00  0.00    -0.000 C 
BRANCH  16  17
ATOM     17  C   UNL     1      53.225  14.214  -0.827  1.00  0.00    -0.000 C 
BRANCH  17  18
ATOM     18  C   UNL     1      53.502  15.390  -1.773  1.00  0.00    -0.000 C 
BRANCH  18  19
ATOM     19  C   UNL     1      52.517  16.538  -1.527  1.00  0.00    -0.003 C 
ATOM     20  C   UNL     1      53.251  17.860  -1.319  1.00  0.00     0.004 C 
ENDBRANCH  18  19
ENDBRANCH  17  18
ENDBRANCH  16  17
ENDBRANCH  15  16
ENDBRANCH  14  15
ENDBRANCH  13  14
ENDBRANCH  12  13
ENDBRANCH   1  12
TORSDOF 16
ENDMDL
MODEL 8
REMARK VINA RESULT:    -5.202      3.534      6.766
REMARK INTER + INTRA:         -12.672
REMARK INTER:                 -10.389
REMARK INTRA:                  -2.283
REMARK UNBOUND:                -2.604
REMARK SMILES CCCCCCCCCCCCCCCCCC(=O)[O-]
REMARK SMILES IDX 10 1 11 2 12 3 13 4 14 5 15 6 16 7 17 8 18 9 19 10 20 11
REMARK SMILES IDX 9 12 8 13 7 14 6 15 5 16 4 17 3 18 2 19 1 20
REMARK H PARENT
REMARK Flexibility Score: inf
ROOT
ATOM      1  C   UNL     1      54.654  16.799   2.377  1.00  0.00     0.000 C 
ENDROOT
BRANCH   1   2
ATOM      2  C   UNL     1      53.433  16.018   1.869  1.00  0.00     0.000 C 
BRANCH   2   3
ATOM      3  C   UNL     1      53.764  14.548   1.557  1.00  0.00     0.000 C 
BRANCH   3   4
ATOM      4  C   UNL     1      54.091  14.317   0.074  1.00  0.00     0.000 C 
BRANCH   4   5
ATOM      5  C   UNL     1      52.959  14.773  -0.859  1.00  0.00     0.000 C 
BRANCH   5   6
ATOM      6  C   UNL     1      53.455  15.835  -1.847  1.00  0.00     0.000 C 
BRANCH   6   7
ATOM      7  C   UNL     1      52.378  16.894  -2.106  1.00  0.00     0.006 C 
BRANCH   7   8
ATOM      8  C   UNL     1      52.185  17.793  -0.882  1.00  0.00     0.053 C 
BRANCH   8   9
ATOM      9  C   UNL     1      50.988  18.673  -1.059  1.00  0.00     0.041 C 
ATOM     10  O   UNL     1      51.073  19.730  -1.740  1.00  0.00    -0.550 OA
ATOM     11  O   UNL     1      49.790  18.351  -0.435  1.00  0.00    -0.550 OA
ENDBRANCH   8   9
ENDBRANCH   7   8
ENDBRANCH   6   7
ENDBRANCH   5   6
ENDBRANCH   4   5
ENDBRANCH   3   4
ENDBRANCH   2   3
ENDBRANCH   1   2
BRANCH   1  12
ATOM     12  C   UNL     1      55.147  17.848   1.364  1.00  0.00     0.000 C 
BRANCH  12  13
ATOM     13  C   UNL     1      56.113  17.263   0.318  1.00  0.00    -0.000 C 
BRANCH  13  14
ATOM     14  C   UNL     1      57.218  16.354   0.888  1.00  0.00    -0.000 C 
BRANCH  14  15
ATOM     15  C   UNL     1      57.654  15.254  -0.093  1.00  0.00    -0.000 C 
BRANCH  15  16
ATOM     16  C   UNL     1      58.857  14.447   0.422  1.00  0.00    -0.000 C 
BRANCH  16  17
ATOM     17  C   UNL     1      58.589  12.934   0.444  1.00  0.00    -0.000 C 
BRANCH  17  18
ATOM     18  C   UNL     1      57.122  12.643   0.787  1.00  0.00    -0.000 C 
BRANCH  18  19
ATOM     19  C   UNL     1      56.482  11.732  -0.267  1.00  0.00    -0.003 C 
ATOM     20  C   UNL     1      57.539  10.929  -1.019  1.00  0.00     0.004 C 
ENDBRANCH  18  19
ENDBRANCH  17  18
ENDBRANCH  16  17
ENDBRANCH  15  16
ENDBRANCH  14  15
ENDBRANCH  13  14
ENDBRANCH  12  13
ENDBRANCH   1  12
TORSDOF 16
ENDMDL
MODEL 9
REMARK VINA RESULT:    -5.168      4.043      7.065
REMARK INTER + INTRA:         -12.605
REMARK INTER:                  -9.918
REMARK INTRA:                  -2.688
REMARK UNBOUND:                -2.604
REMARK SMILES CCCCCCCCCCCCCCCCCC(=O)[O-]
REMARK SMILES IDX 10 1 11 2 12 3 13 4 14 5 15 6 16 7 17 8 18 9 19 10 20 11
REMARK SMILES IDX 9 12 8 13 7 14 6 15 5 16 4 17 3 18 2 19 1 20
REMARK H PARENT
REMARK Flexibility Score: inf
ROOT
ATOM      1  C   UNL     1      54.035  14.458   1.490  1.00  0.00     0.000 C 
ENDROOT
BRANCH   1   2
ATOM      2  C   UNL     1      52.782  15.307   1.750  1.00  0.00     0.000 C 
BRANCH   2   3
ATOM      3  C   UNL     1      53.113  16.664   2.395  1.00  0.00     0.000 C 
BRANCH   3   4
ATOM      4  C   UNL     1      52.434  17.842   1.679  1.00  0.00     0.000 C 
BRANCH   4   5
ATOM      5  C   UNL     1      51.026  18.129   2.222  1.00  0.00     0.000 C 
BRANCH   5   6
ATOM      6  C   UNL     1      50.012  18.260   1.079  1.00  0.00     0.000 C 
BRANCH   6   7
ATOM      7  C   UNL     1      50.692  18.730  -0.211  1.00  0.00     0.006 C 
BRANCH   7   8
ATOM      8  C   UNL     1      49.920  18.255  -1.445  1.00  0.00     0.053 C 
BRANCH   8   9
ATOM      9  C   UNL     1      48.917  19.283  -1.865  1.00  0.00     0.041 C 
ATOM     10  O   UNL     1      47.939  18.955  -2.588  1.00  0.00    -0.550 OA
ATOM     11  O   UNL     1      49.088  20.612  -1.498  1.00  0.00    -0.550 OA
ENDBRANCH   8   9
ENDBRANCH   7   8
ENDBRANCH   6   7
ENDBRANCH   5   6
ENDBRANCH   4   5
ENDBRANCH   3   4
ENDBRANCH   2   3
ENDBRANCH   1   2
BRANCH   1  12
ATOM     12  C   UNL     1      54.163  14.031   0.016  1.00  0.00     0.000 C 
BRANCH  12  13
ATOM     13  C   UNL     1      53.109  14.688  -0.892  1.00  0.00    -0.000 C 
BRANCH  13  14
ATOM     14  C   UNL     1      53.667  15.694  -1.917  1.00  0.00    -0.000 C 
BRANCH  14  15
ATOM     15  C   UNL     1      54.037  17.047  -1.287  1.00  0.00    -0.000 C 
BRANCH  15  16
ATOM     16  C   UNL     1      55.548  17.192  -1.048  1.00  0.00    -0.000 C 
BRANCH  16  17
ATOM     17  C   UNL     1      55.889  17.501   0.418  1.00  0.00    -0.000 C 
BRANCH  17  18
ATOM     18  C   UNL     1      57.089  16.669   0.888  1.00  0.00    -0.000 C 
BRANCH  18  19
ATOM     19  C   UNL     1      57.510  15.657  -0.183  1.00  0.00    -0.003 C 
ATOM     20  C   UNL     1      57.865  14.310   0.440  1.00  0.00     0.004 C 
ENDBRANCH  18  19
ENDBRANCH  17  18
ENDBRANCH  16  17
ENDBRANCH  15  16
ENDBRANCH  14  15
ENDBRANCH  13  14
ENDBRANCH  12  13
ENDBRANCH   1  12
TORSDOF 16
ENDMDL
