MODEL 1
REMARK VINA RESULT:    39.161      0.000      0.000
REMARK INTER + INTRA:          47.239
REMARK INTER:                  47.173
REMARK INTRA:                   0.066
REMARK UNBOUND:                 0.066
REMARK SMILES O=c1c(O)c(-c2ccc(O)c(O)c2)oc2cc(O)cc(O)c12
REMARK SMILES IDX 5 1 3 2 2 3 1 4 22 5 20 6 19 7 17 8 16 9 15 10 14 11 6 12
REMARK SMILES IDX 7 13 8 14 9 15 13 16 11 17 10 18 12 20 4 22 21 24 18 26
REMARK H PARENT 10 19 12 21 4 23 21 25 18 27
REMARK Flexibility Score: inf
ROOT
ATOM      1  C   UNL     1      48.405  80.480   6.311  1.00  0.00     0.180 A 
ATOM      2  C   UNL     1      47.921  79.271   5.776  1.00  0.00     0.208 A 
ATOM      3  C   UNL     1      46.662  78.804   6.185  1.00  0.00     0.238 A 
ATOM      4  O   UNL     1      46.213  77.728   5.705  1.00  0.00    -0.285 OA
ATOM      5  C   UNL     1      45.921  79.539   7.133  1.00  0.00     0.111 A 
ATOM      6  C   UNL     1      44.647  79.136   7.601  1.00  0.00     0.134 A 
ATOM      7  C   UNL     1      43.975  79.919   8.552  1.00  0.00     0.093 A 
ATOM      8  C   UNL     1      44.554  81.094   9.045  1.00  0.00     0.123 A 
ATOM      9  C   UNL     1      45.810  81.496   8.586  1.00  0.00     0.094 A 
ATOM     10  C   UNL     1      46.494  80.731   7.637  1.00  0.00     0.146 A 
ATOM     11  O   UNL     1      47.685  81.139   7.214  1.00  0.00    -0.452 OA
ENDROOT
BRANCH   1  12
ATOM     12  C   UNL     1      49.715  81.047   5.915  1.00  0.00     0.025 A 
ATOM     13  C   UNL     1      50.851  80.227   5.919  1.00  0.00     0.016 A 
ATOM     14  C   UNL     1      52.099  80.745   5.569  1.00  0.00     0.051 A 
ATOM     15  C   UNL     1      52.240  82.094   5.223  1.00  0.00     0.157 A 
ATOM     16  C   UNL     1      49.857  82.407   5.591  1.00  0.00     0.062 A 
ATOM     17  C   UNL     1      51.105  82.938   5.241  1.00  0.00     0.158 A 
BRANCH  15  18
ATOM     18  O   UNL     1      53.514  82.549   4.875  1.00  0.00    -0.504 OA
ATOM     19  H   UNL     1      54.372  82.141   5.216  1.00  0.00     0.293 HD
ENDBRANCH  15  18
BRANCH  17  20
ATOM     20  O   UNL     1      51.170  84.297   4.929  1.00  0.00    -0.504 OA
ATOM     21  H   UNL     1      50.375  84.849   4.638  1.00  0.00     0.293 HD
ENDBRANCH  17  20
ENDBRANCH   1  12
BRANCH   2  22
ATOM     22  O   UNL     1      48.697  78.537   4.876  1.00  0.00    -0.502 OA
ATOM     23  H   UNL     1      48.336  78.212   3.987  1.00  0.00     0.293 HD
ENDBRANCH   2  22
BRANCH   6  24
ATOM     24  O   UNL     1      44.044  77.969   7.129  1.00  0.00    -0.507 OA
ATOM     25  H   UNL     1      43.044  77.820   7.198  1.00  0.00     0.293 HD
ENDBRANCH   6  24
BRANCH   8  26
ATOM     26  O   UNL     1      43.888  81.871   9.991  1.00  0.00    -0.508 OA
ATOM     27  H   UNL     1      43.749  81.545  10.940  1.00  0.00     0.293 HD
ENDBRANCH   8  26
TORSDOF 6
ENDMDL
