MODEL 1
REMARK VINA RESULT:    -4.101      0.000      0.000
REMARK INTER + INTRA:          -8.536
REMARK INTER:                  -6.977
REMARK INTRA:                  -1.559
REMARK UNBOUND:                -1.559
REMARK SMILES CCCCCCCCCCCCCC(=O)[O-]
REMARK SMILES IDX 8 1 9 2 10 3 11 4 12 5 13 6 14 7 15 8 16 9 7 10 6 11 5 12
REMARK SMILES IDX 4 13 3 14 2 15 1 16
REMARK H PARENT
REMARK Flexibility Score: inf
ROOT
ATOM      1  C   UNL     1      26.616  59.245  26.210  1.00  0.00     0.000 C 
ENDROOT
BRANCH   1   2
ATOM      2  C   UNL     1      25.939  60.070  25.104  1.00  0.00     0.000 C 
BRANCH   2   3
ATOM      3  C   UNL     1      24.424  60.237  25.325  1.00  0.00     0.000 C 
BRANCH   3   4
ATOM      4  C   UNL     1      23.918  59.855  26.731  1.00  0.00     0.000 C 
BRANCH   4   5
ATOM      5  C   UNL     1      23.601  61.045  27.661  1.00  0.00     0.006 C 
BRANCH   5   6
ATOM      6  C   UNL     1      24.773  61.483  28.552  1.00  0.00     0.053 C 
BRANCH   6   7
ATOM      7  C   UNL     1      25.374  62.775  28.092  1.00  0.00     0.041 C 
ATOM      8  O   UNL     1      26.215  62.784  27.155  1.00  0.00    -0.550 OA
ATOM      9  O   UNL     1      24.980  63.973  28.674  1.00  0.00    -0.550 OA
ENDBRANCH   6   7
ENDBRANCH   5   6
ENDBRANCH   4   5
ENDBRANCH   3   4
ENDBRANCH   2   3
ENDBRANCH   1   2
BRANCH   1  10
ATOM     10  C   UNL     1      27.473  58.092  25.655  1.00  0.00     0.000 C 
BRANCH  10  11
ATOM     11  C   UNL     1      26.727  56.761  25.436  1.00  0.00    -0.000 C 
BRANCH  11  12
ATOM     12  C   UNL     1      25.885  56.686  24.149  1.00  0.00    -0.000 C 
BRANCH  12  13
ATOM     13  C   UNL     1      24.378  56.600  24.428  1.00  0.00    -0.000 C 
BRANCH  13  14
ATOM     14  C   UNL     1      24.110  56.020  25.825  1.00  0.00    -0.000 C 
BRANCH  14  15
ATOM     15  C   UNL     1      22.630  56.103  26.225  1.00  0.00    -0.003 C 
ATOM     16  C   UNL     1      21.788  54.981  25.616  1.00  0.00     0.004 C 
ENDBRANCH  14  15
ENDBRANCH  13  14
ENDBRANCH  12  13
ENDBRANCH  11  12
ENDBRANCH  10  11
ENDBRANCH   1  10
TORSDOF 12
ENDMDL
MODEL 2
REMARK VINA RESULT:    -3.991      3.103      5.727
REMARK INTER + INTRA:          -8.350
REMARK INTER:                  -6.432
REMARK INTRA:                  -1.917
REMARK UNBOUND:                -1.559
REMARK SMILES CCCCCCCCCCCCCC(=O)[O-]
REMARK SMILES IDX 8 1 9 2 10 3 11 4 12 5 13 6 14 7 15 8 16 9 7 10 6 11 5 12
REMARK SMILES IDX 4 13 3 14 2 15 1 16
REMARK H PARENT
REMARK Flexibility Score: inf
ROOT
ATOM      1  C   UNL     1      26.411  60.918  25.449  1.00  0.00     0.000 C 
ENDROOT
BRANCH   1   2
ATOM      2  C   UNL     1      27.024  59.798  26.306  1.00  0.00     0.000 C 
BRANCH   2   3
ATOM      3  C   UNL     1      26.760  58.394  25.730  1.00  0.00     0.000 C 
BRANCH   3   4
ATOM      4  C   UNL     1      25.909  58.359  24.444  1.00  0.00     0.000 C 
BRANCH   4   5
ATOM      5  C   UNL     1      25.199  57.019  24.163  1.00  0.00     0.006 C 
BRANCH   5   6
ATOM      6  C   UNL     1      24.784  56.245  25.423  1.00  0.00     0.053 C 
BRANCH   6   7
ATOM      7  C   UNL     1      23.329  55.891  25.411  1.00  0.00     0.041 C 
ATOM      8  O   UNL     1      22.652  55.962  26.470  1.00  0.00    -0.550 OA
ATOM      9  O   UNL     1      22.714  55.517  24.223  1.00  0.00    -0.550 OA
ENDBRANCH   6   7
ENDBRANCH   5   6
ENDBRANCH   4   5
ENDBRANCH   3   4
ENDBRANCH   2   3
ENDBRANCH   1   2
BRANCH   1  10
ATOM     10  C   UNL     1      26.687  62.322  26.018  1.00  0.00     0.000 C 
BRANCH  10  11
ATOM     11  C   UNL     1      25.443  63.097  26.495  1.00  0.00    -0.000 C 
BRANCH  11  12
ATOM     12  C   UNL     1      24.866  62.641  27.848  1.00  0.00    -0.000 C 
BRANCH  12  13
ATOM     13  C   UNL     1      23.551  61.862  27.703  1.00  0.00    -0.000 C 
BRANCH  13  14
ATOM     14  C   UNL     1      23.747  60.382  28.067  1.00  0.00    -0.000 C 
BRANCH  14  15
ATOM     15  C   UNL     1      23.251  59.433  26.966  1.00  0.00    -0.003 C 
ATOM     16  C   UNL     1      22.820  60.171  25.698  1.00  0.00     0.004 C 
ENDBRANCH  14  15
ENDBRANCH  13  14
ENDBRANCH  12  13
ENDBRANCH  11  12
ENDBRANCH  10  11
ENDBRANCH   1  10
TORSDOF 12
ENDMDL
MODEL 3
REMARK VINA RESULT:    -3.903     13.922     15.783
REMARK INTER + INTRA:          -8.200
REMARK INTER:                  -6.302
REMARK INTRA:                  -1.899
REMARK UNBOUND:                -1.559
REMARK SMILES CCCCCCCCCCCCCC(=O)[O-]
REMARK SMILES IDX 8 1 9 2 10 3 11 4 12 5 13 6 14 7 15 8 16 9 7 10 6 11 5 12
REMARK SMILES IDX 4 13 3 14 2 15 1 16
REMARK H PARENT
REMARK Flexibility Score: inf
ROOT
ATOM      1  C   UNL     1      19.944  53.116  38.229  1.00  0.00     0.000 C 
ENDROOT
BRANCH   1   2
ATOM      2  C   UNL     1      19.897  52.489  36.826  1.00  0.00     0.000 C 
BRANCH   2   3
ATOM      3  C   UNL     1      19.130  51.154  36.795  1.00  0.00     0.000 C 
BRANCH   3   4
ATOM      4  C   UNL     1      19.997  49.893  36.984  1.00  0.00     0.000 C 
BRANCH   4   5
ATOM      5  C   UNL     1      21.290  49.852  36.145  1.00  0.00     0.006 C 
BRANCH   5   6
ATOM      6  C   UNL     1      21.124  49.212  34.758  1.00  0.00     0.053 C 
BRANCH   6   7
ATOM      7  C   UNL     1      21.801  47.879  34.671  1.00  0.00     0.041 C 
ATOM      8  O   UNL     1      23.055  47.811  34.578  1.00  0.00    -0.550 OA
ATOM      9  O   UNL     1      21.051  46.712  34.729  1.00  0.00    -0.550 OA
ENDBRANCH   6   7
ENDBRANCH   5   6
ENDBRANCH   4   5
ENDBRANCH   3   4
ENDBRANCH   2   3
ENDBRANCH   1   2
BRANCH   1  10
ATOM     10  C   UNL     1      21.370  53.513  38.657  1.00  0.00     0.000 C 
BRANCH  10  11
ATOM     11  C   UNL     1      22.478  52.513  38.269  1.00  0.00    -0.000 C 
BRANCH  11  12
ATOM     12  C   UNL     1      23.128  51.766  39.448  1.00  0.00    -0.000 C 
BRANCH  12  13
ATOM     13  C   UNL     1      22.440  50.430  39.761  1.00  0.00    -0.000 C 
BRANCH  13  14
ATOM     14  C   UNL     1      21.406  50.596  40.884  1.00  0.00    -0.000 C 
BRANCH  14  15
ATOM     15  C   UNL     1      20.046  49.975  40.531  1.00  0.00    -0.003 C 
ATOM     16  C   UNL     1      18.867  50.856  40.944  1.00  0.00     0.004 C 
ENDBRANCH  14  15
ENDBRANCH  13  14
ENDBRANCH  12  13
ENDBRANCH  11  12
ENDBRANCH  10  11
ENDBRANCH   1  10
TORSDOF 12
ENDMDL
MODEL 4
REMARK VINA RESULT:    -3.889     10.931     12.880
REMARK INTER + INTRA:          -8.176
REMARK INTER:                  -6.502
REMARK INTRA:                  -1.674
REMARK UNBOUND:                -1.559
REMARK SMILES CCCCCCCCCCCCCC(=O)[O-]
REMARK SMILES IDX 8 1 9 2 10 3 11 4 12 5 13 6 14 7 15 8 16 9 7 10 6 11 5 12
REMARK SMILES IDX 4 13 3 14 2 15 1 16
REMARK H PARENT
REMARK Flexibility Score: inf
ROOT
ATOM      1  C   UNL     1      16.889  52.545  30.491  1.00  0.00     0.000 C 
ENDROOT
BRANCH   1   2
ATOM      2  C   UNL     1      16.989  51.532  29.339  1.00  0.00     0.000 C 
BRANCH   2   3
ATOM      3  C   UNL     1      18.215  51.769  28.439  1.00  0.00     0.000 C 
BRANCH   3   4
ATOM      4  C   UNL     1      17.903  51.984  26.945  1.00  0.00     0.000 C 
BRANCH   4   5
ATOM      5  C   UNL     1      16.405  51.973  26.578  1.00  0.00     0.006 C 
BRANCH   5   6
ATOM      6  C   UNL     1      15.935  50.690  25.875  1.00  0.00     0.053 C 
BRANCH   6   7
ATOM      7  C   UNL     1      15.934  50.835  24.385  1.00  0.00     0.041 C 
ATOM      8  O   UNL     1      15.530  51.903  23.854  1.00  0.00    -0.550 OA
ATOM      9  O   UNL     1      16.411  49.806  23.584  1.00  0.00    -0.550 OA
ENDBRANCH   6   7
ENDBRANCH   5   6
ENDBRANCH   4   5
ENDBRANCH   3   4
ENDBRANCH   2   3
ENDBRANCH   1   2
BRANCH   1  10
ATOM     10  C   UNL     1      15.609  53.399  30.425  1.00  0.00     0.000 C 
BRANCH  10  11
ATOM     11  C   UNL     1      15.526  54.374  29.232  1.00  0.00    -0.000 C 
BRANCH  11  12
ATOM     12  C   UNL     1      14.182  54.377  28.481  1.00  0.00    -0.000 C 
BRANCH  12  13
ATOM     13  C   UNL     1      13.395  53.071  28.662  1.00  0.00    -0.000 C 
BRANCH  13  14
ATOM     14  C   UNL     1      12.849  52.570  27.317  1.00  0.00    -0.000 C 
BRANCH  14  15
ATOM     15  C   UNL     1      13.095  53.564  26.172  1.00  0.00    -0.003 C 
ATOM     16  C   UNL     1      11.878  53.730  25.261  1.00  0.00     0.004 C 
ENDBRANCH  14  15
ENDBRANCH  13  14
ENDBRANCH  12  13
ENDBRANCH  11  12
ENDBRANCH  10  11
ENDBRANCH   1  10
TORSDOF 12
ENDMDL
MODEL 5
REMARK VINA RESULT:    -3.876     14.194     16.143
REMARK INTER + INTRA:          -8.153
REMARK INTER:                  -6.021
REMARK INTRA:                  -2.133
REMARK UNBOUND:                -1.559
REMARK SMILES CCCCCCCCCCCCCC(=O)[O-]
REMARK SMILES IDX 8 1 9 2 10 3 11 4 12 5 13 6 14 7 15 8 16 9 7 10 6 11 5 12
REMARK SMILES IDX 4 13 3 14 2 15 1 16
REMARK H PARENT
REMARK Flexibility Score: inf
ROOT
ATOM      1  C   UNL     1      19.213  51.466  41.150  1.00  0.00     0.000 C 
ENDROOT
BRANCH   1   2
ATOM      2  C   UNL     1      18.880  50.055  40.639  1.00  0.00     0.000 C 
BRANCH   2   3
ATOM      3  C   UNL     1      18.020  50.070  39.362  1.00  0.00     0.000 C 
BRANCH   3   4
ATOM      4  C   UNL     1      17.306  51.404  39.065  1.00  0.00     0.000 C 
BRANCH   4   5
ATOM      5  C   UNL     1      16.800  51.571  37.617  1.00  0.00     0.006 C 
BRANCH   5   6
ATOM      6  C   UNL     1      17.406  50.575  36.616  1.00  0.00     0.053 C 
BRANCH   6   7
ATOM      7  C   UNL     1      17.498  51.153  35.238  1.00  0.00     0.041 C 
ATOM      8  O   UNL     1      18.288  52.105  35.002  1.00  0.00    -0.550 OA
ATOM      9  O   UNL     1      16.739  50.616  34.206  1.00  0.00    -0.550 OA
ENDBRANCH   6   7
ENDBRANCH   5   6
ENDBRANCH   4   5
ENDBRANCH   3   4
ENDBRANCH   2   3
ENDBRANCH   1   2
BRANCH   1  10
ATOM     10  C   UNL     1      20.717  51.790  41.069  1.00  0.00     0.000 C 
BRANCH  10  11
ATOM     11  C   UNL     1      21.627  50.607  40.684  1.00  0.00    -0.000 C 
BRANCH  11  12
ATOM     12  C   UNL     1      22.401  50.778  39.364  1.00  0.00    -0.000 C 
BRANCH  12  13
ATOM     13  C   UNL     1      21.726  50.069  38.182  1.00  0.00    -0.000 C 
BRANCH  13  14
ATOM     14  C   UNL     1      20.967  51.073  37.301  1.00  0.00    -0.000 C 
BRANCH  14  15
ATOM     15  C   UNL     1      21.404  52.524  37.548  1.00  0.00    -0.003 C 
ATOM     16  C   UNL     1      20.225  53.494  37.618  1.00  0.00     0.004 C 
ENDBRANCH  14  15
ENDBRANCH  13  14
ENDBRANCH  12  13
ENDBRANCH  11  12
ENDBRANCH  10  11
ENDBRANCH   1  10
TORSDOF 12
ENDMDL
MODEL 6
REMARK VINA RESULT:    -3.875     10.842     12.698
REMARK INTER + INTRA:          -8.152
REMARK INTER:                  -6.239
REMARK INTRA:                  -1.913
REMARK UNBOUND:                -1.559
REMARK SMILES CCCCCCCCCCCCCC(=O)[O-]
REMARK SMILES IDX 8 1 9 2 10 3 11 4 12 5 13 6 14 7 15 8 16 9 7 10 6 11 5 12
REMARK SMILES IDX 4 13 3 14 2 15 1 16
REMARK H PARENT
REMARK Flexibility Score: inf
ROOT
ATOM      1  C   UNL     1      18.498  52.170  27.904  1.00  0.00     0.000 C 
ENDROOT
BRANCH   1   2
ATOM      2  C   UNL     1      17.714  51.852  26.621  1.00  0.00     0.000 C 
BRANCH   2   3
ATOM      3  C   UNL     1      16.734  50.676  26.796  1.00  0.00     0.000 C 
BRANCH   3   4
ATOM      4  C   UNL     1      15.413  50.798  26.009  1.00  0.00     0.000 C 
BRANCH   4   5
ATOM      5  C   UNL     1      14.292  51.579  26.724  1.00  0.00     0.006 C 
BRANCH   5   6
ATOM      6  C   UNL     1      13.926  52.914  26.058  1.00  0.00     0.053 C 
BRANCH   6   7
ATOM      7  C   UNL     1      12.535  53.349  26.401  1.00  0.00     0.041 C 
ATOM      8  O   UNL     1      11.733  53.684  25.489  1.00  0.00    -0.550 OA
ATOM      9  O   UNL     1      12.112  53.350  27.724  1.00  0.00    -0.550 OA
ENDBRANCH   6   7
ENDBRANCH   5   6
ENDBRANCH   4   5
ENDBRANCH   3   4
ENDBRANCH   2   3
ENDBRANCH   1   2
BRANCH   1  10
ATOM     10  C   UNL     1      18.825  50.913  28.731  1.00  0.00     0.000 C 
BRANCH  10  11
ATOM     11  C   UNL     1      18.293  50.919  30.179  1.00  0.00    -0.000 C 
BRANCH  11  12
ATOM     12  C   UNL     1      17.098  49.984  30.441  1.00  0.00    -0.000 C 
BRANCH  12  13
ATOM     13  C   UNL     1      15.802  50.746  30.753  1.00  0.00    -0.000 C 
BRANCH  13  14
ATOM     14  C   UNL     1      16.055  52.260  30.803  1.00  0.00    -0.000 C 
BRANCH  14  15
ATOM     15  C   UNL     1      14.999  53.060  30.026  1.00  0.00    -0.003 C 
ATOM     16  C   UNL     1      15.607  54.179  29.180  1.00  0.00     0.004 C 
ENDBRANCH  14  15
ENDBRANCH  13  14
ENDBRANCH  12  13
ENDBRANCH  11  12
ENDBRANCH  10  11
ENDBRANCH   1  10
TORSDOF 12
ENDMDL
MODEL 7
REMARK VINA RESULT:    -3.846     14.137     15.959
REMARK INTER + INTRA:          -8.103
REMARK INTER:                  -6.200
REMARK INTRA:                  -1.902
REMARK UNBOUND:                -1.559
REMARK SMILES CCCCCCCCCCCCCC(=O)[O-]
REMARK SMILES IDX 8 1 9 2 10 3 11 4 12 5 13 6 14 7 15 8 16 9 7 10 6 11 5 12
REMARK SMILES IDX 4 13 3 14 2 15 1 16
REMARK H PARENT
REMARK Flexibility Score: inf
ROOT
ATOM      1  C   UNL     1      18.880  50.346  35.889  1.00  0.00     0.000 C 
ENDROOT
BRANCH   1   2
ATOM      2  C   UNL     1      19.971  51.157  36.607  1.00  0.00     0.000 C 
BRANCH   2   3
ATOM      3  C   UNL     1      19.621  52.652  36.729  1.00  0.00     0.000 C 
BRANCH   3   4
ATOM      4  C   UNL     1      20.483  53.450  37.729  1.00  0.00     0.000 C 
BRANCH   4   5
ATOM      5  C   UNL     1      21.771  52.743  38.197  1.00  0.00     0.006 C 
BRANCH   5   6
ATOM      6  C   UNL     1      21.896  52.602  39.722  1.00  0.00     0.053 C 
BRANCH   6   7
ATOM      7  C   UNL     1      22.896  51.556  40.107  1.00  0.00     0.041 C 
ATOM      8  O   UNL     1      22.815  50.395  39.625  1.00  0.00    -0.550 OA
ATOM      9  O   UNL     1      23.938  51.871  40.970  1.00  0.00    -0.550 OA
ENDBRANCH   6   7
ENDBRANCH   5   6
ENDBRANCH   4   5
ENDBRANCH   3   4
ENDBRANCH   2   3
ENDBRANCH   1   2
BRANCH   1  10
ATOM     10  C   UNL     1      17.502  51.034  35.929  1.00  0.00     0.000 C 
BRANCH  10  11
ATOM     11  C   UNL     1      16.397  50.254  36.668  1.00  0.00    -0.000 C 
BRANCH  11  12
ATOM     12  C   UNL     1      16.608  50.097  38.185  1.00  0.00    -0.000 C 
BRANCH  12  13
ATOM     13  C   UNL     1      16.775  51.442  38.905  1.00  0.00    -0.000 C 
BRANCH  13  14
ATOM     14  C   UNL     1      17.819  51.338  40.027  1.00  0.00    -0.000 C 
BRANCH  14  15
ATOM     15  C   UNL     1      18.772  50.148  39.837  1.00  0.00    -0.003 C 
ATOM     16  C   UNL     1      19.610  49.856  41.082  1.00  0.00     0.004 C 
ENDBRANCH  14  15
ENDBRANCH  13  14
ENDBRANCH  12  13
ENDBRANCH  11  12
ENDBRANCH  10  11
ENDBRANCH   1  10
TORSDOF 12
ENDMDL
MODEL 8
REMARK VINA RESULT:    -3.802     14.478     16.370
REMARK INTER + INTRA:          -8.028
REMARK INTER:                  -6.182
REMARK INTRA:                  -1.846
REMARK UNBOUND:                -1.559
REMARK SMILES CCCCCCCCCCCCCC(=O)[O-]
REMARK SMILES IDX 8 1 9 2 10 3 11 4 12 5 13 6 14 7 15 8 16 9 7 10 6 11 5 12
REMARK SMILES IDX 4 13 3 14 2 15 1 16
REMARK H PARENT
REMARK Flexibility Score: inf
ROOT
ATOM      1  C   UNL     1      20.846  50.238  40.978  1.00  0.00     0.000 C 
ENDROOT
BRANCH   1   2
ATOM      2  C   UNL     1      19.382  49.769  40.961  1.00  0.00     0.000 C 
BRANCH   2   3
ATOM      3  C   UNL     1      18.640  50.175  39.675  1.00  0.00     0.000 C 
BRANCH   3   4
ATOM      4  C   UNL     1      17.698  51.389  39.813  1.00  0.00     0.000 C 
BRANCH   4   5
ATOM      5  C   UNL     1      16.542  51.444  38.794  1.00  0.00     0.006 C 
BRANCH   5   6
ATOM      6  C   UNL     1      16.253  50.108  38.092  1.00  0.00     0.053 C 
BRANCH   6   7
ATOM      7  C   UNL     1      16.417  50.208  36.607  1.00  0.00     0.041 C 
ATOM      8  O   UNL     1      16.133  51.280  36.010  1.00  0.00    -0.550 OA
ATOM      9  O   UNL     1      16.916  49.130  35.887  1.00  0.00    -0.550 OA
ENDBRANCH   6   7
ENDBRANCH   5   6
ENDBRANCH   4   5
ENDBRANCH   3   4
ENDBRANCH   2   3
ENDBRANCH   1   2
BRANCH   1  10
ATOM     10  C   UNL     1      21.470  50.296  39.571  1.00  0.00     0.000 C 
BRANCH  10  11
ATOM     11  C   UNL     1      22.686  51.234  39.426  1.00  0.00    -0.000 C 
BRANCH  11  12
ATOM     12  C   UNL     1      22.446  52.489  38.568  1.00  0.00    -0.000 C 
BRANCH  12  13
ATOM     13  C   UNL     1      21.001  53.002  38.652  1.00  0.00    -0.000 C 
BRANCH  13  14
ATOM     14  C   UNL     1      20.507  53.477  37.277  1.00  0.00    -0.000 C 
BRANCH  14  15
ATOM     15  C   UNL     1      19.428  52.556  36.687  1.00  0.00    -0.003 C 
ATOM     16  C   UNL     1      19.960  51.164  36.346  1.00  0.00     0.004 C 
ENDBRANCH  14  15
ENDBRANCH  13  14
ENDBRANCH  12  13
ENDBRANCH  11  12
ENDBRANCH  10  11
ENDBRANCH   1  10
TORSDOF 12
ENDMDL
MODEL 9
REMARK VINA RESULT:    -3.777     10.838     12.769
REMARK INTER + INTRA:          -7.986
REMARK INTER:                  -6.192
REMARK INTRA:                  -1.794
REMARK UNBOUND:                -1.559
REMARK SMILES CCCCCCCCCCCCCC(=O)[O-]
REMARK SMILES IDX 8 1 9 2 10 3 11 4 12 5 13 6 14 7 15 8 16 9 7 10 6 11 5 12
REMARK SMILES IDX 4 13 3 14 2 15 1 16
REMARK H PARENT
REMARK Flexibility Score: inf
ROOT
ATOM      1  C   UNL     1      16.036  50.986  26.580  1.00  0.00     0.000 C 
ENDROOT
BRANCH   1   2
ATOM      2  C   UNL     1      17.000  52.130  26.933  1.00  0.00     0.000 C 
BRANCH   2   3
ATOM      3  C   UNL     1      18.085  51.706  27.940  1.00  0.00     0.000 C 
BRANCH   3   4
ATOM      4  C   UNL     1      17.846  50.350  28.633  1.00  0.00     0.000 C 
BRANCH   4   5
ATOM      5  C   UNL     1      17.206  50.431  30.034  1.00  0.00     0.006 C 
BRANCH   5   6
ATOM      6  C   UNL     1      17.985  51.297  31.037  1.00  0.00     0.053 C 
BRANCH   6   7
ATOM      7  C   UNL     1      17.272  51.416  32.348  1.00  0.00     0.041 C 
ATOM      8  O   UNL     1      16.411  50.559  32.679  1.00  0.00    -0.550 OA
ATOM      9  O   UNL     1      17.583  52.452  33.219  1.00  0.00    -0.550 OA
ENDBRANCH   6   7
ENDBRANCH   5   6
ENDBRANCH   4   5
ENDBRANCH   3   4
ENDBRANCH   2   3
ENDBRANCH   1   2
BRANCH   1  10
ATOM     10  C   UNL     1      14.705  51.488  25.989  1.00  0.00     0.000 C 
BRANCH  10  11
ATOM     11  C   UNL     1      13.545  51.623  26.996  1.00  0.00    -0.000 C 
BRANCH  11  12
ATOM     12  C   UNL     1      12.960  53.040  27.135  1.00  0.00    -0.000 C 
BRANCH  12  13
ATOM     13  C   UNL     1      13.112  53.612  28.551  1.00  0.00    -0.000 C 
BRANCH  13  14
ATOM     14  C   UNL     1      13.855  52.625  29.464  1.00  0.00    -0.000 C 
BRANCH  14  15
ATOM     15  C   UNL     1      14.895  53.317  30.359  1.00  0.00    -0.003 C 
ATOM     16  C   UNL     1      15.703  54.380  29.615  1.00  0.00     0.004 C 
ENDBRANCH  14  15
ENDBRANCH  13  14
ENDBRANCH  12  13
ENDBRANCH  11  12
ENDBRANCH  10  11
ENDBRANCH   1  10
TORSDOF 12
ENDMDL
