MODEL 1
REMARK VINA RESULT:    -4.611      0.000      0.000
REMARK INTER + INTRA:          -5.631
REMARK INTER:                  -5.419
REMARK INTRA:                  -0.211
REMARK UNBOUND:                -0.211
REMARK SMILES O=c1c(O)c(-c2ccc(O)cc2)oc2cc(O)cc(O)c12
REMARK SMILES IDX 5 1 3 2 2 3 1 4 21 5 19 6 18 7 16 8 15 9 14 10 13 11 6 12
REMARK SMILES IDX 7 13 8 14 9 15 12 16 11 17 10 18 4 20 20 22 17 24
REMARK H PARENT 10 19 4 21 20 23 17 25
REMARK Flexibility Score: inf
ROOT
ATOM      1  C   UNL     1      12.221   5.783  -1.959  1.00  0.00     0.180 A 
ATOM      2  C   UNL     1      10.909   5.874  -1.466  1.00  0.00     0.208 A 
ATOM      3  C   UNL     1      10.287   7.132  -1.413  1.00  0.00     0.238 A 
ATOM      4  O   UNL     1       9.132   7.216  -0.920  1.00  0.00    -0.285 OA
ATOM      5  C   UNL     1      10.979   8.280  -1.869  1.00  0.00     0.111 A 
ATOM      6  C   UNL     1      10.432   9.598  -1.899  1.00  0.00     0.134 A 
ATOM      7  C   UNL     1      11.252  10.679  -2.248  1.00  0.00     0.093 A 
ATOM      8  C   UNL     1      12.579  10.482  -2.630  1.00  0.00     0.123 A 
ATOM      9  C   UNL     1      13.106   9.190  -2.662  1.00  0.00     0.094 A 
ATOM     10  C   UNL     1      12.323   8.097  -2.284  1.00  0.00     0.146 A 
ATOM     11  O   UNL     1      12.867   6.886  -2.318  1.00  0.00    -0.452 OA
ENDROOT
BRANCH   1  12
ATOM     12  C   UNL     1      12.933   4.489  -2.070  1.00  0.00     0.021 A 
ATOM     13  C   UNL     1      14.044   4.240  -1.247  1.00  0.00     0.016 A 
ATOM     14  C   UNL     1      14.745   3.034  -1.349  1.00  0.00     0.047 A 
ATOM     15  C   UNL     1      14.352   2.069  -2.286  1.00  0.00     0.115 A 
ATOM     16  C   UNL     1      12.557   3.524  -3.021  1.00  0.00     0.016 A 
ATOM     17  C   UNL     1      13.260   2.319  -3.121  1.00  0.00     0.047 A 
BRANCH  15  18
ATOM     18  O   UNL     1      15.042   0.863  -2.397  1.00  0.00    -0.508 OA
ATOM     19  H   UNL     1      14.572  -0.028  -2.286  1.00  0.00     0.293 HD
ENDBRANCH  15  18
ENDBRANCH   1  12
BRANCH   2  20
ATOM     20  O   UNL     1      10.251   4.733  -1.001  1.00  0.00    -0.502 OA
ATOM     21  H   UNL     1      10.294   4.436  -0.032  1.00  0.00     0.293 HD
ENDBRANCH   2  20
BRANCH   6  22
ATOM     22  O   UNL     1       9.094   9.894  -1.626  1.00  0.00    -0.507 OA
ATOM     23  H   UNL     1       8.554  10.606  -2.096  1.00  0.00     0.293 HD
ENDBRANCH   6  22
BRANCH   8  24
ATOM     24  O   UNL     1      13.360  11.578  -2.985  1.00  0.00    -0.508 OA
ATOM     25  H   UNL     1      13.528  12.342  -2.340  1.00  0.00     0.293 HD
ENDBRANCH   8  24
TORSDOF 5
ENDMDL
MODEL 2
REMARK VINA RESULT:    -4.478      1.619      2.167
REMARK INTER + INTRA:          -5.475
REMARK INTER:                  -5.534
REMARK INTRA:                   0.059
REMARK UNBOUND:                -0.211
REMARK SMILES O=c1c(O)c(-c2ccc(O)cc2)oc2cc(O)cc(O)c12
REMARK SMILES IDX 5 1 3 2 2 3 1 4 21 5 19 6 18 7 16 8 15 9 14 10 13 11 6 12
REMARK SMILES IDX 7 13 8 14 9 15 12 16 11 17 10 18 4 20 20 22 17 24
REMARK H PARENT 10 19 4 21 20 23 17 25
REMARK Flexibility Score: inf
ROOT
ATOM      1  C   UNL     1      11.902   4.655  -2.240  1.00  0.00     0.180 A 
ATOM      2  C   UNL     1      10.626   4.167  -2.568  1.00  0.00     0.208 A 
ATOM      3  C   UNL     1       9.556   5.071  -2.668  1.00  0.00     0.238 A 
ATOM      4  O   UNL     1       8.405   4.622  -2.909  1.00  0.00    -0.285 OA
ATOM      5  C   UNL     1       9.779   6.452  -2.456  1.00  0.00     0.111 A 
ATOM      6  C   UNL     1       8.777   7.463  -2.571  1.00  0.00     0.134 A 
ATOM      7  C   UNL     1       9.081   8.782  -2.210  1.00  0.00     0.093 A 
ATOM      8  C   UNL     1      10.366   9.139  -1.802  1.00  0.00     0.123 A 
ATOM      9  C   UNL     1      11.369   8.170  -1.744  1.00  0.00     0.094 A 
ATOM     10  C   UNL     1      11.086   6.839  -2.062  1.00  0.00     0.146 A 
ATOM     11  O   UNL     1      12.066   5.947  -1.983  1.00  0.00    -0.452 OA
ENDROOT
BRANCH   1  12
ATOM     12  C   UNL     1      13.083   3.767  -2.142  1.00  0.00     0.021 A 
ATOM     13  C   UNL     1      13.983   3.930  -1.075  1.00  0.00     0.016 A 
ATOM     14  C   UNL     1      15.117   3.118  -0.974  1.00  0.00     0.047 A 
ATOM     15  C   UNL     1      15.373   2.142  -1.947  1.00  0.00     0.115 A 
ATOM     16  C   UNL     1      13.357   2.799  -3.125  1.00  0.00     0.016 A 
ATOM     17  C   UNL     1      14.492   1.989  -3.021  1.00  0.00     0.047 A 
BRANCH  15  18
ATOM     18  O   UNL     1      16.499   1.327  -1.857  1.00  0.00    -0.508 OA
ATOM     19  H   UNL     1      17.120   1.369  -1.058  1.00  0.00     0.293 HD
ENDBRANCH  15  18
ENDBRANCH   1  12
BRANCH   2  20
ATOM     20  O   UNL     1      10.422   2.797  -2.753  1.00  0.00    -0.502 OA
ATOM     21  H   UNL     1      10.322   2.379  -3.671  1.00  0.00     0.293 HD
ENDBRANCH   2  20
BRANCH   6  22
ATOM     22  O   UNL     1       7.487   7.231  -3.057  1.00  0.00    -0.507 OA
ATOM     23  H   UNL     1       7.272   6.917  -3.992  1.00  0.00     0.293 HD
ENDBRANCH   6  22
BRANCH   8  24
ATOM     24  O   UNL     1      10.636  10.463  -1.467  1.00  0.00    -0.508 OA
ATOM     25  H   UNL     1      10.266  10.882  -0.621  1.00  0.00     0.293 HD
ENDBRANCH   8  24
TORSDOF 5
ENDMDL
MODEL 3
REMARK VINA RESULT:    -4.107      2.059      7.003
REMARK INTER + INTRA:          -5.039
REMARK INTER:                  -4.744
REMARK INTRA:                  -0.294
REMARK UNBOUND:                -0.211
REMARK SMILES O=c1c(O)c(-c2ccc(O)cc2)oc2cc(O)cc(O)c12
REMARK SMILES IDX 5 1 3 2 2 3 1 4 21 5 19 6 18 7 16 8 15 9 14 10 13 11 6 12
REMARK SMILES IDX 7 13 8 14 9 15 12 16 11 17 10 18 4 20 20 22 17 24
REMARK H PARENT 10 19 4 21 20 23 17 25
REMARK Flexibility Score: inf
ROOT
ATOM      1  C   UNL     1      10.740   9.595  -1.937  1.00  0.00     0.180 A 
ATOM      2  C   UNL     1       9.452   9.051  -1.795  1.00  0.00     0.208 A 
ATOM      3  C   UNL     1       9.294   7.656  -1.828  1.00  0.00     0.238 A 
ATOM      4  O   UNL     1       8.132   7.177  -1.756  1.00  0.00    -0.285 OA
ATOM      5  C   UNL     1      10.427   6.823  -1.985  1.00  0.00     0.111 A 
ATOM      6  C   UNL     1      10.389   5.395  -1.992  1.00  0.00     0.134 A 
ATOM      7  C   UNL     1      11.554   4.675  -2.285  1.00  0.00     0.093 A 
ATOM      8  C   UNL     1      12.767   5.325  -2.507  1.00  0.00     0.123 A 
ATOM      9  C   UNL     1      12.827   6.719  -2.443  1.00  0.00     0.094 A 
ATOM     10  C   UNL     1      11.675   7.466  -2.189  1.00  0.00     0.146 A 
ATOM     11  O   UNL     1      11.774   8.789  -2.147  1.00  0.00    -0.452 OA
ENDROOT
BRANCH   1  12
ATOM     12  C   UNL     1      10.989  11.054  -1.887  1.00  0.00     0.021 A 
ATOM     13  C   UNL     1      11.107  11.776  -3.087  1.00  0.00     0.016 A 
ATOM     14  C   UNL     1      11.364  13.150  -3.064  1.00  0.00     0.047 A 
ATOM     15  C   UNL     1      11.521  13.817  -1.841  1.00  0.00     0.115 A 
ATOM     16  C   UNL     1      11.168  11.726  -0.664  1.00  0.00     0.016 A 
ATOM     17  C   UNL     1      11.425  13.100  -0.645  1.00  0.00     0.047 A 
BRANCH  15  18
ATOM     18  O   UNL     1      11.777  15.186  -1.805  1.00  0.00    -0.508 OA
ATOM     19  H   UNL     1      11.083  15.862  -2.101  1.00  0.00     0.293 HD
ENDBRANCH  15  18
ENDBRANCH   1  12
BRANCH   2  20
ATOM     20  O   UNL     1       8.344   9.893  -1.664  1.00  0.00    -0.502 OA
ATOM     21  H   UNL     1       8.173  10.671  -2.290  1.00  0.00     0.293 HD
ENDBRANCH   2  20
BRANCH   6  22
ATOM     22  O   UNL     1       9.249   4.644  -1.692  1.00  0.00    -0.507 OA
ATOM     23  H   UNL     1       8.378   4.692  -2.201  1.00  0.00     0.293 HD
ENDBRANCH   6  22
BRANCH   8  24
ATOM     24  O   UNL     1      13.908   4.576  -2.780  1.00  0.00    -0.508 OA
ATOM     25  H   UNL     1      14.836   4.927  -2.571  1.00  0.00     0.293 HD
ENDBRANCH   8  24
TORSDOF 5
ENDMDL
MODEL 4
REMARK VINA RESULT:    -4.020      2.188      3.254
REMARK INTER + INTRA:          -4.936
REMARK INTER:                  -4.689
REMARK INTRA:                  -0.247
REMARK UNBOUND:                -0.211
REMARK SMILES O=c1c(O)c(-c2ccc(O)cc2)oc2cc(O)cc(O)c12
REMARK SMILES IDX 5 1 3 2 2 3 1 4 21 5 19 6 18 7 16 8 15 9 14 10 13 11 6 12
REMARK SMILES IDX 7 13 8 14 9 15 12 16 11 17 10 18 4 20 20 22 17 24
REMARK H PARENT 10 19 4 21 20 23 17 25
REMARK Flexibility Score: inf
ROOT
ATOM      1  C   UNL     1      10.393   8.182  -1.814  1.00  0.00     0.180 A 
ATOM      2  C   UNL     1       9.023   8.122  -2.123  1.00  0.00     0.208 A 
ATOM      3  C   UNL     1       8.289   9.316  -2.202  1.00  0.00     0.238 A 
ATOM      4  O   UNL     1       7.052   9.253  -2.426  1.00  0.00    -0.285 OA
ATOM      5  C   UNL     1       8.938  10.556  -1.988  1.00  0.00     0.111 A 
ATOM      6  C   UNL     1       8.301  11.831  -2.083  1.00  0.00     0.134 A 
ATOM      7  C   UNL     1       9.009  12.984  -1.722  1.00  0.00     0.093 A 
ATOM      8  C   UNL     1      10.346  12.918  -1.334  1.00  0.00     0.123 A 
ATOM      9  C   UNL     1      10.996  11.682  -1.295  1.00  0.00     0.094 A 
ATOM     10  C   UNL     1      10.306  10.510  -1.614  1.00  0.00     0.146 A 
ATOM     11  O   UNL     1      10.957   9.355  -1.554  1.00  0.00    -0.452 OA
ENDROOT
BRANCH   1  12
ATOM     12  C   UNL     1      11.237   6.967  -1.738  1.00  0.00     0.021 A 
ATOM     13  C   UNL     1      11.199   6.171  -0.581  1.00  0.00     0.016 A 
ATOM     14  C   UNL     1      12.005   5.033  -0.479  1.00  0.00     0.047 A 
ATOM     15  C   UNL     1      12.869   4.685  -1.526  1.00  0.00     0.115 A 
ATOM     16  C   UNL     1      12.122   6.623  -2.776  1.00  0.00     0.016 A 
ATOM     17  C   UNL     1      12.926   5.484  -2.671  1.00  0.00     0.047 A 
BRANCH  15  18
ATOM     18  O   UNL     1      13.676   3.553  -1.435  1.00  0.00    -0.508 OA
ATOM     19  H   UNL     1      13.542   2.757  -2.048  1.00  0.00     0.293 HD
ENDBRANCH  15  18
ENDBRANCH   1  12
BRANCH   2  20
ATOM     20  O   UNL     1       8.398   6.886  -2.309  1.00  0.00    -0.502 OA
ATOM     21  H   UNL     1       7.534   6.785  -2.830  1.00  0.00     0.293 HD
ENDBRANCH   2  20
BRANCH   6  22
ATOM     22  O   UNL     1       6.997  12.019  -2.548  1.00  0.00    -0.507 OA
ATOM     23  H   UNL     1       6.535  11.423  -3.220  1.00  0.00     0.293 HD
ENDBRANCH   6  22
BRANCH   8  24
ATOM     24  O   UNL     1      11.023  14.087  -0.997  1.00  0.00    -0.508 OA
ATOM     25  H   UNL     1      11.145  14.840  -1.665  1.00  0.00     0.293 HD
ENDBRANCH   8  24
TORSDOF 5
ENDMDL
MODEL 5
REMARK VINA RESULT:    -3.904      2.751      4.964
REMARK INTER + INTRA:          -4.800
REMARK INTER:                  -4.504
REMARK INTRA:                  -0.296
REMARK UNBOUND:                -0.211
REMARK SMILES O=c1c(O)c(-c2ccc(O)cc2)oc2cc(O)cc(O)c12
REMARK SMILES IDX 5 1 3 2 2 3 1 4 21 5 19 6 18 7 16 8 15 9 14 10 13 11 6 12
REMARK SMILES IDX 7 13 8 14 9 15 12 16 11 17 10 18 4 20 20 22 17 24
REMARK H PARENT 10 19 4 21 20 23 17 25
REMARK Flexibility Score: inf
ROOT
ATOM      1  C   UNL     1      11.362   9.376  -1.997  1.00  0.00     0.180 A 
ATOM      2  C   UNL     1      12.607   9.850  -2.446  1.00  0.00     0.208 A 
ATOM      3  C   UNL     1      12.879  11.226  -2.369  1.00  0.00     0.238 A 
ATOM      4  O   UNL     1      13.973  11.652  -2.823  1.00  0.00    -0.285 OA
ATOM      5  C   UNL     1      11.911  12.106  -1.830  1.00  0.00     0.111 A 
ATOM      6  C   UNL     1      12.096  13.513  -1.667  1.00  0.00     0.134 A 
ATOM      7  C   UNL     1      11.021  14.306  -1.244  1.00  0.00     0.093 A 
ATOM      8  C   UNL     1       9.791  13.737  -0.915  1.00  0.00     0.123 A 
ATOM      9  C   UNL     1       9.619  12.355  -1.013  1.00  0.00     0.094 A 
ATOM     10  C   UNL     1      10.660  11.543  -1.467  1.00  0.00     0.146 A 
ATOM     11  O   UNL     1      10.451  10.235  -1.557  1.00  0.00    -0.452 OA
ENDROOT
BRANCH   1  12
ATOM     12  C   UNL     1      11.012   7.937  -2.022  1.00  0.00     0.021 A 
ATOM     13  C   UNL     1      10.257   7.428  -3.092  1.00  0.00     0.016 A 
ATOM     14  C   UNL     1       9.896   6.078  -3.125  1.00  0.00     0.047 A 
ATOM     15  C   UNL     1      10.274   5.222  -2.081  1.00  0.00     0.115 A 
ATOM     16  C   UNL     1      11.371   7.076  -0.968  1.00  0.00     0.016 A 
ATOM     17  C   UNL     1      11.008   5.726  -1.004  1.00  0.00     0.047 A 
BRANCH  15  18
ATOM     18  O   UNL     1       9.921   3.875  -2.103  1.00  0.00    -0.508 OA
ATOM     19  H   UNL     1      10.089   3.270  -1.308  1.00  0.00     0.293 HD
ENDBRANCH  15  18
ENDBRANCH   1  12
BRANCH   2  20
ATOM     20  O   UNL     1      13.540   8.967  -2.995  1.00  0.00    -0.502 OA
ATOM     21  H   UNL     1      13.825   9.011  -3.967  1.00  0.00     0.293 HD
ENDBRANCH   2  20
BRANCH   6  22
ATOM     22  O   UNL     1      13.311  14.170  -1.878  1.00  0.00    -0.507 OA
ATOM     23  H   UNL     1      14.072  14.200  -1.215  1.00  0.00     0.293 HD
ENDBRANCH   6  22
BRANCH   8  24
ATOM     24  O   UNL     1       8.751  14.555  -0.482  1.00  0.00    -0.508 OA
ATOM     25  H   UNL     1       8.799  15.564  -0.567  1.00  0.00     0.293 HD
ENDBRANCH   8  24
TORSDOF 5
ENDMDL
MODEL 6
REMARK VINA RESULT:    -3.701      2.223      3.557
REMARK INTER + INTRA:          -4.562
REMARK INTER:                  -4.455
REMARK INTRA:                  -0.106
REMARK UNBOUND:                -0.211
REMARK SMILES O=c1c(O)c(-c2ccc(O)cc2)oc2cc(O)cc(O)c12
REMARK SMILES IDX 5 1 3 2 2 3 1 4 21 5 19 6 18 7 16 8 15 9 14 10 13 11 6 12
REMARK SMILES IDX 7 13 8 14 9 15 12 16 11 17 10 18 4 20 20 22 17 24
REMARK H PARENT 10 19 4 21 20 23 17 25
REMARK Flexibility Score: inf
ROOT
ATOM      1  C   UNL     1      11.304   8.575  -2.166  1.00  0.00     0.180 A 
ATOM      2  C   UNL     1      10.302   9.471  -1.755  1.00  0.00     0.208 A 
ATOM      3  C   UNL     1      10.584  10.847  -1.739  1.00  0.00     0.238 A 
ATOM      4  O   UNL     1       9.701  11.640  -1.319  1.00  0.00    -0.285 OA
ATOM      5  C   UNL     1      11.857  11.309  -2.149  1.00  0.00     0.111 A 
ATOM      6  C   UNL     1      12.239  12.684  -2.211  1.00  0.00     0.134 A 
ATOM      7  C   UNL     1      13.566  13.019  -2.506  1.00  0.00     0.093 A 
ATOM      8  C   UNL     1      14.509  12.036  -2.805  1.00  0.00     0.123 A 
ATOM      9  C   UNL     1      14.131  10.692  -2.806  1.00  0.00     0.094 A 
ATOM     10  C   UNL     1      12.823  10.324  -2.480  1.00  0.00     0.146 A 
ATOM     11  O   UNL     1      12.508   9.035  -2.482  1.00  0.00    -0.452 OA
ENDROOT
BRANCH   1  12
ATOM     12  C   UNL     1      11.073   7.113  -2.234  1.00  0.00     0.021 A 
ATOM     13  C   UNL     1      11.910   6.248  -1.509  1.00  0.00     0.016 A 
ATOM     14  C   UNL     1      11.725   4.863  -1.576  1.00  0.00     0.047 A 
ATOM     15  C   UNL     1      10.710   4.327  -2.380  1.00  0.00     0.115 A 
ATOM     16  C   UNL     1      10.070   6.566  -3.054  1.00  0.00     0.016 A 
ATOM     17  C   UNL     1       9.888   5.181  -3.119  1.00  0.00     0.047 A 
BRANCH  15  18
ATOM     18  O   UNL     1      10.516   2.949  -2.454  1.00  0.00    -0.508 OA
ATOM     19  H   UNL     1       9.944   2.458  -1.777  1.00  0.00     0.293 HD
ENDBRANCH  15  18
ENDBRANCH   1  12
BRANCH   2  20
ATOM     20  O   UNL     1       9.059   8.991  -1.333  1.00  0.00    -0.502 OA
ATOM     21  H   UNL     1       8.887   8.686  -0.382  1.00  0.00     0.293 HD
ENDBRANCH   2  20
BRANCH   6  22
ATOM     22  O   UNL     1      11.354  13.749  -2.020  1.00  0.00    -0.507 OA
ATOM     23  H   UNL     1      10.864  13.943  -1.159  1.00  0.00     0.293 HD
ENDBRANCH   6  22
BRANCH   8  24
ATOM     24  O   UNL     1      15.816  12.407  -3.109  1.00  0.00    -0.508 OA
ATOM     25  H   UNL     1      16.182  12.335  -4.052  1.00  0.00     0.293 HD
ENDBRANCH   8  24
TORSDOF 5
ENDMDL
MODEL 7
REMARK VINA RESULT:    -3.668      3.940      8.818
REMARK INTER + INTRA:          -4.522
REMARK INTER:                  -4.549
REMARK INTRA:                   0.027
REMARK UNBOUND:                -0.211
REMARK SMILES O=c1c(O)c(-c2ccc(O)cc2)oc2cc(O)cc(O)c12
REMARK SMILES IDX 5 1 3 2 2 3 1 4 21 5 19 6 18 7 16 8 15 9 14 10 13 11 6 12
REMARK SMILES IDX 7 13 8 14 9 15 12 16 11 17 10 18 4 20 20 22 17 24
REMARK H PARENT 10 19 4 21 20 23 17 25
REMARK Flexibility Score: inf
ROOT
ATOM      1  C   UNL     1      11.812  13.510  -1.367  1.00  0.00     0.180 A 
ATOM      2  C   UNL     1      10.412  13.626  -1.374  1.00  0.00     0.208 A 
ATOM      3  C   UNL     1       9.633  12.466  -1.523  1.00  0.00     0.238 A 
ATOM      4  O   UNL     1       8.381  12.582  -1.584  1.00  0.00    -0.285 OA
ATOM      5  C   UNL     1      10.265  11.206  -1.645  1.00  0.00     0.111 A 
ATOM      6  C   UNL     1       9.574   9.961  -1.760  1.00  0.00     0.134 A 
ATOM      7  C   UNL     1      10.300   8.789  -2.007  1.00  0.00     0.093 A 
ATOM      8  C   UNL     1      11.693   8.805  -2.078  1.00  0.00     0.123 A 
ATOM      9  C   UNL     1      12.381  10.007  -1.907  1.00  0.00     0.094 A 
ATOM     10  C   UNL     1      11.683  11.199  -1.696  1.00  0.00     0.146 A 
ATOM     11  O   UNL     1      12.374  12.322  -1.549  1.00  0.00    -0.452 OA
ENDROOT
BRANCH   1  12
ATOM     12  C   UNL     1      12.698  14.684  -1.189  1.00  0.00     0.021 A 
ATOM     13  C   UNL     1      13.811  14.843  -2.032  1.00  0.00     0.016 A 
ATOM     14  C   UNL     1      14.673  15.931  -1.868  1.00  0.00     0.047 A 
ATOM     15  C   UNL     1      14.443  16.865  -0.848  1.00  0.00     0.115 A 
ATOM     16  C   UNL     1      12.485  15.614  -0.155  1.00  0.00     0.016 A 
ATOM     17  C   UNL     1      13.349  16.701   0.006  1.00  0.00     0.047 A 
BRANCH  15  18
ATOM     18  O   UNL     1      15.295  17.954  -0.675  1.00  0.00    -0.508 OA
ATOM     19  H   UNL     1      15.615  18.234   0.245  1.00  0.00     0.293 HD
ENDBRANCH  15  18
ENDBRANCH   1  12
BRANCH   2  20
ATOM     20  O   UNL     1       9.809  14.883  -1.275  1.00  0.00    -0.502 OA
ATOM     21  H   UNL     1       9.872  15.452  -0.438  1.00  0.00     0.293 HD
ENDBRANCH   2  20
BRANCH   6  22
ATOM     22  O   UNL     1       8.192   9.819  -1.614  1.00  0.00    -0.507 OA
ATOM     23  H   UNL     1       7.507  10.125  -2.290  1.00  0.00     0.293 HD
ENDBRANCH   6  22
BRANCH   8  24
ATOM     24  O   UNL     1      12.382   7.618  -2.309  1.00  0.00    -0.508 OA
ATOM     25  H   UNL     1      13.255   7.603  -2.824  1.00  0.00     0.293 HD
ENDBRANCH   8  24
TORSDOF 5
ENDMDL
MODEL 8
REMARK VINA RESULT:    -3.551      2.574      8.136
REMARK INTER + INTRA:          -4.385
REMARK INTER:                  -4.248
REMARK INTRA:                  -0.137
REMARK UNBOUND:                -0.211
REMARK SMILES O=c1c(O)c(-c2ccc(O)cc2)oc2cc(O)cc(O)c12
REMARK SMILES IDX 5 1 3 2 2 3 1 4 21 5 19 6 18 7 16 8 15 9 14 10 13 11 6 12
REMARK SMILES IDX 7 13 8 14 9 15 12 16 11 17 10 18 4 20 20 22 17 24
REMARK H PARENT 10 19 4 21 20 23 17 25
REMARK Flexibility Score: inf
ROOT
ATOM      1  C   UNL     1      10.184  10.627  -1.885  1.00  0.00     0.180 A 
ATOM      2  C   UNL     1      11.576  10.701  -2.062  1.00  0.00     0.208 A 
ATOM      3  C   UNL     1      12.311   9.511  -2.190  1.00  0.00     0.238 A 
ATOM      4  O   UNL     1      13.563   9.581  -2.293  1.00  0.00    -0.285 OA
ATOM      5  C   UNL     1      11.642   8.264  -2.157  1.00  0.00     0.111 A 
ATOM      6  C   UNL     1      12.281   6.997  -2.317  1.00  0.00     0.134 A 
ATOM      7  C   UNL     1      11.540   5.822  -2.136  1.00  0.00     0.093 A 
ATOM      8  C   UNL     1      10.172   5.867  -1.865  1.00  0.00     0.123 A 
ATOM      9  C   UNL     1       9.526   7.100  -1.766  1.00  0.00     0.094 A 
ATOM     10  C   UNL     1      10.246   8.289  -1.906  1.00  0.00     0.146 A 
ATOM     11  O   UNL     1       9.595   9.441  -1.793  1.00  0.00    -0.452 OA
ENDROOT
BRANCH   1  12
ATOM     12  C   UNL     1       9.339  11.838  -1.768  1.00  0.00     0.021 A 
ATOM     13  C   UNL     1       8.435  12.151  -2.797  1.00  0.00     0.016 A 
ATOM     14  C   UNL     1       7.644  13.301  -2.718  1.00  0.00     0.047 A 
ATOM     15  C   UNL     1       7.758  14.161  -1.617  1.00  0.00     0.115 A 
ATOM     16  C   UNL     1       9.463  12.716  -0.676  1.00  0.00     0.016 A 
ATOM     17  C   UNL     1       8.670  13.865  -0.601  1.00  0.00     0.047 A 
BRANCH  15  18
ATOM     18  O   UNL     1       6.974  15.309  -1.527  1.00  0.00    -0.508 OA
ATOM     19  H   UNL     1       6.720  15.708  -0.631  1.00  0.00     0.293 HD
ENDBRANCH  15  18
ENDBRANCH   1  12
BRANCH   2  20
ATOM     20  O   UNL     1      12.219  11.941  -2.069  1.00  0.00    -0.502 OA
ATOM     21  H   UNL     1      11.711  12.819  -2.062  1.00  0.00     0.293 HD
ENDBRANCH   2  20
BRANCH   6  22
ATOM     22  O   UNL     1      13.621   6.839  -2.679  1.00  0.00    -0.507 OA
ATOM     23  H   UNL     1      13.943   6.323  -3.485  1.00  0.00     0.293 HD
ENDBRANCH   6  22
BRANCH   8  24
ATOM     24  O   UNL     1       9.465   4.678  -1.707  1.00  0.00    -0.508 OA
ATOM     25  H   UNL     1       9.826   3.796  -2.050  1.00  0.00     0.293 HD
ENDBRANCH   8  24
TORSDOF 5
ENDMDL
MODEL 9
REMARK VINA RESULT:    -3.392      3.747      6.337
REMARK INTER + INTRA:          -4.198
REMARK INTER:                  -4.658
REMARK INTRA:                   0.459
REMARK UNBOUND:                -0.211
REMARK SMILES O=c1c(O)c(-c2ccc(O)cc2)oc2cc(O)cc(O)c12
REMARK SMILES IDX 5 1 3 2 2 3 1 4 21 5 19 6 18 7 16 8 15 9 14 10 13 11 6 12
REMARK SMILES IDX 7 13 8 14 9 15 12 16 11 17 10 18 4 20 20 22 17 24
REMARK H PARENT 10 19 4 21 20 23 17 25
REMARK Flexibility Score: inf
ROOT
ATOM      1  C   UNL     1      11.321  11.948  -1.485  1.00  0.00     0.180 A 
ATOM      2  C   UNL     1       9.943  12.105  -1.261  1.00  0.00     0.208 A 
ATOM      3  C   UNL     1       9.443  13.382  -0.960  1.00  0.00     0.238 A 
ATOM      4  O   UNL     1       8.217  13.508  -0.706  1.00  0.00    -0.285 OA
ATOM      5  C   UNL     1      10.325  14.488  -0.904  1.00  0.00     0.111 A 
ATOM      6  C   UNL     1       9.922  15.834  -0.648  1.00  0.00     0.134 A 
ATOM      7  C   UNL     1      10.896  16.827  -0.487  1.00  0.00     0.093 A 
ATOM      8  C   UNL     1      12.252  16.538  -0.637  1.00  0.00     0.123 A 
ATOM      9  C   UNL     1      12.653  15.238  -0.947  1.00  0.00     0.094 A 
ATOM     10  C   UNL     1      11.707  14.218  -1.077  1.00  0.00     0.146 A 
ATOM     11  O   UNL     1      12.131  12.993  -1.362  1.00  0.00    -0.452 OA
ENDROOT
BRANCH   1  12
ATOM     12  C   UNL     1      11.919  10.637  -1.832  1.00  0.00     0.021 A 
ATOM     13  C   UNL     1      13.203  10.593  -2.401  1.00  0.00     0.016 A 
ATOM     14  C   UNL     1      13.777   9.369  -2.757  1.00  0.00     0.047 A 
ATOM     15  C   UNL     1      13.069   8.175  -2.562  1.00  0.00     0.115 A 
ATOM     16  C   UNL     1      11.206   9.438  -1.658  1.00  0.00     0.016 A 
ATOM     17  C   UNL     1      11.783   8.215  -2.015  1.00  0.00     0.047 A 
BRANCH  15  18
ATOM     18  O   UNL     1      13.630   6.949  -2.912  1.00  0.00    -0.508 OA
ATOM     19  H   UNL     1      14.193   6.845  -3.749  1.00  0.00     0.293 HD
ENDBRANCH  15  18
ENDBRANCH   1  12
BRANCH   2  20
ATOM     20  O   UNL     1       9.093  10.996  -1.298  1.00  0.00    -0.502 OA
ATOM     21  H   UNL     1       8.094  11.071  -1.149  1.00  0.00     0.293 HD
ENDBRANCH   2  20
BRANCH   6  22
ATOM     22  O   UNL     1       8.590  16.249  -0.572  1.00  0.00    -0.507 OA
ATOM     23  H   UNL     1       7.808  15.639  -0.383  1.00  0.00     0.293 HD
ENDBRANCH   6  22
BRANCH   8  24
ATOM     24  O   UNL     1      13.192  17.555  -0.485  1.00  0.00    -0.508 OA
ATOM     25  H   UNL     1      13.232  18.119   0.356  1.00  0.00     0.293 HD
ENDBRANCH   8  24
TORSDOF 5
ENDMDL
