MODEL 1
REMARK VINA RESULT:    -2.204      0.000      0.000
REMARK INTER + INTRA:          -5.073
REMARK INTER:                  -4.265
REMARK INTRA:                  -0.808
REMARK UNBOUND:                -0.808
REMARK SMILES CCCCCCCCCCCCCCCCCC(=O)[O-]
REMARK SMILES IDX 10 1 11 2 12 3 13 4 14 5 15 6 16 7 17 8 18 9 19 10 20 11
REMARK SMILES IDX 9 12 8 13 7 14 6 15 5 16 4 17 3 18 2 19 1 20
REMARK H PARENT
REMARK Flexibility Score: inf
ROOT
ATOM      1  C   UNL     1       5.834  14.403  18.258  1.00  0.00     0.000 C 
ENDROOT
BRANCH   1   2
ATOM      2  C   UNL     1       4.509  13.783  17.789  1.00  0.00     0.000 C 
BRANCH   2   3
ATOM      3  C   UNL     1       4.053  14.312  16.418  1.00  0.00     0.000 C 
BRANCH   3   4
ATOM      4  C   UNL     1       2.579  14.023  16.066  1.00  0.00     0.000 C 
BRANCH   4   5
ATOM      5  C   UNL     1       2.320  13.661  14.591  1.00  0.00     0.000 C 
BRANCH   5   6
ATOM      6  C   UNL     1       2.882  14.665  13.564  1.00  0.00     0.000 C 
BRANCH   6   7
ATOM      7  C   UNL     1       4.030  14.127  12.691  1.00  0.00     0.006 C 
BRANCH   7   8
ATOM      8  C   UNL     1       3.546  13.170  11.594  1.00  0.00     0.053 C 
BRANCH   8   9
ATOM      9  C   UNL     1       4.066  13.600  10.258  1.00  0.00     0.041 C 
ATOM     10  O   UNL     1       5.302  13.562  10.018  1.00  0.00    -0.550 OA
ATOM     11  O   UNL     1       3.182  13.998   9.263  1.00  0.00    -0.550 OA
ENDBRANCH   8   9
ENDBRANCH   7   8
ENDBRANCH   6   7
ENDBRANCH   5   6
ENDBRANCH   4   5
ENDBRANCH   3   4
ENDBRANCH   2   3
ENDBRANCH   1   2
BRANCH   1  12
ATOM     12  C   UNL     1       5.690  15.010  19.659  1.00  0.00     0.000 C 
BRANCH  12  13
ATOM     13  C   UNL     1       5.277  16.488  19.578  1.00  0.00    -0.000 C 
BRANCH  13  14
ATOM     14  C   UNL     1       6.112  17.389  20.503  1.00  0.00    -0.000 C 
BRANCH  14  15
ATOM     15  C   UNL     1       5.985  16.991  21.984  1.00  0.00    -0.000 C 
BRANCH  15  16
ATOM     16  C   UNL     1       5.317  18.085  22.833  1.00  0.00    -0.000 C 
BRANCH  16  17
ATOM     17  C   UNL     1       6.320  19.119  23.368  1.00  0.00    -0.000 C 
BRANCH  17  18
ATOM     18  C   UNL     1       7.641  18.445  23.769  1.00  0.00    -0.000 C 
BRANCH  18  19
ATOM     19  C   UNL     1       7.570  17.779  25.152  1.00  0.00    -0.003 C 
ATOM     20  C   UNL     1       7.705  16.258  25.084  1.00  0.00     0.004 C 
ENDBRANCH  18  19
ENDBRANCH  17  18
ENDBRANCH  16  17
ENDBRANCH  15  16
ENDBRANCH  14  15
ENDBRANCH  13  14
ENDBRANCH  12  13
ENDBRANCH   1  12
TORSDOF 16
ENDMDL
MODEL 2
REMARK VINA RESULT:    -2.128      5.184     11.283
REMARK INTER + INTRA:          -4.926
REMARK INTER:                  -4.424
REMARK INTRA:                  -0.501
REMARK UNBOUND:                -0.808
REMARK SMILES CCCCCCCCCCCCCCCCCC(=O)[O-]
REMARK SMILES IDX 10 1 11 2 12 3 13 4 14 5 15 6 16 7 17 8 18 9 19 10 20 11
REMARK SMILES IDX 9 12 8 13 7 14 6 15 5 16 4 17 3 18 2 19 1 20
REMARK H PARENT
REMARK Flexibility Score: inf
ROOT
ATOM      1  C   UNL     1       5.754  14.490  18.153  1.00  0.00     0.000 C 
ENDROOT
BRANCH   1   2
ATOM      2  C   UNL     1       5.725  14.872  19.641  1.00  0.00     0.000 C 
BRANCH   2   3
ATOM      3  C   UNL     1       5.420  16.363  19.870  1.00  0.00     0.000 C 
BRANCH   3   4
ATOM      4  C   UNL     1       6.246  17.032  20.988  1.00  0.00     0.000 C 
BRANCH   4   5
ATOM      5  C   UNL     1       5.482  17.284  22.302  1.00  0.00     0.000 C 
BRANCH   5   6
ATOM      6  C   UNL     1       5.501  18.744  22.799  1.00  0.00     0.000 C 
BRANCH   6   7
ATOM      7  C   UNL     1       6.511  19.033  23.923  1.00  0.00     0.006 C 
BRANCH   7   8
ATOM      8  C   UNL     1       7.721  18.089  23.895  1.00  0.00     0.053 C 
BRANCH   8   9
ATOM      9  C   UNL     1       7.786  17.286  25.155  1.00  0.00     0.041 C 
ATOM     10  O   UNL     1       8.276  17.788  26.202  1.00  0.00    -0.550 OA
ATOM     11  O   UNL     1       7.262  15.999  25.188  1.00  0.00    -0.550 OA
ENDBRANCH   8   9
ENDBRANCH   7   8
ENDBRANCH   6   7
ENDBRANCH   5   6
ENDBRANCH   4   5
ENDBRANCH   3   4
ENDBRANCH   2   3
ENDBRANCH   1   2
BRANCH   1  12
ATOM     12  C   UNL     1       4.439  13.824  17.731  1.00  0.00     0.000 C 
BRANCH  12  13
ATOM     13  C   UNL     1       4.085  14.177  16.278  1.00  0.00    -0.000 C 
BRANCH  13  14
ATOM     14  C   UNL     1       2.577  14.078  15.994  1.00  0.00    -0.000 C 
BRANCH  14  15
ATOM     15  C   UNL     1       2.273  13.841  14.504  1.00  0.00    -0.000 C 
BRANCH  15  16
ATOM     16  C   UNL     1       3.457  14.203  13.594  1.00  0.00    -0.000 C 
BRANCH  16  17
ATOM     17  C   UNL     1       3.634  13.221  12.426  1.00  0.00    -0.000 C 
BRANCH  17  18
ATOM     18  C   UNL     1       4.016  13.965  11.137  1.00  0.00    -0.000 C 
BRANCH  18  19
ATOM     19  C   UNL     1       4.594  13.029  10.064  1.00  0.00    -0.003 C 
ATOM     20  C   UNL     1       5.832  13.608   9.379  1.00  0.00     0.004 C 
ENDBRANCH  18  19
ENDBRANCH  17  18
ENDBRANCH  16  17
ENDBRANCH  15  16
ENDBRANCH  14  15
ENDBRANCH  13  14
ENDBRANCH  12  13
ENDBRANCH   1  12
TORSDOF 16
ENDMDL
MODEL 3
REMARK VINA RESULT:    -1.369      5.237     10.958
REMARK INTER + INTRA:          -3.457
REMARK INTER:                  -2.878
REMARK INTRA:                  -0.580
REMARK UNBOUND:                -0.808
REMARK SMILES CCCCCCCCCCCCCCCCCC(=O)[O-]
REMARK SMILES IDX 10 1 11 2 12 3 13 4 14 5 15 6 16 7 17 8 18 9 19 10 20 11
REMARK SMILES IDX 9 12 8 13 7 14 6 15 5 16 4 17 3 18 2 19 1 20
REMARK H PARENT
REMARK Flexibility Score: inf
ROOT
ATOM      1  C   UNL     1       5.268  16.182  19.625  1.00  0.00     0.000 C 
ENDROOT
BRANCH   1   2
ATOM      2  C   UNL     1       6.395  17.037  20.223  1.00  0.00     0.000 C 
BRANCH   2   3
ATOM      3  C   UNL     1       6.462  16.951  21.758  1.00  0.00     0.000 C 
BRANCH   3   4
ATOM      4  C   UNL     1       5.171  17.371  22.491  1.00  0.00     0.000 C 
BRANCH   4   5
ATOM      5  C   UNL     1       4.887  18.885  22.495  1.00  0.00     0.000 C 
BRANCH   5   6
ATOM      6  C   UNL     1       5.295  19.623  23.786  1.00  0.00     0.000 C 
BRANCH   6   7
ATOM      7  C   UNL     1       5.939  18.735  24.865  1.00  0.00     0.006 C 
BRANCH   7   8
ATOM      8  C   UNL     1       7.425  18.457  24.600  1.00  0.00     0.053 C 
BRANCH   8   9
ATOM      9  C   UNL     1       7.909  17.334  25.462  1.00  0.00     0.041 C 
ATOM     10  O   UNL     1       8.630  17.572  26.466  1.00  0.00    -0.550 OA
ATOM     11  O   UNL     1       7.524  16.029  25.184  1.00  0.00    -0.550 OA
ENDBRANCH   8   9
ENDBRANCH   7   8
ENDBRANCH   6   7
ENDBRANCH   5   6
ENDBRANCH   4   5
ENDBRANCH   3   4
ENDBRANCH   2   3
ENDBRANCH   1   2
BRANCH   1  12
ATOM     12  C   UNL     1       5.700  14.717  19.493  1.00  0.00     0.000 C 
BRANCH  12  13
ATOM     13  C   UNL     1       5.706  14.275  18.023  1.00  0.00    -0.000 C 
BRANCH  13  14
ATOM     14  C   UNL     1       4.348  13.717  17.565  1.00  0.00    -0.000 C 
BRANCH  14  15
ATOM     15  C   UNL     1       3.898  14.299  16.213  1.00  0.00    -0.000 C 
BRANCH  15  16
ATOM     16  C   UNL     1       2.418  14.012  15.910  1.00  0.00    -0.000 C 
BRANCH  16  17
ATOM     17  C   UNL     1       2.164  13.695  14.429  1.00  0.00    -0.000 C 
BRANCH  17  18
ATOM     18  C   UNL     1       3.239  14.336  13.538  1.00  0.00    -0.000 C 
BRANCH  18  19
ATOM     19  C   UNL     1       3.811  13.356  12.501  1.00  0.00    -0.003 C 
ATOM     20  C   UNL     1       4.033  14.004  11.134  1.00  0.00     0.004 C 
ENDBRANCH  18  19
ENDBRANCH  17  18
ENDBRANCH  16  17
ENDBRANCH  15  16
ENDBRANCH  14  15
ENDBRANCH  13  14
ENDBRANCH  12  13
ENDBRANCH   1  12
TORSDOF 16
ENDMDL
MODEL 4
REMARK VINA RESULT:    -1.346      4.946     11.212
REMARK INTER + INTRA:          -3.413
REMARK INTER:                  -2.946
REMARK INTRA:                  -0.466
REMARK UNBOUND:                -0.808
REMARK SMILES CCCCCCCCCCCCCCCCCC(=O)[O-]
REMARK SMILES IDX 10 1 11 2 12 3 13 4 14 5 15 6 16 7 17 8 18 9 19 10 20 11
REMARK SMILES IDX 9 12 8 13 7 14 6 15 5 16 4 17 3 18 2 19 1 20
REMARK H PARENT
REMARK Flexibility Score: inf
ROOT
ATOM      1  C   UNL     1       4.180  14.733  17.595  1.00  0.00     0.000 C 
ENDROOT
BRANCH   1   2
ATOM      2  C   UNL     1       5.544  14.366  18.198  1.00  0.00     0.000 C 
BRANCH   2   3
ATOM      3  C   UNL     1       5.670  14.759  19.680  1.00  0.00     0.000 C 
BRANCH   3   4
ATOM      4  C   UNL     1       5.423  16.252  19.981  1.00  0.00     0.000 C 
BRANCH   4   5
ATOM      5  C   UNL     1       6.605  16.987  20.642  1.00  0.00     0.000 C 
BRANCH   5   6
ATOM      6  C   UNL     1       6.645  16.910  22.182  1.00  0.00     0.000 C 
BRANCH   6   7
ATOM      7  C   UNL     1       7.603  17.907  22.857  1.00  0.00     0.006 C 
BRANCH   7   8
ATOM      8  C   UNL     1       7.198  18.240  24.299  1.00  0.00     0.053 C 
BRANCH   8   9
ATOM      9  C   UNL     1       5.935  19.042  24.315  1.00  0.00     0.041 C 
ATOM     10  O   UNL     1       5.271  19.157  25.378  1.00  0.00    -0.550 OA
ATOM     11  O   UNL     1       5.518  19.703  23.166  1.00  0.00    -0.550 OA
ENDBRANCH   8   9
ENDBRANCH   7   8
ENDBRANCH   6   7
ENDBRANCH   5   6
ENDBRANCH   4   5
ENDBRANCH   3   4
ENDBRANCH   2   3
ENDBRANCH   1   2
BRANCH   1  12
ATOM     12  C   UNL     1       3.916  13.940  16.310  1.00  0.00     0.000 C 
BRANCH  12  13
ATOM     13  C   UNL     1       2.422  13.949  15.955  1.00  0.00    -0.000 C 
BRANCH  13  14
ATOM     14  C   UNL     1       2.163  13.647  14.470  1.00  0.00    -0.000 C 
BRANCH  14  15
ATOM     15  C   UNL     1       2.877  14.638  13.534  1.00  0.00    -0.000 C 
BRANCH  15  16
ATOM     16  C   UNL     1       4.080  14.009  12.813  1.00  0.00    -0.000 C 
BRANCH  16  17
ATOM     17  C   UNL     1       3.665  13.082  11.661  1.00  0.00    -0.000 C 
BRANCH  17  18
ATOM     18  C   UNL     1       3.618  13.848  10.330  1.00  0.00    -0.000 C 
BRANCH  18  19
ATOM     19  C   UNL     1       4.562  13.256   9.272  1.00  0.00    -0.003 C 
ATOM     20  C   UNL     1       6.013  13.698   9.461  1.00  0.00     0.004 C 
ENDBRANCH  18  19
ENDBRANCH  17  18
ENDBRANCH  16  17
ENDBRANCH  15  16
ENDBRANCH  14  15
ENDBRANCH  13  14
ENDBRANCH  12  13
ENDBRANCH   1  12
TORSDOF 16
ENDMDL
MODEL 5
REMARK VINA RESULT:    -1.019      1.348      2.516
REMARK INTER + INTRA:          -2.779
REMARK INTER:                  -2.300
REMARK INTRA:                  -0.479
REMARK UNBOUND:                -0.808
REMARK SMILES CCCCCCCCCCCCCCCCCC(=O)[O-]
REMARK SMILES IDX 10 1 11 2 12 3 13 4 14 5 15 6 16 7 17 8 18 9 19 10 20 11
REMARK SMILES IDX 9 12 8 13 7 14 6 15 5 16 4 17 3 18 2 19 1 20
REMARK H PARENT
REMARK Flexibility Score: inf
ROOT
ATOM      1  C   UNL     1       5.270  16.049  20.131  1.00  0.00     0.000 C 
ENDROOT
BRANCH   1   2
ATOM      2  C   UNL     1       5.580  14.624  19.649  1.00  0.00     0.000 C 
BRANCH   2   3
ATOM      3  C   UNL     1       5.578  14.496  18.116  1.00  0.00     0.000 C 
BRANCH   3   4
ATOM      4  C   UNL     1       4.425  13.653  17.534  1.00  0.00     0.000 C 
BRANCH   4   5
ATOM      5  C   UNL     1       3.664  14.307  16.364  1.00  0.00     0.000 C 
BRANCH   5   6
ATOM      6  C   UNL     1       2.273  13.708  16.073  1.00  0.00     0.000 C 
BRANCH   6   7
ATOM      7  C   UNL     1       1.817  13.808  14.607  1.00  0.00     0.006 C 
BRANCH   7   8
ATOM      8  C   UNL     1       2.876  13.304  13.617  1.00  0.00     0.053 C 
BRANCH   8   9
ATOM      9  C   UNL     1       3.308  14.410  12.706  1.00  0.00     0.041 C 
ATOM     10  O   UNL     1       3.078  15.610  13.014  1.00  0.00    -0.550 OA
ATOM     11  O   UNL     1       4.007  14.118  11.542  1.00  0.00    -0.550 OA
ENDBRANCH   8   9
ENDBRANCH   7   8
ENDBRANCH   6   7
ENDBRANCH   5   6
ENDBRANCH   4   5
ENDBRANCH   3   4
ENDBRANCH   2   3
ENDBRANCH   1   2
BRANCH   1  12
ATOM     12  C   UNL     1       6.560  16.812  20.456  1.00  0.00     0.000 C 
BRANCH  12  13
ATOM     13  C   UNL     1       6.516  17.386  21.880  1.00  0.00    -0.000 C 
BRANCH  13  14
ATOM     14  C   UNL     1       5.196  18.112  22.187  1.00  0.00    -0.000 C 
BRANCH  14  15
ATOM     15  C   UNL     1       5.373  19.249  23.210  1.00  0.00    -0.000 C 
BRANCH  15  16
ATOM     16  C   UNL     1       6.388  18.901  24.310  1.00  0.00    -0.000 C 
BRANCH  16  17
ATOM     17  C   UNL     1       6.079  17.566  25.005  1.00  0.00    -0.000 C 
BRANCH  17  18
ATOM     18  C   UNL     1       7.351  16.718  25.154  1.00  0.00    -0.000 C 
BRANCH  18  19
ATOM     19  C   UNL     1       8.547  17.531  25.674  1.00  0.00    -0.003 C 
ATOM     20  C   UNL     1       8.401  17.923  27.144  1.00  0.00     0.004 C 
ENDBRANCH  18  19
ENDBRANCH  17  18
ENDBRANCH  16  17
ENDBRANCH  15  16
ENDBRANCH  14  15
ENDBRANCH  13  14
ENDBRANCH  12  13
ENDBRANCH   1  12
TORSDOF 16
ENDMDL
MODEL 6
REMARK VINA RESULT:    -0.661      5.278     10.532
REMARK INTER + INTRA:          -2.088
REMARK INTER:                  -1.079
REMARK INTRA:                  -1.008
REMARK UNBOUND:                -0.808
REMARK SMILES CCCCCCCCCCCCCCCCCC(=O)[O-]
REMARK SMILES IDX 10 1 11 2 12 3 13 4 14 5 15 6 16 7 17 8 18 9 19 10 20 11
REMARK SMILES IDX 9 12 8 13 7 14 6 15 5 16 4 17 3 18 2 19 1 20
REMARK H PARENT
REMARK Flexibility Score: inf
ROOT
ATOM      1  C   UNL     1       5.509  15.045  18.400  1.00  0.00     0.000 C 
ENDROOT
BRANCH   1   2
ATOM      2  C   UNL     1       5.891  14.964  19.885  1.00  0.00     0.000 C 
BRANCH   2   3
ATOM      3  C   UNL     1       5.915  16.339  20.574  1.00  0.00     0.000 C 
BRANCH   3   4
ATOM      4  C   UNL     1       4.613  16.723  21.308  1.00  0.00     0.000 C 
BRANCH   4   5
ATOM      5  C   UNL     1       4.812  17.388  22.684  1.00  0.00     0.000 C 
BRANCH   5   6
ATOM      6  C   UNL     1       5.598  18.715  22.660  1.00  0.00     0.000 C 
BRANCH   6   7
ATOM      7  C   UNL     1       6.431  18.998  23.923  1.00  0.00     0.006 C 
BRANCH   7   8
ATOM      8  C   UNL     1       7.769  18.247  23.937  1.00  0.00     0.053 C 
BRANCH   8   9
ATOM      9  C   UNL     1       7.842  17.333  25.119  1.00  0.00     0.041 C 
ATOM     10  O   UNL     1       7.449  16.140  25.023  1.00  0.00    -0.550 OA
ATOM     11  O   UNL     1       8.390  17.784  26.313  1.00  0.00    -0.550 OA
ENDBRANCH   8   9
ENDBRANCH   7   8
ENDBRANCH   6   7
ENDBRANCH   5   6
ENDBRANCH   4   5
ENDBRANCH   3   4
ENDBRANCH   2   3
ENDBRANCH   1   2
BRANCH   1  12
ATOM     12  C   UNL     1       5.695  13.689  17.709  1.00  0.00     0.000 C 
BRANCH  12  13
ATOM     13  C   UNL     1       7.014  13.648  16.924  1.00  0.00    -0.000 C 
BRANCH  13  14
ATOM     14  C   UNL     1       6.799  13.633  15.402  1.00  0.00    -0.000 C 
BRANCH  14  15
ATOM     15  C   UNL     1       5.334  13.903  15.012  1.00  0.00    -0.000 C 
BRANCH  15  16
ATOM     16  C   UNL     1       5.129  13.956  13.489  1.00  0.00    -0.000 C 
BRANCH  16  17
ATOM     17  C   UNL     1       3.657  13.791  13.081  1.00  0.00    -0.000 C 
BRANCH  17  18
ATOM     18  C   UNL     1       2.724  14.412  14.132  1.00  0.00    -0.000 C 
BRANCH  18  19
ATOM     19  C   UNL     1       1.741  13.391  14.727  1.00  0.00    -0.003 C 
ATOM     20  C   UNL     1       1.779  13.356  16.255  1.00  0.00     0.004 C 
ENDBRANCH  18  19
ENDBRANCH  17  18
ENDBRANCH  16  17
ENDBRANCH  15  16
ENDBRANCH  14  15
ENDBRANCH  13  14
ENDBRANCH  12  13
ENDBRANCH   1  12
TORSDOF 16
ENDMDL
MODEL 7
REMARK VINA RESULT:    -0.654      2.049      2.908
REMARK INTER + INTRA:          -2.074
REMARK INTER:                  -0.939
REMARK INTRA:                  -1.134
REMARK UNBOUND:                -0.808
REMARK SMILES CCCCCCCCCCCCCCCCCC(=O)[O-]
REMARK SMILES IDX 10 1 11 2 12 3 13 4 14 5 15 6 16 7 17 8 18 9 19 10 20 11
REMARK SMILES IDX 9 12 8 13 7 14 6 15 5 16 4 17 3 18 2 19 1 20
REMARK H PARENT
REMARK Flexibility Score: inf
ROOT
ATOM      1  C   UNL     1       5.487  15.670  19.608  1.00  0.00     0.000 C 
ENDROOT
BRANCH   1   2
ATOM      2  C   UNL     1       5.819  14.218  19.232  1.00  0.00     0.000 C 
BRANCH   2   3
ATOM      3  C   UNL     1       5.831  13.980  17.712  1.00  0.00     0.000 C 
BRANCH   3   4
ATOM      4  C   UNL     1       7.203  13.596  17.123  1.00  0.00     0.000 C 
BRANCH   4   5
ATOM      5  C   UNL     1       7.345  13.814  15.604  1.00  0.00     0.000 C 
BRANCH   5   6
ATOM      6  C   UNL     1       6.197  13.239  14.751  1.00  0.00     0.000 C 
BRANCH   6   7
ATOM      7  C   UNL     1       5.247  14.288  14.148  1.00  0.00     0.006 C 
BRANCH   7   8
ATOM      8  C   UNL     1       4.086  13.661  13.365  1.00  0.00     0.053 C 
BRANCH   8   9
ATOM      9  C   UNL     1       2.793  14.318  13.732  1.00  0.00     0.041 C 
ATOM     10  O   UNL     1       2.557  15.500  13.367  1.00  0.00    -0.550 OA
ATOM     11  O   UNL     1       1.828  13.609  14.437  1.00  0.00    -0.550 OA
ENDBRANCH   8   9
ENDBRANCH   7   8
ENDBRANCH   6   7
ENDBRANCH   5   6
ENDBRANCH   4   5
ENDBRANCH   3   4
ENDBRANCH   2   3
ENDBRANCH   1   2
BRANCH   1  12
ATOM     12  C   UNL     1       6.701  16.367  20.235  1.00  0.00     0.000 C 
BRANCH  12  13
ATOM     13  C   UNL     1       6.262  17.384  21.299  1.00  0.00    -0.000 C 
BRANCH  13  14
ATOM     14  C   UNL     1       4.968  16.969  22.018  1.00  0.00    -0.000 C 
BRANCH  14  15
ATOM     15  C   UNL     1       4.526  17.997  23.075  1.00  0.00    -0.000 C 
BRANCH  15  16
ATOM     16  C   UNL     1       5.591  19.075  23.332  1.00  0.00    -0.000 C 
BRANCH  16  17
ATOM     17  C   UNL     1       6.401  18.817  24.612  1.00  0.00    -0.000 C 
BRANCH  17  18
ATOM     18  C   UNL     1       7.832  18.372  24.275  1.00  0.00    -0.000 C 
BRANCH  18  19
ATOM     19  C   UNL     1       8.289  17.166  25.111  1.00  0.00    -0.003 C 
ATOM     20  C   UNL     1       7.294  16.006  25.068  1.00  0.00     0.004 C 
ENDBRANCH  18  19
ENDBRANCH  17  18
ENDBRANCH  16  17
ENDBRANCH  15  16
ENDBRANCH  14  15
ENDBRANCH  13  14
ENDBRANCH  12  13
ENDBRANCH   1  12
TORSDOF 16
ENDMDL
MODEL 8
REMARK VINA RESULT:    -0.229      5.334     10.693
REMARK INTER + INTRA:          -1.251
REMARK INTER:                  -0.291
REMARK INTRA:                  -0.960
REMARK UNBOUND:                -0.808
REMARK SMILES CCCCCCCCCCCCCCCCCC(=O)[O-]
REMARK SMILES IDX 10 1 11 2 12 3 13 4 14 5 15 6 16 7 17 8 18 9 19 10 20 11
REMARK SMILES IDX 9 12 8 13 7 14 6 15 5 16 4 17 3 18 2 19 1 20
REMARK H PARENT
REMARK Flexibility Score: inf
ROOT
ATOM      1  C   UNL     1       5.375  16.334  19.450  1.00  0.00     0.000 C 
ENDROOT
BRANCH   1   2
ATOM      2  C   UNL     1       6.255  17.156  20.403  1.00  0.00     0.000 C 
BRANCH   2   3
ATOM      3  C   UNL     1       6.100  16.734  21.875  1.00  0.00     0.000 C 
BRANCH   3   4
ATOM      4  C   UNL     1       4.857  17.305  22.588  1.00  0.00     0.000 C 
BRANCH   4   5
ATOM      5  C   UNL     1       4.681  18.831  22.471  1.00  0.00     0.000 C 
BRANCH   5   6
ATOM      6  C   UNL     1       5.474  19.661  23.501  1.00  0.00     0.000 C 
BRANCH   6   7
ATOM      7  C   UNL     1       6.025  18.860  24.694  1.00  0.00     0.006 C 
BRANCH   7   8
ATOM      8  C   UNL     1       7.505  18.488  24.529  1.00  0.00     0.053 C 
BRANCH   8   9
ATOM      9  C   UNL     1       7.860  17.350  25.434  1.00  0.00     0.041 C 
ATOM     10  O   UNL     1       7.428  16.191  25.194  1.00  0.00    -0.550 OA
ATOM     11  O   UNL     1       8.708  17.560  26.514  1.00  0.00    -0.550 OA
ENDBRANCH   8   9
ENDBRANCH   7   8
ENDBRANCH   6   7
ENDBRANCH   5   6
ENDBRANCH   4   5
ENDBRANCH   3   4
ENDBRANCH   2   3
ENDBRANCH   1   2
BRANCH   1  12
ATOM     12  C   UNL     1       5.433  14.841  19.798  1.00  0.00     0.000 C 
BRANCH  12  13
ATOM     13  C   UNL     1       6.424  14.103  18.886  1.00  0.00    -0.000 C 
BRANCH  13  14
ATOM     14  C   UNL     1       5.907  13.955  17.445  1.00  0.00    -0.000 C 
BRANCH  14  15
ATOM     15  C   UNL     1       7.014  13.533  16.462  1.00  0.00    -0.000 C 
BRANCH  15  16
ATOM     16  C   UNL     1       6.584  13.673  14.993  1.00  0.00    -0.000 C 
BRANCH  16  17
ATOM     17  C   UNL     1       5.063  13.806  14.828  1.00  0.00    -0.000 C 
BRANCH  17  18
ATOM     18  C   UNL     1       4.688  14.025  13.355  1.00  0.00    -0.000 C 
BRANCH  18  19
ATOM     19  C   UNL     1       3.222  14.451  13.174  1.00  0.00    -0.003 C 
ATOM     20  C   UNL     1       2.379  14.217  14.428  1.00  0.00     0.004 C 
ENDBRANCH  18  19
ENDBRANCH  17  18
ENDBRANCH  16  17
ENDBRANCH  15  16
ENDBRANCH  14  15
ENDBRANCH  13  14
ENDBRANCH  12  13
ENDBRANCH   1  12
TORSDOF 16
ENDMDL
MODEL 9
REMARK VINA RESULT:    -0.184     18.909     21.198
REMARK INTER + INTRA:          -1.164
REMARK INTER:                  -1.810
REMARK INTRA:                   0.646
REMARK UNBOUND:                -0.808
REMARK SMILES CCCCCCCCCCCCCCCCCC(=O)[O-]
REMARK SMILES IDX 10 1 11 2 12 3 13 4 14 5 15 6 16 7 17 8 18 9 19 10 20 11
REMARK SMILES IDX 9 12 8 13 7 14 6 15 5 16 4 17 3 18 2 19 1 20
REMARK H PARENT
REMARK Flexibility Score: inf
ROOT
ATOM      1  C   UNL     1       1.320  30.812  25.891  1.00  0.00     0.000 C 
ENDROOT
BRANCH   1   2
ATOM      2  C   UNL     1       2.603  31.289  26.588  1.00  0.00     0.000 C 
BRANCH   2   3
ATOM      3  C   UNL     1       3.053  30.351  27.721  1.00  0.00     0.000 C 
BRANCH   3   4
ATOM      4  C   UNL     1       3.356  31.049  29.063  1.00  0.00     0.000 C 
BRANCH   4   5
ATOM      5  C   UNL     1       3.842  32.506  28.944  1.00  0.00     0.000 C 
BRANCH   5   6
ATOM      6  C   UNL     1       5.361  32.706  29.123  1.00  0.00     0.000 C 
BRANCH   6   7
ATOM      7  C   UNL     1       6.205  32.419  27.868  1.00  0.00     0.006 C 
BRANCH   7   8
ATOM      8  C   UNL     1       7.567  33.125  27.893  1.00  0.00     0.053 C 
BRANCH   8   9
ATOM      9  C   UNL     1       8.589  32.265  28.568  1.00  0.00     0.041 C 
ATOM     10  O   UNL     1       8.298  31.090  28.916  1.00  0.00    -0.550 OA
ATOM     11  O   UNL     1       9.877  32.745  28.771  1.00  0.00    -0.550 OA
ENDBRANCH   8   9
ENDBRANCH   7   8
ENDBRANCH   6   7
ENDBRANCH   5   6
ENDBRANCH   4   5
ENDBRANCH   3   4
ENDBRANCH   2   3
ENDBRANCH   1   2
BRANCH   1  12
ATOM     12  C   UNL     1       0.154  31.769  26.171  1.00  0.00     0.000 C 
BRANCH  12  13
ATOM     13  C   UNL     1       0.553  32.833  27.204  1.00  0.00    -0.000 C 
BRANCH  13  14
ATOM     14  C   UNL     1      -0.474  32.970  28.341  1.00  0.00    -0.000 C 
BRANCH  14  15
ATOM     15  C   UNL     1      -1.857  32.415  27.955  1.00  0.00    -0.000 C 
BRANCH  15  16
ATOM     16  C   UNL     1      -2.267  32.794  26.523  1.00  0.00    -0.000 C 
BRANCH  16  17
ATOM     17  C   UNL     1      -2.696  31.579  25.686  1.00  0.00    -0.000 C 
BRANCH  17  18
ATOM     18  C   UNL     1      -3.183  30.436  26.588  1.00  0.00    -0.000 C 
BRANCH  18  19
ATOM     19  C   UNL     1      -4.500  30.768  27.306  1.00  0.00    -0.003 C 
ATOM     20  C   UNL     1      -4.450  30.468  28.804  1.00  0.00     0.004 C 
ENDBRANCH  18  19
ENDBRANCH  17  18
ENDBRANCH  16  17
ENDBRANCH  15  16
ENDBRANCH  14  15
ENDBRANCH  13  14
ENDBRANCH  12  13
ENDBRANCH   1  12
TORSDOF 16
ENDMDL
