MODEL 1
REMARK VINA RESULT:    -1.517      0.000      0.000
REMARK INTER + INTRA:          -2.098
REMARK INTER:                  -1.783
REMARK INTRA:                  -0.315
REMARK UNBOUND:                -0.315
REMARK SMILES O=c1cc(-c2ccc(O)c(O)c2)oc2cc(O)cc(O)c12
REMARK SMILES IDX 4 1 3 2 2 3 1 4 21 5 19 6 18 7 16 8 15 9 14 10 13 11 5 12
REMARK SMILES IDX 6 13 7 14 8 15 12 16 10 17 9 18 11 20 20 22 17 24
REMARK H PARENT 9 19 11 21 20 23 17 25
REMARK Flexibility Score: inf
ROOT
ATOM      1  C   UNL     1      20.386  -4.534  34.617  1.00  0.00     0.138 A 
ATOM      2  C   UNL     1      21.424  -4.967  33.775  1.00  0.00     0.100 A 
ATOM      3  C   UNL     1      21.176  -5.970  32.837  1.00  0.00     0.197 A 
ATOM      4  O   UNL     1      22.115  -6.352  32.088  1.00  0.00    -0.289 OA
ATOM      5  C   UNL     1      19.890  -6.537  32.750  1.00  0.00     0.107 A 
ATOM      6  C   UNL     1      19.553  -7.556  31.828  1.00  0.00     0.134 A 
ATOM      7  C   UNL     1      18.248  -8.072  31.807  1.00  0.00     0.093 A 
ATOM      8  C   UNL     1      17.278  -7.592  32.690  1.00  0.00     0.123 A 
ATOM      9  C   UNL     1      17.604  -6.584  33.604  1.00  0.00     0.094 A 
ATOM     10  C   UNL     1      18.899  -6.056  33.639  1.00  0.00     0.146 A 
ATOM     11  O   UNL     1      19.184  -5.098  34.516  1.00  0.00    -0.456 OA
ENDROOT
BRANCH   1  12
ATOM     12  C   UNL     1      20.593  -3.473  35.634  1.00  0.00     0.021 A 
ATOM     13  C   UNL     1      21.901  -3.114  36.000  1.00  0.00     0.016 A 
ATOM     14  C   UNL     1      22.124  -2.124  36.962  1.00  0.00     0.051 A 
ATOM     15  C   UNL     1      21.043  -1.484  37.580  1.00  0.00     0.157 A 
ATOM     16  C   UNL     1      19.511  -2.835  36.270  1.00  0.00     0.062 A 
ATOM     17  C   UNL     1      19.731  -1.844  37.235  1.00  0.00     0.158 A 
BRANCH  15  18
ATOM     18  O   UNL     1      21.270  -0.496  38.537  1.00  0.00    -0.504 OA
ATOM     19  H   UNL     1      21.801   0.339  38.323  1.00  0.00     0.293 HD
ENDBRANCH  15  18
BRANCH  17  20
ATOM     20  O   UNL     1      18.634  -1.233  37.840  1.00  0.00    -0.504 OA
ATOM     21  H   UNL     1      18.131  -0.472  37.399  1.00  0.00     0.293 HD
ENDBRANCH  17  20
ENDBRANCH   1  12
BRANCH   6  22
ATOM     22  O   UNL     1      20.500  -8.057  30.934  1.00  0.00    -0.507 OA
ATOM     23  H   UNL     1      20.676  -9.051  30.845  1.00  0.00     0.293 HD
ENDBRANCH   6  22
BRANCH   8  24
ATOM     24  O   UNL     1      15.990  -8.123  32.649  1.00  0.00    -0.508 OA
ATOM     25  H   UNL     1      15.552  -8.512  33.476  1.00  0.00     0.293 HD
ENDBRANCH   8  24
TORSDOF 5
ENDMDL
MODEL 2
REMARK VINA RESULT:    -0.312      4.018      6.930
REMARK INTER + INTRA:          -0.681
REMARK INTER:                  -0.384
REMARK INTRA:                  -0.297
REMARK UNBOUND:                -0.315
REMARK SMILES O=c1cc(-c2ccc(O)c(O)c2)oc2cc(O)cc(O)c12
REMARK SMILES IDX 4 1 3 2 2 3 1 4 21 5 19 6 18 7 16 8 15 9 14 10 13 11 5 12
REMARK SMILES IDX 6 13 7 14 8 15 12 16 10 17 9 18 11 20 20 22 17 24
REMARK H PARENT 9 19 11 21 20 23 17 25
REMARK Flexibility Score: inf
ROOT
ATOM      1  C   UNL     1      16.891  -7.984  34.620  1.00  0.00     0.138 A 
ATOM      2  C   UNL     1      17.386  -8.073  33.308  1.00  0.00     0.100 A 
ATOM      3  C   UNL     1      18.764  -8.042  33.089  1.00  0.00     0.197 A 
ATOM      4  O   UNL     1      19.198  -8.121  31.909  1.00  0.00    -0.289 OA
ATOM      5  C   UNL     1      19.639  -7.919  34.187  1.00  0.00     0.107 A 
ATOM      6  C   UNL     1      21.047  -7.883  34.054  1.00  0.00     0.134 A 
ATOM      7  C   UNL     1      21.850  -7.753  35.198  1.00  0.00     0.093 A 
ATOM      8  C   UNL     1      21.273  -7.659  36.466  1.00  0.00     0.123 A 
ATOM      9  C   UNL     1      19.882  -7.696  36.604  1.00  0.00     0.094 A 
ATOM     10  C   UNL     1      19.064  -7.825  35.477  1.00  0.00     0.146 A 
ATOM     11  O   UNL     1      17.745  -7.859  35.634  1.00  0.00    -0.456 OA
ENDROOT
BRANCH   1  12
ATOM     12  C   UNL     1      15.436  -8.009  34.911  1.00  0.00     0.021 A 
ATOM     13  C   UNL     1      14.999  -8.026  36.247  1.00  0.00     0.016 A 
ATOM     14  C   UNL     1      13.634  -8.059  36.548  1.00  0.00     0.051 A 
ATOM     15  C   UNL     1      12.684  -8.084  35.520  1.00  0.00     0.157 A 
ATOM     16  C   UNL     1      14.475  -8.049  33.882  1.00  0.00     0.062 A 
ATOM     17  C   UNL     1      13.107  -8.083  34.181  1.00  0.00     0.158 A 
BRANCH  15  18
ATOM     18  O   UNL     1      11.325  -8.114  35.824  1.00  0.00    -0.504 OA
ATOM     19  H   UNL     1      10.722  -7.320  35.645  1.00  0.00     0.293 HD
ENDBRANCH  15  18
BRANCH  17  20
ATOM     20  O   UNL     1      12.187  -8.119  33.135  1.00  0.00    -0.504 OA
ATOM     21  H   UNL     1      12.291  -8.748  32.347  1.00  0.00     0.293 HD
ENDBRANCH  17  20
ENDBRANCH   1  12
BRANCH   6  22
ATOM     22  O   UNL     1      21.652  -7.974  32.800  1.00  0.00    -0.507 OA
ATOM     23  H   UNL     1      22.311  -8.712  32.578  1.00  0.00     0.293 HD
ENDBRANCH   6  22
BRANCH   8  24
ATOM     24  O   UNL     1      22.094  -7.530  37.585  1.00  0.00    -0.508 OA
ATOM     25  H   UNL     1      23.032  -7.153  37.513  1.00  0.00     0.293 HD
ENDBRANCH   8  24
TORSDOF 5
ENDMDL
MODEL 3
REMARK VINA RESULT:    -0.281      1.138      1.333
REMARK INTER + INTRA:          -0.645
REMARK INTER:                  -0.376
REMARK INTRA:                  -0.269
REMARK UNBOUND:                -0.315
REMARK SMILES O=c1cc(-c2ccc(O)c(O)c2)oc2cc(O)cc(O)c12
REMARK SMILES IDX 4 1 3 2 2 3 1 4 21 5 19 6 18 7 16 8 15 9 14 10 13 11 5 12
REMARK SMILES IDX 6 13 7 14 8 15 12 16 10 17 9 18 11 20 20 22 17 24
REMARK H PARENT 9 19 11 21 20 23 17 25
REMARK Flexibility Score: inf
ROOT
ATOM      1  C   UNL     1      20.535  -4.765  34.699  1.00  0.00     0.138 A 
ATOM      2  C   UNL     1      21.389  -5.192  33.668  1.00  0.00     0.100 A 
ATOM      3  C   UNL     1      20.939  -6.145  32.753  1.00  0.00     0.197 A 
ATOM      4  O   UNL     1      21.712  -6.522  31.832  1.00  0.00    -0.289 OA
ATOM      5  C   UNL     1      19.636  -6.667  32.878  1.00  0.00     0.107 A 
ATOM      6  C   UNL     1      19.101  -7.633  31.994  1.00  0.00     0.134 A 
ATOM      7  C   UNL     1      17.794  -8.108  32.190  1.00  0.00     0.093 A 
ATOM      8  C   UNL     1      17.018  -7.636  33.251  1.00  0.00     0.123 A 
ATOM      9  C   UNL     1      17.541  -6.681  34.128  1.00  0.00     0.094 A 
ATOM     10  C   UNL     1      18.840  -6.195  33.949  1.00  0.00     0.146 A 
ATOM     11  O   UNL     1      19.314  -5.286  34.795  1.00  0.00    -0.456 OA
ENDROOT
BRANCH   1  12
ATOM     12  C   UNL     1      20.962  -3.756  35.701  1.00  0.00     0.021 A 
ATOM     13  C   UNL     1      20.947  -4.090  37.066  1.00  0.00     0.016 A 
ATOM     14  C   UNL     1      21.335  -3.156  38.031  1.00  0.00     0.051 A 
ATOM     15  C   UNL     1      21.736  -1.870  37.648  1.00  0.00     0.157 A 
ATOM     16  C   UNL     1      21.353  -2.457  35.324  1.00  0.00     0.062 A 
ATOM     17  C   UNL     1      21.741  -1.518  36.288  1.00  0.00     0.158 A 
BRANCH  15  18
ATOM     18  O   UNL     1      22.125  -0.942  38.612  1.00  0.00    -0.504 OA
ATOM     19  H   UNL     1      21.827   0.026  38.570  1.00  0.00     0.293 HD
ENDBRANCH  15  18
BRANCH  17  20
ATOM     20  O   UNL     1      22.124  -0.243  35.876  1.00  0.00    -0.504 OA
ATOM     21  H   UNL     1      22.836   0.289  36.362  1.00  0.00     0.293 HD
ENDBRANCH  17  20
ENDBRANCH   1  12
BRANCH   6  22
ATOM     22  O   UNL     1      19.853  -8.123  30.926  1.00  0.00    -0.507 OA
ATOM     23  H   UNL     1      19.565  -8.942  30.402  1.00  0.00     0.293 HD
ENDBRANCH   6  22
BRANCH   8  24
ATOM     24  O   UNL     1      15.724  -8.125  33.423  1.00  0.00    -0.508 OA
ATOM     25  H   UNL     1      14.978  -7.888  32.779  1.00  0.00     0.293 HD
ENDBRANCH   8  24
TORSDOF 5
ENDMDL
MODEL 4
REMARK VINA RESULT:     1.060      0.839      1.578
REMARK INTER + INTRA:           0.930
REMARK INTER:                   1.225
REMARK INTRA:                  -0.295
REMARK UNBOUND:                -0.315
REMARK SMILES O=c1cc(-c2ccc(O)c(O)c2)oc2cc(O)cc(O)c12
REMARK SMILES IDX 4 1 3 2 2 3 1 4 21 5 19 6 18 7 16 8 15 9 14 10 13 11 5 12
REMARK SMILES IDX 6 13 7 14 8 15 12 16 10 17 9 18 11 20 20 22 17 24
REMARK H PARENT 9 19 11 21 20 23 17 25
REMARK Flexibility Score: inf
ROOT
ATOM      1  C   UNL     1      19.880  -4.114  34.968  1.00  0.00     0.138 A 
ATOM      2  C   UNL     1      21.051  -4.367  34.234  1.00  0.00     0.100 A 
ATOM      3  C   UNL     1      21.040  -5.343  33.237  1.00  0.00     0.197 A 
ATOM      4  O   UNL     1      22.096  -5.564  32.585  1.00  0.00    -0.289 OA
ATOM      5  C   UNL     1      19.856  -6.064  32.984  1.00  0.00     0.107 A 
ATOM      6  C   UNL     1      19.758  -7.068  31.992  1.00  0.00     0.134 A 
ATOM      7  C   UNL     1      18.543  -7.744  31.804  1.00  0.00     0.093 A 
ATOM      8  C   UNL     1      17.429  -7.437  32.589  1.00  0.00     0.123 A 
ATOM      9  C   UNL     1      17.519  -6.445  33.570  1.00  0.00     0.094 A 
ATOM     10  C   UNL     1      18.721  -5.759  33.772  1.00  0.00     0.146 A 
ATOM     11  O   UNL     1      18.781  -4.819  34.710  1.00  0.00    -0.456 OA
ENDROOT
BRANCH   1  12
ATOM     12  C   UNL     1      19.835  -3.088  36.041  1.00  0.00     0.021 A 
ATOM     13  C   UNL     1      18.591  -2.652  36.527  1.00  0.00     0.016 A 
ATOM     14  C   UNL     1      18.520  -1.682  37.530  1.00  0.00     0.051 A 
ATOM     15  C   UNL     1      19.692  -1.124  38.058  1.00  0.00     0.157 A 
ATOM     16  C   UNL     1      21.008  -2.514  36.566  1.00  0.00     0.062 A 
ATOM     17  C   UNL     1      20.941  -1.540  37.570  1.00  0.00     0.158 A 
BRANCH  15  18
ATOM     18  O   UNL     1      19.617  -0.159  39.060  1.00  0.00    -0.504 OA
ATOM     19  H   UNL     1      19.223   0.758  38.887  1.00  0.00     0.293 HD
ENDBRANCH  15  18
BRANCH  17  20
ATOM     20  O   UNL     1      22.125  -0.997  38.067  1.00  0.00    -0.504 OA
ATOM     21  H   UNL     1      22.550  -1.326  38.926  1.00  0.00     0.293 HD
ENDBRANCH  17  20
ENDBRANCH   1  12
BRANCH   6  22
ATOM     22  O   UNL     1      20.854  -7.397  31.193  1.00  0.00    -0.507 OA
ATOM     23  H   UNL     1      21.799  -7.135  31.450  1.00  0.00     0.293 HD
ENDBRANCH   6  22
BRANCH   8  24
ATOM     24  O   UNL     1      16.234  -8.125  32.383  1.00  0.00    -0.508 OA
ATOM     25  H   UNL     1      16.183  -9.134  32.465  1.00  0.00     0.293 HD
ENDBRANCH   8  24
TORSDOF 5
ENDMDL
