MODEL 1
REMARK VINA RESULT:    -5.103      0.000      0.000
REMARK INTER + INTRA:          -5.576
REMARK INTER:                  -5.550
REMARK INTRA:                  -0.026
REMARK UNBOUND:                -0.026
REMARK SMILES COc1cc2ccc(=O)oc2cc1O
REMARK SMILES IDX 3 1 13 2 12 3 11 4 5 5 4 6 6 7 7 8 8 9 9 10 10 11 2 12 1 13
REMARK SMILES IDX 14 14
REMARK H PARENT 14 15
REMARK Flexibility Score: inf
ROOT
ATOM      1  C   UNL     1       8.077  -6.818  -7.620  1.00  0.00     0.161 A 
ATOM      2  C   UNL     1       7.717  -5.472  -7.414  1.00  0.00     0.161 A 
ATOM      3  C   UNL     1       7.541  -4.614  -8.506  1.00  0.00     0.098 A 
ATOM      4  C   UNL     1       7.719  -5.081  -9.809  1.00  0.00     0.142 A 
ATOM      5  C   UNL     1       8.079  -6.428 -10.027  1.00  0.00     0.022 A 
ATOM      6  C   UNL     1       8.256  -7.291  -8.937  1.00  0.00     0.062 A 
ATOM      7  C   UNL     1       8.250  -6.867 -11.344  1.00  0.00     0.019 A 
ATOM      8  C   UNL     1       8.061  -5.971 -12.394  1.00  0.00     0.094 A 
ATOM      9  C   UNL     1       7.704  -4.650 -12.103  1.00  0.00     0.336 A 
ATOM     10  O   UNL     1       7.530  -3.825 -13.037  1.00  0.00    -0.246 OA
ATOM     11  O   UNL     1       7.548  -4.259 -10.840  1.00  0.00    -0.423 OA
ENDROOT
BRANCH   1  12
ATOM     12  O   UNL     1       8.246  -7.651  -6.503  1.00  0.00    -0.493 OA
ATOM     13  C   UNL     1       7.189  -8.336  -5.838  1.00  0.00     0.278 C 
ENDBRANCH   1  12
BRANCH   2  14
ATOM     14  O   UNL     1       7.531  -4.966  -6.127  1.00  0.00    -0.504 OA
ATOM     15  H   UNL     1       7.649  -5.538  -5.300  1.00  0.00     0.293 HD
ENDBRANCH   2  14
TORSDOF 2
ENDMDL
MODEL 2
REMARK VINA RESULT:    -5.037      2.537      2.842
REMARK INTER + INTRA:          -5.505
REMARK INTER:                  -5.441
REMARK INTRA:                  -0.063
REMARK UNBOUND:                -0.026
REMARK SMILES COc1cc2ccc(=O)oc2cc1O
REMARK SMILES IDX 3 1 13 2 12 3 11 4 5 5 4 6 6 7 7 8 8 9 9 10 10 11 2 12 1 13
REMARK SMILES IDX 14 14
REMARK H PARENT 14 15
REMARK Flexibility Score: inf
ROOT
ATOM      1  C   UNL     1       8.497  -6.143  -6.904  1.00  0.00     0.161 A 
ATOM      2  C   UNL     1       9.820  -5.737  -7.165  1.00  0.00     0.161 A 
ATOM      3  C   UNL     1      10.438  -6.078  -8.373  1.00  0.00     0.098 A 
ATOM      4  C   UNL     1       9.750  -6.823  -9.333  1.00  0.00     0.142 A 
ATOM      5  C   UNL     1       8.425  -7.235  -9.082  1.00  0.00     0.022 A 
ATOM      6  C   UNL     1       7.802  -6.895  -7.873  1.00  0.00     0.062 A 
ATOM      7  C   UNL     1       7.762  -7.981 -10.063  1.00  0.00     0.019 A 
ATOM      8  C   UNL     1       8.423  -8.293 -11.249  1.00  0.00     0.094 A 
ATOM      9  C   UNL     1       9.739  -7.851 -11.429  1.00  0.00     0.336 A 
ATOM     10  O   UNL     1      10.354  -8.123 -12.493  1.00  0.00    -0.246 OA
ATOM     11  O   UNL     1      10.345  -7.143 -10.479  1.00  0.00    -0.423 OA
ENDROOT
BRANCH   1  12
ATOM     12  O   UNL     1       7.908  -5.783  -5.681  1.00  0.00    -0.493 OA
ATOM     13  C   UNL     1       7.869  -6.615  -4.526  1.00  0.00     0.278 C 
ENDBRANCH   1  12
BRANCH   2  14
ATOM     14  O   UNL     1      10.541  -4.991  -6.231  1.00  0.00    -0.504 OA
ATOM     15  H   UNL     1      10.735  -5.336  -5.299  1.00  0.00     0.293 HD
ENDBRANCH   2  14
TORSDOF 2
ENDMDL
MODEL 3
REMARK VINA RESULT:    -4.987      1.557      2.544
REMARK INTER + INTRA:          -5.450
REMARK INTER:                  -5.404
REMARK INTRA:                  -0.046
REMARK UNBOUND:                -0.026
REMARK SMILES COc1cc2ccc(=O)oc2cc1O
REMARK SMILES IDX 3 1 13 2 12 3 11 4 5 5 4 6 6 7 7 8 8 9 9 10 10 11 2 12 1 13
REMARK SMILES IDX 14 14
REMARK H PARENT 14 15
REMARK Flexibility Score: inf
ROOT
ATOM      1  C   UNL     1       7.981  -6.474  -6.679  1.00  0.00     0.161 A 
ATOM      2  C   UNL     1       8.294  -7.749  -7.188  1.00  0.00     0.161 A 
ATOM      3  C   UNL     1       8.402  -7.950  -8.569  1.00  0.00     0.098 A 
ATOM      4  C   UNL     1       8.201  -6.890  -9.456  1.00  0.00     0.142 A 
ATOM      5  C   UNL     1       7.888  -5.608  -8.955  1.00  0.00     0.022 A 
ATOM      6  C   UNL     1       7.779  -5.403  -7.573  1.00  0.00     0.062 A 
ATOM      7  C   UNL     1       7.693  -4.566  -9.868  1.00  0.00     0.019 A 
ATOM      8  C   UNL     1       7.812  -4.820 -11.233  1.00  0.00     0.094 A 
ATOM      9  C   UNL     1       8.126  -6.117 -11.656  1.00  0.00     0.336 A 
ATOM     10  O   UNL     1       8.238  -6.367 -12.885  1.00  0.00    -0.246 OA
ATOM     11  O   UNL     1       8.306  -7.090 -10.767  1.00  0.00    -0.423 OA
ENDROOT
BRANCH   1  12
ATOM     12  O   UNL     1       7.881  -6.308  -5.287  1.00  0.00    -0.493 OA
ATOM     13  C   UNL     1       8.243  -5.123  -4.586  1.00  0.00     0.278 C 
ENDBRANCH   1  12
BRANCH   2  14
ATOM     14  O   UNL     1       8.501  -8.834  -6.336  1.00  0.00    -0.504 OA
ATOM     15  H   UNL     1       8.183  -9.769  -6.564  1.00  0.00     0.293 HD
ENDBRANCH   2  14
TORSDOF 2
ENDMDL
MODEL 4
REMARK VINA RESULT:    -4.953      1.395      5.422
REMARK INTER + INTRA:          -5.413
REMARK INTER:                  -5.370
REMARK INTRA:                  -0.044
REMARK UNBOUND:                -0.026
REMARK SMILES COc1cc2ccc(=O)oc2cc1O
REMARK SMILES IDX 3 1 13 2 12 3 11 4 5 5 4 6 6 7 7 8 8 9 9 10 10 11 2 12 1 13
REMARK SMILES IDX 14 14
REMARK H PARENT 14 15
REMARK Flexibility Score: inf
ROOT
ATOM      1  C   UNL     1       7.938  -5.573 -11.618  1.00  0.00     0.161 A 
ATOM      2  C   UNL     1       8.015  -6.974 -11.731  1.00  0.00     0.161 A 
ATOM      3  C   UNL     1       8.075  -7.772 -10.583  1.00  0.00     0.098 A 
ATOM      4  C   UNL     1       8.059  -7.189  -9.314  1.00  0.00     0.142 A 
ATOM      5  C   UNL     1       7.981  -5.786  -9.190  1.00  0.00     0.022 A 
ATOM      6  C   UNL     1       7.920  -4.983 -10.337  1.00  0.00     0.062 A 
ATOM      7  C   UNL     1       7.966  -5.230  -7.906  1.00  0.00     0.019 A 
ATOM      8  C   UNL     1       8.028  -6.071  -6.796  1.00  0.00     0.094 A 
ATOM      9  C   UNL     1       8.104  -7.454  -6.996  1.00  0.00     0.336 A 
ATOM     10  O   UNL     1       8.161  -8.230  -6.007  1.00  0.00    -0.246 OA
ATOM     11  O   UNL     1       8.116  -7.955  -8.229  1.00  0.00    -0.423 OA
ENDROOT
BRANCH   1  12
ATOM     12  O   UNL     1       7.879  -4.802 -12.791  1.00  0.00    -0.493 OA
ATOM     13  C   UNL     1       7.436  -3.450 -12.848  1.00  0.00     0.278 C 
ENDBRANCH   1  12
BRANCH   2  14
ATOM     14  O   UNL     1       8.035  -7.595 -12.980  1.00  0.00    -0.504 OA
ATOM     15  H   UNL     1       7.195  -7.957 -13.416  1.00  0.00     0.293 HD
ENDBRANCH   2  14
TORSDOF 2
ENDMDL
MODEL 5
REMARK VINA RESULT:    -4.948      1.497      4.880
REMARK INTER + INTRA:          -5.407
REMARK INTER:                  -5.354
REMARK INTRA:                  -0.053
REMARK UNBOUND:                -0.026
REMARK SMILES COc1cc2ccc(=O)oc2cc1O
REMARK SMILES IDX 3 1 13 2 12 3 11 4 5 5 4 6 6 7 7 8 8 9 9 10 10 11 2 12 1 13
REMARK SMILES IDX 14 14
REMARK H PARENT 14 15
REMARK Flexibility Score: inf
ROOT
ATOM      1  C   UNL     1       8.050  -7.032 -10.675  1.00  0.00     0.161 A 
ATOM      2  C   UNL     1       8.137  -5.630 -10.571  1.00  0.00     0.161 A 
ATOM      3  C   UNL     1       8.136  -5.015  -9.315  1.00  0.00     0.098 A 
ATOM      4  C   UNL     1       8.049  -5.782  -8.151  1.00  0.00     0.142 A 
ATOM      5  C   UNL     1       7.962  -7.187  -8.244  1.00  0.00     0.022 A 
ATOM      6  C   UNL     1       7.963  -7.808  -9.501  1.00  0.00     0.062 A 
ATOM      7  C   UNL     1       7.876  -7.929  -7.061  1.00  0.00     0.019 A 
ATOM      8  C   UNL     1       7.880  -7.265  -5.836  1.00  0.00     0.094 A 
ATOM      9  C   UNL     1       7.969  -5.869  -5.821  1.00  0.00     0.336 A 
ATOM     10  O   UNL     1       7.974  -5.251  -4.724  1.00  0.00    -0.246 OA
ATOM     11  O   UNL     1       8.050  -5.188  -6.961  1.00  0.00    -0.423 OA
ENDROOT
BRANCH   1  12
ATOM     12  O   UNL     1       8.053  -7.617 -11.952  1.00  0.00    -0.493 OA
ATOM     13  C   UNL     1       9.223  -8.036 -12.647  1.00  0.00     0.278 C 
ENDBRANCH   1  12
BRANCH   2  14
ATOM     14  O   UNL     1       8.224  -4.828 -11.710  1.00  0.00    -0.504 OA
ATOM     15  H   UNL     1       7.461  -4.743 -12.370  1.00  0.00     0.293 HD
ENDBRANCH   2  14
TORSDOF 2
ENDMDL
MODEL 6
REMARK VINA RESULT:    -4.941     15.126     16.855
REMARK INTER + INTRA:          -5.400
REMARK INTER:                  -5.355
REMARK INTRA:                  -0.045
REMARK UNBOUND:                -0.026
REMARK SMILES COc1cc2ccc(=O)oc2cc1O
REMARK SMILES IDX 3 1 13 2 12 3 11 4 5 5 4 6 6 7 7 8 8 9 9 10 10 11 2 12 1 13
REMARK SMILES IDX 14 14
REMARK H PARENT 14 15
REMARK Flexibility Score: inf
ROOT
ATOM      1  C   UNL     1      19.456  -0.144 -17.119  1.00  0.00     0.161 A 
ATOM      2  C   UNL     1      20.563   0.724 -17.053  1.00  0.00     0.161 A 
ATOM      3  C   UNL     1      21.320   0.989 -18.200  1.00  0.00     0.098 A 
ATOM      4  C   UNL     1      20.987   0.397 -19.420  1.00  0.00     0.142 A 
ATOM      5  C   UNL     1      19.879  -0.473 -19.497  1.00  0.00     0.022 A 
ATOM      6  C   UNL     1      19.118  -0.741 -18.351  1.00  0.00     0.062 A 
ATOM      7  C   UNL     1      19.570  -1.050 -20.733  1.00  0.00     0.019 A 
ATOM      8  C   UNL     1      20.357  -0.752 -21.844  1.00  0.00     0.094 A 
ATOM      9  C   UNL     1      21.440   0.121 -21.693  1.00  0.00     0.336 A 
ATOM     10  O   UNL     1      22.164   0.402 -22.684  1.00  0.00    -0.246 OA
ATOM     11  O   UNL     1      21.712   0.656 -20.505  1.00  0.00    -0.423 OA
ENDROOT
BRANCH   1  12
ATOM     12  O   UNL     1      18.718  -0.388 -15.949  1.00  0.00    -0.493 OA
ATOM     13  C   UNL     1      17.983  -1.580 -15.691  1.00  0.00     0.278 C 
ENDBRANCH   1  12
BRANCH   2  14
ATOM     14  O   UNL     1      20.929   1.334 -15.853  1.00  0.00    -0.504 OA
ATOM     15  H   UNL     1      21.207   0.800 -15.039  1.00  0.00     0.293 HD
ENDBRANCH   2  14
TORSDOF 2
ENDMDL
MODEL 7
REMARK VINA RESULT:    -4.928     13.714     14.386
REMARK INTER + INTRA:          -5.386
REMARK INTER:                  -5.321
REMARK INTRA:                  -0.064
REMARK UNBOUND:                -0.026
REMARK SMILES COc1cc2ccc(=O)oc2cc1O
REMARK SMILES IDX 3 1 13 2 12 3 11 4 5 5 4 6 6 7 7 8 8 9 9 10 10 11 2 12 1 13
REMARK SMILES IDX 14 14
REMARK H PARENT 14 15
REMARK Flexibility Score: inf
ROOT
ATOM      1  C   UNL     1      19.398  -2.334  -8.109  1.00  0.00     0.161 A 
ATOM      2  C   UNL     1      19.076  -2.739  -6.799  1.00  0.00     0.161 A 
ATOM      3  C   UNL     1      20.087  -3.128  -5.913  1.00  0.00     0.098 A 
ATOM      4  C   UNL     1      21.424  -3.117  -6.316  1.00  0.00     0.142 A 
ATOM      5  C   UNL     1      21.757  -2.712  -7.626  1.00  0.00     0.022 A 
ATOM      6  C   UNL     1      20.748  -2.322  -8.517  1.00  0.00     0.062 A 
ATOM      7  C   UNL     1      23.105  -2.712  -8.001  1.00  0.00     0.019 A 
ATOM      8  C   UNL     1      24.072  -3.108  -7.078  1.00  0.00     0.094 A 
ATOM      9  C   UNL     1      23.667  -3.497  -5.796  1.00  0.00     0.336 A 
ATOM     10  O   UNL     1      24.525  -3.859  -4.949  1.00  0.00    -0.246 OA
ATOM     11  O   UNL     1      22.378  -3.488  -5.467  1.00  0.00    -0.423 OA
ENDROOT
BRANCH   1  12
ATOM     12  O   UNL     1      18.359  -1.950  -8.973  1.00  0.00    -0.493 OA
ATOM     13  C   UNL     1      17.857  -2.749 -10.040  1.00  0.00     0.278 C 
ENDBRANCH   1  12
BRANCH   2  14
ATOM     14  O   UNL     1      17.753  -2.764  -6.358  1.00  0.00    -0.504 OA
ATOM     15  H   UNL     1      17.000  -2.339  -6.886  1.00  0.00     0.293 HD
ENDBRANCH   2  14
TORSDOF 2
ENDMDL
MODEL 8
REMARK VINA RESULT:    -4.743      2.649      5.130
REMARK INTER + INTRA:          -5.184
REMARK INTER:                  -5.139
REMARK INTRA:                  -0.045
REMARK UNBOUND:                -0.026
REMARK SMILES COc1cc2ccc(=O)oc2cc1O
REMARK SMILES IDX 3 1 13 2 12 3 11 4 5 5 4 6 6 7 7 8 8 9 9 10 10 11 2 12 1 13
REMARK SMILES IDX 14 14
REMARK H PARENT 14 15
REMARK Flexibility Score: inf
ROOT
ATOM      1  C   UNL     1      10.041  -6.990 -10.863  1.00  0.00     0.161 A 
ATOM      2  C   UNL     1      11.237  -6.739 -10.163  1.00  0.00     0.161 A 
ATOM      3  C   UNL     1      11.197  -6.277  -8.843  1.00  0.00     0.098 A 
ATOM      4  C   UNL     1       9.974  -6.061  -8.205  1.00  0.00     0.142 A 
ATOM      5  C   UNL     1       8.770  -6.311  -8.897  1.00  0.00     0.022 A 
ATOM      6  C   UNL     1       8.805  -6.774 -10.220  1.00  0.00     0.062 A 
ATOM      7  C   UNL     1       7.560  -6.086  -8.233  1.00  0.00     0.019 A 
ATOM      8  C   UNL     1       7.577  -5.626  -6.917  1.00  0.00     0.094 A 
ATOM      9  C   UNL     1       8.810  -5.400  -6.294  1.00  0.00     0.336 A 
ATOM     10  O   UNL     1       8.847  -4.984  -5.106  1.00  0.00    -0.246 OA
ATOM     11  O   UNL     1       9.946  -5.623  -6.950  1.00  0.00    -0.423 OA
ENDROOT
BRANCH   1  12
ATOM     12  O   UNL     1      10.118  -7.453 -12.187  1.00  0.00    -0.493 OA
ATOM     13  C   UNL     1       9.129  -8.260 -12.820  1.00  0.00     0.278 C 
ENDBRANCH   1  12
BRANCH   2  14
ATOM     14  O   UNL     1      12.480  -6.941 -10.765  1.00  0.00    -0.504 OA
ATOM     15  H   UNL     1      12.658  -7.722 -11.385  1.00  0.00     0.293 HD
ENDBRANCH   2  14
TORSDOF 2
ENDMDL
