MODEL 1
REMARK VINA RESULT:    -4.357      0.000      0.000
REMARK INTER + INTRA:         -15.993
REMARK INTER:                 -10.979
REMARK INTRA:                  -5.014
REMARK UNBOUND:                -5.014
REMARK SMILES CCCCCCCCCCCCCCCCCCCCCCCCCCCC(=O)[O-]
REMARK SMILES IDX 15 1 16 2 17 3 18 4 19 5 20 6 21 7 22 8 23 9 24 10 25 11
REMARK SMILES IDX 26 12 27 13 28 14 29 15 30 16 14 17 13 18 12 19 11 20 10 21
REMARK SMILES IDX 9 22 8 23 7 24 6 25 5 26 4 27 3 28 2 29 1 30
REMARK H PARENT
REMARK Flexibility Score: inf
ROOT
ATOM      1  C   UNL     1     154.706 283.008 288.583  1.00  0.00     0.000 C 
ENDROOT
BRANCH   1   2
ATOM      2  C   UNL     1     153.535 283.124 289.578  1.00  0.00     0.000 C 
BRANCH   2   3
ATOM      3  C   UNL     1     152.206 282.600 289.004  1.00  0.00     0.000 C 
BRANCH   3   4
ATOM      4  C   UNL     1     152.272 282.336 287.491  1.00  0.00     0.000 C 
BRANCH   4   5
ATOM      5  C   UNL     1     151.169 283.079 286.718  1.00  0.00     0.000 C 
BRANCH   5   6
ATOM      6  C   UNL     1     150.679 284.348 287.441  1.00  0.00     0.000 C 
BRANCH   6   7
ATOM      7  C   UNL     1     151.656 285.543 287.407  1.00  0.00     0.000 C 
BRANCH   7   8
ATOM      8  C   UNL     1     151.805 286.309 288.737  1.00  0.00     0.000 C 
BRANCH   8   9
ATOM      9  C   UNL     1     152.838 287.452 288.714  1.00  0.00     0.000 C 
BRANCH   9  10
ATOM     10  C   UNL     1     153.899 287.388 289.829  1.00  0.00     0.000 C 
BRANCH  10  11
ATOM     11  C   UNL     1     155.283 287.949 289.445  1.00  0.00     0.000 C 
BRANCH  11  12
ATOM     12  C   UNL     1     156.433 287.549 290.388  1.00  0.00     0.006 C 
BRANCH  12  13
ATOM     13  C   UNL     1     157.181 288.757 290.965  1.00  0.00     0.053 C 
BRANCH  13  14
ATOM     14  C   UNL     1     156.241 289.652 291.709  1.00  0.00     0.041 C 
ATOM     15  O   UNL     1     156.118 290.862 291.376  1.00  0.00    -0.550 OA
ATOM     16  O   UNL     1     155.503 289.153 292.776  1.00  0.00    -0.550 OA
ENDBRANCH  13  14
ENDBRANCH  12  13
ENDBRANCH  11  12
ENDBRANCH  10  11
ENDBRANCH   9  10
ENDBRANCH   8   9
ENDBRANCH   7   8
ENDBRANCH   6   7
ENDBRANCH   5   6
ENDBRANCH   4   5
ENDBRANCH   3   4
ENDBRANCH   2   3
ENDBRANCH   1   2
BRANCH   1  17
ATOM     17  C   UNL     1     155.524 284.298 288.377  1.00  0.00     0.000 C 
BRANCH  17  18
ATOM     18  C   UNL     1     155.804 284.606 286.895  1.00  0.00     0.000 C 
BRANCH  18  19
ATOM     19  C   UNL     1     155.146 285.913 286.432  1.00  0.00     0.000 C 
BRANCH  19  20
ATOM     20  C   UNL     1     155.953 286.640 285.346  1.00  0.00     0.000 C 
BRANCH  20  21
ATOM     21  C   UNL     1     157.263 285.897 285.059  1.00  0.00     0.000 C 
BRANCH  21  22
ATOM     22  C   UNL     1     157.343 285.461 283.588  1.00  0.00    -0.000 C 
BRANCH  22  23
ATOM     23  C   UNL     1     156.820 284.032 283.368  1.00  0.00    -0.000 C 
BRANCH  23  24
ATOM     24  C   UNL     1     155.490 284.004 282.593  1.00  0.00    -0.000 C 
BRANCH  24  25
ATOM     25  C   UNL     1     154.507 282.965 283.154  1.00  0.00    -0.000 C 
BRANCH  25  26
ATOM     26  C   UNL     1     153.470 283.588 284.105  1.00  0.00    -0.000 C 
BRANCH  26  27
ATOM     27  C   UNL     1     153.024 284.990 283.658  1.00  0.00    -0.000 C 
BRANCH  27  28
ATOM     28  C   UNL     1     151.584 285.068 283.115  1.00  0.00    -0.000 C 
BRANCH  28  29
ATOM     29  C   UNL     1     150.806 283.739 283.225  1.00  0.00    -0.003 C 
ATOM     30  C   UNL     1     149.866 283.510 282.041  1.00  0.00     0.004 C 
ENDBRANCH  28  29
ENDBRANCH  27  28
ENDBRANCH  26  27
ENDBRANCH  25  26
ENDBRANCH  24  25
ENDBRANCH  23  24
ENDBRANCH  22  23
ENDBRANCH  21  22
ENDBRANCH  20  21
ENDBRANCH  19  20
ENDBRANCH  18  19
ENDBRANCH  17  18
ENDBRANCH   1  17
TORSDOF 26
ENDMDL
MODEL 2
REMARK VINA RESULT:    -4.336      3.649      6.822
REMARK INTER + INTRA:         -15.941
REMARK INTER:                 -10.827
REMARK INTRA:                  -5.114
REMARK UNBOUND:                -5.014
REMARK SMILES CCCCCCCCCCCCCCCCCCCCCCCCCCCC(=O)[O-]
REMARK SMILES IDX 15 1 16 2 17 3 18 4 19 5 20 6 21 7 22 8 23 9 24 10 25 11
REMARK SMILES IDX 26 12 27 13 28 14 29 15 30 16 14 17 13 18 12 19 11 20 10 21
REMARK SMILES IDX 9 22 8 23 7 24 6 25 5 26 4 27 3 28 2 29 1 30
REMARK H PARENT
REMARK Flexibility Score: inf
ROOT
ATOM      1  C   UNL     1     151.482 284.900 286.654  1.00  0.00     0.000 C 
ENDROOT
BRANCH   1   2
ATOM      2  C   UNL     1     150.057 284.352 286.444  1.00  0.00     0.000 C 
BRANCH   2   3
ATOM      3  C   UNL     1     149.835 283.784 285.031  1.00  0.00     0.000 C 
BRANCH   3   4
ATOM      4  C   UNL     1     150.971 284.141 284.059  1.00  0.00     0.000 C 
BRANCH   4   5
ATOM      5  C   UNL     1     150.652 283.733 282.610  1.00  0.00     0.000 C 
BRANCH   5   6
ATOM      6  C   UNL     1     149.206 284.063 282.197  1.00  0.00     0.000 C 
BRANCH   6   7
ATOM      7  C   UNL     1     149.054 284.748 280.821  1.00  0.00     0.000 C 
BRANCH   7   8
ATOM      8  C   UNL     1     149.289 286.272 280.816  1.00  0.00     0.000 C 
BRANCH   8   9
ATOM      9  C   UNL     1     150.179 286.786 279.667  1.00  0.00     0.000 C 
BRANCH   9  10
ATOM     10  C   UNL     1     151.167 287.899 280.063  1.00  0.00     0.000 C 
BRANCH  10  11
ATOM     11  C   UNL     1     151.508 287.964 281.566  1.00  0.00     0.000 C 
BRANCH  11  12
ATOM     12  C   UNL     1     152.611 288.971 281.941  1.00  0.00     0.006 C 
BRANCH  12  13
ATOM     13  C   UNL     1     153.546 289.297 280.769  1.00  0.00     0.053 C 
BRANCH  13  14
ATOM     14  C   UNL     1     154.794 288.474 280.847  1.00  0.00     0.041 C 
ATOM     15  O   UNL     1     154.937 287.466 280.104  1.00  0.00    -0.550 OA
ATOM     16  O   UNL     1     155.798 288.817 281.744  1.00  0.00    -0.550 OA
ENDBRANCH  13  14
ENDBRANCH  12  13
ENDBRANCH  11  12
ENDBRANCH  10  11
ENDBRANCH   9  10
ENDBRANCH   8   9
ENDBRANCH   7   8
ENDBRANCH   6   7
ENDBRANCH   5   6
ENDBRANCH   4   5
ENDBRANCH   3   4
ENDBRANCH   2   3
ENDBRANCH   1   2
BRANCH   1  17
ATOM     17  C   UNL     1     152.171 284.459 287.961  1.00  0.00     0.000 C 
BRANCH  17  18
ATOM     18  C   UNL     1     152.915 283.118 287.829  1.00  0.00     0.000 C 
BRANCH  18  19
ATOM     19  C   UNL     1     153.492 282.902 286.422  1.00  0.00     0.000 C 
BRANCH  19  20
ATOM     20  C   UNL     1     154.950 282.420 286.438  1.00  0.00     0.000 C 
BRANCH  20  21
ATOM     21  C   UNL     1     155.592 282.596 285.058  1.00  0.00     0.000 C 
BRANCH  21  22
ATOM     22  C   UNL     1     154.559 283.059 284.020  1.00  0.00    -0.000 C 
BRANCH  22  23
ATOM     23  C   UNL     1     155.214 283.617 282.746  1.00  0.00    -0.000 C 
BRANCH  23  24
ATOM     24  C   UNL     1     155.338 285.152 282.770  1.00  0.00    -0.000 C 
BRANCH  24  25
ATOM     25  C   UNL     1     154.125 285.827 283.428  1.00  0.00    -0.000 C 
BRANCH  25  26
ATOM     26  C   UNL     1     154.531 286.889 284.465  1.00  0.00    -0.000 C 
BRANCH  26  27
ATOM     27  C   UNL     1     154.910 286.275 285.823  1.00  0.00    -0.000 C 
BRANCH  27  28
ATOM     28  C   UNL     1     156.397 286.406 286.200  1.00  0.00    -0.000 C 
BRANCH  28  29
ATOM     29  C   UNL     1     156.863 285.382 287.258  1.00  0.00    -0.003 C 
ATOM     30  C   UNL     1     156.014 285.426 288.529  1.00  0.00     0.004 C 
ENDBRANCH  28  29
ENDBRANCH  27  28
ENDBRANCH  26  27
ENDBRANCH  25  26
ENDBRANCH  24  25
ENDBRANCH  23  24
ENDBRANCH  22  23
ENDBRANCH  21  22
ENDBRANCH  20  21
ENDBRANCH  19  20
ENDBRANCH  18  19
ENDBRANCH  17  18
ENDBRANCH   1  17
TORSDOF 26
ENDMDL
MODEL 3
REMARK VINA RESULT:    -4.301      4.566      8.159
REMARK INTER + INTRA:         -15.853
REMARK INTER:                 -11.211
REMARK INTRA:                  -4.642
REMARK UNBOUND:                -5.014
REMARK SMILES CCCCCCCCCCCCCCCCCCCCCCCCCCCC(=O)[O-]
REMARK SMILES IDX 15 1 16 2 17 3 18 4 19 5 20 6 21 7 22 8 23 9 24 10 25 11
REMARK SMILES IDX 26 12 27 13 28 14 29 15 30 16 14 17 13 18 12 19 11 20 10 21
REMARK SMILES IDX 9 22 8 23 7 24 6 25 5 26 4 27 3 28 2 29 1 30
REMARK H PARENT
REMARK Flexibility Score: inf
ROOT
ATOM      1  C   UNL     1     149.877 284.656 281.644  1.00  0.00     0.000 C 
ENDROOT
BRANCH   1   2
ATOM      2  C   UNL     1     148.612 284.087 280.972  1.00  0.00     0.000 C 
BRANCH   2   3
ATOM      3  C   UNL     1     147.866 285.130 280.121  1.00  0.00     0.000 C 
BRANCH   3   4
ATOM      4  C   UNL     1     147.208 286.232 280.968  1.00  0.00     0.000 C 
BRANCH   4   5
ATOM      5  C   UNL     1     147.307 287.617 280.305  1.00  0.00     0.000 C 
BRANCH   5   6
ATOM      6  C   UNL     1     148.057 287.588 278.960  1.00  0.00     0.000 C 
BRANCH   6   7
ATOM      7  C   UNL     1     148.895 288.846 278.647  1.00  0.00     0.000 C 
BRANCH   7   8
ATOM      8  C   UNL     1     150.424 288.650 278.703  1.00  0.00     0.000 C 
BRANCH   8   9
ATOM      9  C   UNL     1     150.899 287.521 279.638  1.00  0.00     0.000 C 
BRANCH   9  10
ATOM     10  C   UNL     1     151.005 287.913 281.124  1.00  0.00     0.000 C 
BRANCH  10  11
ATOM     11  C   UNL     1     152.385 287.666 281.766  1.00  0.00     0.000 C 
BRANCH  11  12
ATOM     12  C   UNL     1     153.192 288.939 282.085  1.00  0.00     0.006 C 
BRANCH  12  13
ATOM     13  C   UNL     1     154.508 289.025 281.301  1.00  0.00     0.053 C 
BRANCH  13  14
ATOM     14  C   UNL     1     154.238 289.185 279.837  1.00  0.00     0.041 C 
ATOM     15  O   UNL     1     154.633 288.310 279.020  1.00  0.00    -0.550 OA
ATOM     16  O   UNL     1     153.555 290.303 279.374  1.00  0.00    -0.550 OA
ENDBRANCH  13  14
ENDBRANCH  12  13
ENDBRANCH  11  12
ENDBRANCH  10  11
ENDBRANCH   9  10
ENDBRANCH   8   9
ENDBRANCH   7   8
ENDBRANCH   6   7
ENDBRANCH   5   6
ENDBRANCH   4   5
ENDBRANCH   3   4
ENDBRANCH   2   3
ENDBRANCH   1   2
BRANCH   1  17
ATOM     17  C   UNL     1     150.484 283.775 282.755  1.00  0.00     0.000 C 
BRANCH  17  18
ATOM     18  C   UNL     1     151.608 284.478 283.537  1.00  0.00     0.000 C 
BRANCH  18  19
ATOM     19  C   UNL     1     151.724 283.972 284.982  1.00  0.00     0.000 C 
BRANCH  19  20
ATOM     20  C   UNL     1     152.567 284.894 285.875  1.00  0.00     0.000 C 
BRANCH  20  21
ATOM     21  C   UNL     1     153.688 284.105 286.560  1.00  0.00     0.000 C 
BRANCH  21  22
ATOM     22  C   UNL     1     153.888 282.735 285.896  1.00  0.00    -0.000 C 
BRANCH  22  23
ATOM     23  C   UNL     1     155.187 282.662 285.076  1.00  0.00    -0.000 C 
BRANCH  23  24
ATOM     24  C   UNL     1     154.956 282.939 283.580  1.00  0.00    -0.000 C 
BRANCH  24  25
ATOM     25  C   UNL     1     155.924 283.994 283.023  1.00  0.00    -0.000 C 
BRANCH  25  26
ATOM     26  C   UNL     1     155.219 285.316 282.673  1.00  0.00    -0.000 C 
BRANCH  26  27
ATOM     27  C   UNL     1     155.207 286.310 283.847  1.00  0.00    -0.000 C 
BRANCH  27  28
ATOM     28  C   UNL     1     156.378 286.157 284.836  1.00  0.00    -0.000 C 
BRANCH  28  29
ATOM     29  C   UNL     1     157.594 287.047 284.500  1.00  0.00    -0.003 C 
ATOM     30  C   UNL     1     157.189 288.377 283.864  1.00  0.00     0.004 C 
ENDBRANCH  28  29
ENDBRANCH  27  28
ENDBRANCH  26  27
ENDBRANCH  25  26
ENDBRANCH  24  25
ENDBRANCH  23  24
ENDBRANCH  22  23
ENDBRANCH  21  22
ENDBRANCH  20  21
ENDBRANCH  19  20
ENDBRANCH  18  19
ENDBRANCH  17  18
ENDBRANCH   1  17
TORSDOF 26
ENDMDL
MODEL 4
REMARK VINA RESULT:    -4.295      5.883      9.648
REMARK INTER + INTRA:         -15.837
REMARK INTER:                 -11.939
REMARK INTRA:                  -3.898
REMARK UNBOUND:                -5.014
REMARK SMILES CCCCCCCCCCCCCCCCCCCCCCCCCCCC(=O)[O-]
REMARK SMILES IDX 15 1 16 2 17 3 18 4 19 5 20 6 21 7 22 8 23 9 24 10 25 11
REMARK SMILES IDX 26 12 27 13 28 14 29 15 30 16 14 17 13 18 12 19 11 20 10 21
REMARK SMILES IDX 9 22 8 23 7 24 6 25 5 26 4 27 3 28 2 29 1 30
REMARK H PARENT
REMARK Flexibility Score: inf
ROOT
ATOM      1  C   UNL     1     151.647 287.744 279.601  1.00  0.00     0.000 C 
ENDROOT
BRANCH   1   2
ATOM      2  C   UNL     1     152.967 288.538 279.555  1.00  0.00     0.000 C 
BRANCH   2   3
ATOM      3  C   UNL     1     152.989 289.723 280.537  1.00  0.00     0.000 C 
BRANCH   3   4
ATOM      4  C   UNL     1     152.864 289.284 282.005  1.00  0.00     0.000 C 
BRANCH   4   5
ATOM      5  C   UNL     1     154.234 289.088 282.677  1.00  0.00     0.000 C 
BRANCH   5   6
ATOM      6  C   UNL     1     154.624 287.605 282.824  1.00  0.00     0.000 C 
BRANCH   6   7
ATOM      7  C   UNL     1     155.475 287.032 281.669  1.00  0.00     0.000 C 
BRANCH   7   8
ATOM      8  C   UNL     1     156.624 287.938 281.184  1.00  0.00     0.000 C 
BRANCH   8   9
ATOM      9  C   UNL     1     156.634 288.216 279.668  1.00  0.00     0.000 C 
BRANCH   9  10
ATOM     10  C   UNL     1     156.649 289.707 279.284  1.00  0.00     0.000 C 
BRANCH  10  11
ATOM     11  C   UNL     1     156.598 290.688 280.474  1.00  0.00     0.000 C 
BRANCH  11  12
ATOM     12  C   UNL     1     155.979 292.063 280.159  1.00  0.00     0.006 C 
BRANCH  12  13
ATOM     13  C   UNL     1     156.411 292.614 278.793  1.00  0.00     0.053 C 
BRANCH  13  14
ATOM     14  C   UNL     1     155.217 292.863 277.926  1.00  0.00     0.041 C 
ATOM     15  O   UNL     1     155.302 293.643 276.939  1.00  0.00    -0.550 OA
ATOM     16  O   UNL     1     154.009 292.239 278.209  1.00  0.00    -0.550 OA
ENDBRANCH  13  14
ENDBRANCH  12  13
ENDBRANCH  11  12
ENDBRANCH  10  11
ENDBRANCH   9  10
ENDBRANCH   8   9
ENDBRANCH   7   8
ENDBRANCH   6   7
ENDBRANCH   5   6
ENDBRANCH   4   5
ENDBRANCH   3   4
ENDBRANCH   2   3
ENDBRANCH   1   2
BRANCH   1  17
ATOM     17  C   UNL     1     151.109 287.283 278.232  1.00  0.00     0.000 C 
BRANCH  17  18
ATOM     18  C   UNL     1     149.855 288.057 277.785  1.00  0.00     0.000 C 
BRANCH  18  19
ATOM     19  C   UNL     1     149.011 288.545 278.970  1.00  0.00     0.000 C 
BRANCH  19  20
ATOM     20  C   UNL     1     147.633 287.872 279.044  1.00  0.00     0.000 C 
BRANCH  20  21
ATOM     21  C   UNL     1     147.773 286.396 279.431  1.00  0.00     0.000 C 
BRANCH  21  22
ATOM     22  C   UNL     1     148.367 286.245 280.839  1.00  0.00    -0.000 C 
BRANCH  22  23
ATOM     23  C   UNL     1     149.508 285.215 280.889  1.00  0.00    -0.000 C 
BRANCH  23  24
ATOM     24  C   UNL     1     149.100 283.918 281.610  1.00  0.00    -0.000 C 
BRANCH  24  25
ATOM     25  C   UNL     1     150.166 283.444 282.610  1.00  0.00    -0.000 C 
BRANCH  25  26
ATOM     26  C   UNL     1     151.193 284.540 282.941  1.00  0.00    -0.000 C 
BRANCH  26  27
ATOM     27  C   UNL     1     152.172 284.119 284.050  1.00  0.00    -0.000 C 
BRANCH  27  28
ATOM     28  C   UNL     1     153.661 284.311 283.705  1.00  0.00    -0.000 C 
BRANCH  28  29
ATOM     29  C   UNL     1     154.436 282.986 283.541  1.00  0.00    -0.003 C 
ATOM     30  C   UNL     1     155.393 283.010 282.348  1.00  0.00     0.004 C 
ENDBRANCH  28  29
ENDBRANCH  27  28
ENDBRANCH  26  27
ENDBRANCH  25  26
ENDBRANCH  24  25
ENDBRANCH  23  24
ENDBRANCH  22  23
ENDBRANCH  21  22
ENDBRANCH  20  21
ENDBRANCH  19  20
ENDBRANCH  18  19
ENDBRANCH  17  18
ENDBRANCH   1  17
TORSDOF 26
ENDMDL
MODEL 5
REMARK VINA RESULT:    -4.287      3.729      7.508
REMARK INTER + INTRA:         -15.816
REMARK INTER:                 -11.789
REMARK INTRA:                  -4.027
REMARK UNBOUND:                -5.014
REMARK SMILES CCCCCCCCCCCCCCCCCCCCCCCCCCCC(=O)[O-]
REMARK SMILES IDX 15 1 16 2 17 3 18 4 19 5 20 6 21 7 22 8 23 9 24 10 25 11
REMARK SMILES IDX 26 12 27 13 28 14 29 15 30 16 14 17 13 18 12 19 11 20 10 21
REMARK SMILES IDX 9 22 8 23 7 24 6 25 5 26 4 27 3 28 2 29 1 30
REMARK H PARENT
REMARK Flexibility Score: inf
ROOT
ATOM      1  C   UNL     1     155.818 288.952 281.050  1.00  0.00     0.000 C 
ENDROOT
BRANCH   1   2
ATOM      2  C   UNL     1     155.441 287.516 280.635  1.00  0.00     0.000 C 
BRANCH   2   3
ATOM      3  C   UNL     1     155.090 286.618 281.835  1.00  0.00     0.000 C 
BRANCH   3   4
ATOM      4  C   UNL     1     155.836 287.018 283.118  1.00  0.00     0.000 C 
BRANCH   4   5
ATOM      5  C   UNL     1     157.031 286.095 283.412  1.00  0.00     0.000 C 
BRANCH   5   6
ATOM      6  C   UNL     1     156.616 284.763 284.065  1.00  0.00     0.000 C 
BRANCH   6   7
ATOM      7  C   UNL     1     156.681 283.528 283.139  1.00  0.00     0.000 C 
BRANCH   7   8
ATOM      8  C   UNL     1     155.329 283.072 282.554  1.00  0.00     0.000 C 
BRANCH   8   9
ATOM      9  C   UNL     1     154.175 282.996 283.572  1.00  0.00     0.000 C 
BRANCH   9  10
ATOM     10  C   UNL     1     153.035 284.004 283.334  1.00  0.00     0.000 C 
BRANCH  10  11
ATOM     11  C   UNL     1     152.867 285.071 284.435  1.00  0.00     0.000 C 
BRANCH  11  12
ATOM     12  C   UNL     1     152.999 284.546 285.877  1.00  0.00     0.006 C 
BRANCH  12  13
ATOM     13  C   UNL     1     151.650 284.166 286.500  1.00  0.00     0.053 C 
BRANCH  13  14
ATOM     14  C   UNL     1     151.280 285.132 287.582  1.00  0.00     0.041 C 
ATOM     15  O   UNL     1     151.956 286.181 287.755  1.00  0.00    -0.550 OA
ATOM     16  O   UNL     1     150.190 284.871 288.404  1.00  0.00    -0.550 OA
ENDBRANCH  13  14
ENDBRANCH  12  13
ENDBRANCH  11  12
ENDBRANCH  10  11
ENDBRANCH   9  10
ENDBRANCH   8   9
ENDBRANCH   7   8
ENDBRANCH   6   7
ENDBRANCH   5   6
ENDBRANCH   4   5
ENDBRANCH   3   4
ENDBRANCH   2   3
ENDBRANCH   1   2
BRANCH   1  17
ATOM     17  C   UNL     1     154.627 289.898 281.302  1.00  0.00     0.000 C 
BRANCH  17  18
ATOM     18  C   UNL     1     153.352 289.478 280.548  1.00  0.00     0.000 C 
BRANCH  18  19
ATOM     19  C   UNL     1     152.254 288.964 281.489  1.00  0.00     0.000 C 
BRANCH  19  20
ATOM     20  C   UNL     1     151.394 287.857 280.861  1.00  0.00     0.000 C 
BRANCH  20  21
ATOM     21  C   UNL     1     151.544 287.859 279.335  1.00  0.00     0.000 C 
BRANCH  21  22
ATOM     22  C   UNL     1     150.207 288.170 278.646  1.00  0.00    -0.000 C 
BRANCH  22  23
ATOM     23  C   UNL     1     149.826 287.115 277.595  1.00  0.00    -0.000 C 
BRANCH  23  24
ATOM     24  C   UNL     1     148.840 286.066 278.143  1.00  0.00    -0.000 C 
BRANCH  24  25
ATOM     25  C   UNL     1     147.796 286.682 279.086  1.00  0.00    -0.000 C 
BRANCH  25  26
ATOM     26  C   UNL     1     147.656 285.898 280.403  1.00  0.00    -0.000 C 
BRANCH  26  27
ATOM     27  C   UNL     1     148.961 285.198 280.816  1.00  0.00    -0.000 C 
BRANCH  27  28
ATOM     28  C   UNL     1     148.864 283.665 280.933  1.00  0.00    -0.000 C 
BRANCH  28  29
ATOM     29  C   UNL     1     149.693 283.077 282.095  1.00  0.00    -0.003 C 
ATOM     30  C   UNL     1     149.319 283.683 283.448  1.00  0.00     0.004 C 
ENDBRANCH  28  29
ENDBRANCH  27  28
ENDBRANCH  26  27
ENDBRANCH  25  26
ENDBRANCH  24  25
ENDBRANCH  23  24
ENDBRANCH  22  23
ENDBRANCH  21  22
ENDBRANCH  20  21
ENDBRANCH  19  20
ENDBRANCH  18  19
ENDBRANCH  17  18
ENDBRANCH   1  17
TORSDOF 26
ENDMDL
MODEL 6
REMARK VINA RESULT:    -4.246      3.216      6.902
REMARK INTER + INTRA:         -15.712
REMARK INTER:                 -10.570
REMARK INTRA:                  -5.142
REMARK UNBOUND:                -5.014
REMARK SMILES CCCCCCCCCCCCCCCCCCCCCCCCCCCC(=O)[O-]
REMARK SMILES IDX 15 1 16 2 17 3 18 4 19 5 20 6 21 7 22 8 23 9 24 10 25 11
REMARK SMILES IDX 26 12 27 13 28 14 29 15 30 16 14 17 13 18 12 19 11 20 10 21
REMARK SMILES IDX 9 22 8 23 7 24 6 25 5 26 4 27 3 28 2 29 1 30
REMARK H PARENT
REMARK Flexibility Score: inf
ROOT
ATOM      1  C   UNL     1     155.076 283.216 283.656  1.00  0.00     0.000 C 
ENDROOT
BRANCH   1   2
ATOM      2  C   UNL     1     153.683 283.360 284.302  1.00  0.00     0.000 C 
BRANCH   2   3
ATOM      3  C   UNL     1     152.726 284.236 283.473  1.00  0.00     0.000 C 
BRANCH   3   4
ATOM      4  C   UNL     1     151.383 284.485 284.179  1.00  0.00     0.000 C 
BRANCH   4   5
ATOM      5  C   UNL     1     151.297 283.774 285.541  1.00  0.00     0.000 C 
BRANCH   5   6
ATOM      6  C   UNL     1     150.607 284.628 286.622  1.00  0.00     0.000 C 
BRANCH   6   7
ATOM      7  C   UNL     1     151.442 284.873 287.898  1.00  0.00     0.000 C 
BRANCH   7   8
ATOM      8  C   UNL     1     152.964 284.692 287.734  1.00  0.00     0.000 C 
BRANCH   8   9
ATOM      9  C   UNL     1     153.757 286.002 287.557  1.00  0.00     0.000 C 
BRANCH   9  10
ATOM     10  C   UNL     1     154.052 286.387 286.095  1.00  0.00     0.000 C 
BRANCH  10  11
ATOM     11  C   UNL     1     154.954 287.625 285.916  1.00  0.00     0.000 C 
BRANCH  11  12
ATOM     12  C   UNL     1     155.107 288.115 284.464  1.00  0.00     0.006 C 
BRANCH  12  13
ATOM     13  C   UNL     1     155.433 286.983 283.481  1.00  0.00     0.053 C 
BRANCH  13  14
ATOM     14  C   UNL     1     154.743 287.207 282.173  1.00  0.00     0.041 C 
ATOM     15  O   UNL     1     153.502 287.429 282.140  1.00  0.00    -0.550 OA
ATOM     16  O   UNL     1     155.467 287.165 280.988  1.00  0.00    -0.550 OA
ENDBRANCH  13  14
ENDBRANCH  12  13
ENDBRANCH  11  12
ENDBRANCH  10  11
ENDBRANCH   9  10
ENDBRANCH   8   9
ENDBRANCH   7   8
ENDBRANCH   6   7
ENDBRANCH   5   6
ENDBRANCH   4   5
ENDBRANCH   3   4
ENDBRANCH   2   3
ENDBRANCH   1   2
BRANCH   1  17
ATOM     17  C   UNL     1     156.267 283.469 284.601  1.00  0.00     0.000 C 
BRANCH  17  18
ATOM     18  C   UNL     1     155.959 283.119 286.069  1.00  0.00     0.000 C 
BRANCH  18  19
ATOM     19  C   UNL     1     156.955 283.758 287.047  1.00  0.00     0.000 C 
BRANCH  19  20
ATOM     20  C   UNL     1     157.740 284.924 286.429  1.00  0.00     0.000 C 
BRANCH  20  21
ATOM     21  C   UNL     1     157.757 286.128 287.378  1.00  0.00     0.000 C 
BRANCH  21  22
ATOM     22  C   UNL     1     157.392 285.710 288.810  1.00  0.00    -0.000 C 
BRANCH  22  23
ATOM     23  C   UNL     1     157.189 286.917 289.741  1.00  0.00    -0.000 C 
BRANCH  23  24
ATOM     24  C   UNL     1     155.732 287.054 290.219  1.00  0.00    -0.000 C 
BRANCH  24  25
ATOM     25  C   UNL     1     155.506 288.327 291.050  1.00  0.00    -0.000 C 
BRANCH  25  26
ATOM     26  C   UNL     1     156.808 289.107 291.302  1.00  0.00    -0.000 C 
BRANCH  26  27
ATOM     27  C   UNL     1     156.589 290.629 291.331  1.00  0.00    -0.000 C 
BRANCH  27  28
ATOM     28  C   UNL     1     157.209 291.394 290.146  1.00  0.00    -0.000 C 
BRANCH  28  29
ATOM     29  C   UNL     1     157.468 290.513 288.905  1.00  0.00    -0.003 C 
ATOM     30  C   UNL     1     156.287 290.507 287.934  1.00  0.00     0.004 C 
ENDBRANCH  28  29
ENDBRANCH  27  28
ENDBRANCH  26  27
ENDBRANCH  25  26
ENDBRANCH  24  25
ENDBRANCH  23  24
ENDBRANCH  22  23
ENDBRANCH  21  22
ENDBRANCH  20  21
ENDBRANCH  19  20
ENDBRANCH  18  19
ENDBRANCH  17  18
ENDBRANCH   1  17
TORSDOF 26
ENDMDL
MODEL 7
REMARK VINA RESULT:    -4.241      3.599      7.268
REMARK INTER + INTRA:         -15.700
REMARK INTER:                 -12.048
REMARK INTRA:                  -3.652
REMARK UNBOUND:                -5.014
REMARK SMILES CCCCCCCCCCCCCCCCCCCCCCCCCCCC(=O)[O-]
REMARK SMILES IDX 15 1 16 2 17 3 18 4 19 5 20 6 21 7 22 8 23 9 24 10 25 11
REMARK SMILES IDX 26 12 27 13 28 14 29 15 30 16 14 17 13 18 12 19 11 20 10 21
REMARK SMILES IDX 9 22 8 23 7 24 6 25 5 26 4 27 3 28 2 29 1 30
REMARK H PARENT
REMARK Flexibility Score: inf
ROOT
ATOM      1  C   UNL     1     151.257 284.066 283.756  1.00  0.00     0.000 C 
ENDROOT
BRANCH   1   2
ATOM      2  C   UNL     1     150.269 283.812 284.911  1.00  0.00     0.000 C 
BRANCH   2   3
ATOM      3  C   UNL     1     150.973 283.555 286.256  1.00  0.00     0.000 C 
BRANCH   3   4
ATOM      4  C   UNL     1     151.443 284.850 286.940  1.00  0.00     0.000 C 
BRANCH   4   5
ATOM      5  C   UNL     1     152.975 284.985 286.947  1.00  0.00     0.000 C 
BRANCH   5   6
ATOM      6  C   UNL     1     153.698 283.645 286.712  1.00  0.00     0.000 C 
BRANCH   6   7
ATOM      7  C   UNL     1     155.062 283.750 285.997  1.00  0.00     0.000 C 
BRANCH   7   8
ATOM      8  C   UNL     1     155.304 282.711 284.883  1.00  0.00     0.000 C 
BRANCH   8   9
ATOM      9  C   UNL     1     154.597 283.015 283.548  1.00  0.00     0.000 C 
BRANCH   9  10
ATOM     10  C   UNL     1     155.254 284.124 282.707  1.00  0.00     0.000 C 
BRANCH  10  11
ATOM     11  C   UNL     1     154.737 285.550 282.990  1.00  0.00     0.000 C 
BRANCH  11  12
ATOM     12  C   UNL     1     155.468 286.671 282.229  1.00  0.00     0.006 C 
BRANCH  12  13
ATOM     13  C   UNL     1     156.862 286.970 282.797  1.00  0.00     0.053 C 
BRANCH  13  14
ATOM     14  C   UNL     1     156.757 287.796 284.040  1.00  0.00     0.041 C 
ATOM     15  O   UNL     1     157.583 287.637 284.979  1.00  0.00    -0.550 OA
ATOM     16  O   UNL     1     155.744 288.738 284.166  1.00  0.00    -0.550 OA
ENDBRANCH  13  14
ENDBRANCH  12  13
ENDBRANCH  11  12
ENDBRANCH  10  11
ENDBRANCH   9  10
ENDBRANCH   8   9
ENDBRANCH   7   8
ENDBRANCH   6   7
ENDBRANCH   5   6
ENDBRANCH   4   5
ENDBRANCH   3   4
ENDBRANCH   2   3
ENDBRANCH   1   2
BRANCH   1  17
ATOM     17  C   UNL     1     150.609 284.309 282.378  1.00  0.00     0.000 C 
BRANCH  17  18
ATOM     18  C   UNL     1     149.494 283.300 282.049  1.00  0.00     0.000 C 
BRANCH  18  19
ATOM     19  C   UNL     1     148.252 283.973 281.447  1.00  0.00     0.000 C 
BRANCH  19  20
ATOM     20  C   UNL     1     148.586 284.922 280.287  1.00  0.00     0.000 C 
BRANCH  20  21
ATOM     21  C   UNL     1     147.445 285.920 280.061  1.00  0.00     0.000 C 
BRANCH  21  22
ATOM     22  C   UNL     1     147.519 286.540 278.658  1.00  0.00    -0.000 C 
BRANCH  22  23
ATOM     23  C   UNL     1     148.709 286.009 277.841  1.00  0.00    -0.000 C 
BRANCH  23  24
ATOM     24  C   UNL     1     149.693 287.123 277.440  1.00  0.00    -0.000 C 
BRANCH  24  25
ATOM     25  C   UNL     1     150.891 287.219 278.398  1.00  0.00    -0.000 C 
BRANCH  25  26
ATOM     26  C   UNL     1     150.674 288.258 279.512  1.00  0.00    -0.000 C 
BRANCH  26  27
ATOM     27  C   UNL     1     150.916 287.678 280.916  1.00  0.00    -0.000 C 
BRANCH  27  28
ATOM     28  C   UNL     1     152.117 288.284 281.667  1.00  0.00    -0.000 C 
BRANCH  28  29
ATOM     29  C   UNL     1     152.970 289.240 280.805  1.00  0.00    -0.003 C 
ATOM     30  C   UNL     1     153.816 290.194 281.651  1.00  0.00     0.004 C 
ENDBRANCH  28  29
ENDBRANCH  27  28
ENDBRANCH  26  27
ENDBRANCH  25  26
ENDBRANCH  24  25
ENDBRANCH  23  24
ENDBRANCH  22  23
ENDBRANCH  21  22
ENDBRANCH  20  21
ENDBRANCH  19  20
ENDBRANCH  18  19
ENDBRANCH  17  18
ENDBRANCH   1  17
TORSDOF 26
ENDMDL
MODEL 8
REMARK VINA RESULT:    -4.239      2.593      5.706
REMARK INTER + INTRA:         -15.695
REMARK INTER:                 -10.001
REMARK INTRA:                  -5.694
REMARK UNBOUND:                -5.014
REMARK SMILES CCCCCCCCCCCCCCCCCCCCCCCCCCCC(=O)[O-]
REMARK SMILES IDX 15 1 16 2 17 3 18 4 19 5 20 6 21 7 22 8 23 9 24 10 25 11
REMARK SMILES IDX 26 12 27 13 28 14 29 15 30 16 14 17 13 18 12 19 11 20 10 21
REMARK SMILES IDX 9 22 8 23 7 24 6 25 5 26 4 27 3 28 2 29 1 30
REMARK H PARENT
REMARK Flexibility Score: inf
ROOT
ATOM      1  C   UNL     1     154.662 282.611 285.818  1.00  0.00     0.000 C 
ENDROOT
BRANCH   1   2
ATOM      2  C   UNL     1     156.199 282.563 285.924  1.00  0.00     0.000 C 
BRANCH   2   3
ATOM      3  C   UNL     1     156.783 283.750 286.711  1.00  0.00     0.000 C 
BRANCH   3   4
ATOM      4  C   UNL     1     157.441 284.802 285.804  1.00  0.00     0.000 C 
BRANCH   4   5
ATOM      5  C   UNL     1     158.779 285.308 286.369  1.00  0.00     0.000 C 
BRANCH   5   6
ATOM      6  C   UNL     1     159.185 286.686 285.813  1.00  0.00     0.000 C 
BRANCH   6   7
ATOM      7  C   UNL     1     160.287 287.419 286.609  1.00  0.00     0.000 C 
BRANCH   7   8
ATOM      8  C   UNL     1     159.820 288.668 287.383  1.00  0.00     0.000 C 
BRANCH   8   9
ATOM      9  C   UNL     1     158.900 289.616 286.589  1.00  0.00     0.000 C 
BRANCH   9  10
ATOM     10  C   UNL     1     157.939 290.456 287.450  1.00  0.00     0.000 C 
BRANCH  10  11
ATOM     11  C   UNL     1     158.184 290.373 288.970  1.00  0.00     0.000 C 
BRANCH  11  12
ATOM     12  C   UNL     1     156.950 290.661 289.846  1.00  0.00     0.006 C 
BRANCH  12  13
ATOM     13  C   UNL     1     157.192 290.375 291.334  1.00  0.00     0.053 C 
BRANCH  13  14
ATOM     14  C   UNL     1     156.023 289.655 291.929  1.00  0.00     0.041 C 
ATOM     15  O   UNL     1     155.503 288.680 291.323  1.00  0.00    -0.550 OA
ATOM     16  O   UNL     1     155.503 290.064 293.151  1.00  0.00    -0.550 OA
ENDBRANCH  13  14
ENDBRANCH  12  13
ENDBRANCH  11  12
ENDBRANCH  10  11
ENDBRANCH   9  10
ENDBRANCH   8   9
ENDBRANCH   7   8
ENDBRANCH   6   7
ENDBRANCH   5   6
ENDBRANCH   4   5
ENDBRANCH   3   4
ENDBRANCH   2   3
ENDBRANCH   1   2
BRANCH   1  17
ATOM     17  C   UNL     1     154.112 283.204 284.505  1.00  0.00     0.000 C 
BRANCH  17  18
ATOM     18  C   UNL     1     155.050 282.986 283.305  1.00  0.00     0.000 C 
BRANCH  18  19
ATOM     19  C   UNL     1     155.560 284.306 282.710  1.00  0.00     0.000 C 
BRANCH  19  20
ATOM     20  C   UNL     1     154.625 285.491 282.988  1.00  0.00     0.000 C 
BRANCH  20  21
ATOM     21  C   UNL     1     155.232 286.794 282.457  1.00  0.00     0.000 C 
BRANCH  21  22
ATOM     22  C   UNL     1     156.655 287.004 282.996  1.00  0.00    -0.000 C 
BRANCH  22  23
ATOM     23  C   UNL     1     156.807 288.333 283.754  1.00  0.00    -0.000 C 
BRANCH  23  24
ATOM     24  C   UNL     1     155.474 288.837 284.335  1.00  0.00    -0.000 C 
BRANCH  24  25
ATOM     25  C   UNL     1     155.375 288.614 285.852  1.00  0.00    -0.000 C 
BRANCH  25  26
ATOM     26  C   UNL     1     154.786 287.238 286.210  1.00  0.00    -0.000 C 
BRANCH  26  27
ATOM     27  C   UNL     1     154.966 286.886 287.696  1.00  0.00    -0.000 C 
BRANCH  27  28
ATOM     28  C   UNL     1     156.320 287.304 288.300  1.00  0.00    -0.000 C 
BRANCH  28  29
ATOM     29  C   UNL     1     156.903 286.274 289.291  1.00  0.00    -0.003 C 
ATOM     30  C   UNL     1     158.146 286.794 290.014  1.00  0.00     0.004 C 
ENDBRANCH  28  29
ENDBRANCH  27  28
ENDBRANCH  26  27
ENDBRANCH  25  26
ENDBRANCH  24  25
ENDBRANCH  23  24
ENDBRANCH  22  23
ENDBRANCH  21  22
ENDBRANCH  20  21
ENDBRANCH  19  20
ENDBRANCH  18  19
ENDBRANCH  17  18
ENDBRANCH   1  17
TORSDOF 26
ENDMDL
MODEL 9
REMARK VINA RESULT:    -4.196      2.368      4.453
REMARK INTER + INTRA:         -15.587
REMARK INTER:                 -10.244
REMARK INTRA:                  -5.343
REMARK UNBOUND:                -5.014
REMARK SMILES CCCCCCCCCCCCCCCCCCCCCCCCCCCC(=O)[O-]
REMARK SMILES IDX 15 1 16 2 17 3 18 4 19 5 20 6 21 7 22 8 23 9 24 10 25 11
REMARK SMILES IDX 26 12 27 13 28 14 29 15 30 16 14 17 13 18 12 19 11 20 10 21
REMARK SMILES IDX 9 22 8 23 7 24 6 25 5 26 4 27 3 28 2 29 1 30
REMARK H PARENT
REMARK Flexibility Score: inf
ROOT
ATOM      1  C   UNL     1     154.321 284.957 289.063  1.00  0.00     0.000 C 
ENDROOT
BRANCH   1   2
ATOM      2  C   UNL     1     153.859 286.085 288.119  1.00  0.00     0.000 C 
BRANCH   2   3
ATOM      3  C   UNL     1     154.533 286.022 286.737  1.00  0.00     0.000 C 
BRANCH   3   4
ATOM      4  C   UNL     1     155.803 286.884 286.652  1.00  0.00     0.000 C 
BRANCH   4   5
ATOM      5  C   UNL     1     157.012 286.095 286.119  1.00  0.00     0.000 C 
BRANCH   5   6
ATOM      6  C   UNL     1     157.949 285.603 287.238  1.00  0.00     0.000 C 
BRANCH   6   7
ATOM      7  C   UNL     1     158.254 286.637 288.343  1.00  0.00     0.000 C 
BRANCH   7   8
ATOM      8  C   UNL     1     157.696 286.294 289.738  1.00  0.00     0.000 C 
BRANCH   8   9
ATOM      9  C   UNL     1     157.322 287.512 290.605  1.00  0.00     0.000 C 
BRANCH   9  10
ATOM     10  C   UNL     1     156.051 288.259 290.158  1.00  0.00     0.000 C 
BRANCH  10  11
ATOM     11  C   UNL     1     156.217 289.782 289.985  1.00  0.00     0.000 C 
BRANCH  11  12
ATOM     12  C   UNL     1     156.499 290.247 288.544  1.00  0.00     0.006 C 
BRANCH  12  13
ATOM     13  C   UNL     1     157.998 290.317 288.221  1.00  0.00     0.053 C 
BRANCH  13  14
ATOM     14  C   UNL     1     158.235 290.056 286.766  1.00  0.00     0.041 C 
ATOM     15  O   UNL     1     157.311 290.237 285.929  1.00  0.00    -0.550 OA
ATOM     16  O   UNL     1     159.477 289.606 286.335  1.00  0.00    -0.550 OA
ENDBRANCH  13  14
ENDBRANCH  12  13
ENDBRANCH  11  12
ENDBRANCH  10  11
ENDBRANCH   9  10
ENDBRANCH   8   9
ENDBRANCH   7   8
ENDBRANCH   6   7
ENDBRANCH   5   6
ENDBRANCH   4   5
ENDBRANCH   3   4
ENDBRANCH   2   3
ENDBRANCH   1   2
BRANCH   1  17
ATOM     17  C   UNL     1     153.523 283.642 288.956  1.00  0.00     0.000 C 
BRANCH  17  18
ATOM     18  C   UNL     1     154.384 282.448 288.506  1.00  0.00     0.000 C 
BRANCH  18  19
ATOM     19  C   UNL     1     155.858 282.829 288.305  1.00  0.00     0.000 C 
BRANCH  19  20
ATOM     20  C   UNL     1     156.472 282.206 287.042  1.00  0.00     0.000 C 
BRANCH  20  21
ATOM     21  C   UNL     1     155.484 282.274 285.872  1.00  0.00     0.000 C 
BRANCH  21  22
ATOM     22  C   UNL     1     156.077 283.052 284.689  1.00  0.00    -0.000 C 
BRANCH  22  23
ATOM     23  C   UNL     1     155.168 283.023 283.450  1.00  0.00    -0.000 C 
BRANCH  23  24
ATOM     24  C   UNL     1     154.190 284.212 283.408  1.00  0.00    -0.000 C 
BRANCH  24  25
ATOM     25  C   UNL     1     152.724 283.769 283.531  1.00  0.00    -0.000 C 
BRANCH  25  26
ATOM     26  C   UNL     1     151.896 284.710 284.424  1.00  0.00    -0.000 C 
BRANCH  26  27
ATOM     27  C   UNL     1     151.561 284.088 285.789  1.00  0.00    -0.000 C 
BRANCH  27  28
ATOM     28  C   UNL     1     150.228 284.555 286.403  1.00  0.00    -0.000 C 
BRANCH  28  29
ATOM     29  C   UNL     1     150.099 284.253 287.911  1.00  0.00    -0.003 C 
ATOM     30  C   UNL     1     149.918 282.761 288.197  1.00  0.00     0.004 C 
ENDBRANCH  28  29
ENDBRANCH  27  28
ENDBRANCH  26  27
ENDBRANCH  25  26
ENDBRANCH  24  25
ENDBRANCH  23  24
ENDBRANCH  22  23
ENDBRANCH  21  22
ENDBRANCH  20  21
ENDBRANCH  19  20
ENDBRANCH  18  19
ENDBRANCH  17  18
ENDBRANCH   1  17
TORSDOF 26
ENDMDL
