MODEL 1
REMARK VINA RESULT:    -6.644      0.000      0.000
REMARK INTER + INTRA:          -8.167
REMARK INTER:                  -8.003
REMARK INTRA:                  -0.164
REMARK UNBOUND:                -0.164
REMARK SMILES O=c1c(O)c(-c2ccc(O)c(O)c2)oc2cc(O)cc(O)c12
REMARK SMILES IDX 5 1 3 2 2 3 1 4 22 5 20 6 19 7 17 8 16 9 15 10 14 11 6 12
REMARK SMILES IDX 7 13 8 14 9 15 13 16 11 17 10 18 12 20 4 22 21 24 18 26
REMARK H PARENT 10 19 12 21 4 23 21 25 18 27
REMARK Flexibility Score: inf
ROOT
ATOM      1  C   UNL     1     -20.232  16.311  -2.827  1.00  0.00     0.180 A 
ATOM      2  C   UNL     1     -21.583  15.925  -2.794  1.00  0.00     0.208 A 
ATOM      3  C   UNL     1     -22.517  16.767  -2.171  1.00  0.00     0.238 A 
ATOM      4  O   UNL     1     -23.733  16.443  -2.192  1.00  0.00    -0.285 OA
ATOM      5  C   UNL     1     -22.087  17.977  -1.573  1.00  0.00     0.111 A 
ATOM      6  C   UNL     1     -22.940  18.887  -0.879  1.00  0.00     0.134 A 
ATOM      7  C   UNL     1     -22.429  20.115  -0.442  1.00  0.00     0.093 A 
ATOM      8  C   UNL     1     -21.084  20.439  -0.615  1.00  0.00     0.123 A 
ATOM      9  C   UNL     1     -20.228  19.531  -1.240  1.00  0.00     0.094 A 
ATOM     10  C   UNL     1     -20.715  18.313  -1.719  1.00  0.00     0.146 A 
ATOM     11  O   UNL     1     -19.870  17.482  -2.316  1.00  0.00    -0.452 OA
ENDROOT
BRANCH   1  12
ATOM     12  C   UNL     1     -19.185  15.464  -3.444  1.00  0.00     0.025 A 
ATOM     13  C   UNL     1     -18.148  14.907  -2.677  1.00  0.00     0.016 A 
ATOM     14  C   UNL     1     -17.158  14.131  -3.286  1.00  0.00     0.051 A 
ATOM     15  C   UNL     1     -17.183  13.911  -4.668  1.00  0.00     0.157 A 
ATOM     16  C   UNL     1     -19.194  15.257  -4.833  1.00  0.00     0.062 A 
ATOM     17  C   UNL     1     -18.205  14.480  -5.446  1.00  0.00     0.158 A 
BRANCH  15  18
ATOM     18  O   UNL     1     -16.195  13.134  -5.272  1.00  0.00    -0.504 OA
ATOM     19  H   UNL     1     -15.342  13.546  -5.631  1.00  0.00     0.293 HD
ENDBRANCH  15  18
BRANCH  17  20
ATOM     20  O   UNL     1     -18.254  14.285  -6.826  1.00  0.00    -0.504 OA
ATOM     21  H   UNL     1     -17.514  14.602  -7.441  1.00  0.00     0.293 HD
ENDBRANCH  17  20
ENDBRANCH   1  12
BRANCH   2  22
ATOM     22  O   UNL     1     -21.991  14.738  -3.409  1.00  0.00    -0.502 OA
ATOM     23  H   UNL     1     -22.143  14.666  -4.408  1.00  0.00     0.293 HD
ENDBRANCH   2  22
BRANCH   6  24
ATOM     24  O   UNL     1     -24.277  18.623  -0.572  1.00  0.00    -0.507 OA
ATOM     25  H   UNL     1     -24.589  17.926   0.088  1.00  0.00     0.293 HD
ENDBRANCH   6  24
BRANCH   8  26
ATOM     26  O   UNL     1     -20.606  21.663  -0.153  1.00  0.00    -0.508 OA
ATOM     27  H   UNL     1     -21.131  22.223   0.508  1.00  0.00     0.293 HD
ENDBRANCH   8  26
TORSDOF 6
ENDMDL
MODEL 2
REMARK VINA RESULT:    -6.443      1.463      3.300
REMARK INTER + INTRA:          -7.925
REMARK INTER:                  -7.769
REMARK INTRA:                  -0.156
REMARK UNBOUND:                -0.164
REMARK SMILES O=c1c(O)c(-c2ccc(O)c(O)c2)oc2cc(O)cc(O)c12
REMARK SMILES IDX 5 1 3 2 2 3 1 4 22 5 20 6 19 7 17 8 16 9 15 10 14 11 6 12
REMARK SMILES IDX 7 13 8 14 9 15 13 16 11 17 10 18 12 20 4 22 21 24 18 26
REMARK H PARENT 10 19 12 21 4 23 21 25 18 27
REMARK Flexibility Score: inf
ROOT
ATOM      1  C   UNL     1     -18.877  16.751  -2.642  1.00  0.00     0.180 A 
ATOM      2  C   UNL     1     -18.044  17.638  -1.938  1.00  0.00     0.208 A 
ATOM      3  C   UNL     1     -18.630  18.620  -1.123  1.00  0.00     0.238 A 
ATOM      4  O   UNL     1     -17.880  19.376  -0.453  1.00  0.00    -0.285 OA
ATOM      5  C   UNL     1     -20.040  18.713  -1.036  1.00  0.00     0.111 A 
ATOM      6  C   UNL     1     -20.742  19.694  -0.272  1.00  0.00     0.134 A 
ATOM      7  C   UNL     1     -22.134  19.611  -0.154  1.00  0.00     0.093 A 
ATOM      8  C   UNL     1     -22.856  18.623  -0.822  1.00  0.00     0.123 A 
ATOM      9  C   UNL     1     -22.186  17.694  -1.619  1.00  0.00     0.094 A 
ATOM     10  C   UNL     1     -20.794  17.729  -1.728  1.00  0.00     0.146 A 
ATOM     11  O   UNL     1     -20.194  16.821  -2.488  1.00  0.00    -0.452 OA
ENDROOT
BRANCH   1  12
ATOM     12  C   UNL     1     -18.333  15.706  -3.540  1.00  0.00     0.025 A 
ATOM     13  C   UNL     1     -18.594  15.720  -4.921  1.00  0.00     0.016 A 
ATOM     14  C   UNL     1     -18.090  14.709  -5.745  1.00  0.00     0.051 A 
ATOM     15  C   UNL     1     -17.331  13.666  -5.201  1.00  0.00     0.157 A 
ATOM     16  C   UNL     1     -17.589  14.646  -2.996  1.00  0.00     0.062 A 
ATOM     17  C   UNL     1     -17.082  13.633  -3.819  1.00  0.00     0.158 A 
BRANCH  15  18
ATOM     18  O   UNL     1     -16.828  12.661  -6.026  1.00  0.00    -0.504 OA
ATOM     19  H   UNL     1     -16.833  11.689  -5.741  1.00  0.00     0.293 HD
ENDBRANCH  15  18
BRANCH  17  20
ATOM     20  O   UNL     1     -16.335  12.604  -3.245  1.00  0.00    -0.504 OA
ATOM     21  H   UNL     1     -16.370  11.655  -3.595  1.00  0.00     0.293 HD
ENDBRANCH  17  20
ENDBRANCH   1  12
BRANCH   2  22
ATOM     22  O   UNL     1     -16.654  17.515  -2.022  1.00  0.00    -0.502 OA
ATOM     23  H   UNL     1     -16.109  17.013  -1.332  1.00  0.00     0.293 HD
ENDBRANCH   2  22
BRANCH   6  24
ATOM     24  O   UNL     1     -20.126  20.777   0.360  1.00  0.00    -0.507 OA
ATOM     25  H   UNL     1     -20.526  21.300   1.126  1.00  0.00     0.293 HD
ENDBRANCH   6  24
BRANCH   8  26
ATOM     26  O   UNL     1     -24.243  18.579  -0.694  1.00  0.00    -0.508 OA
ATOM     27  H   UNL     1     -24.817  19.395  -0.865  1.00  0.00     0.293 HD
ENDBRANCH   8  26
TORSDOF 6
ENDMDL
MODEL 3
REMARK VINA RESULT:    -6.305      2.537      4.496
REMARK INTER + INTRA:          -7.759
REMARK INTER:                  -7.662
REMARK INTRA:                  -0.097
REMARK UNBOUND:                -0.164
REMARK SMILES O=c1c(O)c(-c2ccc(O)c(O)c2)oc2cc(O)cc(O)c12
REMARK SMILES IDX 5 1 3 2 2 3 1 4 22 5 20 6 19 7 17 8 16 9 15 10 14 11 6 12
REMARK SMILES IDX 7 13 8 14 9 15 13 16 11 17 10 18 12 20 4 22 21 24 18 26
REMARK H PARENT 10 19 12 21 4 23 21 25 18 27
REMARK Flexibility Score: inf
ROOT
ATOM      1  C   UNL     1     -19.242  16.454  -1.987  1.00  0.00     0.180 A 
ATOM      2  C   UNL     1     -18.089  15.958  -1.354  1.00  0.00     0.208 A 
ATOM      3  C   UNL     1     -17.341  16.816  -0.533  1.00  0.00     0.238 A 
ATOM      4  O   UNL     1     -16.341  16.353   0.075  1.00  0.00    -0.285 OA
ATOM      5  C   UNL     1     -17.744  18.163  -0.369  1.00  0.00     0.111 A 
ATOM      6  C   UNL     1     -17.039  19.132   0.406  1.00  0.00     0.134 A 
ATOM      7  C   UNL     1     -17.600  20.400   0.604  1.00  0.00     0.093 A 
ATOM      8  C   UNL     1     -18.806  20.755   0.003  1.00  0.00     0.123 A 
ATOM      9  C   UNL     1     -19.475  19.835  -0.806  1.00  0.00     0.094 A 
ATOM     10  C   UNL     1     -18.959  18.551  -0.994  1.00  0.00     0.146 A 
ATOM     11  O   UNL     1     -19.631  17.703  -1.762  1.00  0.00    -0.452 OA
ENDROOT
BRANCH   1  12
ATOM     12  C   UNL     1     -20.068  15.616  -2.887  1.00  0.00     0.025 A 
ATOM     13  C   UNL     1     -19.510  14.974  -4.006  1.00  0.00     0.016 A 
ATOM     14  C   UNL     1     -20.315  14.208  -4.855  1.00  0.00     0.051 A 
ATOM     15  C   UNL     1     -21.687  14.084  -4.606  1.00  0.00     0.157 A 
ATOM     16  C   UNL     1     -21.448  15.505  -2.654  1.00  0.00     0.062 A 
ATOM     17  C   UNL     1     -22.257  14.738  -3.501  1.00  0.00     0.158 A 
BRANCH  15  18
ATOM     18  O   UNL     1     -22.486  13.317  -5.453  1.00  0.00    -0.504 OA
ATOM     19  H   UNL     1     -22.933  12.466  -5.134  1.00  0.00     0.293 HD
ENDBRANCH  15  18
BRANCH  17  20
ATOM     20  O   UNL     1     -23.621  14.640  -3.230  1.00  0.00    -0.504 OA
ATOM     21  H   UNL     1     -24.031  15.016  -2.384  1.00  0.00     0.293 HD
ENDBRANCH  17  20
ENDBRANCH   1  12
BRANCH   2  22
ATOM     22  O   UNL     1     -17.720  14.619  -1.512  1.00  0.00    -0.502 OA
ATOM     23  H   UNL     1     -16.805  14.342  -1.846  1.00  0.00     0.293 HD
ENDBRANCH   2  22
BRANCH   6  24
ATOM     24  O   UNL     1     -15.782  18.911   0.976  1.00  0.00    -0.507 OA
ATOM     25  H   UNL     1     -15.355  18.004   1.093  1.00  0.00     0.293 HD
ENDBRANCH   6  24
BRANCH   8  26
ATOM     26  O   UNL     1     -19.328  22.031   0.208  1.00  0.00    -0.508 OA
ATOM     27  H   UNL     1     -19.035  22.604   0.990  1.00  0.00     0.293 HD
ENDBRANCH   8  26
TORSDOF 6
ENDMDL
MODEL 4
REMARK VINA RESULT:    -6.195      2.469      7.161
REMARK INTER + INTRA:          -7.626
REMARK INTER:                  -7.305
REMARK INTRA:                  -0.321
REMARK UNBOUND:                -0.164
REMARK SMILES O=c1c(O)c(-c2ccc(O)c(O)c2)oc2cc(O)cc(O)c12
REMARK SMILES IDX 5 1 3 2 2 3 1 4 22 5 20 6 19 7 17 8 16 9 15 10 14 11 6 12
REMARK SMILES IDX 7 13 8 14 9 15 13 16 11 17 10 18 12 20 4 22 21 24 18 26
REMARK H PARENT 10 19 12 21 4 23 21 25 18 27
REMARK Flexibility Score: inf
ROOT
ATOM      1  C   UNL     1     -18.151  16.863  -1.794  1.00  0.00     0.180 A 
ATOM      2  C   UNL     1     -17.736  15.796  -0.978  1.00  0.00     0.208 A 
ATOM      3  C   UNL     1     -17.543  14.532  -1.557  1.00  0.00     0.238 A 
ATOM      4  O   UNL     1     -17.120  13.593  -0.833  1.00  0.00    -0.285 OA
ATOM      5  C   UNL     1     -17.784  14.346  -2.940  1.00  0.00     0.111 A 
ATOM      6  C   UNL     1     -17.661  13.099  -3.624  1.00  0.00     0.134 A 
ATOM      7  C   UNL     1     -17.797  13.059  -5.017  1.00  0.00     0.093 A 
ATOM      8  C   UNL     1     -18.115  14.207  -5.743  1.00  0.00     0.123 A 
ATOM      9  C   UNL     1     -18.297  15.420  -5.077  1.00  0.00     0.094 A 
ATOM     10  C   UNL     1     -18.133  15.498  -3.692  1.00  0.00     0.146 A 
ATOM     11  O   UNL     1     -18.304  16.673  -3.099  1.00  0.00    -0.452 OA
ENDROOT
BRANCH   1  12
ATOM     12  C   UNL     1     -18.398  18.219  -1.251  1.00  0.00     0.025 A 
ATOM     13  C   UNL     1     -17.360  19.158  -1.126  1.00  0.00     0.016 A 
ATOM     14  C   UNL     1     -17.614  20.423  -0.589  1.00  0.00     0.051 A 
ATOM     15  C   UNL     1     -18.902  20.763  -0.156  1.00  0.00     0.157 A 
ATOM     16  C   UNL     1     -19.684  18.557  -0.796  1.00  0.00     0.062 A 
ATOM     17  C   UNL     1     -19.941  19.823  -0.258  1.00  0.00     0.158 A 
BRANCH  15  18
ATOM     18  O   UNL     1     -19.152  22.026   0.378  1.00  0.00    -0.504 OA
ATOM     19  H   UNL     1     -18.657  22.847   0.051  1.00  0.00     0.293 HD
ENDBRANCH  15  18
BRANCH  17  20
ATOM     20  O   UNL     1     -21.233  20.127   0.170  1.00  0.00    -0.504 OA
ATOM     21  H   UNL     1     -21.447  20.983   0.668  1.00  0.00     0.293 HD
ENDBRANCH  17  20
ENDBRANCH   1  12
BRANCH   2  22
ATOM     22  O   UNL     1     -17.483  16.005   0.381  1.00  0.00    -0.502 OA
ATOM     23  H   UNL     1     -17.869  15.410   1.104  1.00  0.00     0.293 HD
ENDBRANCH   2  22
BRANCH   6  24
ATOM     24  O   UNL     1     -17.434  11.878  -2.985  1.00  0.00    -0.507 OA
ATOM     25  H   UNL     1     -17.018  11.775  -2.071  1.00  0.00     0.293 HD
ENDBRANCH   6  24
BRANCH   8  26
ATOM     26  O   UNL     1     -18.258  14.128  -7.126  1.00  0.00    -0.508 OA
ATOM     27  H   UNL     1     -17.483  14.314  -7.751  1.00  0.00     0.293 HD
ENDBRANCH   8  26
TORSDOF 6
ENDMDL
MODEL 5
REMARK VINA RESULT:    -6.156      2.140      6.618
REMARK INTER + INTRA:          -7.579
REMARK INTER:                  -7.532
REMARK INTRA:                  -0.046
REMARK UNBOUND:                -0.164
REMARK SMILES O=c1c(O)c(-c2ccc(O)c(O)c2)oc2cc(O)cc(O)c12
REMARK SMILES IDX 5 1 3 2 2 3 1 4 22 5 20 6 19 7 17 8 16 9 15 10 14 11 6 12
REMARK SMILES IDX 7 13 8 14 9 15 13 16 11 17 10 18 12 20 4 22 21 24 18 26
REMARK H PARENT 10 19 12 21 4 23 21 25 18 27
REMARK Flexibility Score: inf
ROOT
ATOM      1  C   UNL     1     -19.341  17.475  -2.481  1.00  0.00     0.180 A 
ATOM      2  C   UNL     1     -18.389  17.112  -3.450  1.00  0.00     0.208 A 
ATOM      3  C   UNL     1     -18.648  16.009  -4.279  1.00  0.00     0.238 A 
ATOM      4  O   UNL     1     -17.817  15.721  -5.180  1.00  0.00    -0.285 OA
ATOM      5  C   UNL     1     -19.847  15.273  -4.119  1.00  0.00     0.111 A 
ATOM      6  C   UNL     1     -20.194  14.114  -4.876  1.00  0.00     0.134 A 
ATOM      7  C   UNL     1     -21.463  13.543  -4.723  1.00  0.00     0.093 A 
ATOM      8  C   UNL     1     -22.373  14.049  -3.795  1.00  0.00     0.123 A 
ATOM      9  C   UNL     1     -22.022  15.145  -3.007  1.00  0.00     0.094 A 
ATOM     10  C   UNL     1     -20.776  15.759  -3.162  1.00  0.00     0.146 A 
ATOM     11  O   UNL     1     -20.485  16.805  -2.400  1.00  0.00    -0.452 OA
ENDROOT
BRANCH   1  12
ATOM     12  C   UNL     1     -19.128  18.610  -1.554  1.00  0.00     0.025 A 
ATOM     13  C   UNL     1     -17.953  18.721  -0.791  1.00  0.00     0.016 A 
ATOM     14  C   UNL     1     -17.785  19.789   0.095  1.00  0.00     0.051 A 
ATOM     15  C   UNL     1     -18.791  20.751   0.242  1.00  0.00     0.157 A 
ATOM     16  C   UNL     1     -20.143  19.567  -1.389  1.00  0.00     0.062 A 
ATOM     17  C   UNL     1     -19.978  20.638  -0.503  1.00  0.00     0.158 A 
BRANCH  15  18
ATOM     18  O   UNL     1     -18.620  21.816   1.125  1.00  0.00    -0.504 OA
ATOM     19  H   UNL     1     -19.003  22.734   0.931  1.00  0.00     0.293 HD
ENDBRANCH  15  18
BRANCH  17  20
ATOM     20  O   UNL     1     -21.002  21.576  -0.374  1.00  0.00    -0.504 OA
ATOM     21  H   UNL     1     -21.266  22.191  -1.134  1.00  0.00     0.293 HD
ENDBRANCH  17  20
ENDBRANCH   1  12
BRANCH   2  22
ATOM     22  O   UNL     1     -17.222  17.864  -3.605  1.00  0.00    -0.502 OA
ATOM     23  H   UNL     1     -17.188  18.708  -4.166  1.00  0.00     0.293 HD
ENDBRANCH   2  22
BRANCH   6  24
ATOM     24  O   UNL     1     -19.325  13.473  -5.764  1.00  0.00    -0.507 OA
ATOM     25  H   UNL     1     -18.327  13.397  -5.638  1.00  0.00     0.293 HD
ENDBRANCH   6  24
BRANCH   8  26
ATOM     26  O   UNL     1     -23.622  13.447  -3.658  1.00  0.00    -0.508 OA
ATOM     27  H   UNL     1     -24.410  13.724  -4.230  1.00  0.00     0.293 HD
ENDBRANCH   8  26
TORSDOF 6
ENDMDL
MODEL 6
REMARK VINA RESULT:    -6.145      1.806      7.188
REMARK INTER + INTRA:          -7.566
REMARK INTER:                  -7.385
REMARK INTRA:                  -0.181
REMARK UNBOUND:                -0.164
REMARK SMILES O=c1c(O)c(-c2ccc(O)c(O)c2)oc2cc(O)cc(O)c12
REMARK SMILES IDX 5 1 3 2 2 3 1 4 22 5 20 6 19 7 17 8 16 9 15 10 14 11 6 12
REMARK SMILES IDX 7 13 8 14 9 15 13 16 11 17 10 18 12 20 4 22 21 24 18 26
REMARK H PARENT 10 19 12 21 4 23 21 25 18 27
REMARK Flexibility Score: inf
ROOT
ATOM      1  C   UNL     1     -19.371  17.081  -1.653  1.00  0.00     0.180 A 
ATOM      2  C   UNL     1     -18.564  16.326  -0.784  1.00  0.00     0.208 A 
ATOM      3  C   UNL     1     -17.858  15.225  -1.294  1.00  0.00     0.238 A 
ATOM      4  O   UNL     1     -17.095  14.585  -0.524  1.00  0.00    -0.285 OA
ATOM      5  C   UNL     1     -17.981  14.883  -2.663  1.00  0.00     0.111 A 
ATOM      6  C   UNL     1     -17.343  13.764  -3.279  1.00  0.00     0.134 A 
ATOM      7  C   UNL     1     -17.430  13.596  -4.666  1.00  0.00     0.093 A 
ATOM      8  C   UNL     1     -18.183  14.469  -5.451  1.00  0.00     0.123 A 
ATOM      9  C   UNL     1     -18.860  15.532  -4.851  1.00  0.00     0.094 A 
ATOM     10  C   UNL     1     -18.763  15.746  -3.474  1.00  0.00     0.146 A 
ATOM     11  O   UNL     1     -19.413  16.775  -2.945  1.00  0.00    -0.452 OA
ENDROOT
BRANCH   1  12
ATOM     12  C   UNL     1     -20.164  18.240  -1.183  1.00  0.00     0.025 A 
ATOM     13  C   UNL     1     -21.570  18.217  -1.194  1.00  0.00     0.016 A 
ATOM     14  C   UNL     1     -22.297  19.332  -0.768  1.00  0.00     0.051 A 
ATOM     15  C   UNL     1     -21.633  20.488  -0.339  1.00  0.00     0.157 A 
ATOM     16  C   UNL     1     -19.503  19.409  -0.772  1.00  0.00     0.062 A 
ATOM     17  C   UNL     1     -20.228  20.527  -0.344  1.00  0.00     0.158 A 
BRANCH  15  18
ATOM     18  O   UNL     1     -22.361  21.598   0.087  1.00  0.00    -0.504 OA
ATOM     19  H   UNL     1     -22.063  22.157   0.877  1.00  0.00     0.293 HD
ENDBRANCH  15  18
BRANCH  17  20
ATOM     20  O   UNL     1     -19.537  21.665   0.070  1.00  0.00    -0.504 OA
ATOM     21  H   UNL     1     -18.691  21.978  -0.390  1.00  0.00     0.293 HD
ENDBRANCH  17  20
ENDBRANCH   1  12
BRANCH   2  22
ATOM     22  O   UNL     1     -18.441  16.693   0.559  1.00  0.00    -0.502 OA
ATOM     23  H   UNL     1     -18.843  17.547   0.929  1.00  0.00     0.293 HD
ENDBRANCH   2  22
BRANCH   6  24
ATOM     24  O   UNL     1     -16.641  12.781  -2.575  1.00  0.00    -0.507 OA
ATOM     25  H   UNL     1     -15.917  12.966  -1.897  1.00  0.00     0.293 HD
ENDBRANCH   6  24
BRANCH   8  26
ATOM     26  O   UNL     1     -18.261  14.264  -6.827  1.00  0.00    -0.508 OA
ATOM     27  H   UNL     1     -17.769  13.502  -7.278  1.00  0.00     0.293 HD
ENDBRANCH   8  26
TORSDOF 6
ENDMDL
MODEL 7
REMARK VINA RESULT:    -6.063      2.511      4.233
REMARK INTER + INTRA:          -7.467
REMARK INTER:                  -7.472
REMARK INTRA:                   0.004
REMARK UNBOUND:                -0.164
REMARK SMILES O=c1c(O)c(-c2ccc(O)c(O)c2)oc2cc(O)cc(O)c12
REMARK SMILES IDX 5 1 3 2 2 3 1 4 22 5 20 6 19 7 17 8 16 9 15 10 14 11 6 12
REMARK SMILES IDX 7 13 8 14 9 15 13 16 11 17 10 18 12 20 4 22 21 24 18 26
REMARK H PARENT 10 19 12 21 4 23 21 25 18 27
REMARK Flexibility Score: inf
ROOT
ATOM      1  C   UNL     1     -20.396  17.280  -2.135  1.00  0.00     0.180 A 
ATOM      2  C   UNL     1     -21.095  18.499  -2.166  1.00  0.00     0.208 A 
ATOM      3  C   UNL     1     -20.577  19.599  -1.465  1.00  0.00     0.238 A 
ATOM      4  O   UNL     1     -21.177  20.703  -1.540  1.00  0.00    -0.285 OA
ATOM      5  C   UNL     1     -19.376  19.462  -0.728  1.00  0.00     0.111 A 
ATOM      6  C   UNL     1     -18.780  20.499   0.053  1.00  0.00     0.134 A 
ATOM      7  C   UNL     1     -17.524  20.291   0.634  1.00  0.00     0.093 A 
ATOM      8  C   UNL     1     -16.871  19.065   0.518  1.00  0.00     0.123 A 
ATOM      9  C   UNL     1     -17.470  18.024  -0.193  1.00  0.00     0.094 A 
ATOM     10  C   UNL     1     -18.707  18.213  -0.814  1.00  0.00     0.146 A 
ATOM     11  O   UNL     1     -19.238  17.201  -1.489  1.00  0.00    -0.452 OA
ENDROOT
BRANCH   1  12
ATOM     12  C   UNL     1     -20.893  16.069  -2.829  1.00  0.00     0.025 A 
ATOM     13  C   UNL     1     -20.087  15.364  -3.739  1.00  0.00     0.016 A 
ATOM     14  C   UNL     1     -20.586  14.239  -4.400  1.00  0.00     0.051 A 
ATOM     15  C   UNL     1     -21.900  13.810  -4.172  1.00  0.00     0.157 A 
ATOM     16  C   UNL     1     -22.216  15.647  -2.619  1.00  0.00     0.062 A 
ATOM     17  C   UNL     1     -22.719  14.520  -3.279  1.00  0.00     0.158 A 
BRANCH  15  18
ATOM     18  O   UNL     1     -22.394  12.685  -4.831  1.00  0.00    -0.504 OA
ATOM     19  H   UNL     1     -22.359  11.765  -4.409  1.00  0.00     0.293 HD
ENDBRANCH  15  18
BRANCH  17  20
ATOM     20  O   UNL     1     -24.034  14.122  -3.036  1.00  0.00    -0.504 OA
ATOM     21  H   UNL     1     -24.435  13.298  -3.465  1.00  0.00     0.293 HD
ENDBRANCH  17  20
ENDBRANCH   1  12
BRANCH   2  22
ATOM     22  O   UNL     1     -22.268  18.619  -2.917  1.00  0.00    -0.502 OA
ATOM     23  H   UNL     1     -23.080  19.124  -2.582  1.00  0.00     0.293 HD
ENDBRANCH   2  22
BRANCH   6  24
ATOM     24  O   UNL     1     -19.390  21.730   0.308  1.00  0.00    -0.507 OA
ATOM     25  H   UNL     1     -19.968  22.234  -0.349  1.00  0.00     0.293 HD
ENDBRANCH   6  24
BRANCH   8  26
ATOM     26  O   UNL     1     -15.628  18.887   1.123  1.00  0.00    -0.508 OA
ATOM     27  H   UNL     1     -14.767  18.951   0.593  1.00  0.00     0.293 HD
ENDBRANCH   8  26
TORSDOF 6
ENDMDL
MODEL 8
REMARK VINA RESULT:    -5.975      1.706      3.262
REMARK INTER + INTRA:          -7.361
REMARK INTER:                  -7.073
REMARK INTRA:                  -0.288
REMARK UNBOUND:                -0.164
REMARK SMILES O=c1c(O)c(-c2ccc(O)c(O)c2)oc2cc(O)cc(O)c12
REMARK SMILES IDX 5 1 3 2 2 3 1 4 22 5 20 6 19 7 17 8 16 9 15 10 14 11 6 12
REMARK SMILES IDX 7 13 8 14 9 15 13 16 11 17 10 18 12 20 4 22 21 24 18 26
REMARK H PARENT 10 19 12 21 4 23 21 25 18 27
REMARK Flexibility Score: inf
ROOT
ATOM      1  C   UNL     1     -19.977  17.555  -1.429  1.00  0.00     0.180 A 
ATOM      2  C   UNL     1     -19.501  18.854  -1.176  1.00  0.00     0.208 A 
ATOM      3  C   UNL     1     -20.370  19.801  -0.613  1.00  0.00     0.238 A 
ATOM      4  O   UNL     1     -19.924  20.945  -0.339  1.00  0.00    -0.285 OA
ATOM      5  C   UNL     1     -21.710  19.443  -0.325  1.00  0.00     0.111 A 
ATOM      6  C   UNL     1     -22.690  20.334   0.208  1.00  0.00     0.134 A 
ATOM      7  C   UNL     1     -23.947  19.838   0.576  1.00  0.00     0.093 A 
ATOM      8  C   UNL     1     -24.282  18.501   0.369  1.00  0.00     0.123 A 
ATOM      9  C   UNL     1     -23.352  17.634  -0.207  1.00  0.00     0.094 A 
ATOM     10  C   UNL     1     -22.077  18.091  -0.551  1.00  0.00     0.146 A 
ATOM     11  O   UNL     1     -21.219  17.232  -1.087  1.00  0.00    -0.452 OA
ENDROOT
BRANCH   1  12
ATOM     12  C   UNL     1     -19.126  16.510  -2.043  1.00  0.00     0.025 A 
ATOM     13  C   UNL     1     -18.496  15.526  -1.262  1.00  0.00     0.016 A 
ATOM     14  C   UNL     1     -17.679  14.565  -1.863  1.00  0.00     0.051 A 
ATOM     15  C   UNL     1     -17.469  14.580  -3.247  1.00  0.00     0.157 A 
ATOM     16  C   UNL     1     -18.896  16.533  -3.428  1.00  0.00     0.062 A 
ATOM     17  C   UNL     1     -18.079  15.571  -4.033  1.00  0.00     0.158 A 
BRANCH  15  18
ATOM     18  O   UNL     1     -16.654  13.618  -3.843  1.00  0.00    -0.504 OA
ATOM     19  H   UNL     1     -15.647  13.634  -3.734  1.00  0.00     0.293 HD
ENDBRANCH  15  18
BRANCH  17  20
ATOM     20  O   UNL     1     -17.884  15.618  -5.413  1.00  0.00    -0.504 OA
ATOM     21  H   UNL     1     -17.876  14.782  -5.984  1.00  0.00     0.293 HD
ENDBRANCH  17  20
ENDBRANCH   1  12
BRANCH   2  22
ATOM     22  O   UNL     1     -18.169  19.179  -1.448  1.00  0.00    -0.502 OA
ATOM     23  H   UNL     1     -17.839  19.386  -2.383  1.00  0.00     0.293 HD
ENDBRANCH   2  22
BRANCH   6  24
ATOM     24  O   UNL     1     -22.490  21.707   0.370  1.00  0.00    -0.507 OA
ATOM     25  H   UNL     1     -22.970  22.425  -0.153  1.00  0.00     0.293 HD
ENDBRANCH   6  24
BRANCH   8  26
ATOM     26  O   UNL     1     -25.547  18.044   0.732  1.00  0.00    -0.508 OA
ATOM     27  H   UNL     1     -26.260  18.676   1.077  1.00  0.00     0.293 HD
ENDBRANCH   8  26
TORSDOF 6
ENDMDL
