MODEL 1
REMARK VINA RESULT:    -6.239      0.000      0.000
REMARK INTER + INTRA:          -7.499
REMARK INTER:                  -7.333
REMARK INTRA:                  -0.166
REMARK UNBOUND:                -0.166
REMARK SMILES O=c1c(O)c(-c2ccc(O)cc2)oc2cc(O)cc(O)c12
REMARK SMILES IDX 5 1 3 2 2 3 1 4 21 5 19 6 18 7 16 8 15 9 14 10 13 11 6 12
REMARK SMILES IDX 7 13 8 14 9 15 12 16 11 17 10 18 4 20 20 22 17 24
REMARK H PARENT 10 19 4 21 20 23 17 25
REMARK Flexibility Score: inf
ROOT
ATOM      1  C   UNL     1       6.981  -8.431  28.251  1.00  0.00     0.180 A 
ATOM      2  C   UNL     1       5.777  -9.068  28.595  1.00  0.00     0.208 A 
ATOM      3  C   UNL     1       5.097  -8.662  29.755  1.00  0.00     0.238 A 
ATOM      4  O   UNL     1       4.048  -9.274  30.087  1.00  0.00    -0.285 OA
ATOM      5  C   UNL     1       5.622  -7.612  30.547  1.00  0.00     0.111 A 
ATOM      6  C   UNL     1       4.997  -7.092  31.720  1.00  0.00     0.134 A 
ATOM      7  C   UNL     1       5.670  -6.142  32.498  1.00  0.00     0.093 A 
ATOM      8  C   UNL     1       6.914  -5.646  32.111  1.00  0.00     0.123 A 
ATOM      9  C   UNL     1       7.508  -6.104  30.935  1.00  0.00     0.094 A 
ATOM     10  C   UNL     1       6.878  -7.078  30.157  1.00  0.00     0.146 A 
ATOM     11  O   UNL     1       7.480  -7.495  29.050  1.00  0.00    -0.452 OA
ENDROOT
BRANCH   1  12
ATOM     12  C   UNL     1       7.740  -8.787  27.031  1.00  0.00     0.021 A 
ATOM     13  C   UNL     1       7.192  -8.506  25.768  1.00  0.00     0.016 A 
ATOM     14  C   UNL     1       7.881  -8.854  24.603  1.00  0.00     0.047 A 
ATOM     15  C   UNL     1       9.121  -9.501  24.685  1.00  0.00     0.115 A 
ATOM     16  C   UNL     1       8.976  -9.455  27.106  1.00  0.00     0.016 A 
ATOM     17  C   UNL     1       9.663  -9.802  25.938  1.00  0.00     0.047 A 
BRANCH  15  18
ATOM     18  O   UNL     1       9.818  -9.852  23.531  1.00  0.00    -0.508 OA
ATOM     19  H   UNL     1       9.338 -10.025  22.656  1.00  0.00     0.293 HD
ENDBRANCH  15  18
ENDBRANCH   1  12
BRANCH   2  20
ATOM     20  O   UNL     1       5.288 -10.118  27.812  1.00  0.00    -0.502 OA
ATOM     21  H   UNL     1       4.405 -10.575  28.004  1.00  0.00     0.293 HD
ENDBRANCH   2  20
BRANCH   6  22
ATOM     22  O   UNL     1       3.715  -7.452  32.146  1.00  0.00    -0.507 OA
ATOM     23  H   UNL     1       3.452  -8.373  32.465  1.00  0.00     0.293 HD
ENDBRANCH   6  22
BRANCH   8  24
ATOM     24  O   UNL     1       7.549  -4.689  32.902  1.00  0.00    -0.508 OA
ATOM     25  H   UNL     1       8.180  -4.005  32.501  1.00  0.00     0.293 HD
ENDBRANCH   8  24
TORSDOF 5
ENDMDL
MODEL 2
REMARK VINA RESULT:    -6.214      2.237      2.647
REMARK INTER + INTRA:          -7.470
REMARK INTER:                  -7.333
REMARK INTRA:                  -0.137
REMARK UNBOUND:                -0.166
REMARK SMILES O=c1c(O)c(-c2ccc(O)cc2)oc2cc(O)cc(O)c12
REMARK SMILES IDX 5 1 3 2 2 3 1 4 21 5 19 6 18 7 16 8 15 9 14 10 13 11 6 12
REMARK SMILES IDX 7 13 8 14 9 15 12 16 11 17 10 18 4 20 20 22 17 24
REMARK H PARENT 10 19 4 21 20 23 17 25
REMARK Flexibility Score: inf
ROOT
ATOM      1  C   UNL     1       5.614  -6.841  27.553  1.00  0.00     0.180 A 
ATOM      2  C   UNL     1       4.666  -7.752  28.050  1.00  0.00     0.208 A 
ATOM      3  C   UNL     1       4.512  -7.886  29.440  1.00  0.00     0.238 A 
ATOM      4  O   UNL     1       3.700  -8.742  29.878  1.00  0.00    -0.285 OA
ATOM      5  C   UNL     1       5.296  -7.094  30.314  1.00  0.00     0.111 A 
ATOM      6  C   UNL     1       5.195  -7.119  31.737  1.00  0.00     0.134 A 
ATOM      7  C   UNL     1       6.110  -6.390  32.507  1.00  0.00     0.093 A 
ATOM      8  C   UNL     1       7.079  -5.589  31.905  1.00  0.00     0.123 A 
ATOM      9  C   UNL     1       7.149  -5.512  30.514  1.00  0.00     0.094 A 
ATOM     10  C   UNL     1       6.273  -6.255  29.719  1.00  0.00     0.146 A 
ATOM     11  O   UNL     1       6.379  -6.162  28.400  1.00  0.00    -0.452 OA
ENDROOT
BRANCH   1  12
ATOM     12  C   UNL     1       5.816  -6.627  26.102  1.00  0.00     0.021 A 
ATOM     13  C   UNL     1       5.443  -5.400  25.526  1.00  0.00     0.016 A 
ATOM     14  C   UNL     1       5.603  -5.185  24.154  1.00  0.00     0.047 A 
ATOM     15  C   UNL     1       6.125  -6.198  23.338  1.00  0.00     0.115 A 
ATOM     16  C   UNL     1       6.319  -7.646  25.273  1.00  0.00     0.016 A 
ATOM     17  C   UNL     1       6.478  -7.427  23.902  1.00  0.00     0.047 A 
BRANCH  15  18
ATOM     18  O   UNL     1       6.289  -5.994  21.970  1.00  0.00    -0.508 OA
ATOM     19  H   UNL     1       5.495  -5.928  21.345  1.00  0.00     0.293 HD
ENDBRANCH  15  18
ENDBRANCH   1  12
BRANCH   2  20
ATOM     20  O   UNL     1       3.918  -8.539  27.169  1.00  0.00    -0.502 OA
ATOM     21  H   UNL     1       3.464  -9.397  27.458  1.00  0.00     0.293 HD
ENDBRANCH   2  20
BRANCH   6  22
ATOM     22  O   UNL     1       4.204  -7.814  32.438  1.00  0.00    -0.507 OA
ATOM     23  H   UNL     1       3.217  -7.768  32.235  1.00  0.00     0.293 HD
ENDBRANCH   6  22
BRANCH   8  24
ATOM     24  O   UNL     1       7.965  -4.865  32.702  1.00  0.00    -0.508 OA
ATOM     25  H   UNL     1       8.058  -3.860  32.613  1.00  0.00     0.293 HD
ENDBRANCH   8  24
TORSDOF 5
ENDMDL
MODEL 3
REMARK VINA RESULT:    -6.127     10.304     14.548
REMARK INTER + INTRA:          -7.367
REMARK INTER:                  -7.082
REMARK INTRA:                  -0.286
REMARK UNBOUND:                -0.166
REMARK SMILES O=c1c(O)c(-c2ccc(O)cc2)oc2cc(O)cc(O)c12
REMARK SMILES IDX 5 1 3 2 2 3 1 4 21 5 19 6 18 7 16 8 15 9 14 10 13 11 6 12
REMARK SMILES IDX 7 13 8 14 9 15 12 16 11 17 10 18 4 20 20 22 17 24
REMARK H PARENT 10 19 4 21 20 23 17 25
REMARK Flexibility Score: inf
ROOT
ATOM      1  C   UNL     1      14.966  -7.524  19.355  1.00  0.00     0.180 A 
ATOM      2  C   UNL     1      14.243  -6.412  18.891  1.00  0.00     0.208 A 
ATOM      3  C   UNL     1      14.025  -6.269  17.510  1.00  0.00     0.238 A 
ATOM      4  O   UNL     1      13.424  -5.243  17.097  1.00  0.00    -0.285 OA
ATOM      5  C   UNL     1      14.518  -7.249  16.615  1.00  0.00     0.111 A 
ATOM      6  C   UNL     1      14.321  -7.226  15.202  1.00  0.00     0.134 A 
ATOM      7  C   UNL     1      14.964  -8.176  14.399  1.00  0.00     0.093 A 
ATOM      8  C   UNL     1      15.742  -9.186  14.963  1.00  0.00     0.123 A 
ATOM      9  C   UNL     1      15.893  -9.253  16.348  1.00  0.00     0.094 A 
ATOM     10  C   UNL     1      15.294  -8.297  17.172  1.00  0.00     0.146 A 
ATOM     11  O   UNL     1      15.471  -8.390  18.485  1.00  0.00    -0.452 OA
ENDROOT
BRANCH   1  12
ATOM     12  C   UNL     1      15.214  -7.756  20.796  1.00  0.00     0.021 A 
ATOM     13  C   UNL     1      14.240  -8.410  21.570  1.00  0.00     0.016 A 
ATOM     14  C   UNL     1      14.444  -8.618  22.937  1.00  0.00     0.047 A 
ATOM     15  C   UNL     1      15.618  -8.164  23.552  1.00  0.00     0.115 A 
ATOM     16  C   UNL     1      16.381  -7.284  21.424  1.00  0.00     0.016 A 
ATOM     17  C   UNL     1      16.582  -7.494  22.792  1.00  0.00     0.047 A 
BRANCH  15  18
ATOM     18  O   UNL     1      15.832  -8.367  24.913  1.00  0.00    -0.508 OA
ATOM     19  H   UNL     1      16.691  -8.779  25.258  1.00  0.00     0.293 HD
ENDBRANCH  15  18
ENDBRANCH   1  12
BRANCH   2  20
ATOM     20  O   UNL     1      13.785  -5.445  19.790  1.00  0.00    -0.502 OA
ATOM     21  H   UNL     1      14.259  -4.560  19.926  1.00  0.00     0.293 HD
ENDBRANCH   2  20
BRANCH   6  22
ATOM     22  O   UNL     1      13.488  -6.315  14.544  1.00  0.00    -0.507 OA
ATOM     23  H   UNL     1      13.710  -5.344  14.385  1.00  0.00     0.293 HD
ENDBRANCH   6  22
BRANCH   8  24
ATOM     24  O   UNL     1      16.356 -10.125  14.135  1.00  0.00    -0.508 OA
ATOM     25  H   UNL     1      16.775  -9.859  13.253  1.00  0.00     0.293 HD
ENDBRANCH   8  24
TORSDOF 5
ENDMDL
MODEL 4
REMARK VINA RESULT:    -6.070      3.483      4.766
REMARK INTER + INTRA:          -7.300
REMARK INTER:                  -7.017
REMARK INTRA:                  -0.283
REMARK UNBOUND:                -0.166
REMARK SMILES O=c1c(O)c(-c2ccc(O)cc2)oc2cc(O)cc(O)c12
REMARK SMILES IDX 5 1 3 2 2 3 1 4 21 5 19 6 18 7 16 8 15 9 14 10 13 11 6 12
REMARK SMILES IDX 7 13 8 14 9 15 12 16 11 17 10 18 4 20 20 22 17 24
REMARK H PARENT 10 19 4 21 20 23 17 25
REMARK Flexibility Score: inf
ROOT
ATOM      1  C   UNL     1       5.796  -5.929  25.919  1.00  0.00     0.180 A 
ATOM      2  C   UNL     1       6.695  -4.962  26.399  1.00  0.00     0.208 A 
ATOM      3  C   UNL     1       6.964  -4.904  27.777  1.00  0.00     0.238 A 
ATOM      4  O   UNL     1       7.728  -4.001  28.206  1.00  0.00    -0.285 OA
ATOM      5  C   UNL     1       6.343  -5.826  28.653  1.00  0.00     0.111 A 
ATOM      6  C   UNL     1       6.572  -5.885  30.061  1.00  0.00     0.134 A 
ATOM      7  C   UNL     1       5.805  -6.751  30.850  1.00  0.00     0.093 A 
ATOM      8  C   UNL     1       4.865  -7.605  30.276  1.00  0.00     0.123 A 
ATOM      9  C   UNL     1       4.674  -7.598  28.894  1.00  0.00     0.094 A 
ATOM     10  C   UNL     1       5.398  -6.720  28.085  1.00  0.00     0.146 A 
ATOM     11  O   UNL     1       5.180  -6.736  26.775  1.00  0.00    -0.452 OA
ENDROOT
BRANCH   1  12
ATOM     12  C   UNL     1       5.482  -6.067  24.479  1.00  0.00     0.021 A 
ATOM     13  C   UNL     1       4.282  -5.533  23.978  1.00  0.00     0.016 A 
ATOM     14  C   UNL     1       3.955  -5.671  22.627  1.00  0.00     0.047 A 
ATOM     15  C   UNL     1       4.815  -6.359  21.761  1.00  0.00     0.115 A 
ATOM     16  C   UNL     1       6.330  -6.774  23.608  1.00  0.00     0.016 A 
ATOM     17  C   UNL     1       6.000  -6.911  22.256  1.00  0.00     0.047 A 
BRANCH  15  18
ATOM     18  O   UNL     1       4.500  -6.503  20.412  1.00  0.00    -0.508 OA
ATOM     19  H   UNL     1       4.001  -5.781  19.904  1.00  0.00     0.293 HD
ENDBRANCH  15  18
ENDBRANCH   1  12
BRANCH   2  20
ATOM     20  O   UNL     1       7.279  -4.047  25.519  1.00  0.00    -0.502 OA
ATOM     21  H   UNL     1       7.209  -3.045  25.649  1.00  0.00     0.293 HD
ENDBRANCH   2  20
BRANCH   6  22
ATOM     22  O   UNL     1       7.553  -5.141  30.724  1.00  0.00    -0.507 OA
ATOM     23  H   UNL     1       8.195  -4.506  30.274  1.00  0.00     0.293 HD
ENDBRANCH   6  22
BRANCH   8  24
ATOM     24  O   UNL     1       4.130  -8.466  31.090  1.00  0.00    -0.508 OA
ATOM     25  H   UNL     1       3.429  -9.089  30.706  1.00  0.00     0.293 HD
ENDBRANCH   8  24
TORSDOF 5
ENDMDL
MODEL 5
REMARK VINA RESULT:    -5.918     10.346     12.322
REMARK INTER + INTRA:          -7.121
REMARK INTER:                  -6.830
REMARK INTRA:                  -0.291
REMARK UNBOUND:                -0.166
REMARK SMILES O=c1c(O)c(-c2ccc(O)cc2)oc2cc(O)cc(O)c12
REMARK SMILES IDX 5 1 3 2 2 3 1 4 21 5 19 6 18 7 16 8 15 9 14 10 13 11 6 12
REMARK SMILES IDX 7 13 8 14 9 15 12 16 11 17 10 18 4 20 20 22 17 24
REMARK H PARENT 10 19 4 21 20 23 17 25
REMARK Flexibility Score: inf
ROOT
ATOM      1  C   UNL     1      14.671  -8.123  19.465  1.00  0.00     0.180 A 
ATOM      2  C   UNL     1      13.776  -8.953  20.161  1.00  0.00     0.208 A 
ATOM      3  C   UNL     1      14.026  -9.243  21.513  1.00  0.00     0.238 A 
ATOM      4  O   UNL     1      13.251 -10.030  22.116  1.00  0.00    -0.285 OA
ATOM      5  C   UNL     1      15.158  -8.684  22.154  1.00  0.00     0.111 A 
ATOM      6  C   UNL     1      15.486  -8.877  23.530  1.00  0.00     0.134 A 
ATOM      7  C   UNL     1      16.700  -8.385  24.026  1.00  0.00     0.093 A 
ATOM      8  C   UNL     1      17.564  -7.651  23.214  1.00  0.00     0.123 A 
ATOM      9  C   UNL     1      17.225  -7.406  21.884  1.00  0.00     0.094 A 
ATOM     10  C   UNL     1      16.039  -7.915  21.350  1.00  0.00     0.146 A 
ATOM     11  O   UNL     1      15.758  -7.668  20.077  1.00  0.00    -0.452 OA
ENDROOT
BRANCH   1  12
ATOM     12  C   UNL     1      14.461  -7.753  18.047  1.00  0.00     0.021 A 
ATOM     13  C   UNL     1      15.155  -8.448  17.041  1.00  0.00     0.016 A 
ATOM     14  C   UNL     1      14.989  -8.100  15.697  1.00  0.00     0.047 A 
ATOM     15  C   UNL     1      14.139  -7.045  15.342  1.00  0.00     0.115 A 
ATOM     16  C   UNL     1      13.625  -6.682  17.684  1.00  0.00     0.016 A 
ATOM     17  C   UNL     1      13.461  -6.336  16.339  1.00  0.00     0.047 A 
BRANCH  15  18
ATOM     18  O   UNL     1      13.965  -6.689  14.007  1.00  0.00    -0.508 OA
ATOM     19  H   UNL     1      13.062  -6.402  13.648  1.00  0.00     0.293 HD
ENDBRANCH  15  18
ENDBRANCH   1  12
BRANCH   2  20
ATOM     20  O   UNL     1      12.677  -9.512  19.503  1.00  0.00    -0.502 OA
ATOM     21  H   UNL     1      12.468  -9.316  18.531  1.00  0.00     0.293 HD
ENDBRANCH   2  20
BRANCH   6  22
ATOM     22  O   UNL     1      14.650  -9.516  24.450  1.00  0.00    -0.507 OA
ATOM     23  H   UNL     1      13.846  -9.091  24.887  1.00  0.00     0.293 HD
ENDBRANCH   6  22
BRANCH   8  24
ATOM     24  O   UNL     1      18.757  -7.162  23.745  1.00  0.00    -0.508 OA
ATOM     25  H   UNL     1      19.463  -6.735  23.157  1.00  0.00     0.293 HD
ENDBRANCH   8  24
TORSDOF 5
ENDMDL
MODEL 6
REMARK VINA RESULT:    -5.796     10.524     13.595
REMARK INTER + INTRA:          -6.978
REMARK INTER:                  -6.875
REMARK INTRA:                  -0.103
REMARK UNBOUND:                -0.166
REMARK SMILES O=c1c(O)c(-c2ccc(O)cc2)oc2cc(O)cc(O)c12
REMARK SMILES IDX 5 1 3 2 2 3 1 4 21 5 19 6 18 7 16 8 15 9 14 10 13 11 6 12
REMARK SMILES IDX 7 13 8 14 9 15 12 16 11 17 10 18 4 20 20 22 17 24
REMARK H PARENT 10 19 4 21 20 23 17 25
REMARK Flexibility Score: inf
ROOT
ATOM      1  C   UNL     1      13.879  -4.800  20.319  1.00  0.00     0.180 A 
ATOM      2  C   UNL     1      14.354  -5.936  20.997  1.00  0.00     0.208 A 
ATOM      3  C   UNL     1      14.694  -7.080  20.256  1.00  0.00     0.238 A 
ATOM      4  O   UNL     1      15.067  -8.111  20.874  1.00  0.00    -0.285 OA
ATOM      5  C   UNL     1      14.570  -7.067  18.846  1.00  0.00     0.111 A 
ATOM      6  C   UNL     1      14.923  -8.155  17.992  1.00  0.00     0.134 A 
ATOM      7  C   UNL     1      14.636  -8.081  16.623  1.00  0.00     0.093 A 
ATOM      8  C   UNL     1      14.071  -6.934  16.068  1.00  0.00     0.123 A 
ATOM      9  C   UNL     1      13.776  -5.842  16.884  1.00  0.00     0.094 A 
ATOM     10  C   UNL     1      14.017  -5.900  18.259  1.00  0.00     0.146 A 
ATOM     11  O   UNL     1      13.712  -4.843  19.002  1.00  0.00    -0.452 OA
ENDROOT
BRANCH   1  12
ATOM     12  C   UNL     1      13.525  -3.550  21.028  1.00  0.00     0.021 A 
ATOM     13  C   UNL     1      14.272  -2.384  20.790  1.00  0.00     0.016 A 
ATOM     14  C   UNL     1      13.970  -1.199  21.466  1.00  0.00     0.047 A 
ATOM     15  C   UNL     1      12.925  -1.167  22.399  1.00  0.00     0.115 A 
ATOM     16  C   UNL     1      12.491  -3.516  21.982  1.00  0.00     0.016 A 
ATOM     17  C   UNL     1      12.191  -2.328  22.656  1.00  0.00     0.047 A 
BRANCH  15  18
ATOM     18  O   UNL     1      12.615   0.009  23.079  1.00  0.00    -0.508 OA
ATOM     19  H   UNL     1      11.756   0.103  23.608  1.00  0.00     0.293 HD
ENDBRANCH  15  18
ENDBRANCH   1  12
BRANCH   2  20
ATOM     20  O   UNL     1      14.447  -5.934  22.392  1.00  0.00    -0.502 OA
ATOM     21  H   UNL     1      14.192  -5.131  22.953  1.00  0.00     0.293 HD
ENDBRANCH   2  20
BRANCH   6  22
ATOM     22  O   UNL     1      15.578  -9.311  18.430  1.00  0.00    -0.507 OA
ATOM     23  H   UNL     1      15.352 -10.248  18.130  1.00  0.00     0.293 HD
ENDBRANCH   6  22
BRANCH   8  24
ATOM     24  O   UNL     1      13.813  -6.888  14.699  1.00  0.00    -0.508 OA
ATOM     25  H   UNL     1      13.136  -6.244  14.309  1.00  0.00     0.293 HD
ENDBRANCH   8  24
TORSDOF 5
ENDMDL
MODEL 7
REMARK VINA RESULT:    -5.725      2.818      7.027
REMARK INTER + INTRA:          -6.895
REMARK INTER:                  -6.595
REMARK INTRA:                  -0.300
REMARK UNBOUND:                -0.166
REMARK SMILES O=c1c(O)c(-c2ccc(O)cc2)oc2cc(O)cc(O)c12
REMARK SMILES IDX 5 1 3 2 2 3 1 4 21 5 19 6 18 7 16 8 15 9 14 10 13 11 6 12
REMARK SMILES IDX 7 13 8 14 9 15 12 16 11 17 10 18 4 20 20 22 17 24
REMARK H PARENT 10 19 4 21 20 23 17 25
REMARK Flexibility Score: inf
ROOT
ATOM      1  C   UNL     1       6.491  -7.105  27.265  1.00  0.00     0.180 A 
ATOM      2  C   UNL     1       7.332  -8.088  26.716  1.00  0.00     0.208 A 
ATOM      3  C   UNL     1       7.288  -8.328  25.333  1.00  0.00     0.238 A 
ATOM      4  O   UNL     1       8.004  -9.246  24.855  1.00  0.00    -0.285 OA
ATOM      5  C   UNL     1       6.415  -7.570  24.515  1.00  0.00     0.111 A 
ATOM      6  C   UNL     1       6.317  -7.700  23.097  1.00  0.00     0.134 A 
ATOM      7  C   UNL     1       5.327  -6.992  22.404  1.00  0.00     0.093 A 
ATOM      8  C   UNL     1       4.476  -6.110  23.069  1.00  0.00     0.123 A 
ATOM      9  C   UNL     1       4.602  -5.930  24.446  1.00  0.00     0.094 A 
ATOM     10  C   UNL     1       5.556  -6.650  25.170  1.00  0.00     0.146 A 
ATOM     11  O   UNL     1       5.637  -6.457  26.480  1.00  0.00    -0.452 OA
ENDROOT
BRANCH   1  12
ATOM     12  C   UNL     1       6.499  -6.778  28.709  1.00  0.00     0.021 A 
ATOM     13  C   UNL     1       5.578  -7.406  29.565  1.00  0.00     0.016 A 
ATOM     14  C   UNL     1       5.553  -7.096  30.928  1.00  0.00     0.047 A 
ATOM     15  C   UNL     1       6.438  -6.144  31.450  1.00  0.00     0.115 A 
ATOM     16  C   UNL     1       7.370  -5.808  29.237  1.00  0.00     0.016 A 
ATOM     17  C   UNL     1       7.342  -5.500  30.600  1.00  0.00     0.047 A 
BRANCH  15  18
ATOM     18  O   UNL     1       6.422  -5.827  32.806  1.00  0.00    -0.508 OA
ATOM     19  H   UNL     1       5.554  -5.648  33.298  1.00  0.00     0.293 HD
ENDBRANCH  15  18
ENDBRANCH   1  12
BRANCH   2  20
ATOM     20  O   UNL     1       8.169  -8.840  27.545  1.00  0.00    -0.502 OA
ATOM     21  H   UNL     1       9.179  -8.803  27.475  1.00  0.00     0.293 HD
ENDBRANCH   2  20
BRANCH   6  22
ATOM     22  O   UNL     1       7.179  -8.485  22.323  1.00  0.00    -0.507 OA
ATOM     23  H   UNL     1       8.043  -8.159  21.916  1.00  0.00     0.293 HD
ENDBRANCH   6  22
BRANCH   8  24
ATOM     24  O   UNL     1       3.512  -5.409  22.346  1.00  0.00    -0.508 OA
ATOM     25  H   UNL     1       2.569  -5.291  22.697  1.00  0.00     0.293 HD
ENDBRANCH   8  24
TORSDOF 5
ENDMDL
MODEL 8
REMARK VINA RESULT:    -5.703      1.809      6.780
REMARK INTER + INTRA:          -6.869
REMARK INTER:                  -6.573
REMARK INTRA:                  -0.296
REMARK UNBOUND:                -0.166
REMARK SMILES O=c1c(O)c(-c2ccc(O)cc2)oc2cc(O)cc(O)c12
REMARK SMILES IDX 5 1 3 2 2 3 1 4 21 5 19 6 18 7 16 8 15 9 14 10 13 11 6 12
REMARK SMILES IDX 7 13 8 14 9 15 12 16 11 17 10 18 4 20 20 22 17 24
REMARK H PARENT 10 19 4 21 20 23 17 25
REMARK Flexibility Score: inf
ROOT
ATOM      1  C   UNL     1       6.408  -7.852  27.708  1.00  0.00     0.180 A 
ATOM      2  C   UNL     1       5.351  -7.775  26.784  1.00  0.00     0.208 A 
ATOM      3  C   UNL     1       5.553  -8.247  25.476  1.00  0.00     0.238 A 
ATOM      4  O   UNL     1       4.621  -8.126  24.639  1.00  0.00    -0.285 OA
ATOM      5  C   UNL     1       6.803  -8.805  25.115  1.00  0.00     0.111 A 
ATOM      6  C   UNL     1       7.106  -9.350  23.831  1.00  0.00     0.134 A 
ATOM      7  C   UNL     1       8.415  -9.756  23.544  1.00  0.00     0.093 A 
ATOM      8  C   UNL     1       9.415  -9.698  24.513  1.00  0.00     0.123 A 
ATOM      9  C   UNL     1       9.117  -9.222  25.790  1.00  0.00     0.094 A 
ATOM     10  C   UNL     1       7.829  -8.776  26.096  1.00  0.00     0.146 A 
ATOM     11  O   UNL     1       7.588  -8.321  27.319  1.00  0.00    -0.452 OA
ENDROOT
BRANCH   1  12
ATOM     12  C   UNL     1       6.263  -7.399  29.110  1.00  0.00     0.021 A 
ATOM     13  C   UNL     1       6.704  -6.114  29.470  1.00  0.00     0.016 A 
ATOM     14  C   UNL     1       6.598  -5.674  30.792  1.00  0.00     0.047 A 
ATOM     15  C   UNL     1       6.063  -6.517  31.775  1.00  0.00     0.115 A 
ATOM     16  C   UNL     1       5.746  -8.247  30.105  1.00  0.00     0.016 A 
ATOM     17  C   UNL     1       5.642  -7.804  31.427  1.00  0.00     0.047 A 
BRANCH  15  18
ATOM     18  O   UNL     1       5.952  -6.089  33.096  1.00  0.00    -0.508 OA
ATOM     19  H   UNL     1       5.476  -6.647  33.795  1.00  0.00     0.293 HD
ENDBRANCH  15  18
ENDBRANCH   1  12
BRANCH   2  20
ATOM     20  O   UNL     1       4.133  -7.200  27.156  1.00  0.00    -0.502 OA
ATOM     21  H   UNL     1       3.617  -6.577  26.546  1.00  0.00     0.293 HD
ENDBRANCH   2  20
BRANCH   6  22
ATOM     22  O   UNL     1       6.159  -9.539  22.820  1.00  0.00    -0.507 OA
ATOM     23  H   UNL     1       6.331  -9.394  21.837  1.00  0.00     0.293 HD
ENDBRANCH   6  22
BRANCH   8  24
ATOM     24  O   UNL     1      10.704 -10.125  24.198  1.00  0.00    -0.508 OA
ATOM     25  H   UNL     1      11.334 -10.479  24.908  1.00  0.00     0.293 HD
ENDBRANCH   8  24
TORSDOF 5
ENDMDL
MODEL 9
REMARK VINA RESULT:    -5.416      2.392      3.787
REMARK INTER + INTRA:          -6.531
REMARK INTER:                  -6.244
REMARK INTRA:                  -0.288
REMARK UNBOUND:                -0.166
REMARK SMILES O=c1c(O)c(-c2ccc(O)cc2)oc2cc(O)cc(O)c12
REMARK SMILES IDX 5 1 3 2 2 3 1 4 21 5 19 6 18 7 16 8 15 9 14 10 13 11 6 12
REMARK SMILES IDX 7 13 8 14 9 15 12 16 11 17 10 18 4 20 20 22 17 24
REMARK H PARENT 10 19 4 21 20 23 17 25
REMARK Flexibility Score: inf
ROOT
ATOM      1  C   UNL     1       5.693  -7.173  27.397  1.00  0.00     0.180 A 
ATOM      2  C   UNL     1       6.607  -6.114  27.531  1.00  0.00     0.208 A 
ATOM      3  C   UNL     1       6.894  -5.619  28.814  1.00  0.00     0.238 A 
ATOM      4  O   UNL     1       7.672  -4.635  28.922  1.00  0.00    -0.285 OA
ATOM      5  C   UNL     1       6.276  -6.201  29.947  1.00  0.00     0.111 A 
ATOM      6  C   UNL     1       6.524  -5.806  31.296  1.00  0.00     0.134 A 
ATOM      7  C   UNL     1       5.759  -6.361  32.330  1.00  0.00     0.093 A 
ATOM      8  C   UNL     1       4.804  -7.343  32.070  1.00  0.00     0.123 A 
ATOM      9  C   UNL     1       4.595  -7.779  30.762  1.00  0.00     0.094 A 
ATOM     10  C   UNL     1       5.317  -7.218  29.705  1.00  0.00     0.146 A 
ATOM     11  O   UNL     1       5.081  -7.653  28.474  1.00  0.00    -0.452 OA
ENDROOT
BRANCH   1  12
ATOM     12  C   UNL     1       5.359  -7.764  26.082  1.00  0.00     0.021 A 
ATOM     13  C   UNL     1       6.120  -8.840  25.593  1.00  0.00     0.016 A 
ATOM     14  C   UNL     1       5.837  -9.398  24.344  1.00  0.00     0.047 A 
ATOM     15  C   UNL     1       4.798  -8.879  23.559  1.00  0.00     0.115 A 
ATOM     16  C   UNL     1       4.332  -7.234  25.279  1.00  0.00     0.016 A 
ATOM     17  C   UNL     1       4.051  -7.795  24.029  1.00  0.00     0.047 A 
BRANCH  15  18
ATOM     18  O   UNL     1       4.507  -9.427  22.312  1.00  0.00    -0.508 OA
ATOM     19  H   UNL     1       3.595  -9.314  21.884  1.00  0.00     0.293 HD
ENDBRANCH  15  18
ENDBRANCH   1  12
BRANCH   2  20
ATOM     20  O   UNL     1       7.188  -5.540  26.397  1.00  0.00    -0.502 OA
ATOM     21  H   UNL     1       7.153  -5.980  25.485  1.00  0.00     0.293 HD
ENDBRANCH   2  20
BRANCH   6  22
ATOM     22  O   UNL     1       7.520  -4.900  31.674  1.00  0.00    -0.507 OA
ATOM     23  H   UNL     1       7.751  -4.056  31.171  1.00  0.00     0.293 HD
ENDBRANCH   6  22
BRANCH   8  24
ATOM     24  O   UNL     1       4.072  -7.885  33.125  1.00  0.00    -0.508 OA
ATOM     25  H   UNL     1       4.464  -8.594  33.733  1.00  0.00     0.293 HD
ENDBRANCH   8  24
TORSDOF 5
ENDMDL
