MODEL 1
REMARK VINA RESULT:    -5.430      0.000      0.000
REMARK INTER + INTRA:         -10.731
REMARK INTER:                  -9.239
REMARK INTRA:                  -1.492
REMARK UNBOUND:                -1.492
REMARK SMILES CCCCCCCCCCCCCC(=O)[O-]
REMARK SMILES IDX 8 1 9 2 10 3 11 4 12 5 13 6 14 7 15 8 16 9 7 10 6 11 5 12
REMARK SMILES IDX 4 13 3 14 2 15 1 16
REMARK H PARENT
REMARK Flexibility Score: inf
ROOT
ATOM      1  C   UNL     1     -97.594 -61.125 -64.205  1.00  0.00     0.000 C 
ENDROOT
BRANCH   1   2
ATOM      2  C   UNL     1     -96.359 -61.823 -64.801  1.00  0.00     0.000 C 
BRANCH   2   3
ATOM      3  C   UNL     1     -95.684 -61.075 -65.970  1.00  0.00     0.000 C 
BRANCH   3   4
ATOM      4  C   UNL     1     -94.470 -61.790 -66.587  1.00  0.00     0.000 C 
BRANCH   4   5
ATOM      5  C   UNL     1     -94.599 -61.979 -68.109  1.00  0.00     0.006 C 
BRANCH   5   6
ATOM      6  C   UNL     1     -95.919 -61.416 -68.651  1.00  0.00     0.053 C 
BRANCH   6   7
ATOM      7  C   UNL     1     -96.010 -61.556 -70.140  1.00  0.00     0.041 C 
ATOM      8  O   UNL     1     -95.468 -62.535 -70.719  1.00  0.00    -0.550 OA
ATOM      9  O   UNL     1     -96.663 -60.588 -70.892  1.00  0.00    -0.550 OA
ENDBRANCH   6   7
ENDBRANCH   5   6
ENDBRANCH   4   5
ENDBRANCH   3   4
ENDBRANCH   2   3
ENDBRANCH   1   2
BRANCH   1  10
ATOM     10  C   UNL     1     -98.800 -62.065 -64.060  1.00  0.00     0.000 C 
BRANCH  10  11
ATOM     11  C   UNL     1    -100.029 -61.494 -64.784  1.00  0.00    -0.000 C 
BRANCH  11  12
ATOM     12  C   UNL     1    -100.117 -61.945 -66.251  1.00  0.00    -0.000 C 
BRANCH  12  13
ATOM     13  C   UNL     1    -100.481 -60.792 -67.202  1.00  0.00    -0.000 C 
BRANCH  13  14
ATOM     14  C   UNL     1     -99.913 -59.437 -66.744  1.00  0.00    -0.000 C 
BRANCH  14  15
ATOM     15  C   UNL     1     -98.558 -59.056 -67.366  1.00  0.00    -0.003 C 
ATOM     16  C   UNL     1     -97.785 -58.030 -66.538  1.00  0.00     0.004 C 
ENDBRANCH  14  15
ENDBRANCH  13  14
ENDBRANCH  12  13
ENDBRANCH  11  12
ENDBRANCH  10  11
ENDBRANCH   1  10
TORSDOF 12
ENDMDL
MODEL 2
REMARK VINA RESULT:    -5.124      1.149      2.769
REMARK INTER + INTRA:         -10.210
REMARK INTER:                  -8.631
REMARK INTRA:                  -1.579
REMARK UNBOUND:                -1.492
REMARK SMILES CCCCCCCCCCCCCC(=O)[O-]
REMARK SMILES IDX 8 1 9 2 10 3 11 4 12 5 13 6 14 7 15 8 16 9 7 10 6 11 5 12
REMARK SMILES IDX 4 13 3 14 2 15 1 16
REMARK H PARENT
REMARK Flexibility Score: inf
ROOT
ATOM      1  C   UNL     1     -96.776 -58.876 -66.008  1.00  0.00     0.000 C 
ENDROOT
BRANCH   1   2
ATOM      2  C   UNL     1     -96.967 -60.180 -65.213  1.00  0.00     0.000 C 
BRANCH   2   3
ATOM      3  C   UNL     1     -96.057 -61.349 -65.644  1.00  0.00     0.000 C 
BRANCH   3   4
ATOM      4  C   UNL     1     -94.883 -60.957 -66.558  1.00  0.00     0.000 C 
BRANCH   4   5
ATOM      5  C   UNL     1     -94.911 -61.687 -67.912  1.00  0.00     0.006 C 
BRANCH   5   6
ATOM      6  C   UNL     1     -96.199 -61.402 -68.695  1.00  0.00     0.053 C 
BRANCH   6   7
ATOM      7  C   UNL     1     -95.953 -61.374 -70.173  1.00  0.00     0.041 C 
ATOM      8  O   UNL     1     -96.711 -60.711 -70.930  1.00  0.00    -0.550 OA
ATOM      9  O   UNL     1     -94.907 -62.110 -70.718  1.00  0.00    -0.550 OA
ENDBRANCH   6   7
ENDBRANCH   5   6
ENDBRANCH   4   5
ENDBRANCH   3   4
ENDBRANCH   2   3
ENDBRANCH   1   2
BRANCH   1  10
ATOM     10  C   UNL     1     -98.093 -58.323 -66.574  1.00  0.00     0.000 C 
BRANCH  10  11
ATOM     11  C   UNL     1     -98.869 -59.417 -67.323  1.00  0.00    -0.000 C 
BRANCH  11  12
ATOM     12  C   UNL     1    -100.292 -59.615 -66.779  1.00  0.00    -0.000 C 
BRANCH  12  13
ATOM     13  C   UNL     1    -100.436 -60.907 -65.956  1.00  0.00    -0.000 C 
BRANCH  13  14
ATOM     14  C   UNL     1     -99.804 -62.129 -66.646  1.00  0.00    -0.000 C 
BRANCH  14  15
ATOM     15  C   UNL     1    -100.511 -62.586 -67.935  1.00  0.00    -0.003 C 
ATOM     16  C   UNL     1     -99.540 -63.052 -69.019  1.00  0.00     0.004 C 
ENDBRANCH  14  15
ENDBRANCH  13  14
ENDBRANCH  12  13
ENDBRANCH  11  12
ENDBRANCH  10  11
ENDBRANCH   1  10
TORSDOF 12
ENDMDL
MODEL 3
REMARK VINA RESULT:    -5.111      2.705      3.906
REMARK INTER + INTRA:         -10.189
REMARK INTER:                  -8.537
REMARK INTRA:                  -1.651
REMARK UNBOUND:                -1.492
REMARK SMILES CCCCCCCCCCCCCC(=O)[O-]
REMARK SMILES IDX 8 1 9 2 10 3 11 4 12 5 13 6 14 7 15 8 16 9 7 10 6 11 5 12
REMARK SMILES IDX 4 13 3 14 2 15 1 16
REMARK H PARENT
REMARK Flexibility Score: inf
ROOT
ATOM      1  C   UNL     1     -98.069 -62.092 -69.701  1.00  0.00     0.000 C 
ENDROOT
BRANCH   1   2
ATOM      2  C   UNL     1     -97.212 -61.267 -68.724  1.00  0.00     0.000 C 
BRANCH   2   3
ATOM      3  C   UNL     1     -95.687 -61.438 -68.886  1.00  0.00     0.000 C 
BRANCH   3   4
ATOM      4  C   UNL     1     -94.935 -61.830 -67.603  1.00  0.00     0.000 C 
BRANCH   4   5
ATOM      5  C   UNL     1     -95.386 -61.018 -66.376  1.00  0.00     0.006 C 
BRANCH   5   6
ATOM      6  C   UNL     1     -95.875 -61.919 -65.235  1.00  0.00     0.053 C 
BRANCH   6   7
ATOM      7  C   UNL     1     -97.040 -61.313 -64.513  1.00  0.00     0.041 C 
ATOM      8  O   UNL     1     -96.993 -60.115 -64.127  1.00  0.00    -0.550 OA
ATOM      9  O   UNL     1     -98.163 -62.083 -64.235  1.00  0.00    -0.550 OA
ENDBRANCH   6   7
ENDBRANCH   5   6
ENDBRANCH   4   5
ENDBRANCH   3   4
ENDBRANCH   2   3
ENDBRANCH   1   2
BRANCH   1  10
ATOM     10  C   UNL     1     -99.202 -62.859 -69.002  1.00  0.00     0.000 C 
BRANCH  10  11
ATOM     11  C   UNL     1     -99.361 -62.393 -67.547  1.00  0.00    -0.000 C 
BRANCH  11  12
ATOM     12  C   UNL     1    -100.781 -61.893 -67.235  1.00  0.00    -0.000 C 
BRANCH  12  13
ATOM     13  C   UNL     1    -100.861 -60.359 -67.146  1.00  0.00    -0.000 C 
BRANCH  13  14
ATOM     14  C   UNL     1     -99.611 -59.731 -66.502  1.00  0.00    -0.000 C 
BRANCH  14  15
ATOM     15  C   UNL     1     -99.065 -58.486 -67.222  1.00  0.00    -0.003 C 
ATOM     16  C   UNL     1     -97.713 -58.024 -66.680  1.00  0.00     0.004 C 
ENDBRANCH  14  15
ENDBRANCH  13  14
ENDBRANCH  12  13
ENDBRANCH  11  12
ENDBRANCH  10  11
ENDBRANCH   1  10
TORSDOF 12
ENDMDL
MODEL 4
REMARK VINA RESULT:    -4.974      1.397      3.645
REMARK INTER + INTRA:          -9.955
REMARK INTER:                  -8.180
REMARK INTRA:                  -1.775
REMARK UNBOUND:                -1.492
REMARK SMILES CCCCCCCCCCCCCC(=O)[O-]
REMARK SMILES IDX 8 1 9 2 10 3 11 4 12 5 13 6 14 7 15 8 16 9 7 10 6 11 5 12
REMARK SMILES IDX 4 13 3 14 2 15 1 16
REMARK H PARENT
REMARK Flexibility Score: inf
ROOT
ATOM      1  C   UNL     1    -100.716 -60.941 -66.455  1.00  0.00     0.000 C 
ENDROOT
BRANCH   1   2
ATOM      2  C   UNL     1     -99.584 -61.835 -66.991  1.00  0.00     0.000 C 
BRANCH   2   3
ATOM      3  C   UNL     1     -99.926 -62.628 -68.269  1.00  0.00     0.000 C 
BRANCH   3   4
ATOM      4  C   UNL     1     -98.807 -62.680 -69.323  1.00  0.00     0.000 C 
BRANCH   4   5
ATOM      5  C   UNL     1     -97.578 -61.843 -68.930  1.00  0.00     0.006 C 
BRANCH   5   6
ATOM      6  C   UNL     1     -96.888 -61.220 -70.150  1.00  0.00     0.053 C 
BRANCH   6   7
ATOM      7  C   UNL     1     -95.426 -61.543 -70.185  1.00  0.00     0.041 C 
ATOM      8  O   UNL     1     -94.802 -61.544 -71.279  1.00  0.00    -0.550 OA
ATOM      9  O   UNL     1     -94.760 -61.879 -69.013  1.00  0.00    -0.550 OA
ENDBRANCH   6   7
ENDBRANCH   5   6
ENDBRANCH   4   5
ENDBRANCH   3   4
ENDBRANCH   2   3
ENDBRANCH   1   2
BRANCH   1  10
ATOM     10  C   UNL     1    -100.289 -59.475 -66.280  1.00  0.00     0.000 C 
BRANCH  10  11
ATOM     11  C   UNL     1     -99.293 -59.062 -67.374  1.00  0.00    -0.000 C 
BRANCH  11  12
ATOM     12  C   UNL     1     -98.073 -58.312 -66.815  1.00  0.00    -0.000 C 
BRANCH  12  13
ATOM     13  C   UNL     1     -97.323 -59.120 -65.744  1.00  0.00    -0.000 C 
BRANCH  13  14
ATOM     14  C   UNL     1     -96.263 -60.065 -66.340  1.00  0.00    -0.000 C 
BRANCH  14  15
ATOM     15  C   UNL     1     -96.024 -61.359 -65.543  1.00  0.00    -0.003 C 
ATOM     16  C   UNL     1     -97.084 -61.608 -64.471  1.00  0.00     0.004 C 
ENDBRANCH  14  15
ENDBRANCH  13  14
ENDBRANCH  12  13
ENDBRANCH  11  12
ENDBRANCH  10  11
ENDBRANCH   1  10
TORSDOF 12
ENDMDL
MODEL 5
REMARK VINA RESULT:    -4.947      2.158      3.451
REMARK INTER + INTRA:          -9.909
REMARK INTER:                  -8.351
REMARK INTRA:                  -1.557
REMARK UNBOUND:                -1.492
REMARK SMILES CCCCCCCCCCCCCC(=O)[O-]
REMARK SMILES IDX 8 1 9 2 10 3 11 4 12 5 13 6 14 7 15 8 16 9 7 10 6 11 5 12
REMARK SMILES IDX 4 13 3 14 2 15 1 16
REMARK H PARENT
REMARK Flexibility Score: inf
ROOT
ATOM      1  C   UNL     1     -96.499 -59.897 -66.469  1.00  0.00     0.000 C 
ENDROOT
BRANCH   1   2
ATOM      2  C   UNL     1     -97.560 -60.175 -67.548  1.00  0.00     0.000 C 
BRANCH   2   3
ATOM      3  C   UNL     1     -97.252 -61.368 -68.477  1.00  0.00     0.000 C 
BRANCH   3   4
ATOM      4  C   UNL     1     -96.062 -61.161 -69.430  1.00  0.00     0.000 C 
BRANCH   4   5
ATOM      5  C   UNL     1     -94.942 -62.195 -69.220  1.00  0.00     0.006 C 
BRANCH   5   6
ATOM      6  C   UNL     1     -93.952 -61.760 -68.132  1.00  0.00     0.053 C 
BRANCH   6   7
ATOM      7  C   UNL     1     -93.856 -62.776 -67.034  1.00  0.00     0.041 C 
ATOM      8  O   UNL     1     -94.275 -62.501 -65.878  1.00  0.00    -0.550 OA
ATOM      9  O   UNL     1     -93.271 -64.012 -67.279  1.00  0.00    -0.550 OA
ENDBRANCH   6   7
ENDBRANCH   5   6
ENDBRANCH   4   5
ENDBRANCH   3   4
ENDBRANCH   2   3
ENDBRANCH   1   2
BRANCH   1  10
ATOM     10  C   UNL     1     -97.007 -60.173 -65.046  1.00  0.00     0.000 C 
BRANCH  10  11
ATOM     11  C   UNL     1     -97.481 -61.627 -64.906  1.00  0.00    -0.000 C 
BRANCH  11  12
ATOM     12  C   UNL     1     -98.786 -61.752 -64.104  1.00  0.00    -0.000 C 
BRANCH  12  13
ATOM     13  C   UNL     1     -99.994 -62.096 -64.992  1.00  0.00    -0.000 C 
BRANCH  13  14
ATOM     14  C   UNL     1    -100.764 -60.849 -65.464  1.00  0.00    -0.000 C 
BRANCH  14  15
ATOM     15  C   UNL     1    -101.111 -60.828 -66.963  1.00  0.00    -0.003 C 
ATOM     16  C   UNL     1    -100.748 -62.127 -67.682  1.00  0.00     0.004 C 
ENDBRANCH  14  15
ENDBRANCH  13  14
ENDBRANCH  12  13
ENDBRANCH  11  12
ENDBRANCH  10  11
ENDBRANCH   1  10
TORSDOF 12
ENDMDL
MODEL 6
REMARK VINA RESULT:    -4.945      1.494      3.133
REMARK INTER + INTRA:          -9.905
REMARK INTER:                  -8.308
REMARK INTRA:                  -1.597
REMARK UNBOUND:                -1.492
REMARK SMILES CCCCCCCCCCCCCC(=O)[O-]
REMARK SMILES IDX 8 1 9 2 10 3 11 4 12 5 13 6 14 7 15 8 16 9 7 10 6 11 5 12
REMARK SMILES IDX 4 13 3 14 2 15 1 16
REMARK H PARENT
REMARK Flexibility Score: inf
ROOT
ATOM      1  C   UNL     1    -100.697 -61.098 -67.126  1.00  0.00     0.000 C 
ENDROOT
BRANCH   1   2
ATOM      2  C   UNL     1    -100.442 -62.519 -67.658  1.00  0.00     0.000 C 
BRANCH   2   3
ATOM      3  C   UNL     1     -99.372 -62.621 -68.765  1.00  0.00     0.000 C 
BRANCH   3   4
ATOM      4  C   UNL     1     -98.100 -61.791 -68.521  1.00  0.00     0.000 C 
BRANCH   4   5
ATOM      5  C   UNL     1     -97.166 -61.757 -69.744  1.00  0.00     0.006 C 
BRANCH   5   6
ATOM      6  C   UNL     1     -95.699 -61.556 -69.345  1.00  0.00     0.053 C 
BRANCH   6   7
ATOM      7  C   UNL     1     -94.792 -62.495 -70.079  1.00  0.00     0.041 C 
ATOM      8  O   UNL     1     -93.588 -62.617 -69.729  1.00  0.00    -0.550 OA
ATOM      9  O   UNL     1     -95.267 -63.208 -71.173  1.00  0.00    -0.550 OA
ENDBRANCH   6   7
ENDBRANCH   5   6
ENDBRANCH   4   5
ENDBRANCH   3   4
ENDBRANCH   2   3
ENDBRANCH   1   2
BRANCH   1  10
ATOM     10  C   UNL     1    -100.412 -60.962 -65.622  1.00  0.00     0.000 C 
BRANCH  10  11
ATOM     11  C   UNL     1     -99.591 -62.156 -65.111  1.00  0.00    -0.000 C 
BRANCH  11  12
ATOM     12  C   UNL     1     -98.495 -61.742 -64.116  1.00  0.00    -0.000 C 
BRANCH  12  13
ATOM     13  C   UNL     1     -97.172 -61.382 -64.812  1.00  0.00    -0.000 C 
BRANCH  13  14
ATOM     14  C   UNL     1     -96.958 -59.863 -64.943  1.00  0.00    -0.000 C 
BRANCH  14  15
ATOM     15  C   UNL     1     -96.918 -59.335 -66.388  1.00  0.00    -0.003 C 
ATOM     16  C   UNL     1     -97.964 -58.255 -66.662  1.00  0.00     0.004 C 
ENDBRANCH  14  15
ENDBRANCH  13  14
ENDBRANCH  12  13
ENDBRANCH  11  12
ENDBRANCH  10  11
ENDBRANCH   1  10
TORSDOF 12
ENDMDL
MODEL 7
REMARK VINA RESULT:    -4.929      2.243      5.343
REMARK INTER + INTRA:          -9.879
REMARK INTER:                  -8.525
REMARK INTRA:                  -1.353
REMARK UNBOUND:                -1.492
REMARK SMILES CCCCCCCCCCCCCC(=O)[O-]
REMARK SMILES IDX 8 1 9 2 10 3 11 4 12 5 13 6 14 7 15 8 16 9 7 10 6 11 5 12
REMARK SMILES IDX 4 13 3 14 2 15 1 16
REMARK H PARENT
REMARK Flexibility Score: inf
ROOT
ATOM      1  C   UNL     1     -95.435 -60.998 -66.528  1.00  0.00     0.000 C 
ENDROOT
BRANCH   1   2
ATOM      2  C   UNL     1     -95.958 -61.718 -65.273  1.00  0.00     0.000 C 
BRANCH   2   3
ATOM      3  C   UNL     1     -97.036 -60.950 -64.479  1.00  0.00     0.000 C 
BRANCH   3   4
ATOM      4  C   UNL     1     -98.257 -61.786 -64.061  1.00  0.00     0.000 C 
BRANCH   4   5
ATOM      5  C   UNL     1     -99.534 -61.404 -64.830  1.00  0.00     0.006 C 
BRANCH   5   6
ATOM      6  C   UNL     1     -99.869 -62.414 -65.934  1.00  0.00     0.053 C 
BRANCH   6   7
ATOM      7  C   UNL     1     -99.459 -61.914 -67.285  1.00  0.00     0.041 C 
ATOM      8  O   UNL     1     -98.986 -60.754 -67.415  1.00  0.00    -0.550 OA
ATOM      9  O   UNL     1     -99.633 -62.716 -68.406  1.00  0.00    -0.550 OA
ENDBRANCH   6   7
ENDBRANCH   5   6
ENDBRANCH   4   5
ENDBRANCH   3   4
ENDBRANCH   2   3
ENDBRANCH   1   2
BRANCH   1  10
ATOM     10  C   UNL     1     -93.923 -61.177 -66.733  1.00  0.00     0.000 C 
BRANCH  10  11
ATOM     11  C   UNL     1     -93.495 -62.618 -66.418  1.00  0.00    -0.000 C 
BRANCH  11  12
ATOM     12  C   UNL     1     -93.267 -63.461 -67.683  1.00  0.00    -0.000 C 
BRANCH  12  13
ATOM     13  C   UNL     1     -93.167 -62.602 -68.955  1.00  0.00    -0.000 C 
BRANCH  13  14
ATOM     14  C   UNL     1     -94.336 -62.837 -69.929  1.00  0.00    -0.000 C 
BRANCH  14  15
ATOM     15  C   UNL     1     -95.178 -61.589 -70.247  1.00  0.00    -0.003 C 
ATOM     16  C   UNL     1     -96.673 -61.799 -70.011  1.00  0.00     0.004 C 
ENDBRANCH  14  15
ENDBRANCH  13  14
ENDBRANCH  12  13
ENDBRANCH  11  12
ENDBRANCH  10  11
ENDBRANCH   1  10
TORSDOF 12
ENDMDL
MODEL 8
REMARK VINA RESULT:    -4.874      2.647      5.529
REMARK INTER + INTRA:          -9.785
REMARK INTER:                  -8.317
REMARK INTRA:                  -1.468
REMARK UNBOUND:                -1.492
REMARK SMILES CCCCCCCCCCCCCC(=O)[O-]
REMARK SMILES IDX 8 1 9 2 10 3 11 4 12 5 13 6 14 7 15 8 16 9 7 10 6 11 5 12
REMARK SMILES IDX 4 13 3 14 2 15 1 16
REMARK H PARENT
REMARK Flexibility Score: inf
ROOT
ATOM      1  C   UNL     1     -96.576 -60.824 -65.319  1.00  0.00     0.000 C 
ENDROOT
BRANCH   1   2
ATOM      2  C   UNL     1     -96.560 -59.764 -66.435  1.00  0.00     0.000 C 
BRANCH   2   3
ATOM      3  C   UNL     1     -97.595 -58.631 -66.276  1.00  0.00     0.000 C 
BRANCH   3   4
ATOM      4  C   UNL     1     -98.698 -58.601 -67.348  1.00  0.00     0.000 C 
BRANCH   4   5
ATOM      5  C   UNL     1    -100.031 -59.186 -66.849  1.00  0.00     0.006 C 
BRANCH   5   6
ATOM      6  C   UNL     1    -100.091 -60.710 -67.013  1.00  0.00     0.053 C 
BRANCH   6   7
ATOM      7  C   UNL     1    -100.289 -61.401 -65.699  1.00  0.00     0.041 C 
ATOM      8  O   UNL     1    -100.905 -60.822 -64.765  1.00  0.00    -0.550 OA
ATOM      9  O   UNL     1     -99.764 -62.670 -65.493  1.00  0.00    -0.550 OA
ENDBRANCH   6   7
ENDBRANCH   5   6
ENDBRANCH   4   5
ENDBRANCH   3   4
ENDBRANCH   2   3
ENDBRANCH   1   2
BRANCH   1  10
ATOM     10  C   UNL     1     -95.417 -61.826 -65.430  1.00  0.00     0.000 C 
BRANCH  10  11
ATOM     11  C   UNL     1     -94.416 -61.388 -66.510  1.00  0.00    -0.000 C 
BRANCH  11  12
ATOM     12  C   UNL     1     -93.522 -62.540 -66.995  1.00  0.00    -0.000 C 
BRANCH  12  13
ATOM     13  C   UNL     1     -93.756 -62.886 -68.475  1.00  0.00    -0.000 C 
BRANCH  13  14
ATOM     14  C   UNL     1     -94.472 -61.763 -69.246  1.00  0.00    -0.000 C 
BRANCH  14  15
ATOM     15  C   UNL     1     -95.704 -62.211 -70.053  1.00  0.00    -0.003 C 
ATOM     16  C   UNL     1     -97.023 -61.732 -69.448  1.00  0.00     0.004 C 
ENDBRANCH  14  15
ENDBRANCH  13  14
ENDBRANCH  12  13
ENDBRANCH  11  12
ENDBRANCH  10  11
ENDBRANCH   1  10
TORSDOF 12
ENDMDL
MODEL 9
REMARK VINA RESULT:    -4.853      2.751      6.044
REMARK INTER + INTRA:          -9.749
REMARK INTER:                  -8.083
REMARK INTRA:                  -1.666
REMARK UNBOUND:                -1.492
REMARK SMILES CCCCCCCCCCCCCC(=O)[O-]
REMARK SMILES IDX 8 1 9 2 10 3 11 4 12 5 13 6 14 7 15 8 16 9 7 10 6 11 5 12
REMARK SMILES IDX 4 13 3 14 2 15 1 16
REMARK H PARENT
REMARK Flexibility Score: inf
ROOT
ATOM      1  C   UNL     1     -96.954 -61.181 -69.650  1.00  0.00     0.000 C 
ENDROOT
BRANCH   1   2
ATOM      2  C   UNL     1     -97.164 -61.232 -68.127  1.00  0.00     0.000 C 
BRANCH   2   3
ATOM      3  C   UNL     1     -97.561 -59.891 -67.475  1.00  0.00     0.000 C 
BRANCH   3   4
ATOM      4  C   UNL     1     -97.465 -59.858 -65.940  1.00  0.00     0.000 C 
BRANCH   4   5
ATOM      5  C   UNL     1     -97.172 -61.240 -65.331  1.00  0.00     0.006 C 
BRANCH   5   6
ATOM      6  C   UNL     1     -98.272 -61.689 -64.360  1.00  0.00     0.053 C 
BRANCH   6   7
ATOM      7  C   UNL     1     -99.601 -61.798 -65.043  1.00  0.00     0.041 C 
ATOM      8  O   UNL     1    -100.595 -61.162 -64.601  1.00  0.00    -0.550 OA
ATOM      9  O   UNL     1     -99.751 -62.630 -66.145  1.00  0.00    -0.550 OA
ENDBRANCH   6   7
ENDBRANCH   5   6
ENDBRANCH   4   5
ENDBRANCH   3   4
ENDBRANCH   2   3
ENDBRANCH   1   2
BRANCH   1  10
ATOM     10  C   UNL     1     -95.488 -61.389 -70.060  1.00  0.00     0.000 C 
BRANCH  10  11
ATOM     11  C   UNL     1     -95.211 -62.869 -70.365  1.00  0.00    -0.000 C 
BRANCH  11  12
ATOM     12  C   UNL     1     -93.724 -63.235 -70.228  1.00  0.00    -0.000 C 
BRANCH  12  13
ATOM     13  C   UNL     1     -93.064 -62.577 -69.005  1.00  0.00    -0.000 C 
BRANCH  13  14
ATOM     14  C   UNL     1     -93.319 -63.351 -67.698  1.00  0.00    -0.000 C 
BRANCH  14  15
ATOM     15  C   UNL     1     -94.003 -62.538 -66.584  1.00  0.00    -0.003 C 
ATOM     16  C   UNL     1     -93.710 -61.041 -66.669  1.00  0.00     0.004 C 
ENDBRANCH  14  15
ENDBRANCH  13  14
ENDBRANCH  12  13
ENDBRANCH  11  12
ENDBRANCH  10  11
ENDBRANCH   1  10
TORSDOF 12
ENDMDL
