MODEL 1
REMARK VINA RESULT:    -5.448      0.000      0.000
REMARK INTER + INTRA:         -10.487
REMARK INTER:                  -9.269
REMARK INTRA:                  -1.218
REMARK UNBOUND:                -1.218
REMARK SMILES CCCCCCCCCCCCCC(=O)[O-]
REMARK SMILES IDX 8 1 9 2 10 3 11 4 12 5 13 6 14 7 15 8 16 9 7 10 6 11 5 12
REMARK SMILES IDX 4 13 3 14 2 15 1 16
REMARK H PARENT
REMARK Flexibility Score: inf
ROOT
ATOM      1  C   UNL     1     101.489 305.887 194.666  1.00  0.00     0.000 C 
ENDROOT
BRANCH   1   2
ATOM      2  C   UNL     1     102.522 306.291 195.732  1.00  0.00     0.000 C 
BRANCH   2   3
ATOM      3  C   UNL     1     101.866 306.874 196.995  1.00  0.00     0.000 C 
BRANCH   3   4
ATOM      4  C   UNL     1     101.862 305.883 198.172  1.00  0.00     0.000 C 
BRANCH   4   5
ATOM      5  C   UNL     1     101.337 306.515 199.472  1.00  0.00     0.006 C 
BRANCH   5   6
ATOM      6  C   UNL     1     102.240 306.217 200.677  1.00  0.00     0.053 C 
BRANCH   6   7
ATOM      7  C   UNL     1     101.449 305.581 201.777  1.00  0.00     0.041 C 
ATOM      8  O   UNL     1     100.197 305.484 201.683  1.00  0.00    -0.550 OA
ATOM      9  O   UNL     1     102.090 305.139 202.929  1.00  0.00    -0.550 OA
ENDBRANCH   6   7
ENDBRANCH   5   6
ENDBRANCH   4   5
ENDBRANCH   3   4
ENDBRANCH   2   3
ENDBRANCH   1   2
BRANCH   1  10
ATOM     10  C   UNL     1     102.098 305.796 193.256  1.00  0.00     0.000 C 
BRANCH  10  11
ATOM     11  C   UNL     1     103.579 306.211 193.225  1.00  0.00    -0.000 C 
BRANCH  11  12
ATOM     12  C   UNL     1     103.849 307.383 192.264  1.00  0.00    -0.000 C 
BRANCH  12  13
ATOM     13  C   UNL     1     102.590 308.070 191.697  1.00  0.00    -0.000 C 
BRANCH  13  14
ATOM     14  C   UNL     1     102.281 309.462 192.285  1.00  0.00    -0.000 C 
BRANCH  14  15
ATOM     15  C   UNL     1     101.870 309.461 193.767  1.00  0.00    -0.003 C 
ATOM     16  C   UNL     1     102.929 310.076 194.680  1.00  0.00     0.004 C 
ENDBRANCH  14  15
ENDBRANCH  13  14
ENDBRANCH  12  13
ENDBRANCH  11  12
ENDBRANCH  10  11
ENDBRANCH   1  10
TORSDOF 12
ENDMDL
MODEL 2
REMARK VINA RESULT:    -5.431      1.534      2.237
REMARK INTER + INTRA:         -10.459
REMARK INTER:                 -10.020
REMARK INTRA:                  -0.439
REMARK UNBOUND:                -1.218
REMARK SMILES CCCCCCCCCCCCCC(=O)[O-]
REMARK SMILES IDX 8 1 9 2 10 3 11 4 12 5 13 6 14 7 15 8 16 9 7 10 6 11 5 12
REMARK SMILES IDX 4 13 3 14 2 15 1 16
REMARK H PARENT
REMARK Flexibility Score: inf
ROOT
ATOM      1  C   UNL     1     101.504 306.233 194.585  1.00  0.00     0.000 C 
ENDROOT
BRANCH   1   2
ATOM      2  C   UNL     1     102.487 306.285 195.767  1.00  0.00     0.000 C 
BRANCH   2   3
ATOM      3  C   UNL     1     101.915 305.635 197.037  1.00  0.00     0.000 C 
BRANCH   3   4
ATOM      4  C   UNL     1     101.758 306.634 198.197  1.00  0.00     0.000 C 
BRANCH   4   5
ATOM      5  C   UNL     1     101.508 305.938 199.545  1.00  0.00     0.006 C 
BRANCH   5   6
ATOM      6  C   UNL     1     102.635 306.192 200.555  1.00  0.00     0.053 C 
BRANCH   6   7
ATOM      7  C   UNL     1     102.081 306.288 201.943  1.00  0.00     0.041 C 
ATOM      8  O   UNL     1     101.948 307.412 202.495  1.00  0.00    -0.550 OA
ATOM      9  O   UNL     1     101.756 305.132 202.644  1.00  0.00    -0.550 OA
ENDBRANCH   6   7
ENDBRANCH   5   6
ENDBRANCH   4   5
ENDBRANCH   3   4
ENDBRANCH   2   3
ENDBRANCH   1   2
BRANCH   1  10
ATOM     10  C   UNL     1     102.173 305.776 193.278  1.00  0.00     0.000 C 
BRANCH  10  11
ATOM     11  C   UNL     1     103.578 306.376 193.092  1.00  0.00    -0.000 C 
BRANCH  11  12
ATOM     12  C   UNL     1     103.551 307.748 192.394  1.00  0.00    -0.000 C 
BRANCH  12  13
ATOM     13  C   UNL     1     102.398 307.950 191.389  1.00  0.00    -0.000 C 
BRANCH  13  14
ATOM     14  C   UNL     1     102.582 309.126 190.408  1.00  0.00    -0.000 C 
BRANCH  14  15
ATOM     15  C   UNL     1     101.500 309.234 189.320  1.00  0.00    -0.003 C 
ATOM     16  C   UNL     1     101.980 309.976 188.074  1.00  0.00     0.004 C 
ENDBRANCH  14  15
ENDBRANCH  13  14
ENDBRANCH  12  13
ENDBRANCH  11  12
ENDBRANCH  10  11
ENDBRANCH   1  10
TORSDOF 12
ENDMDL
MODEL 3
REMARK VINA RESULT:    -5.408      1.424      2.090
REMARK INTER + INTRA:         -10.420
REMARK INTER:                  -9.847
REMARK INTRA:                  -0.573
REMARK UNBOUND:                -1.218
REMARK SMILES CCCCCCCCCCCCCC(=O)[O-]
REMARK SMILES IDX 8 1 9 2 10 3 11 4 12 5 13 6 14 7 15 8 16 9 7 10 6 11 5 12
REMARK SMILES IDX 4 13 3 14 2 15 1 16
REMARK H PARENT
REMARK Flexibility Score: inf
ROOT
ATOM      1  C   UNL     1     102.475 306.278 195.890  1.00  0.00     0.000 C 
ENDROOT
BRANCH   1   2
ATOM      2  C   UNL     1     101.873 306.736 197.230  1.00  0.00     0.000 C 
BRANCH   2   3
ATOM      3  C   UNL     1     101.753 305.587 198.245  1.00  0.00     0.000 C 
BRANCH   3   4
ATOM      4  C   UNL     1     101.824 306.074 199.703  1.00  0.00     0.000 C 
BRANCH   4   5
ATOM      5  C   UNL     1     100.436 306.372 200.293  1.00  0.00     0.006 C 
BRANCH   5   6
ATOM      6  C   UNL     1     100.142 305.544 201.551  1.00  0.00     0.053 C 
BRANCH   6   7
ATOM      7  C   UNL     1     101.128 305.865 202.630  1.00  0.00     0.041 C 
ATOM      8  O   UNL     1     101.244 307.046 203.052  1.00  0.00    -0.550 OA
ATOM      9  O   UNL     1     101.954 304.869 203.137  1.00  0.00    -0.550 OA
ENDBRANCH   6   7
ENDBRANCH   5   6
ENDBRANCH   4   5
ENDBRANCH   3   4
ENDBRANCH   2   3
ENDBRANCH   1   2
BRANCH   1  10
ATOM     10  C   UNL     1     101.430 306.214 194.762  1.00  0.00     0.000 C 
BRANCH  10  11
ATOM     11  C   UNL     1     102.023 305.708 193.436  1.00  0.00    -0.000 C 
BRANCH  11  12
ATOM     12  C   UNL     1     103.455 306.219 193.190  1.00  0.00    -0.000 C 
BRANCH  12  13
ATOM     13  C   UNL     1     103.558 307.483 192.312  1.00  0.00    -0.000 C 
BRANCH  13  14
ATOM     14  C   UNL     1     102.278 307.844 191.531  1.00  0.00    -0.000 C 
BRANCH  14  15
ATOM     15  C   UNL     1     102.474 308.887 190.417  1.00  0.00    -0.003 C 
ATOM     16  C   UNL     1     103.914 309.391 190.319  1.00  0.00     0.004 C 
ENDBRANCH  14  15
ENDBRANCH  13  14
ENDBRANCH  12  13
ENDBRANCH  11  12
ENDBRANCH  10  11
ENDBRANCH   1  10
TORSDOF 12
ENDMDL
MODEL 4
REMARK VINA RESULT:    -5.366      1.748      2.775
REMARK INTER + INTRA:         -10.347
REMARK INTER:                  -9.638
REMARK INTRA:                  -0.709
REMARK UNBOUND:                -1.218
REMARK SMILES CCCCCCCCCCCCCC(=O)[O-]
REMARK SMILES IDX 8 1 9 2 10 3 11 4 12 5 13 6 14 7 15 8 16 9 7 10 6 11 5 12
REMARK SMILES IDX 4 13 3 14 2 15 1 16
REMARK H PARENT
REMARK Flexibility Score: inf
ROOT
ATOM      1  C   UNL     1     102.068 305.840 193.239  1.00  0.00     0.000 C 
ENDROOT
BRANCH   1   2
ATOM      2  C   UNL     1     101.421 305.911 194.634  1.00  0.00     0.000 C 
BRANCH   2   3
ATOM      3  C   UNL     1     102.400 306.404 195.712  1.00  0.00     0.000 C 
BRANCH   3   4
ATOM      4  C   UNL     1     101.921 307.691 196.406  1.00  0.00     0.000 C 
BRANCH   4   5
ATOM      5  C   UNL     1     101.839 307.541 197.934  1.00  0.00     0.006 C 
BRANCH   5   6
ATOM      6  C   UNL     1     101.778 306.074 198.379  1.00  0.00     0.053 C 
BRANCH   6   7
ATOM      7  C   UNL     1     101.587 305.984 199.861  1.00  0.00     0.041 C 
ATOM      8  O   UNL     1     100.460 305.688 200.337  1.00  0.00    -0.550 OA
ATOM      9  O   UNL     1     102.642 306.276 200.717  1.00  0.00    -0.550 OA
ENDBRANCH   6   7
ENDBRANCH   5   6
ENDBRANCH   4   5
ENDBRANCH   3   4
ENDBRANCH   2   3
ENDBRANCH   1   2
BRANCH   1  10
ATOM     10  C   UNL     1     103.589 306.068 193.281  1.00  0.00     0.000 C 
BRANCH  10  11
ATOM     11  C   UNL     1     104.028 307.274 192.433  1.00  0.00    -0.000 C 
BRANCH  11  12
ATOM     12  C   UNL     1     102.838 308.079 191.881  1.00  0.00    -0.000 C 
BRANCH  12  13
ATOM     13  C   UNL     1     103.120 308.858 190.580  1.00  0.00    -0.000 C 
BRANCH  13  14
ATOM     14  C   UNL     1     101.982 309.787 190.111  1.00  0.00    -0.000 C 
BRANCH  14  15
ATOM     15  C   UNL     1     101.677 309.725 188.604  1.00  0.00    -0.003 C 
ATOM     16  C   UNL     1     100.414 308.927 188.284  1.00  0.00     0.004 C 
ENDBRANCH  14  15
ENDBRANCH  13  14
ENDBRANCH  12  13
ENDBRANCH  11  12
ENDBRANCH  10  11
ENDBRANCH   1  10
TORSDOF 12
ENDMDL
MODEL 5
REMARK VINA RESULT:    -5.352     19.761     20.558
REMARK INTER + INTRA:         -10.325
REMARK INTER:                  -9.817
REMARK INTRA:                  -0.507
REMARK UNBOUND:                -1.218
REMARK SMILES CCCCCCCCCCCCCC(=O)[O-]
REMARK SMILES IDX 8 1 9 2 10 3 11 4 12 5 13 6 14 7 15 8 16 9 7 10 6 11 5 12
REMARK SMILES IDX 4 13 3 14 2 15 1 16
REMARK H PARENT
REMARK Flexibility Score: inf
ROOT
ATOM      1  C   UNL     1      86.522 320.111 196.953  1.00  0.00     0.000 C 
ENDROOT
BRANCH   1   2
ATOM      2  C   UNL     1      86.955 320.905 198.198  1.00  0.00     0.000 C 
BRANCH   2   3
ATOM      3  C   UNL     1      87.491 319.997 199.317  1.00  0.00     0.000 C 
BRANCH   3   4
ATOM      4  C   UNL     1      88.051 320.792 200.509  1.00  0.00     0.000 C 
BRANCH   4   5
ATOM      5  C   UNL     1      87.261 320.546 201.805  1.00  0.00     0.006 C 
BRANCH   5   6
ATOM      6  C   UNL     1      88.050 320.943 203.060  1.00  0.00     0.053 C 
BRANCH   6   7
ATOM      7  C   UNL     1      87.493 320.255 204.267  1.00  0.00     0.041 C 
ATOM      8  O   UNL     1      87.311 320.898 205.334  1.00  0.00    -0.550 OA
ATOM      9  O   UNL     1      87.221 318.892 204.228  1.00  0.00    -0.550 OA
ENDBRANCH   6   7
ENDBRANCH   5   6
ENDBRANCH   4   5
ENDBRANCH   3   4
ENDBRANCH   2   3
ENDBRANCH   1   2
BRANCH   1  10
ATOM     10  C   UNL     1      87.392 320.419 195.723  1.00  0.00     0.000 C 
BRANCH  10  11
ATOM     11  C   UNL     1      86.571 320.958 194.539  1.00  0.00    -0.000 C 
BRANCH  11  12
ATOM     12  C   UNL     1      85.144 320.381 194.492  1.00  0.00    -0.000 C 
BRANCH  12  13
ATOM     13  C   UNL     1      84.888 319.356 193.367  1.00  0.00    -0.000 C 
BRANCH  13  14
ATOM     14  C   UNL     1      86.130 318.967 192.540  1.00  0.00    -0.000 C 
BRANCH  14  15
ATOM     15  C   UNL     1      85.913 317.803 191.558  1.00  0.00    -0.003 C 
ATOM     16  C   UNL     1      84.457 317.344 191.490  1.00  0.00     0.004 C 
ENDBRANCH  14  15
ENDBRANCH  13  14
ENDBRANCH  12  13
ENDBRANCH  11  12
ENDBRANCH  10  11
ENDBRANCH   1  10
TORSDOF 12
ENDMDL
MODEL 6
REMARK VINA RESULT:    -5.333      5.870      8.684
REMARK INTER + INTRA:         -10.292
REMARK INTER:                  -9.082
REMARK INTRA:                  -1.211
REMARK UNBOUND:                -1.218
REMARK SMILES CCCCCCCCCCCCCC(=O)[O-]
REMARK SMILES IDX 8 1 9 2 10 3 11 4 12 5 13 6 14 7 15 8 16 9 7 10 6 11 5 12
REMARK SMILES IDX 4 13 3 14 2 15 1 16
REMARK H PARENT
REMARK Flexibility Score: inf
ROOT
ATOM      1  C   UNL     1     102.213 307.130 192.253  1.00  0.00     0.000 C 
ENDROOT
BRANCH   1   2
ATOM      2  C   UNL     1     103.488 307.919 191.909  1.00  0.00     0.000 C 
BRANCH   2   3
ATOM      3  C   UNL     1     103.286 308.876 190.722  1.00  0.00     0.000 C 
BRANCH   3   4
ATOM      4  C   UNL     1     101.822 308.939 190.254  1.00  0.00     0.000 C 
BRANCH   4   5
ATOM      5  C   UNL     1     101.678 309.544 188.848  1.00  0.00     0.006 C 
BRANCH   5   6
ATOM      6  C   UNL     1     100.370 309.129 188.161  1.00  0.00     0.053 C 
BRANCH   6   7
ATOM      7  C   UNL     1      99.502 310.325 187.924  1.00  0.00     0.041 C 
ATOM      8  O   UNL     1      98.320 310.346 188.360  1.00  0.00    -0.550 OA
ATOM      9  O   UNL     1      99.981 311.397 187.180  1.00  0.00    -0.550 OA
ENDBRANCH   6   7
ENDBRANCH   5   6
ENDBRANCH   4   5
ENDBRANCH   3   4
ENDBRANCH   2   3
ENDBRANCH   1   2
BRANCH   1  10
ATOM     10  C   UNL     1     102.503 305.873 193.091  1.00  0.00     0.000 C 
BRANCH  10  11
ATOM     11  C   UNL     1     103.675 306.072 194.068  1.00  0.00    -0.000 C 
BRANCH  11  12
ATOM     12  C   UNL     1     103.216 306.179 195.534  1.00  0.00    -0.000 C 
BRANCH  12  13
ATOM     13  C   UNL     1     101.698 306.365 195.734  1.00  0.00    -0.000 C 
BRANCH  13  14
ATOM     14  C   UNL     1     101.257 307.793 196.116  1.00  0.00    -0.000 C 
BRANCH  14  15
ATOM     15  C   UNL     1     102.221 308.907 195.673  1.00  0.00    -0.003 C 
ATOM     16  C   UNL     1     101.628 309.816 194.597  1.00  0.00     0.004 C 
ENDBRANCH  14  15
ENDBRANCH  13  14
ENDBRANCH  12  13
ENDBRANCH  11  12
ENDBRANCH  10  11
ENDBRANCH   1  10
TORSDOF 12
ENDMDL
MODEL 7
REMARK VINA RESULT:    -5.214      4.621      8.688
REMARK INTER + INTRA:         -10.090
REMARK INTER:                  -9.664
REMARK INTRA:                  -0.425
REMARK UNBOUND:                -1.218
REMARK SMILES CCCCCCCCCCCCCC(=O)[O-]
REMARK SMILES IDX 8 1 9 2 10 3 11 4 12 5 13 6 14 7 15 8 16 9 7 10 6 11 5 12
REMARK SMILES IDX 4 13 3 14 2 15 1 16
REMARK H PARENT
REMARK Flexibility Score: inf
ROOT
ATOM      1  C   UNL     1     102.486 306.067 196.140  1.00  0.00     0.000 C 
ENDROOT
BRANCH   1   2
ATOM      2  C   UNL     1     101.444 306.397 195.057  1.00  0.00     0.000 C 
BRANCH   2   3
ATOM      3  C   UNL     1     101.865 305.901 193.664  1.00  0.00     0.000 C 
BRANCH   3   4
ATOM      4  C   UNL     1     103.349 306.175 193.360  1.00  0.00     0.000 C 
BRANCH   4   5
ATOM      5  C   UNL     1     103.545 307.366 192.407  1.00  0.00     0.006 C 
BRANCH   5   6
ATOM      6  C   UNL     1     102.293 307.662 191.571  1.00  0.00     0.053 C 
BRANCH   6   7
ATOM      7  C   UNL     1     102.530 308.836 190.673  1.00  0.00     0.041 C 
ATOM      8  O   UNL     1     101.782 309.035 189.680  1.00  0.00    -0.550 OA
ATOM      9  O   UNL     1     103.606 309.684 190.906  1.00  0.00    -0.550 OA
ENDBRANCH   6   7
ENDBRANCH   5   6
ENDBRANCH   4   5
ENDBRANCH   3   4
ENDBRANCH   2   3
ENDBRANCH   1   2
BRANCH   1  10
ATOM     10  C   UNL     1     101.844 305.563 197.444  1.00  0.00     0.000 C 
BRANCH  10  11
ATOM     11  C   UNL     1     101.657 306.683 198.481  1.00  0.00    -0.000 C 
BRANCH  11  12
ATOM     12  C   UNL     1     100.991 306.188 199.779  1.00  0.00    -0.000 C 
BRANCH  12  13
ATOM     13  C   UNL     1     101.953 305.960 200.963  1.00  0.00    -0.000 C 
BRANCH  13  14
ATOM     14  C   UNL     1     101.287 305.470 202.264  1.00  0.00    -0.000 C 
BRANCH  14  15
ATOM     15  C   UNL     1     102.266 305.053 203.375  1.00  0.00    -0.003 C 
ATOM     16  C   UNL     1     101.628 305.051 204.763  1.00  0.00     0.004 C 
ENDBRANCH  14  15
ENDBRANCH  13  14
ENDBRANCH  12  13
ENDBRANCH  11  12
ENDBRANCH  10  11
ENDBRANCH   1  10
TORSDOF 12
ENDMDL
MODEL 8
REMARK VINA RESULT:    -5.192     18.872     21.143
REMARK INTER + INTRA:         -10.051
REMARK INTER:                  -8.702
REMARK INTRA:                  -1.349
REMARK UNBOUND:                -1.218
REMARK SMILES CCCCCCCCCCCCCC(=O)[O-]
REMARK SMILES IDX 8 1 9 2 10 3 11 4 12 5 13 6 14 7 15 8 16 9 7 10 6 11 5 12
REMARK SMILES IDX 4 13 3 14 2 15 1 16
REMARK H PARENT
REMARK Flexibility Score: inf
ROOT
ATOM      1  C   UNL     1      84.665 319.373 193.338  1.00  0.00     0.000 C 
ENDROOT
BRANCH   1   2
ATOM      2  C   UNL     1      85.893 318.919 192.531  1.00  0.00     0.000 C 
BRANCH   2   3
ATOM      3  C   UNL     1      85.541 317.867 191.466  1.00  0.00     0.000 C 
BRANCH   3   4
ATOM      4  C   UNL     1      86.773 317.380 190.683  1.00  0.00     0.000 C 
BRANCH   4   5
ATOM      5  C   UNL     1      86.538 317.364 189.164  1.00  0.00     0.006 C 
BRANCH   5   6
ATOM      6  C   UNL     1      86.491 315.942 188.591  1.00  0.00     0.053 C 
BRANCH   6   7
ATOM      7  C   UNL     1      85.074 315.513 188.370  1.00  0.00     0.041 C 
ATOM      8  O   UNL     1      84.728 314.325 188.603  1.00  0.00    -0.550 OA
ATOM      9  O   UNL     1      84.146 316.414 187.861  1.00  0.00    -0.550 OA
ENDBRANCH   6   7
ENDBRANCH   5   6
ENDBRANCH   4   5
ENDBRANCH   3   4
ENDBRANCH   2   3
ENDBRANCH   1   2
BRANCH   1  10
ATOM     10  C   UNL     1      85.025 320.370 194.453  1.00  0.00     0.000 C 
BRANCH  10  11
ATOM     11  C   UNL     1      86.483 320.853 194.365  1.00  0.00    -0.000 C 
BRANCH  11  12
ATOM     12  C   UNL     1      87.279 320.581 195.655  1.00  0.00    -0.000 C 
BRANCH  12  13
ATOM     13  C   UNL     1      86.797 319.371 196.480  1.00  0.00    -0.000 C 
BRANCH  13  14
ATOM     14  C   UNL     1      87.460 318.025 196.120  1.00  0.00    -0.000 C 
BRANCH  14  15
ATOM     15  C   UNL     1      86.497 316.955 195.577  1.00  0.00    -0.003 C 
ATOM     16  C   UNL     1      87.130 316.076 194.499  1.00  0.00     0.004 C 
ENDBRANCH  14  15
ENDBRANCH  13  14
ENDBRANCH  12  13
ENDBRANCH  11  12
ENDBRANCH  10  11
ENDBRANCH   1  10
TORSDOF 12
ENDMDL
MODEL 9
REMARK VINA RESULT:    -5.169     19.772     21.521
REMARK INTER + INTRA:         -10.013
REMARK INTER:                  -9.498
REMARK INTRA:                  -0.516
REMARK UNBOUND:                -1.218
REMARK SMILES CCCCCCCCCCCCCC(=O)[O-]
REMARK SMILES IDX 8 1 9 2 10 3 11 4 12 5 13 6 14 7 15 8 16 9 7 10 6 11 5 12
REMARK SMILES IDX 4 13 3 14 2 15 1 16
REMARK H PARENT
REMARK Flexibility Score: inf
ROOT
ATOM      1  C   UNL     1      86.351 320.886 194.374  1.00  0.00     0.000 C 
ENDROOT
BRANCH   1   2
ATOM      2  C   UNL     1      85.043 320.079 194.440  1.00  0.00     0.000 C 
BRANCH   2   3
ATOM      3  C   UNL     1      84.795 319.254 193.166  1.00  0.00     0.000 C 
BRANCH   3   4
ATOM      4  C   UNL     1      86.088 318.652 192.589  1.00  0.00     0.000 C 
BRANCH   4   5
ATOM      5  C   UNL     1      85.819 317.693 191.417  1.00  0.00     0.006 C 
BRANCH   5   6
ATOM      6  C   UNL     1      86.873 317.811 190.308  1.00  0.00     0.053 C 
BRANCH   6   7
ATOM      7  C   UNL     1      86.547 316.885 189.177  1.00  0.00     0.041 C 
ATOM      8  O   UNL     1      87.471 316.356 188.505  1.00  0.00    -0.550 OA
ATOM      9  O   UNL     1      85.221 316.646 188.834  1.00  0.00    -0.550 OA
ENDBRANCH   6   7
ENDBRANCH   5   6
ENDBRANCH   4   5
ENDBRANCH   3   4
ENDBRANCH   2   3
ENDBRANCH   1   2
BRANCH   1  10
ATOM     10  C   UNL     1      87.277 320.611 195.571  1.00  0.00     0.000 C 
BRANCH  10  11
ATOM     11  C   UNL     1      86.509 320.127 196.813  1.00  0.00    -0.000 C 
BRANCH  11  12
ATOM     12  C   UNL     1      86.896 320.896 198.089  1.00  0.00    -0.000 C 
BRANCH  12  13
ATOM     13  C   UNL     1      87.497 320.033 199.217  1.00  0.00    -0.000 C 
BRANCH  13  14
ATOM     14  C   UNL     1      88.021 320.820 200.437  1.00  0.00    -0.000 C 
BRANCH  14  15
ATOM     15  C   UNL     1      87.239 320.585 201.741  1.00  0.00    -0.003 C 
ATOM     16  C   UNL     1      86.750 319.145 201.892  1.00  0.00     0.004 C 
ENDBRANCH  14  15
ENDBRANCH  13  14
ENDBRANCH  12  13
ENDBRANCH  11  12
ENDBRANCH  10  11
ENDBRANCH   1  10
TORSDOF 12
ENDMDL
