MODEL 1
REMARK VINA RESULT:    -3.168      0.000      0.000
REMARK INTER + INTRA:          -5.964
REMARK INTER:                  -5.020
REMARK INTRA:                  -0.944
REMARK UNBOUND:                -0.944
REMARK SMILES CCCCCCCCCCCC(=O)[O-]
REMARK SMILES IDX 7 1 8 2 9 3 10 4 11 5 12 6 13 7 14 8 6 9 5 10 4 11 3 12 2 13
REMARK SMILES IDX 1 14
REMARK H PARENT
REMARK Flexibility Score: inf
ROOT
ATOM      1  C   UNL     1      -7.042  20.081  18.427  1.00  0.00     0.000 C 
ENDROOT
BRANCH   1   2
ATOM      2  C   UNL     1      -6.754  20.040  19.936  1.00  0.00     0.000 C 
BRANCH   2   3
ATOM      3  C   UNL     1      -8.035  20.120  20.785  1.00  0.00     0.000 C 
BRANCH   3   4
ATOM      4  C   UNL     1      -7.941  21.195  21.888  1.00  0.00     0.006 C 
BRANCH   4   5
ATOM      5  C   UNL     1      -8.775  22.451  21.592  1.00  0.00     0.053 C 
BRANCH   5   6
ATOM      6  C   UNL     1      -8.060  23.412  20.696  1.00  0.00     0.041 C 
ATOM      7  O   UNL     1      -8.312  23.437  19.463  1.00  0.00    -0.550 OA
ATOM      8  O   UNL     1      -7.131  24.300  21.226  1.00  0.00    -0.550 OA
ENDBRANCH   5   6
ENDBRANCH   4   5
ENDBRANCH   3   4
ENDBRANCH   2   3
ENDBRANCH   1   2
BRANCH   1   9
ATOM      9  C   UNL     1      -8.542  20.015  18.106  1.00  0.00     0.000 C 
BRANCH   9  10
ATOM     10  C   UNL     1      -8.839  20.652  16.741  1.00  0.00    -0.000 C 
BRANCH  10  11
ATOM     11  C   UNL     1      -7.907  20.140  15.632  1.00  0.00    -0.000 C 
BRANCH  11  12
ATOM     12  C   UNL     1      -7.259  21.281  14.830  1.00  0.00    -0.000 C 
BRANCH  12  13
ATOM     13  C   UNL     1      -5.844  20.930  14.344  1.00  0.00    -0.003 C 
ATOM     14  C   UNL     1      -4.884  20.624  15.493  1.00  0.00     0.004 C 
ENDBRANCH  12  13
ENDBRANCH  11  12
ENDBRANCH  10  11
ENDBRANCH   9  10
ENDBRANCH   1   9
TORSDOF 10
ENDMDL
MODEL 2
REMARK VINA RESULT:    -2.845      1.812      2.563
REMARK INTER + INTRA:          -5.452
REMARK INTER:                  -4.693
REMARK INTRA:                  -0.760
REMARK UNBOUND:                -0.944
REMARK SMILES CCCCCCCCCCCC(=O)[O-]
REMARK SMILES IDX 7 1 8 2 9 3 10 4 11 5 12 6 13 7 14 8 6 9 5 10 4 11 3 12 2 13
REMARK SMILES IDX 1 14
REMARK H PARENT
REMARK Flexibility Score: inf
ROOT
ATOM      1  C   UNL     1      -7.605  21.181  17.299  1.00  0.00     0.000 C 
ENDROOT
BRANCH   1   2
ATOM      2  C   UNL     1      -8.829  22.091  17.492  1.00  0.00     0.000 C 
BRANCH   2   3
ATOM      3  C   UNL     1      -8.679  23.039  18.695  1.00  0.00     0.000 C 
BRANCH   3   4
ATOM      4  C   UNL     1      -8.059  22.337  19.921  1.00  0.00     0.006 C 
BRANCH   4   5
ATOM      5  C   UNL     1      -7.876  23.266  21.131  1.00  0.00     0.053 C 
BRANCH   5   6
ATOM      6  C   UNL     1      -8.102  22.560  22.431  1.00  0.00     0.041 C 
ATOM      7  O   UNL     1      -8.709  21.458  22.456  1.00  0.00    -0.550 OA
ATOM      8  O   UNL     1      -7.620  23.107  23.614  1.00  0.00    -0.550 OA
ENDBRANCH   5   6
ENDBRANCH   4   5
ENDBRANCH   3   4
ENDBRANCH   2   3
ENDBRANCH   1   2
BRANCH   1   9
ATOM      9  C   UNL     1      -7.798  20.156  16.172  1.00  0.00     0.000 C 
BRANCH   9  10
ATOM     10  C   UNL     1      -7.508  20.788  14.802  1.00  0.00    -0.000 C 
BRANCH  10  11
ATOM     11  C   UNL     1      -6.179  21.558  14.774  1.00  0.00    -0.000 C 
BRANCH  11  12
ATOM     12  C   UNL     1      -4.958  20.628  14.673  1.00  0.00    -0.000 C 
BRANCH  12  13
ATOM     13  C   UNL     1      -3.951  20.851  15.813  1.00  0.00    -0.003 C 
ATOM     14  C   UNL     1      -4.146  19.875  16.972  1.00  0.00     0.004 C 
ENDBRANCH  12  13
ENDBRANCH  11  12
ENDBRANCH  10  11
ENDBRANCH   9  10
ENDBRANCH   1   9
TORSDOF 10
ENDMDL
MODEL 3
REMARK VINA RESULT:    -2.717      3.060      5.129
REMARK INTER + INTRA:          -5.249
REMARK INTER:                  -4.817
REMARK INTRA:                  -0.433
REMARK UNBOUND:                -0.944
REMARK SMILES CCCCCCCCCCCC(=O)[O-]
REMARK SMILES IDX 7 1 8 2 9 3 10 4 11 5 12 6 13 7 14 8 6 9 5 10 4 11 3 12 2 13
REMARK SMILES IDX 1 14
REMARK H PARENT
REMARK Flexibility Score: inf
ROOT
ATOM      1  C   UNL     1      -4.518  20.661  15.423  1.00  0.00     0.000 C 
ENDROOT
BRANCH   1   2
ATOM      2  C   UNL     1      -5.948  20.746  14.865  1.00  0.00     0.000 C 
BRANCH   2   3
ATOM      3  C   UNL     1      -6.851  21.678  15.692  1.00  0.00     0.000 C 
BRANCH   3   4
ATOM      4  C   UNL     1      -7.983  20.913  16.410  1.00  0.00     0.006 C 
BRANCH   4   5
ATOM      5  C   UNL     1      -8.802  21.789  17.371  1.00  0.00     0.053 C 
BRANCH   5   6
ATOM      6  C   UNL     1      -8.085  22.050  18.657  1.00  0.00     0.041 C 
ATOM      7  O   UNL     1      -7.198  21.253  19.061  1.00  0.00    -0.550 OA
ATOM      8  O   UNL     1      -8.376  23.188  19.399  1.00  0.00    -0.550 OA
ENDBRANCH   5   6
ENDBRANCH   4   5
ENDBRANCH   3   4
ENDBRANCH   2   3
ENDBRANCH   1   2
BRANCH   1   9
ATOM      9  C   UNL     1      -4.449  19.926  16.770  1.00  0.00     0.000 C 
BRANCH   9  10
ATOM     10  C   UNL     1      -3.028  19.977  17.350  1.00  0.00    -0.000 C 
BRANCH  10  11
ATOM     11  C   UNL     1      -1.968  20.314  16.290  1.00  0.00    -0.000 C 
BRANCH  11  12
ATOM     12  C   UNL     1      -0.532  20.120  16.806  1.00  0.00    -0.000 C 
BRANCH  12  13
ATOM     13  C   UNL     1       0.518  20.758  15.882  1.00  0.00    -0.003 C 
ATOM     14  C   UNL     1       1.876  20.927  16.561  1.00  0.00     0.004 C 
ENDBRANCH  12  13
ENDBRANCH  11  12
ENDBRANCH  10  11
ENDBRANCH   9  10
ENDBRANCH   1   9
TORSDOF 10
ENDMDL
MODEL 4
REMARK VINA RESULT:    -2.400      7.678      9.858
REMARK INTER + INTRA:          -4.747
REMARK INTER:                  -4.501
REMARK INTRA:                  -0.246
REMARK UNBOUND:                -0.944
REMARK SMILES CCCCCCCCCCCC(=O)[O-]
REMARK SMILES IDX 7 1 8 2 9 3 10 4 11 5 12 6 13 7 14 8 6 9 5 10 4 11 3 12 2 13
REMARK SMILES IDX 1 14
REMARK H PARENT
REMARK Flexibility Score: inf
ROOT
ATOM      1  C   UNL     1      -0.568  19.983  17.084  1.00  0.00     0.000 C 
ENDROOT
BRANCH   1   2
ATOM      2  C   UNL     1       0.623  19.997  16.111  1.00  0.00     0.000 C 
BRANCH   2   3
ATOM      3  C   UNL     1       1.784  20.876  16.609  1.00  0.00     0.000 C 
BRANCH   3   4
ATOM      4  C   UNL     1       3.162  20.241  16.333  1.00  0.00     0.006 C 
BRANCH   4   5
ATOM      5  C   UNL     1       4.343  21.128  16.756  1.00  0.00     0.053 C 
BRANCH   5   6
ATOM      6  C   UNL     1       5.592  20.816  15.995  1.00  0.00     0.041 C 
ATOM      7  O   UNL     1       6.605  20.370  16.596  1.00  0.00    -0.550 OA
ATOM      8  O   UNL     1       5.632  20.994  14.618  1.00  0.00    -0.550 OA
ENDBRANCH   5   6
ENDBRANCH   4   5
ENDBRANCH   3   4
ENDBRANCH   2   3
ENDBRANCH   1   2
BRANCH   1   9
ATOM      9  C   UNL     1      -1.921  19.885  16.364  1.00  0.00     0.000 C 
BRANCH   9  10
ATOM     10  C   UNL     1      -3.082  20.019  17.361  1.00  0.00    -0.000 C 
BRANCH  10  11
ATOM     11  C   UNL     1      -4.458  19.875  16.690  1.00  0.00    -0.000 C 
BRANCH  11  12
ATOM     12  C   UNL     1      -4.558  20.661  15.372  1.00  0.00    -0.000 C 
BRANCH  12  13
ATOM     13  C   UNL     1      -5.898  21.398  15.226  1.00  0.00    -0.003 C 
ATOM     14  C   UNL     1      -6.908  20.626  14.379  1.00  0.00     0.004 C 
ENDBRANCH  12  13
ENDBRANCH  11  12
ENDBRANCH  10  11
ENDBRANCH   9  10
ENDBRANCH   1   9
TORSDOF 10
ENDMDL
MODEL 5
REMARK VINA RESULT:    -2.237     14.674     17.651
REMARK INTER + INTRA:          -4.488
REMARK INTER:                  -3.928
REMARK INTRA:                  -0.559
REMARK UNBOUND:                -0.944
REMARK SMILES CCCCCCCCCCCC(=O)[O-]
REMARK SMILES IDX 7 1 8 2 9 3 10 4 11 5 12 6 13 7 14 8 6 9 5 10 4 11 3 12 2 13
REMARK SMILES IDX 1 14
REMARK H PARENT
REMARK Flexibility Score: inf
ROOT
ATOM      1  C   UNL     1       8.129  20.142  13.039  1.00  0.00     0.000 C 
ENDROOT
BRANCH   1   2
ATOM      2  C   UNL     1       9.544  20.041  12.447  1.00  0.00     0.000 C 
BRANCH   2   3
ATOM      3  C   UNL     1       9.755  20.989  11.253  1.00  0.00     0.000 C 
BRANCH   3   4
ATOM      4  C   UNL     1      10.912  21.982  11.490  1.00  0.00     0.006 C 
BRANCH   4   5
ATOM      5  C   UNL     1      10.517  23.187  12.358  1.00  0.00     0.053 C 
BRANCH   5   6
ATOM      6  C   UNL     1      10.763  24.492  11.669  1.00  0.00     0.041 C 
ATOM      7  O   UNL     1      10.917  25.545  12.341  1.00  0.00    -0.550 OA
ATOM      8  O   UNL     1      10.848  24.542  10.283  1.00  0.00    -0.550 OA
ENDBRANCH   5   6
ENDBRANCH   4   5
ENDBRANCH   3   4
ENDBRANCH   2   3
ENDBRANCH   1   2
BRANCH   1   9
ATOM      9  C   UNL     1       8.084  20.967  14.333  1.00  0.00     0.000 C 
BRANCH   9  10
ATOM     10  C   UNL     1       8.152  20.054  15.567  1.00  0.00    -0.000 C 
BRANCH  10  11
ATOM     11  C   UNL     1       6.933  20.213  16.489  1.00  0.00    -0.000 C 
BRANCH  11  12
ATOM     12  C   UNL     1       5.609  19.882  15.781  1.00  0.00    -0.000 C 
BRANCH  12  13
ATOM     13  C   UNL     1       4.450  20.777  16.249  1.00  0.00    -0.003 C 
ATOM     14  C   UNL     1       3.109  20.046  16.267  1.00  0.00     0.004 C 
ENDBRANCH  12  13
ENDBRANCH  11  12
ENDBRANCH  10  11
ENDBRANCH   9  10
ENDBRANCH   1   9
TORSDOF 10
ENDMDL
MODEL 6
REMARK VINA RESULT:    -2.096     13.271     15.850
REMARK INTER + INTRA:          -4.264
REMARK INTER:                  -3.856
REMARK INTRA:                  -0.408
REMARK UNBOUND:                -0.944
REMARK SMILES CCCCCCCCCCCC(=O)[O-]
REMARK SMILES IDX 7 1 8 2 9 3 10 4 11 5 12 6 13 7 14 8 6 9 5 10 4 11 3 12 2 13
REMARK SMILES IDX 1 14
REMARK H PARENT
REMARK Flexibility Score: inf
ROOT
ATOM      1  C   UNL     1       8.520  20.822  14.808  1.00  0.00     0.000 C 
ENDROOT
BRANCH   1   2
ATOM      2  C   UNL     1       7.666  20.076  15.846  1.00  0.00     0.000 C 
BRANCH   2   3
ATOM      3  C   UNL     1       6.427  20.879  16.281  1.00  0.00     0.000 C 
BRANCH   3   4
ATOM      4  C   UNL     1       5.239  20.694  15.315  1.00  0.00     0.006 C 
BRANCH   4   5
ATOM      5  C   UNL     1       4.041  19.967  15.947  1.00  0.00     0.053 C 
BRANCH   5   6
ATOM      6  C   UNL     1       3.107  20.905  16.642  1.00  0.00     0.041 C 
ATOM      7  O   UNL     1       3.525  21.638  17.577  1.00  0.00    -0.550 OA
ATOM      8  O   UNL     1       1.779  20.989  16.243  1.00  0.00    -0.550 OA
ENDBRANCH   5   6
ENDBRANCH   4   5
ENDBRANCH   3   4
ENDBRANCH   2   3
ENDBRANCH   1   2
BRANCH   1   9
ATOM      9  C   UNL     1       9.711  21.559  15.438  1.00  0.00     0.000 C 
BRANCH   9  10
ATOM     10  C   UNL     1      10.879  21.660  14.446  1.00  0.00    -0.000 C 
BRANCH  10  11
ATOM     11  C   UNL     1      10.984  23.048  13.794  1.00  0.00    -0.000 C 
BRANCH  11  12
ATOM     12  C   UNL     1      10.476  23.059  12.343  1.00  0.00    -0.000 C 
BRANCH  12  13
ATOM     13  C   UNL     1      10.483  21.661  11.705  1.00  0.00    -0.003 C 
ATOM     14  C   UNL     1      10.740  21.700  10.199  1.00  0.00     0.004 C 
ENDBRANCH  12  13
ENDBRANCH  11  12
ENDBRANCH  10  11
ENDBRANCH   9  10
ENDBRANCH   1   9
TORSDOF 10
ENDMDL
MODEL 7
REMARK VINA RESULT:    -2.057     15.071     17.503
REMARK INTER + INTRA:          -4.203
REMARK INTER:                  -3.409
REMARK INTRA:                  -0.794
REMARK UNBOUND:                -0.944
REMARK SMILES CCCCCCCCCCCC(=O)[O-]
REMARK SMILES IDX 7 1 8 2 9 3 10 4 11 5 12 6 13 7 14 8 6 9 5 10 4 11 3 12 2 13
REMARK SMILES IDX 1 14
REMARK H PARENT
REMARK Flexibility Score: inf
ROOT
ATOM      1  C   UNL     1       5.932  21.044  15.125  1.00  0.00     0.000 C 
ENDROOT
BRANCH   1   2
ATOM      2  C   UNL     1       6.248  20.179  13.894  1.00  0.00     0.000 C 
BRANCH   2   3
ATOM      3  C   UNL     1       7.756  19.929  13.718  1.00  0.00     0.000 C 
BRANCH   3   4
ATOM      4  C   UNL     1       8.558  21.241  13.597  1.00  0.00     0.006 C 
BRANCH   4   5
ATOM      5  C   UNL     1       9.987  21.040  13.069  1.00  0.00     0.053 C 
BRANCH   5   6
ATOM      6  C   UNL     1      10.385  22.093  12.084  1.00  0.00     0.041 C 
ATOM      7  O   UNL     1      10.572  21.793  10.876  1.00  0.00    -0.550 OA
ATOM      8  O   UNL     1      10.525  23.413  12.495  1.00  0.00    -0.550 OA
ENDBRANCH   5   6
ENDBRANCH   4   5
ENDBRANCH   3   4
ENDBRANCH   2   3
ENDBRANCH   1   2
BRANCH   1   9
ATOM      9  C   UNL     1       6.486  20.448  16.428  1.00  0.00     0.000 C 
BRANCH   9  10
ATOM     10  C   UNL     1       7.093  21.544  17.317  1.00  0.00    -0.000 C 
BRANCH  10  11
ATOM     11  C   UNL     1       8.581  21.790  17.023  1.00  0.00    -0.000 C 
BRANCH  11  12
ATOM     12  C   UNL     1       9.254  22.678  18.083  1.00  0.00    -0.000 C 
BRANCH  12  13
ATOM     13  C   UNL     1      10.756  22.875  17.819  1.00  0.00    -0.003 C 
ATOM     14  C   UNL     1      11.106  22.822  16.332  1.00  0.00     0.004 C 
ENDBRANCH  12  13
ENDBRANCH  11  12
ENDBRANCH  10  11
ENDBRANCH   9  10
ENDBRANCH   1   9
TORSDOF 10
ENDMDL
MODEL 8
REMARK VINA RESULT:    -2.037     13.292     16.042
REMARK INTER + INTRA:          -4.172
REMARK INTER:                  -3.614
REMARK INTRA:                  -0.558
REMARK UNBOUND:                -0.944
REMARK SMILES CCCCCCCCCCCC(=O)[O-]
REMARK SMILES IDX 7 1 8 2 9 3 10 4 11 5 12 6 13 7 14 8 6 9 5 10 4 11 3 12 2 13
REMARK SMILES IDX 1 14
REMARK H PARENT
REMARK Flexibility Score: inf
ROOT
ATOM      1  C   UNL     1       8.393  21.247  14.671  1.00  0.00     0.000 C 
ENDROOT
BRANCH   1   2
ATOM      2  C   UNL     1       7.722  19.876  14.481  1.00  0.00     0.000 C 
BRANCH   2   3
ATOM      3  C   UNL     1       6.378  19.973  13.737  1.00  0.00     0.000 C 
BRANCH   3   4
ATOM      4  C   UNL     1       5.171  19.875  14.693  1.00  0.00     0.006 C 
BRANCH   4   5
ATOM      5  C   UNL     1       5.068  21.054  15.674  1.00  0.00     0.053 C 
BRANCH   5   6
ATOM      6  C   UNL     1       3.868  20.953  16.561  1.00  0.00     0.041 C 
ATOM      7  O   UNL     1       2.955  20.126  16.301  1.00  0.00    -0.550 OA
ATOM      8  O   UNL     1       3.767  21.756  17.691  1.00  0.00    -0.550 OA
ENDBRANCH   5   6
ENDBRANCH   4   5
ENDBRANCH   3   4
ENDBRANCH   2   3
ENDBRANCH   1   2
BRANCH   1   9
ATOM      9  C   UNL     1       9.239  21.667  13.459  1.00  0.00     0.000 C 
BRANCH   9  10
ATOM     10  C   UNL     1      10.671  22.020  13.887  1.00  0.00    -0.000 C 
BRANCH  10  11
ATOM     11  C   UNL     1      10.912  21.798  15.388  1.00  0.00    -0.000 C 
BRANCH  11  12
ATOM     12  C   UNL     1      11.113  23.115  16.156  1.00  0.00    -0.000 C 
BRANCH  12  13
ATOM     13  C   UNL     1      10.966  22.940  17.676  1.00  0.00    -0.003 C 
ATOM     14  C   UNL     1       9.532  22.623  18.098  1.00  0.00     0.004 C 
ENDBRANCH  12  13
ENDBRANCH  11  12
ENDBRANCH  10  11
ENDBRANCH   9  10
ENDBRANCH   1   9
TORSDOF 10
ENDMDL
