MODEL 1
REMARK VINA RESULT:    -7.552      0.000      0.000
REMARK INTER + INTRA:          -9.144
REMARK INTER:                  -8.876
REMARK INTRA:                  -0.268
REMARK UNBOUND:                -0.268
REMARK SMILES O=c1cc(-c2ccc(O)c(O)c2)oc2cc(O)cc(O)c12
REMARK SMILES IDX 4 1 3 2 2 3 1 4 21 5 19 6 18 7 16 8 15 9 14 10 13 11 5 12
REMARK SMILES IDX 6 13 7 14 8 15 12 16 10 17 9 18 11 20 20 22 17 24
REMARK H PARENT 9 19 11 21 20 23 17 25
REMARK Flexibility Score: inf
ROOT
ATOM      1  C   UNL     1      30.859   6.222  19.822  1.00  0.00     0.138 A 
ATOM      2  C   UNL     1      31.983   5.788  20.539  1.00  0.00     0.100 A 
ATOM      3  C   UNL     1      32.253   4.423  20.640  1.00  0.00     0.197 A 
ATOM      4  O   UNL     1      33.302   4.067  21.237  1.00  0.00    -0.289 OA
ATOM      5  C   UNL     1      31.375   3.486  20.045  1.00  0.00     0.107 A 
ATOM      6  C   UNL     1      31.527   2.069  20.116  1.00  0.00     0.134 A 
ATOM      7  C   UNL     1      30.660   1.244  19.390  1.00  0.00     0.093 A 
ATOM      8  C   UNL     1      29.612   1.780  18.643  1.00  0.00     0.123 A 
ATOM      9  C   UNL     1      29.420   3.162  18.609  1.00  0.00     0.094 A 
ATOM     10  C   UNL     1      30.289   4.014  19.295  1.00  0.00     0.146 A 
ATOM     11  O   UNL     1      30.082   5.324  19.225  1.00  0.00    -0.456 OA
ENDROOT
BRANCH   1  12
ATOM     12  C   UNL     1      30.525   7.662  19.684  1.00  0.00     0.021 A 
ATOM     13  C   UNL     1      29.933   8.388  20.736  1.00  0.00     0.016 A 
ATOM     14  C   UNL     1      29.619   9.740  20.575  1.00  0.00     0.051 A 
ATOM     15  C   UNL     1      29.883  10.387  19.362  1.00  0.00     0.157 A 
ATOM     16  C   UNL     1      30.775   8.317  18.464  1.00  0.00     0.062 A 
ATOM     17  C   UNL     1      30.460   9.675  18.305  1.00  0.00     0.158 A 
BRANCH  15  18
ATOM     18  O   UNL     1      29.572  11.736  19.200  1.00  0.00    -0.504 OA
ATOM     19  H   UNL     1      29.555  12.170  18.284  1.00  0.00     0.293 HD
ENDBRANCH  15  18
BRANCH  17  20
ATOM     20  O   UNL     1      30.718  10.321  17.097  1.00  0.00    -0.504 OA
ATOM     21  H   UNL     1      30.683  11.330  17.017  1.00  0.00     0.293 HD
ENDBRANCH  17  20
ENDBRANCH   1  12
BRANCH   6  22
ATOM     22  O   UNL     1      32.490   1.426  20.900  1.00  0.00    -0.507 OA
ATOM     23  H   UNL     1      32.475   0.448  21.145  1.00  0.00     0.293 HD
ENDBRANCH   6  22
BRANCH   8  24
ATOM     24  O   UNL     1      28.759   0.928  17.945  1.00  0.00    -0.508 OA
ATOM     25  H   UNL     1      29.065   0.437  17.112  1.00  0.00     0.293 HD
ENDBRANCH   8  24
TORSDOF 5
ENDMDL
MODEL 2
REMARK VINA RESULT:    -7.399      2.132      2.544
REMARK INTER + INTRA:          -8.964
REMARK INTER:                  -8.695
REMARK INTRA:                  -0.270
REMARK UNBOUND:                -0.268
REMARK SMILES O=c1cc(-c2ccc(O)c(O)c2)oc2cc(O)cc(O)c12
REMARK SMILES IDX 4 1 3 2 2 3 1 4 21 5 19 6 18 7 16 8 15 9 14 10 13 11 5 12
REMARK SMILES IDX 6 13 7 14 8 15 12 16 10 17 9 18 11 20 20 22 17 24
REMARK H PARENT 9 19 11 21 20 23 17 25
REMARK Flexibility Score: inf
ROOT
ATOM      1  C   UNL     1      31.127   6.180  17.997  1.00  0.00     0.138 A 
ATOM      2  C   UNL     1      32.383   5.801  17.503  1.00  0.00     0.100 A 
ATOM      3  C   UNL     1      32.625   4.464  17.183  1.00  0.00     0.197 A 
ATOM      4  O   UNL     1      33.740   4.165  16.684  1.00  0.00    -0.289 OA
ATOM      5  C   UNL     1      31.612   3.498  17.389  1.00  0.00     0.107 A 
ATOM      6  C   UNL     1      31.758   2.100  17.136  1.00  0.00     0.134 A 
ATOM      7  C   UNL     1      30.649   1.256  17.267  1.00  0.00     0.093 A 
ATOM      8  C   UNL     1      29.416   1.746  17.697  1.00  0.00     0.123 A 
ATOM      9  C   UNL     1      29.275   3.102  17.999  1.00  0.00     0.094 A 
ATOM     10  C   UNL     1      30.354   3.975  17.846  1.00  0.00     0.146 A 
ATOM     11  O   UNL     1      30.175   5.261  18.128  1.00  0.00    -0.456 OA
ENDROOT
BRANCH   1  12
ATOM     12  C   UNL     1      30.817   7.587  18.354  1.00  0.00     0.021 A 
ATOM     13  C   UNL     1      30.741   8.599  17.378  1.00  0.00     0.016 A 
ATOM     14  C   UNL     1      30.457   9.917  17.743  1.00  0.00     0.051 A 
ATOM     15  C   UNL     1      30.252  10.249  19.088  1.00  0.00     0.157 A 
ATOM     16  C   UNL     1      30.622   7.932  19.704  1.00  0.00     0.062 A 
ATOM     17  C   UNL     1      30.336   9.256  20.070  1.00  0.00     0.158 A 
BRANCH  15  18
ATOM     18  O   UNL     1      29.968  11.563  19.455  1.00  0.00    -0.504 OA
ATOM     19  H   UNL     1      29.890  11.837  20.428  1.00  0.00     0.293 HD
ENDBRANCH  15  18
BRANCH  17  20
ATOM     20  O   UNL     1      30.137   9.590  21.408  1.00  0.00    -0.504 OA
ATOM     21  H   UNL     1      29.359   9.214  21.939  1.00  0.00     0.293 HD
ENDBRANCH  17  20
ENDBRANCH   1  12
BRANCH   6  22
ATOM     22  O   UNL     1      32.966   1.494  16.783  1.00  0.00    -0.507 OA
ATOM     23  H   UNL     1      33.348   0.670  17.223  1.00  0.00     0.293 HD
ENDBRANCH   6  22
BRANCH   8  24
ATOM     24  O   UNL     1      28.339   0.874  17.830  1.00  0.00    -0.508 OA
ATOM     25  H   UNL     1      28.351   0.113  18.500  1.00  0.00     0.293 HD
ENDBRANCH   8  24
TORSDOF 5
ENDMDL
MODEL 3
REMARK VINA RESULT:    -7.350      4.918      7.745
REMARK INTER + INTRA:          -8.907
REMARK INTER:                  -8.616
REMARK INTRA:                  -0.291
REMARK UNBOUND:                -0.268
REMARK SMILES O=c1cc(-c2ccc(O)c(O)c2)oc2cc(O)cc(O)c12
REMARK SMILES IDX 4 1 3 2 2 3 1 4 21 5 19 6 18 7 16 8 15 9 14 10 13 11 5 12
REMARK SMILES IDX 6 13 7 14 8 15 12 16 10 17 9 18 11 20 20 22 17 24
REMARK H PARENT 9 19 11 21 20 23 17 25
REMARK Flexibility Score: inf
ROOT
ATOM      1  C   UNL     1      27.229   0.990  20.094  1.00  0.00     0.138 A 
ATOM      2  C   UNL     1      26.241   1.933  20.412  1.00  0.00     0.100 A 
ATOM      3  C   UNL     1      25.266   1.618  21.360  1.00  0.00     0.197 A 
ATOM      4  O   UNL     1      24.430   2.506  21.670  1.00  0.00    -0.289 OA
ATOM      5  C   UNL     1      25.263   0.341  21.969  1.00  0.00     0.107 A 
ATOM      6  C   UNL     1      24.295  -0.105  22.919  1.00  0.00     0.134 A 
ATOM      7  C   UNL     1      24.461  -1.348  23.542  1.00  0.00     0.093 A 
ATOM      8  C   UNL     1      25.524  -2.186  23.207  1.00  0.00     0.123 A 
ATOM      9  C   UNL     1      26.447  -1.783  22.240  1.00  0.00     0.094 A 
ATOM     10  C   UNL     1      26.328  -0.535  21.626  1.00  0.00     0.146 A 
ATOM     11  O   UNL     1      27.236  -0.182  20.722  1.00  0.00    -0.456 OA
ENDROOT
BRANCH   1  12
ATOM     12  C   UNL     1      28.288   1.272  19.093  1.00  0.00     0.021 A 
ATOM     13  C   UNL     1      29.064   0.242  18.528  1.00  0.00     0.016 A 
ATOM     14  C   UNL     1      30.062   0.536  17.595  1.00  0.00     0.051 A 
ATOM     15  C   UNL     1      30.306   1.862  17.217  1.00  0.00     0.157 A 
ATOM     16  C   UNL     1      28.549   2.602  18.716  1.00  0.00     0.062 A 
ATOM     17  C   UNL     1      29.550   2.896  17.779  1.00  0.00     0.158 A 
BRANCH  15  18
ATOM     18  O   UNL     1      31.300   2.159  16.286  1.00  0.00    -0.504 OA
ATOM     19  H   UNL     1      32.209   1.713  16.320  1.00  0.00     0.293 HD
ENDBRANCH  15  18
BRANCH  17  20
ATOM     20  O   UNL     1      29.798   4.216  17.404  1.00  0.00    -0.504 OA
ATOM     21  H   UNL     1      29.501   4.577  16.505  1.00  0.00     0.293 HD
ENDBRANCH  17  20
ENDBRANCH   1  12
BRANCH   6  22
ATOM     22  O   UNL     1      23.150   0.618  23.263  1.00  0.00    -0.507 OA
ATOM     23  H   UNL     1      22.329   0.225  23.699  1.00  0.00     0.293 HD
ENDBRANCH   6  22
BRANCH   8  24
ATOM     24  O   UNL     1      25.649  -3.422  23.836  1.00  0.00    -0.508 OA
ATOM     25  H   UNL     1      25.713  -3.500  24.844  1.00  0.00     0.293 HD
ENDBRANCH   8  24
TORSDOF 5
ENDMDL
MODEL 4
REMARK VINA RESULT:    -7.341      3.932      6.700
REMARK INTER + INTRA:          -8.896
REMARK INTER:                  -8.634
REMARK INTRA:                  -0.262
REMARK UNBOUND:                -0.268
REMARK SMILES O=c1cc(-c2ccc(O)c(O)c2)oc2cc(O)cc(O)c12
REMARK SMILES IDX 4 1 3 2 2 3 1 4 21 5 19 6 18 7 16 8 15 9 14 10 13 11 5 12
REMARK SMILES IDX 6 13 7 14 8 15 12 16 10 17 9 18 11 20 20 22 17 24
REMARK H PARENT 9 19 11 21 20 23 17 25
REMARK Flexibility Score: inf
ROOT
ATOM      1  C   UNL     1      28.262   2.386  20.676  1.00  0.00     0.138 A 
ATOM      2  C   UNL     1      29.046   3.424  21.201  1.00  0.00     0.100 A 
ATOM      3  C   UNL     1      30.180   3.851  20.510  1.00  0.00     0.197 A 
ATOM      4  O   UNL     1      30.828   4.825  20.974  1.00  0.00    -0.289 OA
ATOM      5  C   UNL     1      30.549   3.213  19.302  1.00  0.00     0.107 A 
ATOM      6  C   UNL     1      31.707   3.537  18.532  1.00  0.00     0.134 A 
ATOM      7  C   UNL     1      31.907   2.916  17.293  1.00  0.00     0.093 A 
ATOM      8  C   UNL     1      31.025   1.944  16.823  1.00  0.00     0.123 A 
ATOM      9  C   UNL     1      29.918   1.580  17.592  1.00  0.00     0.094 A 
ATOM     10  C   UNL     1      29.673   2.205  18.817  1.00  0.00     0.146 A 
ATOM     11  O   UNL     1      28.600   1.842  19.512  1.00  0.00    -0.456 OA
ENDROOT
BRANCH   1  12
ATOM     12  C   UNL     1      27.047   1.893  21.371  1.00  0.00     0.021 A 
ATOM     13  C   UNL     1      27.063   0.716  22.145  1.00  0.00     0.016 A 
ATOM     14  C   UNL     1      25.901   0.269  22.779  1.00  0.00     0.051 A 
ATOM     15  C   UNL     1      24.704   0.983  22.646  1.00  0.00     0.157 A 
ATOM     16  C   UNL     1      25.836   2.597  21.232  1.00  0.00     0.062 A 
ATOM     17  C   UNL     1      24.671   2.148  21.871  1.00  0.00     0.158 A 
BRANCH  15  18
ATOM     18  O   UNL     1      23.544   0.540  23.279  1.00  0.00    -0.504 OA
ATOM     19  H   UNL     1      23.501  -0.363  23.737  1.00  0.00     0.293 HD
ENDBRANCH  15  18
BRANCH  17  20
ATOM     20  O   UNL     1      23.477   2.854  21.736  1.00  0.00    -0.504 OA
ATOM     21  H   UNL     1      22.673   2.453  21.267  1.00  0.00     0.293 HD
ENDBRANCH  17  20
ENDBRANCH   1  12
BRANCH   6  22
ATOM     22  O   UNL     1      32.695   4.433  18.948  1.00  0.00    -0.507 OA
ATOM     23  H   UNL     1      32.576   5.432  19.015  1.00  0.00     0.293 HD
ENDBRANCH   6  22
BRANCH   8  24
ATOM     24  O   UNL     1      31.264   1.337  15.592  1.00  0.00    -0.508 OA
ATOM     25  H   UNL     1      32.195   1.295  15.193  1.00  0.00     0.293 HD
ENDBRANCH   8  24
TORSDOF 5
ENDMDL
MODEL 5
REMARK VINA RESULT:    -7.329      0.934      1.570
REMARK INTER + INTRA:          -8.882
REMARK INTER:                  -8.620
REMARK INTRA:                  -0.262
REMARK UNBOUND:                -0.268
REMARK SMILES O=c1cc(-c2ccc(O)c(O)c2)oc2cc(O)cc(O)c12
REMARK SMILES IDX 4 1 3 2 2 3 1 4 21 5 19 6 18 7 16 8 15 9 14 10 13 11 5 12
REMARK SMILES IDX 6 13 7 14 8 15 12 16 10 17 9 18 11 20 20 22 17 24
REMARK H PARENT 9 19 11 21 20 23 17 25
REMARK Flexibility Score: inf
ROOT
ATOM      1  C   UNL     1      30.827   5.658  19.492  1.00  0.00     0.138 A 
ATOM      2  C   UNL     1      31.962   5.155  20.146  1.00  0.00     0.100 A 
ATOM      3  C   UNL     1      32.096   3.779  20.336  1.00  0.00     0.197 A 
ATOM      4  O   UNL     1      33.153   3.354  20.870  1.00  0.00    -0.289 OA
ATOM      5  C   UNL     1      31.075   2.905  19.896  1.00  0.00     0.107 A 
ATOM      6  C   UNL     1      31.085   1.489  20.071  1.00  0.00     0.134 A 
ATOM      7  C   UNL     1      30.074   0.714  19.490  1.00  0.00     0.093 A 
ATOM      8  C   UNL     1      29.022   1.307  18.793  1.00  0.00     0.123 A 
ATOM      9  C   UNL     1      28.972   2.696  18.661  1.00  0.00     0.094 A 
ATOM     10  C   UNL     1      29.984   3.493  19.200  1.00  0.00     0.146 A 
ATOM     11  O   UNL     1      29.909   4.810  19.039  1.00  0.00    -0.456 OA
ENDROOT
BRANCH   1  12
ATOM     12  C   UNL     1      30.633   7.112  19.265  1.00  0.00     0.021 A 
ATOM     13  C   UNL     1      30.632   7.665  17.970  1.00  0.00     0.016 A 
ATOM     14  C   UNL     1      30.456   9.039  17.785  1.00  0.00     0.051 A 
ATOM     15  C   UNL     1      30.287   9.883  18.889  1.00  0.00     0.157 A 
ATOM     16  C   UNL     1      30.475   7.970  20.368  1.00  0.00     0.062 A 
ATOM     17  C   UNL     1      30.298   9.349  20.182  1.00  0.00     0.158 A 
BRANCH  15  18
ATOM     18  O   UNL     1      30.111  11.254  18.708  1.00  0.00    -0.504 OA
ATOM     19  H   UNL     1      30.851  11.916  18.913  1.00  0.00     0.293 HD
ENDBRANCH  15  18
BRANCH  17  20
ATOM     20  O   UNL     1      30.134  10.193  21.279  1.00  0.00    -0.504 OA
ATOM     21  H   UNL     1      29.833   9.840  22.180  1.00  0.00     0.293 HD
ENDBRANCH  17  20
ENDBRANCH   1  12
BRANCH   6  22
ATOM     22  O   UNL     1      32.044   0.802  20.821  1.00  0.00    -0.507 OA
ATOM     23  H   UNL     1      32.126   0.842  21.826  1.00  0.00     0.293 HD
ENDBRANCH   6  22
BRANCH   8  24
ATOM     24  O   UNL     1      28.025   0.506  18.241  1.00  0.00    -0.508 OA
ATOM     25  H   UNL     1      27.160   0.902  17.889  1.00  0.00     0.293 HD
ENDBRANCH   8  24
TORSDOF 5
ENDMDL
MODEL 6
REMARK VINA RESULT:    -7.327      2.459      6.890
REMARK INTER + INTRA:          -8.880
REMARK INTER:                  -8.616
REMARK INTRA:                  -0.264
REMARK UNBOUND:                -0.268
REMARK SMILES O=c1cc(-c2ccc(O)c(O)c2)oc2cc(O)cc(O)c12
REMARK SMILES IDX 4 1 3 2 2 3 1 4 21 5 19 6 18 7 16 8 15 9 14 10 13 11 5 12
REMARK SMILES IDX 6 13 7 14 8 15 12 16 10 17 9 18 11 20 20 22 17 24
REMARK H PARENT 9 19 11 21 20 23 17 25
REMARK Flexibility Score: inf
ROOT
ATOM      1  C   UNL     1      31.319   4.491  18.455  1.00  0.00     0.138 A 
ATOM      2  C   UNL     1      31.552   4.548  19.837  1.00  0.00     0.100 A 
ATOM      3  C   UNL     1      31.476   5.774  20.500  1.00  0.00     0.197 A 
ATOM      4  O   UNL     1      31.629   5.784  21.748  1.00  0.00    -0.289 OA
ATOM      5  C   UNL     1      31.195   6.952  19.769  1.00  0.00     0.107 A 
ATOM      6  C   UNL     1      31.132   8.262  20.332  1.00  0.00     0.134 A 
ATOM      7  C   UNL     1      30.731   9.339  19.532  1.00  0.00     0.093 A 
ATOM      8  C   UNL     1      30.449   9.164  18.177  1.00  0.00     0.123 A 
ATOM      9  C   UNL     1      30.559   7.897  17.603  1.00  0.00     0.094 A 
ATOM     10  C   UNL     1      30.924   6.797  18.383  1.00  0.00     0.146 A 
ATOM     11  O   UNL     1      31.002   5.605  17.803  1.00  0.00    -0.456 OA
ENDROOT
BRANCH   1  12
ATOM     12  C   UNL     1      31.388   3.214  17.700  1.00  0.00     0.021 A 
ATOM     13  C   UNL     1      30.276   2.358  17.591  1.00  0.00     0.016 A 
ATOM     14  C   UNL     1      30.372   1.157  16.882  1.00  0.00     0.051 A 
ATOM     15  C   UNL     1      31.580   0.789  16.279  1.00  0.00     0.157 A 
ATOM     16  C   UNL     1      32.602   2.829  17.102  1.00  0.00     0.062 A 
ATOM     17  C   UNL     1      32.697   1.625  16.390  1.00  0.00     0.158 A 
BRANCH  15  18
ATOM     18  O   UNL     1      31.679  -0.408  15.571  1.00  0.00    -0.504 OA
ATOM     19  H   UNL     1      31.787  -1.298  16.044  1.00  0.00     0.293 HD
ENDBRANCH  15  18
BRANCH  17  20
ATOM     20  O   UNL     1      33.900   1.252  15.792  1.00  0.00    -0.504 OA
ATOM     21  H   UNL     1      33.922   0.681  14.955  1.00  0.00     0.293 HD
ENDBRANCH  17  20
ENDBRANCH   1  12
BRANCH   6  22
ATOM     22  O   UNL     1      31.476   8.561  21.653  1.00  0.00    -0.507 OA
ATOM     23  H   UNL     1      31.252   7.986  22.451  1.00  0.00     0.293 HD
ENDBRANCH   6  22
BRANCH   8  24
ATOM     24  O   UNL     1      30.067  10.261  17.408  1.00  0.00    -0.508 OA
ATOM     25  H   UNL     1      29.374  10.924  17.736  1.00  0.00     0.293 HD
ENDBRANCH   8  24
TORSDOF 5
ENDMDL
MODEL 7
REMARK VINA RESULT:    -7.312      5.288      8.236
REMARK INTER + INTRA:          -8.863
REMARK INTER:                  -8.599
REMARK INTRA:                  -0.263
REMARK UNBOUND:                -0.268
REMARK SMILES O=c1cc(-c2ccc(O)c(O)c2)oc2cc(O)cc(O)c12
REMARK SMILES IDX 4 1 3 2 2 3 1 4 21 5 19 6 18 7 16 8 15 9 14 10 13 11 5 12
REMARK SMILES IDX 6 13 7 14 8 15 12 16 10 17 9 18 11 20 20 22 17 24
REMARK H PARENT 9 19 11 21 20 23 17 25
REMARK Flexibility Score: inf
ROOT
ATOM      1  C   UNL     1      27.606  -0.275  19.861  1.00  0.00     0.138 A 
ATOM      2  C   UNL     1      26.428  -0.873  19.392  1.00  0.00     0.100 A 
ATOM      3  C   UNL     1      25.529  -1.433  20.301  1.00  0.00     0.197 A 
ATOM      4  O   UNL     1      24.451  -1.906  19.856  1.00  0.00    -0.289 OA
ATOM      5  C   UNL     1      25.827  -1.421  21.684  1.00  0.00     0.107 A 
ATOM      6  C   UNL     1      25.005  -1.997  22.698  1.00  0.00     0.134 A 
ATOM      7  C   UNL     1      25.345  -1.822  24.045  1.00  0.00     0.093 A 
ATOM      8  C   UNL     1      26.507  -1.144  24.413  1.00  0.00     0.123 A 
ATOM      9  C   UNL     1      27.348  -0.623  23.428  1.00  0.00     0.094 A 
ATOM     10  C   UNL     1      27.018  -0.752  22.076  1.00  0.00     0.146 A 
ATOM     11  O   UNL     1      27.836  -0.229  21.170  1.00  0.00    -0.456 OA
ENDROOT
BRANCH   1  12
ATOM     12  C   UNL     1      28.598   0.334  18.939  1.00  0.00     0.021 A 
ATOM     13  C   UNL     1      29.646  -0.420  18.377  1.00  0.00     0.016 A 
ATOM     14  C   UNL     1      30.571   0.181  17.520  1.00  0.00     0.051 A 
ATOM     15  C   UNL     1      30.470   1.544  17.216  1.00  0.00     0.157 A 
ATOM     16  C   UNL     1      28.511   1.705  18.638  1.00  0.00     0.062 A 
ATOM     17  C   UNL     1      29.440   2.308  17.776  1.00  0.00     0.158 A 
BRANCH  15  18
ATOM     18  O   UNL     1      31.391   2.147  16.360  1.00  0.00    -0.504 OA
ATOM     19  H   UNL     1      32.383   1.955  16.429  1.00  0.00     0.293 HD
ENDBRANCH  15  18
BRANCH  17  20
ATOM     20  O   UNL     1      29.345   3.666  17.476  1.00  0.00    -0.504 OA
ATOM     21  H   UNL     1      28.590   4.031  16.907  1.00  0.00     0.293 HD
ENDBRANCH  17  20
ENDBRANCH   1  12
BRANCH   6  22
ATOM     22  O   UNL     1      23.867  -2.765  22.437  1.00  0.00    -0.507 OA
ATOM     23  H   UNL     1      22.972  -2.641  22.886  1.00  0.00     0.293 HD
ENDBRANCH   6  22
BRANCH   8  24
ATOM     24  O   UNL     1      26.823  -1.002  25.762  1.00  0.00    -0.508 OA
ATOM     25  H   UNL     1      26.459  -1.640  26.462  1.00  0.00     0.293 HD
ENDBRANCH   8  24
TORSDOF 5
ENDMDL
MODEL 8
REMARK VINA RESULT:    -7.211      3.945      7.127
REMARK INTER + INTRA:          -8.744
REMARK INTER:                  -8.452
REMARK INTRA:                  -0.292
REMARK UNBOUND:                -0.268
REMARK SMILES O=c1cc(-c2ccc(O)c(O)c2)oc2cc(O)cc(O)c12
REMARK SMILES IDX 4 1 3 2 2 3 1 4 21 5 19 6 18 7 16 8 15 9 14 10 13 11 5 12
REMARK SMILES IDX 6 13 7 14 8 15 12 16 10 17 9 18 11 20 20 22 17 24
REMARK H PARENT 9 19 11 21 20 23 17 25
REMARK Flexibility Score: inf
ROOT
ATOM      1  C   UNL     1      28.456   2.220  21.360  1.00  0.00     0.138 A 
ATOM      2  C   UNL     1      29.386   1.352  20.771  1.00  0.00     0.100 A 
ATOM      3  C   UNL     1      30.605   1.853  20.313  1.00  0.00     0.197 A 
ATOM      4  O   UNL     1      31.444   1.040  19.846  1.00  0.00    -0.289 OA
ATOM      5  C   UNL     1      30.881   3.236  20.418  1.00  0.00     0.107 A 
ATOM      6  C   UNL     1      32.073   3.866  19.949  1.00  0.00     0.134 A 
ATOM      7  C   UNL     1      32.286   5.225  20.212  1.00  0.00     0.093 A 
ATOM      8  C   UNL     1      31.326   5.989  20.874  1.00  0.00     0.123 A 
ATOM      9  C   UNL     1      30.132   5.397  21.290  1.00  0.00     0.094 A 
ATOM     10  C   UNL     1      29.905   4.036  21.072  1.00  0.00     0.146 A 
ATOM     11  O   UNL     1      28.763   3.506  21.497  1.00  0.00    -0.456 OA
ENDROOT
BRANCH   1  12
ATOM     12  C   UNL     1      27.144   1.741  21.863  1.00  0.00     0.021 A 
ATOM     13  C   UNL     1      27.030   0.567  22.632  1.00  0.00     0.016 A 
ATOM     14  C   UNL     1      25.781   0.133  23.084  1.00  0.00     0.051 A 
ATOM     15  C   UNL     1      24.626   0.859  22.770  1.00  0.00     0.157 A 
ATOM     16  C   UNL     1      25.976   2.456  21.541  1.00  0.00     0.062 A 
ATOM     17  C   UNL     1      24.723   2.021  21.996  1.00  0.00     0.158 A 
BRANCH  15  18
ATOM     18  O   UNL     1      23.379   0.429  23.220  1.00  0.00    -0.504 OA
ATOM     19  H   UNL     1      23.284  -0.159  24.040  1.00  0.00     0.293 HD
ENDBRANCH  15  18
BRANCH  17  20
ATOM     20  O   UNL     1      23.570   2.738  21.681  1.00  0.00    -0.504 OA
ATOM     21  H   UNL     1      23.336   3.602  22.157  1.00  0.00     0.293 HD
ENDBRANCH  17  20
ENDBRANCH   1  12
BRANCH   6  22
ATOM     22  O   UNL     1      33.059   3.213  19.204  1.00  0.00    -0.507 OA
ATOM     23  H   UNL     1      32.899   2.411  18.613  1.00  0.00     0.293 HD
ENDBRANCH   6  22
BRANCH   8  24
ATOM     24  O   UNL     1      31.565   7.342  21.105  1.00  0.00    -0.508 OA
ATOM     25  H   UNL     1      31.482   7.744  22.032  1.00  0.00     0.293 HD
ENDBRANCH   8  24
TORSDOF 5
ENDMDL
MODEL 9
REMARK VINA RESULT:    -7.078      1.615      7.200
REMARK INTER + INTRA:          -8.588
REMARK INTER:                  -8.325
REMARK INTRA:                  -0.263
REMARK UNBOUND:                -0.268
REMARK SMILES O=c1cc(-c2ccc(O)c(O)c2)oc2cc(O)cc(O)c12
REMARK SMILES IDX 4 1 3 2 2 3 1 4 21 5 19 6 18 7 16 8 15 9 14 10 13 11 5 12
REMARK SMILES IDX 6 13 7 14 8 15 12 16 10 17 9 18 11 20 20 22 17 24
REMARK H PARENT 9 19 11 21 20 23 17 25
REMARK Flexibility Score: inf
ROOT
ATOM      1  C   UNL     1      30.889   4.523  19.013  1.00  0.00     0.138 A 
ATOM      2  C   UNL     1      31.415   4.926  17.777  1.00  0.00     0.100 A 
ATOM      3  C   UNL     1      31.495   6.284  17.469  1.00  0.00     0.197 A 
ATOM      4  O   UNL     1      32.029   6.617  16.379  1.00  0.00    -0.289 OA
ATOM      5  C   UNL     1      31.017   7.244  18.393  1.00  0.00     0.107 A 
ATOM      6  C   UNL     1      31.011   8.654  18.170  1.00  0.00     0.134 A 
ATOM      7  C   UNL     1      30.620   9.514  19.204  1.00  0.00     0.093 A 
ATOM      8  C   UNL     1      30.180   9.014  20.430  1.00  0.00     0.123 A 
ATOM      9  C   UNL     1      30.130   7.635  20.640  1.00  0.00     0.094 A 
ATOM     10  C   UNL     1      30.546   6.753  19.640  1.00  0.00     0.146 A 
ATOM     11  O   UNL     1      30.498   5.448  19.884  1.00  0.00    -0.456 OA
ENDROOT
BRANCH   1  12
ATOM     12  C   UNL     1      30.779   3.092  19.390  1.00  0.00     0.021 A 
ATOM     13  C   UNL     1      29.630   2.334  19.093  1.00  0.00     0.016 A 
ATOM     14  C   UNL     1      29.549   0.991  19.469  1.00  0.00     0.051 A 
ATOM     15  C   UNL     1      30.610   0.385  20.154  1.00  0.00     0.157 A 
ATOM     16  C   UNL     1      31.834   2.478  20.089  1.00  0.00     0.062 A 
ATOM     17  C   UNL     1      31.753   1.129  20.465  1.00  0.00     0.158 A 
BRANCH  15  18
ATOM     18  O   UNL     1      30.533  -0.955  20.529  1.00  0.00    -0.504 OA
ATOM     19  H   UNL     1      30.490  -1.698  19.841  1.00  0.00     0.293 HD
ENDBRANCH  15  18
BRANCH  17  20
ATOM     20  O   UNL     1      32.805   0.524  21.151  1.00  0.00    -0.504 OA
ATOM     21  H   UNL     1      33.690   0.998  21.290  1.00  0.00     0.293 HD
ENDBRANCH  17  20
ENDBRANCH   1  12
BRANCH   6  22
ATOM     22  O   UNL     1      31.352   9.254  16.955  1.00  0.00    -0.507 OA
ATOM     23  H   UNL     1      30.704   9.729  16.345  1.00  0.00     0.293 HD
ENDBRANCH   6  22
BRANCH   8  24
ATOM     24  O   UNL     1      29.784   9.899  21.430  1.00  0.00    -0.508 OA
ATOM     25  H   UNL     1      30.222   9.896  22.345  1.00  0.00     0.293 HD
ENDBRANCH   8  24
TORSDOF 5
ENDMDL
