MODEL 1
REMARK VINA RESULT:    -2.349      0.000      0.000
REMARK INTER + INTRA:          -2.418
REMARK INTER:                  -2.418
REMARK INTRA:                   0.000
REMARK UNBOUND:                 0.000
REMARK SMILES O=c1ccc2ccc(O)cc2o1
REMARK SMILES IDX 6 1 7 2 8 3 10 4 11 5 5 6 4 7 3 8 2 9 1 10 12 11 9 12
REMARK H PARENT 9 13
REMARK Flexibility Score: inf
ROOT
ATOM      1  C   UNL     1      -5.402  -2.200   2.470  1.00  0.00     0.016 A 
ATOM      2  C   UNL     1      -5.769  -2.765   1.244  1.00  0.00     0.047 A 
ATOM      3  C   UNL     1      -5.033  -2.485   0.086  1.00  0.00     0.119 A 
ATOM      4  C   UNL     1      -3.920  -1.633   0.154  1.00  0.00     0.094 A 
ATOM      5  C   UNL     1      -3.546  -1.063   1.376  1.00  0.00     0.142 A 
ATOM      6  C   UNL     1      -4.291  -1.348   2.541  1.00  0.00     0.018 A 
ATOM      7  C   UNL     1      -3.893  -0.763   3.747  1.00  0.00     0.019 A 
ATOM      8  C   UNL     1      -2.780   0.078   3.765  1.00  0.00     0.094 A 
ATOM      9  C   UNL     1      -2.089   0.314   2.572  1.00  0.00     0.336 A 
ATOM     10  O   UNL     1      -1.083   1.070   2.568  1.00  0.00    -0.246 OA
ATOM     11  O   UNL     1      -2.490  -0.255   1.437  1.00  0.00    -0.423 OA
ENDROOT
BRANCH   3  12
ATOM     12  O   UNL     1      -5.414  -3.058  -1.125  1.00  0.00    -0.508 OA
ATOM     13  H   UNL     1      -6.112  -3.791  -1.166  1.00  0.00     0.293 HD
ENDBRANCH   3  12
TORSDOF 1
ENDMDL
MODEL 2
REMARK VINA RESULT:    -1.750      0.787      4.225
REMARK INTER + INTRA:          -1.801
REMARK INTER:                  -1.801
REMARK INTRA:                   0.000
REMARK UNBOUND:                 0.000
REMARK SMILES O=c1ccc2ccc(O)cc2o1
REMARK SMILES IDX 6 1 7 2 8 3 10 4 11 5 5 6 4 7 3 8 2 9 1 10 12 11 9 12
REMARK H PARENT 9 13
REMARK Flexibility Score: inf
ROOT
ATOM      1  C   UNL     1      -3.883  -0.866   3.949  1.00  0.00     0.016 A 
ATOM      2  C   UNL     1      -2.722  -0.109   4.145  1.00  0.00     0.047 A 
ATOM      3  C   UNL     1      -1.932   0.271   3.053  1.00  0.00     0.119 A 
ATOM      4  C   UNL     1      -2.305  -0.108   1.754  1.00  0.00     0.094 A 
ATOM      5  C   UNL     1      -3.463  -0.865   1.549  1.00  0.00     0.142 A 
ATOM      6  C   UNL     1      -4.258  -1.246   2.653  1.00  0.00     0.018 A 
ATOM      7  C   UNL     1      -5.409  -2.003   2.416  1.00  0.00     0.019 A 
ATOM      8  C   UNL     1      -5.739  -2.356   1.107  1.00  0.00     0.094 A 
ATOM      9  C   UNL     1      -4.905  -1.942   0.063  1.00  0.00     0.336 A 
ATOM     10  O   UNL     1      -5.186  -2.251  -1.125  1.00  0.00    -0.246 OA
ATOM     11  O   UNL     1      -3.814  -1.223   0.316  1.00  0.00    -0.423 OA
ENDROOT
BRANCH   3  12
ATOM     12  O   UNL     1      -0.780   1.024   3.269  1.00  0.00    -0.508 OA
ATOM     13  H   UNL     1      -0.121   0.784   4.000  1.00  0.00     0.293 HD
ENDBRANCH   3  12
TORSDOF 1
ENDMDL
