MODEL 1
REMARK VINA RESULT:    16.790      0.000      0.000
REMARK INTER + INTRA:          17.771
REMARK INTER:                  17.771
REMARK INTRA:                   0.000
REMARK UNBOUND:                 0.000
REMARK SMILES O=c1ccc2cc(O)c(O)cc2o1
REMARK SMILES IDX 4 1 3 2 2 3 1 4 13 5 12 6 11 7 9 8 7 9 6 10 5 11 8 12 10 14
REMARK H PARENT 8 13 10 15
REMARK Flexibility Score: inf
ROOT
ATOM      1  C   UNL     1       9.657  76.780   3.511  1.00  0.00     0.019 A 
ATOM      2  C   UNL     1      10.565  77.326   4.417  1.00  0.00     0.094 A 
ATOM      3  C   UNL     1      11.934  77.234   4.145  1.00  0.00     0.336 A 
ATOM      4  O   UNL     1      12.770  77.720   4.951  1.00  0.00    -0.246 OA
ATOM      5  O   UNL     1      12.362  76.634   3.037  1.00  0.00    -0.423 OA
ATOM      6  C   UNL     1      11.529  76.099   2.146  1.00  0.00     0.142 A 
ATOM      7  C   UNL     1      12.036  75.482   0.999  1.00  0.00     0.098 A 
ATOM      8  C   UNL     1      11.163  74.918   0.056  1.00  0.00     0.161 A 
ATOM      9  C   UNL     1       9.777  74.972   0.263  1.00  0.00     0.158 A 
ATOM     10  C   UNL     1       9.263  75.591   1.412  1.00  0.00     0.062 A 
ATOM     11  C   UNL     1      10.134  76.156   2.354  1.00  0.00     0.022 A 
ENDROOT
BRANCH   9  12
ATOM     12  O   UNL     1       8.918  74.409  -0.678  1.00  0.00    -0.504 OA
ATOM     13  H   UNL     1       8.841  74.783  -1.618  1.00  0.00     0.293 HD
ENDBRANCH   9  12
BRANCH   8  14
ATOM     14  O   UNL     1      11.665  74.301  -1.088  1.00  0.00    -0.504 OA
ATOM     15  H   UNL     1      12.580  73.864  -1.097  1.00  0.00     0.293 HD
ENDBRANCH   8  14
TORSDOF 2
ENDMDL
MODEL 2
REMARK VINA RESULT:    17.870      1.207      4.478
REMARK INTER + INTRA:          18.915
REMARK INTER:                  18.915
REMARK INTRA:                   0.000
REMARK UNBOUND:                 0.000
REMARK SMILES O=c1ccc2cc(O)c(O)cc2o1
REMARK SMILES IDX 4 1 3 2 2 3 1 4 13 5 12 6 11 7 9 8 7 9 6 10 5 11 8 12 10 14
REMARK H PARENT 8 13 10 15
REMARK Flexibility Score: inf
ROOT
ATOM      1  C   UNL     1       9.250  75.075   0.654  1.00  0.00     0.019 A 
ATOM      2  C   UNL     1       9.899  74.463  -0.417  1.00  0.00     0.094 A 
ATOM      3  C   UNL     1      11.296  74.495  -0.473  1.00  0.00     0.336 A 
ATOM      4  O   UNL     1      11.901  73.949  -1.432  1.00  0.00    -0.246 OA
ATOM      5  O   UNL     1      11.994  75.102   0.485  1.00  0.00    -0.423 OA
ATOM      6  C   UNL     1      11.415  75.698   1.524  1.00  0.00     0.142 A 
ATOM      7  C   UNL     1      12.200  76.319   2.500  1.00  0.00     0.098 A 
ATOM      8  C   UNL     1      11.594  76.949   3.598  1.00  0.00     0.161 A 
ATOM      9  C   UNL     1      10.197  76.957   3.719  1.00  0.00     0.158 A 
ATOM     10  C   UNL     1       9.405  76.335   2.743  1.00  0.00     0.062 A 
ATOM     11  C   UNL     1      10.008  75.705   1.646  1.00  0.00     0.022 A 
ENDROOT
BRANCH   9  12
ATOM     12  O   UNL     1       9.604  77.585   4.812  1.00  0.00    -0.504 OA
ATOM     13  H   UNL     1       9.627  78.593   4.922  1.00  0.00     0.293 HD
ENDBRANCH   9  12
BRANCH   8  14
ATOM     14  O   UNL     1      12.374  77.569   4.572  1.00  0.00    -0.504 OA
ATOM     15  H   UNL     1      13.321  77.874   4.379  1.00  0.00     0.293 HD
ENDBRANCH   8  14
TORSDOF 2
ENDMDL
MODEL 3
REMARK VINA RESULT:    18.215      1.104      5.034
REMARK INTER + INTRA:          19.280
REMARK INTER:                  19.280
REMARK INTRA:                   0.000
REMARK UNBOUND:                 0.000
REMARK SMILES O=c1ccc2cc(O)c(O)cc2o1
REMARK SMILES IDX 4 1 3 2 2 3 1 4 13 5 12 6 11 7 9 8 7 9 6 10 5 11 8 12 10 14
REMARK H PARENT 8 13 10 15
REMARK Flexibility Score: inf
ROOT
ATOM      1  C   UNL     1      11.885  75.296   0.539  1.00  0.00     0.019 A 
ATOM      2  C   UNL     1      10.997  74.712  -0.363  1.00  0.00     0.094 A 
ATOM      3  C   UNL     1       9.628  74.731  -0.076  1.00  0.00     0.336 A 
ATOM      4  O   UNL     1       8.810  74.207  -0.877  1.00  0.00    -0.246 OA
ATOM      5  O   UNL     1       9.182  75.299   1.042  1.00  0.00    -0.423 OA
ATOM      6  C   UNL     1       9.995  75.868   1.929  1.00  0.00     0.142 A 
ATOM      7  C   UNL     1       9.470  76.450   3.086  1.00  0.00     0.098 A 
ATOM      8  C   UNL     1      10.322  77.052   4.024  1.00  0.00     0.161 A 
ATOM      9  C   UNL     1      11.707  77.070   3.803  1.00  0.00     0.158 A 
ATOM     10  C   UNL     1      12.240  76.488   2.643  1.00  0.00     0.062 A 
ATOM     11  C   UNL     1      11.389  75.887   1.705  1.00  0.00     0.022 A 
ENDROOT
BRANCH   9  12
ATOM     12  O   UNL     1      12.547  77.669   4.739  1.00  0.00    -0.504 OA
ATOM     13  H   UNL     1      12.678  78.674   4.768  1.00  0.00     0.293 HD
ENDBRANCH   9  12
BRANCH   8  14
ATOM     14  O   UNL     1       9.801  77.633   5.179  1.00  0.00    -0.504 OA
ATOM     15  H   UNL     1       8.972  77.264   5.630  1.00  0.00     0.293 HD
ENDBRANCH   8  14
TORSDOF 2
ENDMDL
MODEL 4
REMARK VINA RESULT:    19.533      1.550      2.446
REMARK INTER + INTRA:          20.675
REMARK INTER:                  20.675
REMARK INTRA:                   0.000
REMARK UNBOUND:                 0.000
REMARK SMILES O=c1ccc2cc(O)c(O)cc2o1
REMARK SMILES IDX 4 1 3 2 2 3 1 4 13 5 12 6 11 7 9 8 7 9 6 10 5 11 8 12 10 14
REMARK H PARENT 8 13 10 15
REMARK Flexibility Score: inf
ROOT
ATOM      1  C   UNL     1      11.929  76.956   3.557  1.00  0.00     0.019 A 
ATOM      2  C   UNL     1      11.016  77.494   4.463  1.00  0.00     0.094 A 
ATOM      3  C   UNL     1       9.647  77.332   4.225  1.00  0.00     0.336 A 
ATOM      4  O   UNL     1       8.807  77.811   5.030  1.00  0.00    -0.246 OA
ATOM      5  O   UNL     1       9.224  76.673   3.148  1.00  0.00    -0.423 OA
ATOM      6  C   UNL     1      10.062  76.144   2.258  1.00  0.00     0.142 A 
ATOM      7  C   UNL     1       9.560  75.462   1.146  1.00  0.00     0.098 A 
ATOM      8  C   UNL     1      10.438  74.902   0.206  1.00  0.00     0.161 A 
ATOM      9  C   UNL     1      11.824  75.026   0.380  1.00  0.00     0.158 A 
ATOM     10  C   UNL     1      12.332  75.709   1.494  1.00  0.00     0.062 A 
ATOM     11  C   UNL     1      11.457  76.268   2.435  1.00  0.00     0.022 A 
ENDROOT
BRANCH   9  12
ATOM     12  O   UNL     1      12.688  74.467  -0.559  1.00  0.00    -0.504 OA
ATOM     13  H   UNL     1      12.348  73.870  -1.305  1.00  0.00     0.293 HD
ENDBRANCH   9  12
BRANCH   8  14
ATOM     14  O   UNL     1       9.941  74.222  -0.904  1.00  0.00    -0.504 OA
ATOM     15  H   UNL     1       8.952  74.221  -1.127  1.00  0.00     0.293 HD
ENDBRANCH   8  14
TORSDOF 2
ENDMDL
