MODEL 1
REMARK VINA RESULT:    -2.202      0.000      0.000
REMARK INTER + INTRA:          -4.651
REMARK INTER:                  -4.261
REMARK INTRA:                  -0.390
REMARK UNBOUND:                -0.390
REMARK SMILES CCCCCCCCCCCCCCCCCC(=O)[O-]
REMARK SMILES IDX 10 1 11 2 12 3 13 4 14 5 15 6 16 7 17 8 18 9 19 10 20 11
REMARK SMILES IDX 9 12 8 13 7 14 6 15 5 16 4 17 3 18 2 19 1 20
REMARK H PARENT
REMARK Flexibility Score: inf
ROOT
ATOM      1  C   UNL     1     -16.882  14.338  -6.737  1.00  0.00     0.000 C 
ENDROOT
BRANCH   1   2
ATOM      2  C   UNL     1     -16.436  13.042  -7.425  1.00  0.00     0.000 C 
BRANCH   2   3
ATOM      3  C   UNL     1     -15.009  13.169  -7.971  1.00  0.00     0.000 C 
BRANCH   3   4
ATOM      4  C   UNL     1     -15.023  13.511  -9.468  1.00  0.00     0.000 C 
BRANCH   4   5
ATOM      5  C   UNL     1     -14.236  12.499 -10.321  1.00  0.00     0.000 C 
BRANCH   5   6
ATOM      6  C   UNL     1     -15.058  11.303 -10.840  1.00  0.00     0.000 C 
BRANCH   6   7
ATOM      7  C   UNL     1     -16.438  11.662 -11.419  1.00  0.00     0.006 C 
BRANCH   7   8
ATOM      8  C   UNL     1     -16.355  12.264 -12.827  1.00  0.00     0.053 C 
BRANCH   8   9
ATOM      9  C   UNL     1     -15.741  13.628 -12.775  1.00  0.00     0.041 C 
ATOM     10  O   UNL     1     -16.418  14.614 -12.381  1.00  0.00    -0.550 OA
ATOM     11  O   UNL     1     -14.408  13.803 -13.125  1.00  0.00    -0.550 OA
ENDBRANCH   8   9
ENDBRANCH   7   8
ENDBRANCH   6   7
ENDBRANCH   5   6
ENDBRANCH   4   5
ENDBRANCH   3   4
ENDBRANCH   2   3
ENDBRANCH   1   2
BRANCH   1  12
ATOM     12  C   UNL     1     -17.122  15.452  -7.767  1.00  0.00     0.000 C 
BRANCH  12  13
ATOM     13  C   UNL     1     -16.152  16.632  -7.597  1.00  0.00    -0.000 C 
BRANCH  13  14
ATOM     14  C   UNL     1     -16.492  17.815  -8.520  1.00  0.00    -0.000 C 
BRANCH  14  15
ATOM     15  C   UNL     1     -16.085  17.559  -9.979  1.00  0.00    -0.000 C 
BRANCH  15  16
ATOM     16  C   UNL     1     -16.802  18.498 -10.965  1.00  0.00    -0.000 C 
BRANCH  16  17
ATOM     17  C   UNL     1     -16.291  19.948 -10.888  1.00  0.00    -0.000 C 
BRANCH  17  18
ATOM     18  C   UNL     1     -16.066  20.627 -12.251  1.00  0.00    -0.000 C 
BRANCH  18  19
ATOM     19  C   UNL     1     -14.815  21.517 -12.278  1.00  0.00    -0.003 C 
ATOM     20  C   UNL     1     -13.558  20.708 -11.969  1.00  0.00     0.004 C 
ENDBRANCH  18  19
ENDBRANCH  17  18
ENDBRANCH  16  17
ENDBRANCH  15  16
ENDBRANCH  14  15
ENDBRANCH  13  14
ENDBRANCH  12  13
ENDBRANCH   1  12
TORSDOF 16
ENDMDL
MODEL 2
REMARK VINA RESULT:    -2.171      2.501      6.628
REMARK INTER + INTRA:          -4.591
REMARK INTER:                  -3.322
REMARK INTRA:                  -1.269
REMARK UNBOUND:                -0.390
REMARK SMILES CCCCCCCCCCCCCCCCCC(=O)[O-]
REMARK SMILES IDX 10 1 11 2 12 3 13 4 14 5 15 6 16 7 17 8 18 9 19 10 20 11
REMARK SMILES IDX 9 12 8 13 7 14 6 15 5 16 4 17 3 18 2 19 1 20
REMARK H PARENT
REMARK Flexibility Score: inf
ROOT
ATOM      1  C   UNL     1     -16.744  15.929  -7.741  1.00  0.00     0.000 C 
ENDROOT
BRANCH   1   2
ATOM      2  C   UNL     1     -16.628  16.492  -9.162  1.00  0.00     0.000 C 
BRANCH   2   3
ATOM      3  C   UNL     1     -16.247  17.976  -9.139  1.00  0.00     0.000 C 
BRANCH   3   4
ATOM      4  C   UNL     1     -17.101  18.778 -10.132  1.00  0.00     0.000 C 
BRANCH   4   5
ATOM      5  C   UNL     1     -16.597  20.219 -10.329  1.00  0.00     0.000 C 
BRANCH   5   6
ATOM      6  C   UNL     1     -16.816  20.802 -11.740  1.00  0.00     0.000 C 
BRANCH   6   7
ATOM      7  C   UNL     1     -15.938  22.018 -12.086  1.00  0.00     0.006 C 
BRANCH   7   8
ATOM      8  C   UNL     1     -14.857  21.695 -13.124  1.00  0.00     0.053 C 
BRANCH   8   9
ATOM      9  C   UNL     1     -13.665  21.079 -12.461  1.00  0.00     0.041 C 
ATOM     10  O   UNL     1     -13.024  21.720 -11.587  1.00  0.00    -0.550 OA
ATOM     11  O   UNL     1     -13.285  19.782 -12.782  1.00  0.00    -0.550 OA
ENDBRANCH   8   9
ENDBRANCH   7   8
ENDBRANCH   6   7
ENDBRANCH   5   6
ENDBRANCH   4   5
ENDBRANCH   3   4
ENDBRANCH   2   3
ENDBRANCH   1   2
BRANCH   1  12
ATOM     12  C   UNL     1     -15.415  15.307  -7.286  1.00  0.00     0.000 C 
BRANCH  12  13
ATOM     13  C   UNL     1     -15.239  13.862  -7.781  1.00  0.00    -0.000 C 
BRANCH  13  14
ATOM     14  C   UNL     1     -16.581  13.173  -8.084  1.00  0.00    -0.000 C 
BRANCH  14  15
ATOM     15  C   UNL     1     -16.728  12.797  -9.566  1.00  0.00    -0.000 C 
BRANCH  15  16
ATOM     16  C   UNL     1     -15.413  12.280 -10.176  1.00  0.00    -0.000 C 
BRANCH  16  17
ATOM     17  C   UNL     1     -14.893  13.171 -11.318  1.00  0.00    -0.000 C 
BRANCH  17  18
ATOM     18  C   UNL     1     -15.892  13.396 -12.468  1.00  0.00    -0.000 C 
BRANCH  18  19
ATOM     19  C   UNL     1     -15.933  14.855 -12.948  1.00  0.00    -0.003 C 
ATOM     20  C   UNL     1     -17.125  15.597 -12.350  1.00  0.00     0.004 C 
ENDBRANCH  18  19
ENDBRANCH  17  18
ENDBRANCH  16  17
ENDBRANCH  15  16
ENDBRANCH  14  15
ENDBRANCH  13  14
ENDBRANCH  12  13
ENDBRANCH   1  12
TORSDOF 16
ENDMDL
MODEL 3
REMARK VINA RESULT:    -2.166      1.396      2.042
REMARK INTER + INTRA:          -4.581
REMARK INTER:                  -3.641
REMARK INTRA:                  -0.941
REMARK UNBOUND:                -0.390
REMARK SMILES CCCCCCCCCCCCCCCCCC(=O)[O-]
REMARK SMILES IDX 10 1 11 2 12 3 13 4 14 5 15 6 16 7 17 8 18 9 19 10 20 11
REMARK SMILES IDX 9 12 8 13 7 14 6 15 5 16 4 17 3 18 2 19 1 20
REMARK H PARENT
REMARK Flexibility Score: inf
ROOT
ATOM      1  C   UNL     1     -15.337  14.459  -7.565  1.00  0.00     0.000 C 
ENDROOT
BRANCH   1   2
ATOM      2  C   UNL     1     -16.512  13.486  -7.401  1.00  0.00     0.000 C 
BRANCH   2   3
ATOM      3  C   UNL     1     -17.081  13.072  -8.763  1.00  0.00     0.000 C 
BRANCH   3   4
ATOM      4  C   UNL     1     -16.208  13.607  -9.908  1.00  0.00     0.000 C 
BRANCH   4   5
ATOM      5  C   UNL     1     -17.025  14.322 -11.000  1.00  0.00     0.000 C 
BRANCH   5   6
ATOM      6  C   UNL     1     -16.846  13.760 -12.424  1.00  0.00     0.000 C 
BRANCH   6   7
ATOM      7  C   UNL     1     -16.769  12.226 -12.515  1.00  0.00     0.006 C 
BRANCH   7   8
ATOM      8  C   UNL     1     -15.443  11.729 -13.104  1.00  0.00     0.053 C 
BRANCH   8   9
ATOM      9  C   UNL     1     -14.325  11.953 -12.134  1.00  0.00     0.041 C 
ATOM     10  O   UNL     1     -13.335  12.661 -12.460  1.00  0.00    -0.550 OA
ATOM     11  O   UNL     1     -14.394  11.411 -10.857  1.00  0.00    -0.550 OA
ENDBRANCH   8   9
ENDBRANCH   7   8
ENDBRANCH   6   7
ENDBRANCH   5   6
ENDBRANCH   4   5
ENDBRANCH   3   4
ENDBRANCH   2   3
ENDBRANCH   1   2
BRANCH   1  12
ATOM     12  C   UNL     1     -15.725  15.871  -7.103  1.00  0.00     0.000 C 
BRANCH  12  13
ATOM     13  C   UNL     1     -17.125  16.286  -7.584  1.00  0.00    -0.000 C 
BRANCH  13  14
ATOM     14  C   UNL     1     -17.125  17.648  -8.301  1.00  0.00    -0.000 C 
BRANCH  14  15
ATOM     15  C   UNL     1     -16.237  17.651  -9.555  1.00  0.00    -0.000 C 
BRANCH  15  16
ATOM     16  C   UNL     1     -16.299  18.987 -10.317  1.00  0.00    -0.000 C 
BRANCH  16  17
ATOM     17  C   UNL     1     -15.612  18.922 -11.693  1.00  0.00    -0.000 C 
BRANCH  17  18
ATOM     18  C   UNL     1     -14.383  19.837 -11.847  1.00  0.00    -0.000 C 
BRANCH  18  19
ATOM     19  C   UNL     1     -14.681  21.109 -12.654  1.00  0.00    -0.003 C 
ATOM     20  C   UNL     1     -15.873  21.864 -12.072  1.00  0.00     0.004 C 
ENDBRANCH  18  19
ENDBRANCH  17  18
ENDBRANCH  16  17
ENDBRANCH  15  16
ENDBRANCH  14  15
ENDBRANCH  13  14
ENDBRANCH  12  13
ENDBRANCH   1  12
TORSDOF 16
ENDMDL
MODEL 4
REMARK VINA RESULT:    -2.070      1.383      2.382
REMARK INTER + INTRA:          -4.395
REMARK INTER:                  -3.341
REMARK INTRA:                  -1.054
REMARK UNBOUND:                -0.390
REMARK SMILES CCCCCCCCCCCCCCCCCC(=O)[O-]
REMARK SMILES IDX 10 1 11 2 12 3 13 4 14 5 15 6 16 7 17 8 18 9 19 10 20 11
REMARK SMILES IDX 9 12 8 13 7 14 6 15 5 16 4 17 3 18 2 19 1 20
REMARK H PARENT
REMARK Flexibility Score: inf
ROOT
ATOM      1  C   UNL     1     -15.130  16.886  -8.870  1.00  0.00     0.000 C 
ENDROOT
BRANCH   1   2
ATOM      2  C   UNL     1     -15.630  15.457  -8.627  1.00  0.00     0.000 C 
BRANCH   2   3
ATOM      3  C   UNL     1     -17.067  15.282  -9.129  1.00  0.00     0.000 C 
BRANCH   3   4
ATOM      4  C   UNL     1     -17.121  14.301 -10.310  1.00  0.00     0.000 C 
BRANCH   4   5
ATOM      5  C   UNL     1     -16.989  12.831  -9.874  1.00  0.00     0.000 C 
BRANCH   5   6
ATOM      6  C   UNL     1     -15.545  12.346  -9.634  1.00  0.00     0.000 C 
BRANCH   6   7
ATOM      7  C   UNL     1     -14.896  11.617 -10.824  1.00  0.00     0.006 C 
BRANCH   7   8
ATOM      8  C   UNL     1     -15.462  12.064 -12.177  1.00  0.00     0.053 C 
BRANCH   8   9
ATOM      9  C   UNL     1     -14.657  13.198 -12.730  1.00  0.00     0.041 C 
ATOM     10  O   UNL     1     -15.229  14.249 -13.125  1.00  0.00    -0.550 OA
ATOM     11  O   UNL     1     -13.271  13.110 -12.774  1.00  0.00    -0.550 OA
ENDBRANCH   8   9
ENDBRANCH   7   8
ENDBRANCH   6   7
ENDBRANCH   5   6
ENDBRANCH   4   5
ENDBRANCH   3   4
ENDBRANCH   2   3
ENDBRANCH   1   2
BRANCH   1  12
ATOM     12  C   UNL     1     -16.166  17.705  -9.653  1.00  0.00     0.000 C 
BRANCH  12  13
ATOM     13  C   UNL     1     -16.404  19.096  -9.042  1.00  0.00    -0.000 C 
BRANCH  13  14
ATOM     14  C   UNL     1     -17.121  20.053 -10.010  1.00  0.00    -0.000 C 
BRANCH  14  15
ATOM     15  C   UNL     1     -16.977  19.621 -11.477  1.00  0.00    -0.000 C 
BRANCH  15  16
ATOM     16  C   UNL     1     -16.905  20.819 -12.440  1.00  0.00    -0.000 C 
BRANCH  16  17
ATOM     17  C   UNL     1     -15.533  20.954 -13.125  1.00  0.00    -0.000 C 
BRANCH  17  18
ATOM     18  C   UNL     1     -14.560  19.791 -12.856  1.00  0.00    -0.000 C 
BRANCH  18  19
ATOM     19  C   UNL     1     -13.174  20.265 -12.393  1.00  0.00    -0.003 C 
ATOM     20  C   UNL     1     -13.198  21.741 -12.007  1.00  0.00     0.004 C 
ENDBRANCH  18  19
ENDBRANCH  17  18
ENDBRANCH  16  17
ENDBRANCH  15  16
ENDBRANCH  14  15
ENDBRANCH  13  14
ENDBRANCH  12  13
ENDBRANCH   1  12
TORSDOF 16
ENDMDL
MODEL 5
REMARK VINA RESULT:    -1.970      2.517      6.047
REMARK INTER + INTRA:          -4.202
REMARK INTER:                  -3.342
REMARK INTRA:                  -0.860
REMARK UNBOUND:                -0.390
REMARK SMILES CCCCCCCCCCCCCCCCCC(=O)[O-]
REMARK SMILES IDX 10 1 11 2 12 3 13 4 14 5 15 6 16 7 17 8 18 9 19 10 20 11
REMARK SMILES IDX 9 12 8 13 7 14 6 15 5 16 4 17 3 18 2 19 1 20
REMARK H PARENT
REMARK Flexibility Score: inf
ROOT
ATOM      1  C   UNL     1     -15.508  15.314  -7.045  1.00  0.00     0.000 C 
ENDROOT
BRANCH   1   2
ATOM      2  C   UNL     1     -16.805  16.123  -6.923  1.00  0.00     0.000 C 
BRANCH   2   3
ATOM      3  C   UNL     1     -17.125  16.854  -8.232  1.00  0.00     0.000 C 
BRANCH   3   4
ATOM      4  C   UNL     1     -15.952  17.746  -8.664  1.00  0.00     0.000 C 
BRANCH   4   5
ATOM      5  C   UNL     1     -15.629  17.626 -10.165  1.00  0.00     0.000 C 
BRANCH   5   6
ATOM      6  C   UNL     1     -16.590  18.383 -11.103  1.00  0.00     0.000 C 
BRANCH   6   7
ATOM      7  C   UNL     1     -16.143  18.455 -12.574  1.00  0.00     0.006 C 
BRANCH   7   8
ATOM      8  C   UNL     1     -15.078  19.530 -12.821  1.00  0.00     0.053 C 
BRANCH   8   9
ATOM      9  C   UNL     1     -15.554  20.859 -12.323  1.00  0.00     0.041 C 
ATOM     10  O   UNL     1     -14.729  21.704 -11.886  1.00  0.00    -0.550 OA
ATOM     11  O   UNL     1     -16.905  21.178 -12.377  1.00  0.00    -0.550 OA
ENDBRANCH   8   9
ENDBRANCH   7   8
ENDBRANCH   6   7
ENDBRANCH   5   6
ENDBRANCH   4   5
ENDBRANCH   3   4
ENDBRANCH   2   3
ENDBRANCH   1   2
BRANCH   1  12
ATOM     12  C   UNL     1     -15.804  13.809  -7.118  1.00  0.00     0.000 C 
BRANCH  12  13
ATOM     13  C   UNL     1     -17.090  13.498  -7.901  1.00  0.00    -0.000 C 
BRANCH  13  14
ATOM     14  C   UNL     1     -16.812  12.773  -9.230  1.00  0.00    -0.000 C 
BRANCH  14  15
ATOM     15  C   UNL     1     -15.706  13.453 -10.051  1.00  0.00    -0.000 C 
BRANCH  15  16
ATOM     16  C   UNL     1     -14.546  12.498 -10.383  1.00  0.00    -0.000 C 
BRANCH  16  17
ATOM     17  C   UNL     1     -14.533  12.066 -11.861  1.00  0.00    -0.000 C 
BRANCH  17  18
ATOM     18  C   UNL     1     -15.690  12.627 -12.709  1.00  0.00    -0.000 C 
BRANCH  18  19
ATOM     19  C   UNL     1     -15.472  14.090 -13.125  1.00  0.00    -0.003 C 
ATOM     20  C   UNL     1     -16.713  14.932 -12.845  1.00  0.00     0.004 C 
ENDBRANCH  18  19
ENDBRANCH  17  18
ENDBRANCH  16  17
ENDBRANCH  15  16
ENDBRANCH  14  15
ENDBRANCH  13  14
ENDBRANCH  12  13
ENDBRANCH   1  12
TORSDOF 16
ENDMDL
MODEL 6
REMARK VINA RESULT:    -1.767      1.577      1.989
REMARK INTER + INTRA:          -3.810
REMARK INTER:                  -3.349
REMARK INTRA:                  -0.460
REMARK UNBOUND:                -0.390
REMARK SMILES CCCCCCCCCCCCCCCCCC(=O)[O-]
REMARK SMILES IDX 10 1 11 2 12 3 13 4 14 5 15 6 16 7 17 8 18 9 19 10 20 11
REMARK SMILES IDX 9 12 8 13 7 14 6 15 5 16 4 17 3 18 2 19 1 20
REMARK H PARENT
REMARK Flexibility Score: inf
ROOT
ATOM      1  C   UNL     1     -16.504  14.088  -7.088  1.00  0.00     0.000 C 
ENDROOT
BRANCH   1   2
ATOM      2  C   UNL     1     -15.028  14.082  -6.672  1.00  0.00     0.000 C 
BRANCH   2   3
ATOM      3  C   UNL     1     -14.148  13.466  -7.765  1.00  0.00     0.000 C 
BRANCH   3   4
ATOM      4  C   UNL     1     -14.918  13.346  -9.088  1.00  0.00     0.000 C 
BRANCH   4   5
ATOM      5  C   UNL     1     -14.475  12.136  -9.932  1.00  0.00     0.000 C 
BRANCH   5   6
ATOM      6  C   UNL     1     -14.516  12.354 -11.458  1.00  0.00     0.000 C 
BRANCH   6   7
ATOM      7  C   UNL     1     -15.606  13.322 -11.949  1.00  0.00     0.006 C 
BRANCH   7   8
ATOM      8  C   UNL     1     -16.938  12.620 -12.243  1.00  0.00     0.053 C 
BRANCH   8   9
ATOM      9  C   UNL     1     -16.775  11.135 -12.156  1.00  0.00     0.041 C 
ATOM     10  O   UNL     1     -16.288  10.493 -13.124  1.00  0.00    -0.550 OA
ATOM     11  O   UNL     1     -17.125  10.464 -10.991  1.00  0.00    -0.550 OA
ENDBRANCH   8   9
ENDBRANCH   7   8
ENDBRANCH   6   7
ENDBRANCH   5   6
ENDBRANCH   4   5
ENDBRANCH   3   4
ENDBRANCH   2   3
ENDBRANCH   1   2
BRANCH   1  12
ATOM     12  C   UNL     1     -16.944  15.490  -7.533  1.00  0.00     0.000 C 
BRANCH  12  13
ATOM     13  C   UNL     1     -17.094  15.606  -9.058  1.00  0.00    -0.000 C 
BRANCH  13  14
ATOM     14  C   UNL     1     -16.047  16.541  -9.687  1.00  0.00    -0.000 C 
BRANCH  14  15
ATOM     15  C   UNL     1     -16.163  16.610 -11.217  1.00  0.00    -0.000 C 
BRANCH  15  16
ATOM     16  C   UNL     1     -16.364  18.047 -11.729  1.00  0.00    -0.000 C 
BRANCH  16  17
ATOM     17  C   UNL     1     -17.117  18.939 -10.725  1.00  0.00    -0.000 C 
BRANCH  17  18
ATOM     18  C   UNL     1     -16.865  20.449 -10.886  1.00  0.00    -0.000 C 
BRANCH  18  19
ATOM     19  C   UNL     1     -16.165  20.803 -12.207  1.00  0.00    -0.003 C 
ATOM     20  C   UNL     1     -14.743  21.300 -11.960  1.00  0.00     0.004 C 
ENDBRANCH  18  19
ENDBRANCH  17  18
ENDBRANCH  16  17
ENDBRANCH  15  16
ENDBRANCH  14  15
ENDBRANCH  13  14
ENDBRANCH  12  13
ENDBRANCH   1  12
TORSDOF 16
ENDMDL
MODEL 7
REMARK VINA RESULT:    -1.406      2.075      4.999
REMARK INTER + INTRA:          -3.111
REMARK INTER:                  -1.822
REMARK INTRA:                  -1.288
REMARK UNBOUND:                -0.390
REMARK SMILES CCCCCCCCCCCCCCCCCC(=O)[O-]
REMARK SMILES IDX 10 1 11 2 12 3 13 4 14 5 15 6 16 7 17 8 18 9 19 10 20 11
REMARK SMILES IDX 9 12 8 13 7 14 6 15 5 16 4 17 3 18 2 19 1 20
REMARK H PARENT
REMARK Flexibility Score: inf
ROOT
ATOM      1  C   UNL     1     -14.386  19.023 -11.974  1.00  0.00     0.000 C 
ENDROOT
BRANCH   1   2
ATOM      2  C   UNL     1     -14.973  18.195 -13.123  1.00  0.00     0.000 C 
BRANCH   2   3
ATOM      3  C   UNL     1     -16.505  18.182 -13.069  1.00  0.00     0.000 C 
BRANCH   3   4
ATOM      4  C   UNL     1     -17.034  16.763 -12.810  1.00  0.00     0.000 C 
BRANCH   4   5
ATOM      5  C   UNL     1     -15.950  15.808 -12.277  1.00  0.00     0.000 C 
BRANCH   5   6
ATOM      6  C   UNL     1     -16.463  14.429 -11.817  1.00  0.00     0.000 C 
BRANCH   6   7
ATOM      7  C   UNL     1     -16.068  13.251 -12.725  1.00  0.00     0.006 C 
BRANCH   7   8
ATOM      8  C   UNL     1     -15.790  11.962 -11.942  1.00  0.00     0.053 C 
BRANCH   8   9
ATOM      9  C   UNL     1     -14.435  12.019 -11.308  1.00  0.00     0.041 C 
ATOM     10  O   UNL     1     -14.315  11.918 -10.058  1.00  0.00    -0.550 OA
ATOM     11  O   UNL     1     -13.302  12.145 -12.101  1.00  0.00    -0.550 OA
ENDBRANCH   8   9
ENDBRANCH   7   8
ENDBRANCH   6   7
ENDBRANCH   5   6
ENDBRANCH   4   5
ENDBRANCH   3   4
ENDBRANCH   2   3
ENDBRANCH   1   2
BRANCH   1  12
ATOM     12  C   UNL     1     -13.653  20.262 -12.508  1.00  0.00     0.000 C 
BRANCH  12  13
ATOM     13  C   UNL     1     -14.384  21.571 -12.171  1.00  0.00    -0.000 C 
BRANCH  13  14
ATOM     14  C   UNL     1     -15.779  21.653 -12.815  1.00  0.00    -0.000 C 
BRANCH  14  15
ATOM     15  C   UNL     1     -16.900  21.262 -11.840  1.00  0.00    -0.000 C 
BRANCH  15  16
ATOM     16  C   UNL     1     -16.452  21.328 -10.370  1.00  0.00    -0.000 C 
BRANCH  16  17
ATOM     17  C   UNL     1     -17.125  20.257  -9.492  1.00  0.00    -0.000 C 
BRANCH  17  18
ATOM     18  C   UNL     1     -16.805  18.803  -9.886  1.00  0.00    -0.000 C 
BRANCH  18  19
ATOM     19  C   UNL     1     -16.898  17.827  -8.703  1.00  0.00    -0.003 C 
ATOM     20  C   UNL     1     -15.729  16.846  -8.707  1.00  0.00     0.004 C 
ENDBRANCH  18  19
ENDBRANCH  17  18
ENDBRANCH  16  17
ENDBRANCH  15  16
ENDBRANCH  14  15
ENDBRANCH  13  14
ENDBRANCH  12  13
ENDBRANCH   1  12
TORSDOF 16
ENDMDL
