MODEL 1
REMARK VINA RESULT:    -5.666      0.000      0.000
REMARK INTER + INTRA:          -6.551
REMARK INTER:                  -6.825
REMARK INTRA:                   0.274
REMARK UNBOUND:                 0.274
REMARK SMILES Oc1cc(O)c2cc(O)c(-c3ccc(O)c(O)c3)[o+]c2c1
REMARK SMILES IDX 10 1 19 2 20 3 21 4 2 5 3 6 4 7 6 8 7 9 8 10 11 11 12 12
REMARK SMILES IDX 13 13 14 14 18 15 16 16 15 17 17 19 9 21 1 23 5 25
REMARK H PARENT 15 18 17 20 9 22 1 24 5 26
REMARK Flexibility Score: inf
ROOT
ATOM      1  C   UNL     1      46.398  16.544  -4.229  1.00  0.00     0.402 A 
ATOM      2  O   UNL     1      45.525  16.120  -3.319  1.00  0.00    -0.202 OA
ATOM      3  C   UNL     1      44.309  16.635  -3.178  1.00  0.00     0.368 A 
ATOM      4  C   UNL     1      43.464  16.124  -2.190  1.00  0.00     0.162 A 
ATOM      5  C   UNL     1      42.182  16.648  -2.017  1.00  0.00     0.128 A 
ATOM      6  C   UNL     1      41.740  17.693  -2.838  1.00  0.00     0.093 A 
ATOM      7  C   UNL     1      42.568  18.222  -3.835  1.00  0.00     0.136 A 
ATOM      8  C   UNL     1      43.871  17.690  -4.015  1.00  0.00     0.125 A 
ATOM      9  C   UNL     1      44.764  18.149  -4.997  1.00  0.00     0.078 A 
ATOM     10  C   UNL     1      46.031  17.572  -5.117  1.00  0.00     0.223 A 
ENDROOT
BRANCH   1  11
ATOM     11  C   UNL     1      47.728  15.895  -4.280  1.00  0.00     0.087 A 
ATOM     12  C   UNL     1      48.837  16.541  -4.853  1.00  0.00     0.022 A 
ATOM     13  C   UNL     1      50.087  15.918  -4.868  1.00  0.00     0.051 A 
ATOM     14  C   UNL     1      50.252  14.648  -4.301  1.00  0.00     0.157 A 
ATOM     15  C   UNL     1      47.903  14.631  -3.695  1.00  0.00     0.068 A 
ATOM     16  C   UNL     1      49.154  14.004  -3.708  1.00  0.00     0.158 A 
BRANCH  14  17
ATOM     17  O   UNL     1      51.501  14.028  -4.321  1.00  0.00    -0.504 OA
ATOM     18  H   UNL     1      51.618  13.061  -4.047  1.00  0.00     0.293 HD
ENDBRANCH  14  17
BRANCH  16  19
ATOM     19  O   UNL     1      49.286  12.741  -3.129  1.00  0.00    -0.504 OA
ATOM     20  H   UNL     1      49.209  11.890  -3.671  1.00  0.00     0.293 HD
ENDBRANCH  16  19
ENDBRANCH   1  11
BRANCH  10  21
ATOM     21  O   UNL     1      46.900  17.994  -6.125  1.00  0.00    -0.500 OA
ATOM     22  H   UNL     1      47.095  18.975  -6.283  1.00  0.00     0.294 HD
ENDBRANCH  10  21
BRANCH   5  23
ATOM     23  O   UNL     1      41.354  16.125  -1.026  1.00  0.00    -0.507 OA
ATOM     24  H   UNL     1      41.478  15.183  -0.675  1.00  0.00     0.293 HD
ENDBRANCH   5  23
BRANCH   7  25
ATOM     25  O   UNL     1      42.054  19.265  -4.610  1.00  0.00    -0.507 OA
ATOM     26  H   UNL     1      41.079  19.373  -4.850  1.00  0.00     0.293 HD
ENDBRANCH   7  25
TORSDOF 6
ENDMDL
MODEL 2
REMARK VINA RESULT:    -5.645      1.363      6.777
REMARK INTER + INTRA:          -6.525
REMARK INTER:                  -6.221
REMARK INTRA:                  -0.305
REMARK UNBOUND:                 0.274
REMARK SMILES Oc1cc(O)c2cc(O)c(-c3ccc(O)c(O)c3)[o+]c2c1
REMARK SMILES IDX 10 1 19 2 20 3 21 4 2 5 3 6 4 7 6 8 7 9 8 10 11 11 12 12
REMARK SMILES IDX 13 13 14 14 18 15 16 16 15 17 17 19 9 21 1 23 5 25
REMARK H PARENT 15 18 17 20 9 22 1 24 5 26
REMARK Flexibility Score: inf
ROOT
ATOM      1  C   UNL     1      45.150  16.323  -3.795  1.00  0.00     0.402 A 
ATOM      2  O   UNL     1      45.975  15.340  -3.443  1.00  0.00    -0.202 OA
ATOM      3  C   UNL     1      47.231  15.254  -3.866  1.00  0.00     0.368 A 
ATOM      4  C   UNL     1      48.020  14.181  -3.443  1.00  0.00     0.162 A 
ATOM      5  C   UNL     1      49.342  14.064  -3.873  1.00  0.00     0.128 A 
ATOM      6  C   UNL     1      49.882  15.026  -4.734  1.00  0.00     0.093 A 
ATOM      7  C   UNL     1      49.113  16.111  -5.172  1.00  0.00     0.136 A 
ATOM      8  C   UNL     1      47.769  16.234  -4.735  1.00  0.00     0.125 A 
ATOM      9  C   UNL     1      46.928  17.295  -5.112  1.00  0.00     0.078 A 
ATOM     10  C   UNL     1      45.615  17.351  -4.636  1.00  0.00     0.223 A 
ENDROOT
BRANCH   1  11
ATOM     11  C   UNL     1      43.768  16.302  -3.265  1.00  0.00     0.087 A 
ATOM     12  C   UNL     1      42.794  15.438  -3.793  1.00  0.00     0.022 A 
ATOM     13  C   UNL     1      41.502  15.419  -3.260  1.00  0.00     0.051 A 
ATOM     14  C   UNL     1      41.168  16.254  -2.186  1.00  0.00     0.157 A 
ATOM     15  C   UNL     1      43.433  17.122  -2.175  1.00  0.00     0.068 A 
ATOM     16  C   UNL     1      42.141  17.107  -1.640  1.00  0.00     0.158 A 
BRANCH  14  17
ATOM     17  O   UNL     1      39.877  16.235  -1.659  1.00  0.00    -0.504 OA
ATOM     18  H   UNL     1      39.260  15.444  -1.794  1.00  0.00     0.293 HD
ENDBRANCH  14  17
BRANCH  16  19
ATOM     19  O   UNL     1      41.842  17.946  -0.565  1.00  0.00    -0.504 OA
ATOM     20  H   UNL     1      42.397  18.766  -0.353  1.00  0.00     0.293 HD
ENDBRANCH  16  19
ENDBRANCH   1  11
BRANCH  10  21
ATOM     21  O   UNL     1      44.795  18.430  -4.970  1.00  0.00    -0.500 OA
ATOM     22  H   UNL     1      43.956  18.309  -5.525  1.00  0.00     0.294 HD
ENDBRANCH  10  21
BRANCH   5  23
ATOM     23  O   UNL     1      50.112  12.986  -3.440  1.00  0.00    -0.507 OA
ATOM     24  H   UNL     1      51.113  12.959  -3.585  1.00  0.00     0.293 HD
ENDBRANCH   5  23
BRANCH   7  25
ATOM     25  O   UNL     1      49.724  17.026  -6.033  1.00  0.00    -0.507 OA
ATOM     26  H   UNL     1      49.435  17.194  -6.986  1.00  0.00     0.293 HD
ENDBRANCH   7  25
TORSDOF 6
ENDMDL
MODEL 3
REMARK VINA RESULT:    -5.642      1.387      7.179
REMARK INTER + INTRA:          -6.522
REMARK INTER:                  -6.452
REMARK INTRA:                  -0.071
REMARK UNBOUND:                 0.274
REMARK SMILES Oc1cc(O)c2cc(O)c(-c3ccc(O)c(O)c3)[o+]c2c1
REMARK SMILES IDX 10 1 19 2 20 3 21 4 2 5 3 6 4 7 6 8 7 9 8 10 11 11 12 12
REMARK SMILES IDX 13 13 14 14 18 15 16 16 15 17 17 19 9 21 1 23 5 25
REMARK H PARENT 15 18 17 20 9 22 1 24 5 26
REMARK Flexibility Score: inf
ROOT
ATOM      1  C   UNL     1      46.259  16.070  -3.856  1.00  0.00     0.402 A 
ATOM      2  O   UNL     1      47.467  16.478  -4.238  1.00  0.00    -0.202 OA
ATOM      3  C   UNL     1      48.534  15.687  -4.253  1.00  0.00     0.368 A 
ATOM      4  C   UNL     1      49.762  16.209  -4.668  1.00  0.00     0.162 A 
ATOM      5  C   UNL     1      50.900  15.402  -4.691  1.00  0.00     0.128 A 
ATOM      6  C   UNL     1      50.812  14.062  -4.296  1.00  0.00     0.093 A 
ATOM      7  C   UNL     1      49.594  13.516  -3.876  1.00  0.00     0.136 A 
ATOM      8  C   UNL     1      48.434  14.332  -3.853  1.00  0.00     0.125 A 
ATOM      9  C   UNL     1      47.168  13.866  -3.460  1.00  0.00     0.078 A 
ATOM     10  C   UNL     1      46.070  14.730  -3.468  1.00  0.00     0.223 A 
ENDROOT
BRANCH   1  11
ATOM     11  C   UNL     1      45.150  17.050  -3.873  1.00  0.00     0.087 A 
ATOM     12  C   UNL     1      44.813  17.756  -5.040  1.00  0.00     0.022 A 
ATOM     13  C   UNL     1      43.747  18.659  -5.037  1.00  0.00     0.051 A 
ATOM     14  C   UNL     1      42.993  18.860  -3.873  1.00  0.00     0.157 A 
ATOM     15  C   UNL     1      44.378  17.240  -2.715  1.00  0.00     0.068 A 
ATOM     16  C   UNL     1      43.309  18.143  -2.708  1.00  0.00     0.158 A 
BRANCH  14  17
ATOM     17  O   UNL     1      41.931  19.763  -3.874  1.00  0.00    -0.504 OA
ATOM     18  H   UNL     1      41.809  20.440  -3.131  1.00  0.00     0.293 HD
ENDBRANCH  14  17
BRANCH  16  19
ATOM     19  O   UNL     1      42.574  18.315  -1.534  1.00  0.00    -0.504 OA
ATOM     20  H   UNL     1      42.205  19.216  -1.258  1.00  0.00     0.293 HD
ENDBRANCH  16  19
ENDBRANCH   1  11
BRANCH  10  21
ATOM     21  O   UNL     1      44.803  14.255  -3.125  1.00  0.00    -0.500 OA
ATOM     22  H   UNL     1      44.436  13.393  -3.511  1.00  0.00     0.294 HD
ENDBRANCH  10  21
BRANCH   5  23
ATOM     23  O   UNL     1      52.115  15.942  -5.108  1.00  0.00    -0.507 OA
ATOM     24  H   UNL     1      52.433  15.854  -6.065  1.00  0.00     0.293 HD
ENDBRANCH   5  23
BRANCH   7  25
ATOM     25  O   UNL     1      49.590  12.171  -3.494  1.00  0.00    -0.507 OA
ATOM     26  H   UNL     1      50.407  11.659  -3.197  1.00  0.00     0.293 HD
ENDBRANCH   7  25
TORSDOF 6
ENDMDL
MODEL 4
REMARK VINA RESULT:    -5.541      2.231      6.882
REMARK INTER + INTRA:          -6.400
REMARK INTER:                  -6.257
REMARK INTRA:                  -0.143
REMARK UNBOUND:                 0.274
REMARK SMILES Oc1cc(O)c2cc(O)c(-c3ccc(O)c(O)c3)[o+]c2c1
REMARK SMILES IDX 10 1 19 2 20 3 21 4 2 5 3 6 4 7 6 8 7 9 8 10 11 11 12 12
REMARK SMILES IDX 13 13 14 14 18 15 16 16 15 17 17 19 9 21 1 23 5 25
REMARK H PARENT 15 18 17 20 9 22 1 24 5 26
REMARK Flexibility Score: inf
ROOT
ATOM      1  C   UNL     1      45.615  15.006  -3.372  1.00  0.00     0.402 A 
ATOM      2  O   UNL     1      46.252  14.390  -2.379  1.00  0.00    -0.202 OA
ATOM      3  C   UNL     1      47.173  13.453  -2.572  1.00  0.00     0.368 A 
ATOM      4  C   UNL     1      47.785  12.862  -1.464  1.00  0.00     0.162 A 
ATOM      5  C   UNL     1      48.754  11.873  -1.637  1.00  0.00     0.128 A 
ATOM      6  C   UNL     1      49.115  11.469  -2.928  1.00  0.00     0.093 A 
ATOM      7  C   UNL     1      48.517  12.046  -4.054  1.00  0.00     0.136 A 
ATOM      8  C   UNL     1      47.533  13.054  -3.883  1.00  0.00     0.125 A 
ATOM      9  C   UNL     1      46.891  13.697  -4.953  1.00  0.00     0.078 A 
ATOM     10  C   UNL     1      45.933  14.685  -4.705  1.00  0.00     0.223 A 
ENDROOT
BRANCH   1  11
ATOM     11  C   UNL     1      44.600  16.027  -3.028  1.00  0.00     0.087 A 
ATOM     12  C   UNL     1      44.727  17.360  -3.453  1.00  0.00     0.022 A 
ATOM     13  C   UNL     1      43.744  18.300  -3.136  1.00  0.00     0.051 A 
ATOM     14  C   UNL     1      42.613  17.921  -2.400  1.00  0.00     0.157 A 
ATOM     15  C   UNL     1      43.455  15.648  -2.309  1.00  0.00     0.068 A 
ATOM     16  C   UNL     1      42.468  16.587  -1.988  1.00  0.00     0.158 A 
BRANCH  14  17
ATOM     17  O   UNL     1      41.636  18.863  -2.083  1.00  0.00    -0.504 OA
ATOM     18  H   UNL     1      41.844  19.672  -1.510  1.00  0.00     0.293 HD
ENDBRANCH  14  17
BRANCH  16  19
ATOM     19  O   UNL     1      41.351  16.175  -1.261  1.00  0.00    -0.504 OA
ATOM     20  H   UNL     1      41.127  15.197  -1.126  1.00  0.00     0.293 HD
ENDBRANCH  16  19
ENDBRANCH   1  11
BRANCH  10  21
ATOM     21  O   UNL     1      45.331  15.359  -5.768  1.00  0.00    -0.500 OA
ATOM     22  H   UNL     1      45.570  15.156  -6.731  1.00  0.00     0.294 HD
ENDBRANCH  10  21
BRANCH   5  23
ATOM     23  O   UNL     1      49.353  11.295  -0.519  1.00  0.00    -0.507 OA
ATOM     24  H   UNL     1      49.702  11.860   0.246  1.00  0.00     0.293 HD
ENDBRANCH   5  23
BRANCH   7  25
ATOM     25  O   UNL     1      48.930  11.587  -5.308  1.00  0.00    -0.507 OA
ATOM     26  H   UNL     1      48.824  12.104  -6.168  1.00  0.00     0.293 HD
ENDBRANCH   7  25
TORSDOF 6
ENDMDL
MODEL 5
REMARK VINA RESULT:    -5.336      1.734      2.687
REMARK INTER + INTRA:          -6.154
REMARK INTER:                  -6.107
REMARK INTRA:                  -0.047
REMARK UNBOUND:                 0.274
REMARK SMILES Oc1cc(O)c2cc(O)c(-c3ccc(O)c(O)c3)[o+]c2c1
REMARK SMILES IDX 10 1 19 2 20 3 21 4 2 5 3 6 4 7 6 8 7 9 8 10 11 11 12 12
REMARK SMILES IDX 13 13 14 14 18 15 16 16 15 17 17 19 9 21 1 23 5 25
REMARK H PARENT 15 18 17 20 9 22 1 24 5 26
REMARK Flexibility Score: inf
ROOT
ATOM      1  C   UNL     1      46.717  15.698  -4.248  1.00  0.00     0.402 A 
ATOM      2  O   UNL     1      46.037  16.692  -3.681  1.00  0.00    -0.202 OA
ATOM      3  C   UNL     1      44.802  16.556  -3.211  1.00  0.00     0.368 A 
ATOM      4  C   UNL     1      44.168  17.660  -2.635  1.00  0.00     0.162 A 
ATOM      5  C   UNL     1      42.870  17.548  -2.136  1.00  0.00     0.128 A 
ATOM      6  C   UNL     1      42.197  16.323  -2.214  1.00  0.00     0.093 A 
ATOM      7  C   UNL     1      42.810  15.202  -2.787  1.00  0.00     0.136 A 
ATOM      8  C   UNL     1      44.131  15.312  -3.293  1.00  0.00     0.125 A 
ATOM      9  C   UNL     1      44.828  14.238  -3.871  1.00  0.00     0.078 A 
ATOM     10  C   UNL     1      46.130  14.422  -4.345  1.00  0.00     0.223 A 
ENDROOT
BRANCH   1  11
ATOM     11  C   UNL     1      48.084  15.977  -4.743  1.00  0.00     0.087 A 
ATOM     12  C   UNL     1      48.343  17.042  -5.622  1.00  0.00     0.022 A 
ATOM     13  C   UNL     1      49.645  17.300  -6.056  1.00  0.00     0.051 A 
ATOM     14  C   UNL     1      50.710  16.506  -5.610  1.00  0.00     0.157 A 
ATOM     15  C   UNL     1      49.157  15.197  -4.282  1.00  0.00     0.068 A 
ATOM     16  C   UNL     1      50.463  15.452  -4.716  1.00  0.00     0.158 A 
BRANCH  14  17
ATOM     17  O   UNL     1      52.008  16.765  -6.048  1.00  0.00    -0.504 OA
ATOM     18  H   UNL     1      52.814  16.365  -5.585  1.00  0.00     0.293 HD
ENDBRANCH  14  17
BRANCH  16  19
ATOM     19  O   UNL     1      51.502  14.647  -4.247  1.00  0.00    -0.504 OA
ATOM     20  H   UNL     1      52.441  14.709  -4.620  1.00  0.00     0.293 HD
ENDBRANCH  16  19
ENDBRANCH   1  11
BRANCH  10  21
ATOM     21  O   UNL     1      46.842  13.344  -4.874  1.00  0.00    -0.500 OA
ATOM     22  H   UNL     1      47.604  13.479  -5.527  1.00  0.00     0.294 HD
ENDBRANCH  10  21
BRANCH   5  23
ATOM     23  O   UNL     1      42.255  18.661  -1.565  1.00  0.00    -0.507 OA
ATOM     24  H   UNL     1      41.375  19.018  -1.916  1.00  0.00     0.293 HD
ENDBRANCH   5  23
BRANCH   7  25
ATOM     25  O   UNL     1      42.071  14.017  -2.829  1.00  0.00    -0.507 OA
ATOM     26  H   UNL     1      42.417  13.117  -2.529  1.00  0.00     0.293 HD
ENDBRANCH   7  25
TORSDOF 6
ENDMDL
MODEL 6
REMARK VINA RESULT:    -5.267      2.013      6.221
REMARK INTER + INTRA:          -6.070
REMARK INTER:                  -6.026
REMARK INTRA:                  -0.044
REMARK UNBOUND:                 0.274
REMARK SMILES Oc1cc(O)c2cc(O)c(-c3ccc(O)c(O)c3)[o+]c2c1
REMARK SMILES IDX 10 1 19 2 20 3 21 4 2 5 3 6 4 7 6 8 7 9 8 10 11 11 12 12
REMARK SMILES IDX 13 13 14 14 18 15 16 16 15 17 17 19 9 21 1 23 5 25
REMARK H PARENT 15 18 17 20 9 22 1 24 5 26
REMARK Flexibility Score: inf
ROOT
ATOM      1  C   UNL     1      46.187  16.362  -4.099  1.00  0.00     0.402 A 
ATOM      2  O   UNL     1      45.533  15.318  -3.596  1.00  0.00    -0.202 OA
ATOM      3  C   UNL     1      46.134  14.198  -3.212  1.00  0.00     0.368 A 
ATOM      4  C   UNL     1      45.360  13.153  -2.698  1.00  0.00     0.162 A 
ATOM      5  C   UNL     1      45.964  11.963  -2.289  1.00  0.00     0.128 A 
ATOM      6  C   UNL     1      47.351  11.814  -2.395  1.00  0.00     0.093 A 
ATOM      7  C   UNL     1      48.148  12.845  -2.907  1.00  0.00     0.136 A 
ATOM      8  C   UNL     1      47.539  14.057  -3.321  1.00  0.00     0.125 A 
ATOM      9  C   UNL     1      48.259  15.148  -3.833  1.00  0.00     0.078 A 
ATOM     10  C   UNL     1      47.589  16.313  -4.217  1.00  0.00     0.223 A 
ENDROOT
BRANCH   1  11
ATOM     11  C   UNL     1      45.403  17.552  -4.502  1.00  0.00     0.087 A 
ATOM     12  C   UNL     1      45.599  18.173  -5.747  1.00  0.00     0.022 A 
ATOM     13  C   UNL     1      44.831  19.280  -6.114  1.00  0.00     0.051 A 
ATOM     14  C   UNL     1      43.847  19.777  -5.249  1.00  0.00     0.157 A 
ATOM     15  C   UNL     1      44.402  18.041  -3.647  1.00  0.00     0.068 A 
ATOM     16  C   UNL     1      43.630  19.151  -4.011  1.00  0.00     0.158 A 
BRANCH  14  17
ATOM     17  O   UNL     1      43.084  20.884  -5.617  1.00  0.00    -0.504 OA
ATOM     18  H   UNL     1      42.250  20.790  -6.183  1.00  0.00     0.293 HD
ENDBRANCH  14  17
BRANCH  16  19
ATOM     19  O   UNL     1      42.654  19.616  -3.129  1.00  0.00    -0.504 OA
ATOM     20  H   UNL     1      41.742  19.919  -3.447  1.00  0.00     0.293 HD
ENDBRANCH  16  19
ENDBRANCH   1  11
BRANCH  10  21
ATOM     21  O   UNL     1      48.308  17.416  -4.680  1.00  0.00    -0.500 OA
ATOM     22  H   UNL     1      47.866  18.155  -5.213  1.00  0.00     0.294 HD
ENDBRANCH  10  21
BRANCH   5  23
ATOM     23  O   UNL     1      45.175  10.934  -1.779  1.00  0.00    -0.507 OA
ATOM     24  H   UNL     1      44.181  10.887  -1.964  1.00  0.00     0.293 HD
ENDBRANCH   5  23
BRANCH   7  25
ATOM     25  O   UNL     1      49.525  12.616  -2.983  1.00  0.00    -0.507 OA
ATOM     26  H   UNL     1      50.231  13.308  -2.777  1.00  0.00     0.293 HD
ENDBRANCH   7  25
TORSDOF 6
ENDMDL
MODEL 7
REMARK VINA RESULT:    -5.246      1.810      3.016
REMARK INTER + INTRA:          -6.045
REMARK INTER:                  -6.113
REMARK INTRA:                   0.068
REMARK UNBOUND:                 0.274
REMARK SMILES Oc1cc(O)c2cc(O)c(-c3ccc(O)c(O)c3)[o+]c2c1
REMARK SMILES IDX 10 1 19 2 20 3 21 4 2 5 3 6 4 7 6 8 7 9 8 10 11 11 12 12
REMARK SMILES IDX 13 13 14 14 18 15 16 16 15 17 17 19 9 21 1 23 5 25
REMARK H PARENT 15 18 17 20 9 22 1 24 5 26
REMARK Flexibility Score: inf
ROOT
ATOM      1  C   UNL     1      44.780  15.878  -2.954  1.00  0.00     0.402 A 
ATOM      2  O   UNL     1      44.688  17.204  -2.887  1.00  0.00    -0.202 OA
ATOM      3  C   UNL     1      43.541  17.848  -2.701  1.00  0.00     0.368 A 
ATOM      4  C   UNL     1      43.546  19.244  -2.649  1.00  0.00     0.162 A 
ATOM      5  C   UNL     1      42.356  19.947  -2.457  1.00  0.00     0.128 A 
ATOM      6  C   UNL     1      41.150  19.250  -2.318  1.00  0.00     0.093 A 
ATOM      7  C   UNL     1      41.119  17.851  -2.366  1.00  0.00     0.136 A 
ATOM      8  C   UNL     1      42.327  17.133  -2.559  1.00  0.00     0.125 A 
ATOM      9  C   UNL     1      42.393  15.731  -2.607  1.00  0.00     0.078 A 
ATOM     10  C   UNL     1      43.622  15.093  -2.796  1.00  0.00     0.223 A 
ENDROOT
BRANCH   1  11
ATOM     11  C   UNL     1      46.115  15.278  -3.175  1.00  0.00     0.087 A 
ATOM     12  C   UNL     1      46.999  15.792  -4.139  1.00  0.00     0.022 A 
ATOM     13  C   UNL     1      48.263  15.223  -4.314  1.00  0.00     0.051 A 
ATOM     14  C   UNL     1      48.668  14.142  -3.520  1.00  0.00     0.157 A 
ATOM     15  C   UNL     1      46.534  14.207  -2.368  1.00  0.00     0.068 A 
ATOM     16  C   UNL     1      47.799  13.635  -2.540  1.00  0.00     0.158 A 
BRANCH  14  17
ATOM     17  O   UNL     1      49.929  13.575  -3.699  1.00  0.00    -0.504 OA
ATOM     18  H   UNL     1      50.760  14.146  -3.791  1.00  0.00     0.293 HD
ENDBRANCH  14  17
BRANCH  16  19
ATOM     19  O   UNL     1      48.174  12.563  -1.729  1.00  0.00    -0.504 OA
ATOM     20  H   UNL     1      48.307  11.630  -2.098  1.00  0.00     0.293 HD
ENDBRANCH  16  19
ENDBRANCH   1  11
BRANCH  10  21
ATOM     21  O   UNL     1      43.696  13.699  -2.794  1.00  0.00    -0.500 OA
ATOM     22  H   UNL     1      44.372  13.201  -3.361  1.00  0.00     0.294 HD
ENDBRANCH  10  21
BRANCH   5  23
ATOM     23  O   UNL     1      42.381  21.339  -2.408  1.00  0.00    -0.507 OA
ATOM     24  H   UNL     1      42.971  21.835  -1.750  1.00  0.00     0.293 HD
ENDBRANCH   5  23
BRANCH   7  25
ATOM     25  O   UNL     1      39.875  17.230  -2.222  1.00  0.00    -0.507 OA
ATOM     26  H   UNL     1      39.554  16.786  -1.374  1.00  0.00     0.293 HD
ENDBRANCH   7  25
TORSDOF 6
ENDMDL
MODEL 8
REMARK VINA RESULT:    -5.219      1.579      3.528
REMARK INTER + INTRA:          -6.013
REMARK INTER:                  -5.888
REMARK INTRA:                  -0.124
REMARK UNBOUND:                 0.274
REMARK SMILES Oc1cc(O)c2cc(O)c(-c3ccc(O)c(O)c3)[o+]c2c1
REMARK SMILES IDX 10 1 19 2 20 3 21 4 2 5 3 6 4 7 6 8 7 9 8 10 11 11 12 12
REMARK SMILES IDX 13 13 14 14 18 15 16 16 15 17 17 19 9 21 1 23 5 25
REMARK H PARENT 15 18 17 20 9 22 1 24 5 26
REMARK Flexibility Score: inf
ROOT
ATOM      1  C   UNL     1      47.907  15.221  -4.159  1.00  0.00     0.402 A 
ATOM      2  O   UNL     1      47.397  16.272  -4.797  1.00  0.00    -0.202 OA
ATOM      3  C   UNL     1      46.201  16.782  -4.526  1.00  0.00     0.368 A 
ATOM      4  C   UNL     1      45.751  17.886  -5.254  1.00  0.00     0.162 A 
ATOM      5  C   UNL     1      44.498  18.441  -4.993  1.00  0.00     0.128 A 
ATOM      6  C   UNL     1      43.686  17.887  -3.996  1.00  0.00     0.093 A 
ATOM      7  C   UNL     1      44.113  16.781  -3.252  1.00  0.00     0.136 A 
ATOM      8  C   UNL     1      45.388  16.216  -3.514  1.00  0.00     0.125 A 
ATOM      9  C   UNL     1      45.905  15.116  -2.809  1.00  0.00     0.078 A 
ATOM     10  C   UNL     1      47.173  14.617  -3.121  1.00  0.00     0.223 A 
ENDROOT
BRANCH   1  11
ATOM     11  C   UNL     1      49.248  14.739  -4.560  1.00  0.00     0.087 A 
ATOM     12  C   UNL     1      49.466  13.401  -4.928  1.00  0.00     0.022 A 
ATOM     13  C   UNL     1      50.736  12.975  -5.326  1.00  0.00     0.051 A 
ATOM     14  C   UNL     1      51.803  13.882  -5.375  1.00  0.00     0.157 A 
ATOM     15  C   UNL     1      50.316  15.649  -4.631  1.00  0.00     0.068 A 
ATOM     16  C   UNL     1      51.589  15.226  -5.029  1.00  0.00     0.158 A 
BRANCH  14  17
ATOM     17  O   UNL     1      53.069  13.453  -5.770  1.00  0.00    -0.504 OA
ATOM     18  H   UNL     1      53.627  13.980  -6.431  1.00  0.00     0.293 HD
ENDBRANCH  14  17
BRANCH  16  19
ATOM     19  O   UNL     1      52.629  16.155  -5.073  1.00  0.00    -0.504 OA
ATOM     20  H   UNL     1      52.476  17.142  -4.906  1.00  0.00     0.293 HD
ENDBRANCH  16  19
ENDBRANCH   1  11
BRANCH  10  21
ATOM     21  O   UNL     1      47.707  13.556  -2.389  1.00  0.00    -0.500 OA
ATOM     22  H   UNL     1      47.614  13.504  -1.381  1.00  0.00     0.294 HD
ENDBRANCH  10  21
BRANCH   5  23
ATOM     23  O   UNL     1      44.067  19.542  -5.730  1.00  0.00    -0.507 OA
ATOM     24  H   UNL     1      43.506  20.273  -5.310  1.00  0.00     0.293 HD
ENDBRANCH   5  23
BRANCH   7  25
ATOM     25  O   UNL     1      43.243  16.286  -2.277  1.00  0.00    -0.507 OA
ATOM     26  H   UNL     1      43.302  15.362  -1.876  1.00  0.00     0.293 HD
ENDBRANCH   7  25
TORSDOF 6
ENDMDL
MODEL 9
REMARK VINA RESULT:    -5.158      2.513      3.569
REMARK INTER + INTRA:          -5.939
REMARK INTER:                  -5.674
REMARK INTRA:                  -0.265
REMARK UNBOUND:                 0.274
REMARK SMILES Oc1cc(O)c2cc(O)c(-c3ccc(O)c(O)c3)[o+]c2c1
REMARK SMILES IDX 10 1 19 2 20 3 21 4 2 5 3 6 4 7 6 8 7 9 8 10 11 11 12 12
REMARK SMILES IDX 13 13 14 14 18 15 16 16 15 17 17 19 9 21 1 23 5 25
REMARK H PARENT 15 18 17 20 9 22 1 24 5 26
REMARK Flexibility Score: inf
ROOT
ATOM      1  C   UNL     1      44.009  16.515  -3.014  1.00  0.00     0.402 A 
ATOM      2  O   UNL     1      43.175  16.906  -2.054  1.00  0.00    -0.202 OA
ATOM      3  C   UNL     1      42.607  18.106  -2.025  1.00  0.00     0.368 A 
ATOM      4  C   UNL     1      41.746  18.426  -0.972  1.00  0.00     0.162 A 
ATOM      5  C   UNL     1      41.138  19.681  -0.914  1.00  0.00     0.128 A 
ATOM      6  C   UNL     1      41.392  20.625  -1.916  1.00  0.00     0.093 A 
ATOM      7  C   UNL     1      42.250  20.329  -2.981  1.00  0.00     0.136 A 
ATOM      8  C   UNL     1      42.869  19.054  -3.045  1.00  0.00     0.125 A 
ATOM      9  C   UNL     1      43.733  18.665  -4.082  1.00  0.00     0.078 A 
ATOM     10  C   UNL     1      44.302  17.388  -4.079  1.00  0.00     0.223 A 
ENDROOT
BRANCH   1  11
ATOM     11  C   UNL     1      44.587  15.154  -2.930  1.00  0.00     0.087 A 
ATOM     12  C   UNL     1      43.812  14.011  -3.191  1.00  0.00     0.022 A 
ATOM     13  C   UNL     1      44.385  12.739  -3.128  1.00  0.00     0.051 A 
ATOM     14  C   UNL     1      45.743  12.589  -2.817  1.00  0.00     0.157 A 
ATOM     15  C   UNL     1      45.952  15.000  -2.639  1.00  0.00     0.068 A 
ATOM     16  C   UNL     1      46.530  13.727  -2.575  1.00  0.00     0.158 A 
BRANCH  14  17
ATOM     17  O   UNL     1      46.311  11.318  -2.752  1.00  0.00    -0.504 OA
ATOM     18  H   UNL     1      46.664  10.851  -3.579  1.00  0.00     0.293 HD
ENDBRANCH  14  17
BRANCH  16  19
ATOM     19  O   UNL     1      47.887  13.613  -2.269  1.00  0.00    -0.504 OA
ATOM     20  H   UNL     1      48.429  14.398  -1.930  1.00  0.00     0.293 HD
ENDBRANCH  16  19
ENDBRANCH   1  11
BRANCH  10  21
ATOM     21  O   UNL     1      45.120  16.984  -5.134  1.00  0.00    -0.500 OA
ATOM     22  H   UNL     1      46.130  16.984  -5.055  1.00  0.00     0.294 HD
ENDBRANCH  10  21
BRANCH   5  23
ATOM     23  O   UNL     1      40.283  19.981   0.144  1.00  0.00    -0.507 OA
ATOM     24  H   UNL     1      40.595  20.524   0.940  1.00  0.00     0.293 HD
ENDBRANCH   5  23
BRANCH   7  25
ATOM     25  O   UNL     1      42.455  21.326  -3.939  1.00  0.00    -0.507 OA
ATOM     26  H   UNL     1      43.080  22.110  -3.823  1.00  0.00     0.293 HD
ENDBRANCH   7  25
TORSDOF 6
ENDMDL
