MODEL 1
REMARK VINA RESULT:    -5.946      0.000      0.000
REMARK INTER + INTRA:          -6.294
REMARK INTER:                  -6.294
REMARK INTRA:                   0.000
REMARK UNBOUND:                 0.000
REMARK SMILES O=c1ccc2cc(O)c(O)cc2o1
REMARK SMILES IDX 4 1 3 2 2 3 1 4 13 5 12 6 11 7 9 8 7 9 6 10 5 11 8 12 10 14
REMARK H PARENT 8 13 10 15
REMARK Flexibility Score: inf
ROOT
ATOM      1  C   UNL     1      -8.792  -2.719  -3.518  1.00  0.00     0.019 A 
ATOM      2  C   UNL     1      -9.022  -3.571  -4.596  1.00  0.00     0.094 A 
ATOM      3  C   UNL     1      -8.669  -3.150  -5.882  1.00  0.00     0.336 A 
ATOM      4  O   UNL     1      -8.869  -3.905  -6.869  1.00  0.00    -0.246 OA
ATOM      5  O   UNL     1      -8.123  -1.951  -6.072  1.00  0.00    -0.423 OA
ATOM      6  C   UNL     1      -7.886  -1.106  -5.069  1.00  0.00     0.142 A 
ATOM      7  C   UNL     1      -7.311   0.140  -5.328  1.00  0.00     0.098 A 
ATOM      8  C   UNL     1      -7.056   1.039  -4.284  1.00  0.00     0.161 A 
ATOM      9  C   UNL     1      -7.387   0.680  -2.954  1.00  0.00     0.158 A 
ATOM     10  C   UNL     1      -7.964  -0.570  -2.698  1.00  0.00     0.062 A 
ATOM     11  C   UNL     1      -8.216  -1.464  -3.747  1.00  0.00     0.022 A 
ENDROOT
BRANCH   9  12
ATOM     12  O   UNL     1      -7.161   1.527  -1.867  1.00  0.00    -0.504 OA
ATOM     13  H   UNL     1      -6.259   1.917  -1.632  1.00  0.00     0.293 HD
ENDBRANCH   9  12
BRANCH   8  14
ATOM     14  O   UNL     1      -6.479   2.267  -4.611  1.00  0.00    -0.504 OA
ATOM     15  H   UNL     1      -5.910   2.812  -3.978  1.00  0.00     0.293 HD
ENDBRANCH   8  14
TORSDOF 2
ENDMDL
MODEL 2
REMARK VINA RESULT:    -5.881      1.092      2.266
REMARK INTER + INTRA:          -6.225
REMARK INTER:                  -6.225
REMARK INTRA:                   0.000
REMARK UNBOUND:                 0.000
REMARK SMILES O=c1ccc2cc(O)c(O)cc2o1
REMARK SMILES IDX 4 1 3 2 2 3 1 4 13 5 12 6 11 7 9 8 7 9 6 10 5 11 8 12 10 14
REMARK H PARENT 8 13 10 15
REMARK Flexibility Score: inf
ROOT
ATOM      1  C   UNL     1      -8.154  -1.918  -6.269  1.00  0.00     0.019 A 
ATOM      2  C   UNL     1      -8.726  -3.164  -6.021  1.00  0.00     0.094 A 
ATOM      3  C   UNL     1      -9.016  -3.527  -4.702  1.00  0.00     0.336 A 
ATOM      4  O   UNL     1      -9.533  -4.648  -4.457  1.00  0.00    -0.246 OA
ATOM      5  O   UNL     1      -8.750  -2.693  -3.699  1.00  0.00    -0.423 OA
ATOM      6  C   UNL     1      -8.204  -1.493  -3.893  1.00  0.00     0.142 A 
ATOM      7  C   UNL     1      -7.946  -0.660  -2.803  1.00  0.00     0.098 A 
ATOM      8  C   UNL     1      -7.372   0.604  -2.990  1.00  0.00     0.161 A 
ATOM      9  C   UNL     1      -7.051   1.040  -4.300  1.00  0.00     0.158 A 
ATOM     10  C   UNL     1      -7.311   0.202  -5.391  1.00  0.00     0.062 A 
ATOM     11  C   UNL     1      -7.884  -1.061  -5.196  1.00  0.00     0.022 A 
ENDROOT
BRANCH   9  12
ATOM     12  O   UNL     1      -6.477   2.287  -4.559  1.00  0.00    -0.504 OA
ATOM     13  H   UNL     1      -5.800   2.734  -3.957  1.00  0.00     0.293 HD
ENDBRANCH   9  12
BRANCH   8  14
ATOM     14  O   UNL     1      -7.141   1.387  -1.858  1.00  0.00    -0.504 OA
ATOM     15  H   UNL     1      -7.644   2.236  -1.644  1.00  0.00     0.293 HD
ENDBRANCH   8  14
TORSDOF 2
ENDMDL
MODEL 3
REMARK VINA RESULT:    -5.722     11.623     12.845
REMARK INTER + INTRA:          -6.056
REMARK INTER:                  -6.056
REMARK INTRA:                   0.000
REMARK UNBOUND:                 0.000
REMARK SMILES O=c1ccc2cc(O)c(O)cc2o1
REMARK SMILES IDX 4 1 3 2 2 3 1 4 13 5 12 6 11 7 9 8 7 9 6 10 5 11 8 12 10 14
REMARK H PARENT 8 13 10 15
REMARK Flexibility Score: inf
ROOT
ATOM      1  C   UNL     1      -2.545  -6.613   7.123  1.00  0.00     0.019 A 
ATOM      2  C   UNL     1      -3.628  -6.775   7.984  1.00  0.00     0.094 A 
ATOM      3  C   UNL     1      -4.866  -7.150   7.454  1.00  0.00     0.336 A 
ATOM      4  O   UNL     1      -5.857  -7.302   8.215  1.00  0.00    -0.246 OA
ATOM      5  O   UNL     1      -5.006  -7.348   6.145  1.00  0.00    -0.423 OA
ATOM      6  C   UNL     1      -3.997  -7.204   5.288  1.00  0.00     0.142 A 
ATOM      7  C   UNL     1      -4.202  -7.425   3.924  1.00  0.00     0.098 A 
ATOM      8  C   UNL     1      -3.151  -7.276   3.011  1.00  0.00     0.161 A 
ATOM      9  C   UNL     1      -1.867  -6.898   3.476  1.00  0.00     0.158 A 
ATOM     10  C   UNL     1      -1.664  -6.677   4.844  1.00  0.00     0.062 A 
ATOM     11  C   UNL     1      -2.721  -6.827   5.752  1.00  0.00     0.022 A 
ENDROOT
BRANCH   9  12
ATOM     12  O   UNL     1      -0.775  -6.732   2.621  1.00  0.00    -0.504 OA
ATOM     13  H   UNL     1      -0.852  -6.614   1.622  1.00  0.00     0.293 HD
ENDBRANCH   9  12
BRANCH   8  14
ATOM     14  O   UNL     1      -3.424  -7.512   1.662  1.00  0.00    -0.504 OA
ATOM     15  H   UNL     1      -4.247  -7.992   1.327  1.00  0.00     0.293 HD
ENDBRANCH   8  14
TORSDOF 2
ENDMDL
MODEL 4
REMARK VINA RESULT:    -5.436     11.938     13.262
REMARK INTER + INTRA:          -5.754
REMARK INTER:                  -5.754
REMARK INTRA:                   0.000
REMARK UNBOUND:                 0.000
REMARK SMILES O=c1ccc2cc(O)c(O)cc2o1
REMARK SMILES IDX 4 1 3 2 2 3 1 4 13 5 12 6 11 7 9 8 7 9 6 10 5 11 8 12 10 14
REMARK H PARENT 8 13 10 15
REMARK Flexibility Score: inf
ROOT
ATOM      1  C   UNL     1      -4.632  -7.503   6.494  1.00  0.00     0.019 A 
ATOM      2  C   UNL     1      -4.274  -7.291   7.824  1.00  0.00     0.094 A 
ATOM      3  C   UNL     1      -2.966  -6.895   8.120  1.00  0.00     0.336 A 
ATOM      4  O   UNL     1      -2.624  -6.698   9.316  1.00  0.00    -0.246 OA
ATOM      5  O   UNL     1      -2.077  -6.723   7.145  1.00  0.00    -0.423 OA
ATOM      6  C   UNL     1      -2.378  -6.914   5.862  1.00  0.00     0.142 A 
ATOM      7  C   UNL     1      -1.403  -6.719   4.880  1.00  0.00     0.098 A 
ATOM      8  C   UNL     1      -1.704  -6.917   3.527  1.00  0.00     0.161 A 
ATOM      9  C   UNL     1      -3.010  -7.319   3.150  1.00  0.00     0.158 A 
ATOM     10  C   UNL     1      -3.984  -7.514   4.137  1.00  0.00     0.062 A 
ATOM     11  C   UNL     1      -3.676  -7.315   5.489  1.00  0.00     0.022 A 
ENDROOT
BRANCH   9  12
ATOM     12  O   UNL     1      -3.378  -7.534   1.821  1.00  0.00    -0.504 OA
ATOM     13  H   UNL     1      -4.170  -8.091   1.536  1.00  0.00     0.293 HD
ENDBRANCH   9  12
BRANCH   8  14
ATOM     14  O   UNL     1      -0.684  -6.705   2.597  1.00  0.00    -0.504 OA
ATOM     15  H   UNL     1      -0.691  -5.965   1.909  1.00  0.00     0.293 HD
ENDBRANCH   8  14
TORSDOF 2
ENDMDL
MODEL 5
REMARK VINA RESULT:    -5.393      1.086      5.044
REMARK INTER + INTRA:          -5.708
REMARK INTER:                  -5.708
REMARK INTRA:                   0.000
REMARK UNBOUND:                 0.000
REMARK SMILES O=c1ccc2cc(O)c(O)cc2o1
REMARK SMILES IDX 4 1 3 2 2 3 1 4 13 5 12 6 11 7 9 8 7 9 6 10 5 11 8 12 10 14
REMARK H PARENT 8 13 10 15
REMARK Flexibility Score: inf
ROOT
ATOM      1  C   UNL     1      -7.273   0.357  -5.246  1.00  0.00     0.019 A 
ATOM      2  C   UNL     1      -7.009   1.192  -4.162  1.00  0.00     0.094 A 
ATOM      3  C   UNL     1      -7.321   0.749  -2.873  1.00  0.00     0.336 A 
ATOM      4  O   UNL     1      -7.090   1.489  -1.881  1.00  0.00    -0.246 OA
ATOM      5  O   UNL     1      -7.862  -0.452  -2.686  1.00  0.00    -0.423 OA
ATOM      6  C   UNL     1      -8.130  -1.281  -3.695  1.00  0.00     0.142 A 
ATOM      7  C   UNL     1      -8.698  -2.531  -3.439  1.00  0.00     0.098 A 
ATOM      8  C   UNL     1      -8.986  -3.412  -4.488  1.00  0.00     0.161 A 
ATOM      9  C   UNL     1      -8.697  -3.032  -5.822  1.00  0.00     0.158 A 
ATOM     10  C   UNL     1      -8.127  -1.778  -6.075  1.00  0.00     0.062 A 
ATOM     11  C   UNL     1      -7.842  -0.901  -5.020  1.00  0.00     0.022 A 
ENDROOT
BRANCH   9  12
ATOM     12  O   UNL     1      -8.957  -3.861  -6.915  1.00  0.00    -0.504 OA
ATOM     13  H   UNL     1      -9.531  -3.595  -7.702  1.00  0.00     0.293 HD
ENDBRANCH   9  12
BRANCH   8  14
ATOM     14  O   UNL     1      -9.554  -4.646  -4.163  1.00  0.00    -0.504 OA
ATOM     15  H   UNL     1     -10.418  -4.754  -3.651  1.00  0.00     0.293 HD
ENDBRANCH   8  14
TORSDOF 2
ENDMDL
MODEL 6
REMARK VINA RESULT:    -5.206      1.187      4.494
REMARK INTER + INTRA:          -5.510
REMARK INTER:                  -5.510
REMARK INTRA:                   0.000
REMARK UNBOUND:                 0.000
REMARK SMILES O=c1ccc2cc(O)c(O)cc2o1
REMARK SMILES IDX 4 1 3 2 2 3 1 4 13 5 12 6 11 7 9 8 7 9 6 10 5 11 8 12 10 14
REMARK H PARENT 8 13 10 15
REMARK Flexibility Score: inf
ROOT
ATOM      1  C   UNL     1      -7.902   0.324  -2.427  1.00  0.00     0.019 A 
ATOM      2  C   UNL     1      -7.418   1.603  -2.695  1.00  0.00     0.094 A 
ATOM      3  C   UNL     1      -7.080   1.939  -4.009  1.00  0.00     0.336 A 
ATOM      4  O   UNL     1      -6.642   3.089  -4.272  1.00  0.00    -0.246 OA
ATOM      5  O   UNL     1      -7.218   1.049  -4.989  1.00  0.00    -0.423 OA
ATOM      6  C   UNL     1      -7.677  -0.184  -4.776  1.00  0.00     0.142 A 
ATOM      7  C   UNL     1      -7.801  -1.077  -5.843  1.00  0.00     0.098 A 
ATOM      8  C   UNL     1      -8.281  -2.376  -5.635  1.00  0.00     0.161 A 
ATOM      9  C   UNL     1      -8.644  -2.787  -4.328  1.00  0.00     0.158 A 
ATOM     10  C   UNL     1      -8.518  -1.890  -3.261  1.00  0.00     0.062 A 
ATOM     11  C   UNL     1      -8.037  -0.592  -3.476  1.00  0.00     0.022 A 
ENDROOT
BRANCH   9  12
ATOM     12  O   UNL     1      -9.129  -4.067  -4.049  1.00  0.00    -0.504 OA
ATOM     13  H   UNL     1      -9.622  -4.313  -3.203  1.00  0.00     0.293 HD
ENDBRANCH   9  12
BRANCH   8  14
ATOM     14  O   UNL     1      -8.380  -3.217  -6.744  1.00  0.00    -0.504 OA
ATOM     15  H   UNL     1      -9.064  -3.106  -7.479  1.00  0.00     0.293 HD
ENDBRANCH   8  14
TORSDOF 2
ENDMDL
MODEL 7
REMARK VINA RESULT:    -5.122     11.263     12.433
REMARK INTER + INTRA:          -5.422
REMARK INTER:                  -5.422
REMARK INTRA:                   0.000
REMARK UNBOUND:                 0.000
REMARK SMILES O=c1ccc2cc(O)c(O)cc2o1
REMARK SMILES IDX 4 1 3 2 2 3 1 4 13 5 12 6 11 7 9 8 7 9 6 10 5 11 8 12 10 14
REMARK H PARENT 8 13 10 15
REMARK Flexibility Score: inf
ROOT
ATOM      1  C   UNL     1      -2.105  -7.195   5.721  1.00  0.00     0.019 A 
ATOM      2  C   UNL     1      -1.203  -6.924   4.694  1.00  0.00     0.094 A 
ATOM      3  C   UNL     1      -1.667  -6.888   3.376  1.00  0.00     0.336 A 
ATOM      4  O   UNL     1      -0.869  -6.644   2.433  1.00  0.00    -0.246 OA
ATOM      5  O   UNL     1      -2.952  -7.111   3.108  1.00  0.00    -0.423 OA
ATOM      6  C   UNL     1      -3.846  -7.373   4.060  1.00  0.00     0.142 A 
ATOM      7  C   UNL     1      -5.182  -7.599   3.719  1.00  0.00     0.098 A 
ATOM      8  C   UNL     1      -6.133  -7.876   4.709  1.00  0.00     0.161 A 
ATOM      9  C   UNL     1      -5.735  -7.929   6.068  1.00  0.00     0.158 A 
ATOM     10  C   UNL     1      -4.396  -7.702   6.405  1.00  0.00     0.062 A 
ATOM     11  C   UNL     1      -3.449  -7.425   5.410  1.00  0.00     0.022 A 
ENDROOT
BRANCH   9  12
ATOM     12  O   UNL     1      -6.631  -8.200   7.105  1.00  0.00    -0.504 OA
ATOM     13  H   UNL     1      -6.547  -7.824   8.038  1.00  0.00     0.293 HD
ENDBRANCH   9  12
BRANCH   8  14
ATOM     14  O   UNL     1      -7.451  -8.092   4.301  1.00  0.00    -0.504 OA
ATOM     15  H   UNL     1      -7.748  -8.879   3.741  1.00  0.00     0.293 HD
ENDBRANCH   8  14
TORSDOF 2
ENDMDL
MODEL 8
REMARK VINA RESULT:    -5.102     11.763     13.760
REMARK INTER + INTRA:          -5.400
REMARK INTER:                  -5.400
REMARK INTRA:                   0.000
REMARK UNBOUND:                 0.000
REMARK SMILES O=c1ccc2cc(O)c(O)cc2o1
REMARK SMILES IDX 4 1 3 2 2 3 1 4 13 5 12 6 11 7 9 8 7 9 6 10 5 11 8 12 10 14
REMARK H PARENT 8 13 10 15
REMARK Flexibility Score: inf
ROOT
ATOM      1  C   UNL     1      -3.830   7.738   4.565  1.00  0.00     0.019 A 
ATOM      2  C   UNL     1      -4.898   6.849   4.459  1.00  0.00     0.094 A 
ATOM      3  C   UNL     1      -4.691   5.500   4.766  1.00  0.00     0.336 A 
ATOM      4  O   UNL     1      -5.643   4.682   4.677  1.00  0.00    -0.246 OA
ATOM      5  O   UNL     1      -3.491   5.074   5.152  1.00  0.00    -0.423 OA
ATOM      6  C   UNL     1      -2.445   5.890   5.267  1.00  0.00     0.142 A 
ATOM      7  C   UNL     1      -1.208   5.386   5.677  1.00  0.00     0.098 A 
ATOM      8  C   UNL     1      -0.099   6.231   5.801  1.00  0.00     0.161 A 
ATOM      9  C   UNL     1      -0.233   7.611   5.508  1.00  0.00     0.158 A 
ATOM     10  C   UNL     1      -1.474   8.113   5.097  1.00  0.00     0.062 A 
ATOM     11  C   UNL     1      -2.580   7.261   4.974  1.00  0.00     0.022 A 
ENDROOT
BRANCH   9  12
ATOM     12  O   UNL     1       0.831   8.510   5.610  1.00  0.00    -0.504 OA
ATOM     13  H   UNL     1       1.253   8.979   4.822  1.00  0.00     0.293 HD
ENDBRANCH   9  12
BRANCH   8  14
ATOM     14  O   UNL     1       1.108   5.663   6.216  1.00  0.00    -0.504 OA
ATOM     15  H   UNL     1       1.914   6.198   6.507  1.00  0.00     0.293 HD
ENDBRANCH   8  14
TORSDOF 2
ENDMDL
MODEL 9
REMARK VINA RESULT:    -4.994      2.833      5.469
REMARK INTER + INTRA:          -5.286
REMARK INTER:                  -5.286
REMARK INTRA:                   0.000
REMARK UNBOUND:                 0.000
REMARK SMILES O=c1ccc2cc(O)c(O)cc2o1
REMARK SMILES IDX 4 1 3 2 2 3 1 4 13 5 12 6 11 7 9 8 7 9 6 10 5 11 8 12 10 14
REMARK H PARENT 8 13 10 15
REMARK Flexibility Score: inf
ROOT
ATOM      1  C   UNL     1      -9.829   2.743  -5.487  1.00  0.00     0.019 A 
ATOM      2  C   UNL     1     -10.042   4.024  -4.981  1.00  0.00     0.094 A 
ATOM      3  C   UNL     1      -9.670   4.303  -3.663  1.00  0.00     0.336 A 
ATOM      4  O   UNL     1      -9.854   5.454  -3.187  1.00  0.00    -0.246 OA
ATOM      5  O   UNL     1      -9.119   3.359  -2.903  1.00  0.00    -0.423 OA
ATOM      6  C   UNL     1      -8.898   2.123  -3.349  1.00  0.00     0.142 A 
ATOM      7  C   UNL     1      -8.317   1.172  -2.506  1.00  0.00     0.098 A 
ATOM      8  C   UNL     1      -8.078  -0.132  -2.959  1.00  0.00     0.161 A 
ATOM      9  C   UNL     1      -8.430  -0.488  -4.285  1.00  0.00     0.158 A 
ATOM     10  C   UNL     1      -9.012   0.468  -5.127  1.00  0.00     0.062 A 
ATOM     11  C   UNL     1      -9.248   1.770  -4.667  1.00  0.00     0.022 A 
ENDROOT
BRANCH   9  12
ATOM     12  O   UNL     1      -8.220  -1.769  -4.802  1.00  0.00    -0.504 OA
ATOM     13  H   UNL     1      -8.956  -2.366  -5.148  1.00  0.00     0.293 HD
ENDBRANCH   9  12
BRANCH   8  14
ATOM     14  O   UNL     1      -7.495  -1.033  -2.067  1.00  0.00    -0.504 OA
ATOM     15  H   UNL     1      -6.561  -1.405  -2.168  1.00  0.00     0.293 HD
ENDBRANCH   8  14
TORSDOF 2
ENDMDL
