MODEL 1
REMARK VINA RESULT:    -4.620      0.000      0.000
REMARK INTER + INTRA:          -8.471
REMARK INTER:                  -7.320
REMARK INTRA:                  -1.151
REMARK UNBOUND:                -1.151
REMARK SMILES CCCCCCCCCCCC(=O)[O-]
REMARK SMILES IDX 7 1 8 2 9 3 10 4 11 5 12 6 13 7 14 8 6 9 5 10 4 11 3 12 2 13
REMARK SMILES IDX 1 14
REMARK H PARENT
REMARK Flexibility Score: inf
ROOT
ATOM      1  C   UNL     1       9.473  34.172  45.187  1.00  0.00     0.000 C 
ENDROOT
BRANCH   1   2
ATOM      2  C   UNL     1       9.088  32.683  45.124  1.00  0.00     0.000 C 
BRANCH   2   3
ATOM      3  C   UNL     1       7.661  32.357  45.607  1.00  0.00     0.000 C 
BRANCH   3   4
ATOM      4  C   UNL     1       6.744  31.861  44.479  1.00  0.00     0.006 C 
BRANCH   4   5
ATOM      5  C   UNL     1       7.297  30.580  43.847  1.00  0.00     0.053 C 
BRANCH   5   6
ATOM      6  C   UNL     1       6.641  29.376  44.444  1.00  0.00     0.041 C 
ATOM      7  O   UNL     1       7.180  28.243  44.337  1.00  0.00    -0.550 OA
ATOM      8  O   UNL     1       5.410  29.497  45.077  1.00  0.00    -0.550 OA
ENDBRANCH   5   6
ENDBRANCH   4   5
ENDBRANCH   3   4
ENDBRANCH   2   3
ENDBRANCH   1   2
BRANCH   1   9
ATOM      9  C   UNL     1      10.576  34.548  44.183  1.00  0.00     0.000 C 
BRANCH   9  10
ATOM     10  C   UNL     1      10.776  33.478  43.098  1.00  0.00    -0.000 C 
BRANCH  10  11
ATOM     11  C   UNL     1      10.449  34.001  41.688  1.00  0.00    -0.000 C 
BRANCH  11  12
ATOM     12  C   UNL     1      10.074  32.874  40.713  1.00  0.00    -0.000 C 
BRANCH  12  13
ATOM     13  C   UNL     1       8.665  32.316  40.963  1.00  0.00    -0.003 C 
ATOM     14  C   UNL     1       7.655  33.443  41.161  1.00  0.00     0.004 C 
ENDBRANCH  12  13
ENDBRANCH  11  12
ENDBRANCH  10  11
ENDBRANCH   9  10
ENDBRANCH   1   9
TORSDOF 10
ENDMDL
MODEL 2
REMARK VINA RESULT:    -4.535     10.149     11.980
REMARK INTER + INTRA:          -8.337
REMARK INTER:                  -7.920
REMARK INTRA:                  -0.417
REMARK UNBOUND:                -1.151
REMARK SMILES CCCCCCCCCCCC(=O)[O-]
REMARK SMILES IDX 7 1 8 2 9 3 10 4 11 5 12 6 13 7 14 8 6 9 5 10 4 11 3 12 2 13
REMARK SMILES IDX 1 14
REMARK H PARENT
REMARK Flexibility Score: inf
ROOT
ATOM      1  C   UNL     1       5.170  41.995  47.471  1.00  0.00     0.000 C 
ENDROOT
BRANCH   1   2
ATOM      2  C   UNL     1       5.853  41.738  46.116  1.00  0.00     0.000 C 
BRANCH   2   3
ATOM      3  C   UNL     1       5.426  42.686  44.979  1.00  0.00     0.000 C 
BRANCH   3   4
ATOM      4  C   UNL     1       6.506  42.855  43.900  1.00  0.00     0.006 C 
BRANCH   4   5
ATOM      5  C   UNL     1       6.867  44.332  43.713  1.00  0.00     0.053 C 
BRANCH   5   6
ATOM      6  C   UNL     1       7.472  44.557  42.364  1.00  0.00     0.041 C 
ATOM      7  O   UNL     1       7.496  43.625  41.517  1.00  0.00    -0.550 OA
ATOM      8  O   UNL     1       8.053  45.781  42.058  1.00  0.00    -0.550 OA
ENDBRANCH   5   6
ENDBRANCH   4   5
ENDBRANCH   3   4
ENDBRANCH   2   3
ENDBRANCH   1   2
BRANCH   1   9
ATOM      9  C   UNL     1       5.981  41.458  48.663  1.00  0.00     0.000 C 
BRANCH   9  10
ATOM     10  C   UNL     1       6.999  40.384  48.247  1.00  0.00    -0.000 C 
BRANCH  10  11
ATOM     11  C   UNL     1       8.393  40.628  48.850  1.00  0.00    -0.000 C 
BRANCH  11  12
ATOM     12  C   UNL     1       9.484  39.780  48.178  1.00  0.00    -0.000 C 
BRANCH  12  13
ATOM     13  C   UNL     1      10.903  40.251  48.531  1.00  0.00    -0.003 C 
ATOM     14  C   UNL     1      11.009  40.614  50.010  1.00  0.00     0.004 C 
ENDBRANCH  12  13
ENDBRANCH  11  12
ENDBRANCH  10  11
ENDBRANCH   9  10
ENDBRANCH   1   9
TORSDOF 10
ENDMDL
MODEL 3
REMARK VINA RESULT:    -4.530     10.762     11.937
REMARK INTER + INTRA:          -8.329
REMARK INTER:                  -7.952
REMARK INTRA:                  -0.376
REMARK UNBOUND:                -1.151
REMARK SMILES CCCCCCCCCCCC(=O)[O-]
REMARK SMILES IDX 7 1 8 2 9 3 10 4 11 5 12 6 13 7 14 8 6 9 5 10 4 11 3 12 2 13
REMARK SMILES IDX 1 14
REMARK H PARENT
REMARK Flexibility Score: inf
ROOT
ATOM      1  C   UNL     1       6.435  43.563  43.617  1.00  0.00     0.000 C 
ENDROOT
BRANCH   1   2
ATOM      2  C   UNL     1       5.539  42.538  44.336  1.00  0.00     0.000 C 
BRANCH   2   3
ATOM      3  C   UNL     1       5.961  42.203  45.780  1.00  0.00     0.000 C 
BRANCH   3   4
ATOM      4  C   UNL     1       4.772  42.132  46.750  1.00  0.00     0.006 C 
BRANCH   4   5
ATOM      5  C   UNL     1       5.253  42.123  48.205  1.00  0.00     0.053 C 
BRANCH   5   6
ATOM      6  C   UNL     1       6.159  40.958  48.450  1.00  0.00     0.041 C 
ATOM      7  O   UNL     1       5.758  39.786  48.228  1.00  0.00    -0.550 OA
ATOM      8  O   UNL     1       7.430  41.165  48.971  1.00  0.00    -0.550 OA
ENDBRANCH   5   6
ENDBRANCH   4   5
ENDBRANCH   3   4
ENDBRANCH   2   3
ENDBRANCH   1   2
BRANCH   1   9
ATOM      9  C   UNL     1       7.306  42.931  42.518  1.00  0.00     0.000 C 
BRANCH   9  10
ATOM     10  C   UNL     1       7.813  43.965  41.499  1.00  0.00    -0.000 C 
BRANCH  10  11
ATOM     11  C   UNL     1       8.002  45.360  42.121  1.00  0.00    -0.000 C 
BRANCH  11  12
ATOM     12  C   UNL     1       9.086  46.182  41.408  1.00  0.00    -0.000 C 
BRANCH  12  13
ATOM     13  C   UNL     1       8.502  47.245  40.465  1.00  0.00    -0.003 C 
ATOM     14  C   UNL     1       7.488  48.125  41.191  1.00  0.00     0.004 C 
ENDBRANCH  12  13
ENDBRANCH  11  12
ENDBRANCH  10  11
ENDBRANCH   9  10
ENDBRANCH   1   9
TORSDOF 10
ENDMDL
MODEL 4
REMARK VINA RESULT:    -4.495     10.047     11.277
REMARK INTER + INTRA:          -8.274
REMARK INTER:                  -7.971
REMARK INTRA:                  -0.303
REMARK UNBOUND:                -1.151
REMARK SMILES CCCCCCCCCCCC(=O)[O-]
REMARK SMILES IDX 7 1 8 2 9 3 10 4 11 5 12 6 13 7 14 8 6 9 5 10 4 11 3 12 2 13
REMARK SMILES IDX 1 14
REMARK H PARENT
REMARK Flexibility Score: inf
ROOT
ATOM      1  C   UNL     1       5.921  41.923  45.411  1.00  0.00     0.000 C 
ENDROOT
BRANCH   1   2
ATOM      2  C   UNL     1       4.981  42.126  46.613  1.00  0.00     0.000 C 
BRANCH   2   3
ATOM      3  C   UNL     1       5.594  41.783  47.985  1.00  0.00     0.000 C 
BRANCH   3   4
ATOM      4  C   UNL     1       6.535  40.571  47.936  1.00  0.00     0.006 C 
BRANCH   4   5
ATOM      5  C   UNL     1       7.812  40.835  48.739  1.00  0.00     0.053 C 
BRANCH   5   6
ATOM      6  C   UNL     1       8.878  39.854  48.367  1.00  0.00     0.041 C 
ATOM      7  O   UNL     1       9.985  40.258  47.923  1.00  0.00    -0.550 OA
ATOM      8  O   UNL     1       8.631  38.490  48.463  1.00  0.00    -0.550 OA
ENDBRANCH   5   6
ENDBRANCH   4   5
ENDBRANCH   3   4
ENDBRANCH   2   3
ENDBRANCH   1   2
BRANCH   1   9
ATOM      9  C   UNL     1       5.596  42.856  44.232  1.00  0.00     0.000 C 
BRANCH   9  10
ATOM     10  C   UNL     1       6.842  43.220  43.407  1.00  0.00    -0.000 C 
BRANCH  10  11
ATOM     11  C   UNL     1       7.042  44.740  43.284  1.00  0.00    -0.000 C 
BRANCH  11  12
ATOM     12  C   UNL     1       7.560  45.157  41.898  1.00  0.00    -0.000 C 
BRANCH  12  13
ATOM     13  C   UNL     1       7.340  46.649  41.607  1.00  0.00    -0.003 C 
ATOM     14  C   UNL     1       7.915  47.033  40.246  1.00  0.00     0.004 C 
ENDBRANCH  12  13
ENDBRANCH  11  12
ENDBRANCH  10  11
ENDBRANCH   9  10
ENDBRANCH   1   9
TORSDOF 10
ENDMDL
MODEL 5
REMARK VINA RESULT:    -4.370     10.406     12.347
REMARK INTER + INTRA:          -8.075
REMARK INTER:                  -7.646
REMARK INTRA:                  -0.428
REMARK UNBOUND:                -1.151
REMARK SMILES CCCCCCCCCCCC(=O)[O-]
REMARK SMILES IDX 7 1 8 2 9 3 10 4 11 5 12 6 13 7 14 8 6 9 5 10 4 11 3 12 2 13
REMARK SMILES IDX 1 14
REMARK H PARENT
REMARK Flexibility Score: inf
ROOT
ATOM      1  C   UNL     1       5.077  42.527  45.368  1.00  0.00     0.000 C 
ENDROOT
BRANCH   1   2
ATOM      2  C   UNL     1       5.963  43.241  44.331  1.00  0.00     0.000 C 
BRANCH   2   3
ATOM      3  C   UNL     1       6.630  42.315  43.294  1.00  0.00     0.000 C 
BRANCH   3   4
ATOM      4  C   UNL     1       7.550  43.068  42.323  1.00  0.00     0.006 C 
BRANCH   4   5
ATOM      5  C   UNL     1       7.571  44.567  42.637  1.00  0.00     0.053 C 
BRANCH   5   6
ATOM      6  C   UNL     1       7.739  45.363  41.382  1.00  0.00     0.041 C 
ATOM      7  O   UNL     1       8.553  44.988  40.498  1.00  0.00    -0.550 OA
ATOM      8  O   UNL     1       7.032  46.547  41.211  1.00  0.00    -0.550 OA
ENDBRANCH   5   6
ENDBRANCH   4   5
ENDBRANCH   3   4
ENDBRANCH   2   3
ENDBRANCH   1   2
BRANCH   1   9
ATOM      9  C   UNL     1       5.885  41.687  46.371  1.00  0.00     0.000 C 
BRANCH   9  10
ATOM     10  C   UNL     1       5.379  41.844  47.814  1.00  0.00    -0.000 C 
BRANCH  10  11
ATOM     11  C   UNL     1       6.389  41.325  48.852  1.00  0.00    -0.000 C 
BRANCH  11  12
ATOM     12  C   UNL     1       7.554  40.556  48.209  1.00  0.00    -0.000 C 
BRANCH  12  13
ATOM     13  C   UNL     1       7.384  39.032  48.303  1.00  0.00    -0.003 C 
ATOM     14  C   UNL     1       8.735  38.325  48.253  1.00  0.00     0.004 C 
ENDBRANCH  12  13
ENDBRANCH  11  12
ENDBRANCH  10  11
ENDBRANCH   9  10
ENDBRANCH   1   9
TORSDOF 10
ENDMDL
MODEL 6
REMARK VINA RESULT:    -4.361      9.659     10.860
REMARK INTER + INTRA:          -8.061
REMARK INTER:                  -7.136
REMARK INTRA:                  -0.925
REMARK UNBOUND:                -1.151
REMARK SMILES CCCCCCCCCCCC(=O)[O-]
REMARK SMILES IDX 7 1 8 2 9 3 10 4 11 5 12 6 13 7 14 8 6 9 5 10 4 11 3 12 2 13
REMARK SMILES IDX 1 14
REMARK H PARENT
REMARK Flexibility Score: inf
ROOT
ATOM      1  C   UNL     1       6.959  44.140  43.930  1.00  0.00     0.000 C 
ENDROOT
BRANCH   1   2
ATOM      2  C   UNL     1       5.992  42.991  43.590  1.00  0.00     0.000 C 
BRANCH   2   3
ATOM      3  C   UNL     1       5.112  42.511  44.760  1.00  0.00     0.000 C 
BRANCH   3   4
ATOM      4  C   UNL     1       5.928  42.062  45.980  1.00  0.00     0.006 C 
BRANCH   4   5
ATOM      5  C   UNL     1       5.057  42.024  47.239  1.00  0.00     0.053 C 
BRANCH   5   6
ATOM      6  C   UNL     1       5.823  41.453  48.390  1.00  0.00     0.041 C 
ATOM      7  O   UNL     1       6.515  40.413  48.237  1.00  0.00    -0.550 OA
ATOM      8  O   UNL     1       5.734  42.043  49.645  1.00  0.00    -0.550 OA
ENDBRANCH   5   6
ENDBRANCH   4   5
ENDBRANCH   3   4
ENDBRANCH   2   3
ENDBRANCH   1   2
BRANCH   1   9
ATOM      9  C   UNL     1       7.509  44.849  42.681  1.00  0.00     0.000 C 
BRANCH   9  10
ATOM     10  C   UNL     1       8.948  44.421  42.347  1.00  0.00    -0.000 C 
BRANCH  10  11
ATOM     11  C   UNL     1       9.021  43.528  41.096  1.00  0.00    -0.000 C 
BRANCH  11  12
ATOM     12  C   UNL     1       9.681  42.169  41.379  1.00  0.00    -0.000 C 
BRANCH  12  13
ATOM     13  C   UNL     1       8.666  41.084  41.766  1.00  0.00    -0.003 C 
ATOM     14  C   UNL     1       8.862  40.641  43.214  1.00  0.00     0.004 C 
ENDBRANCH  12  13
ENDBRANCH  11  12
ENDBRANCH  10  11
ENDBRANCH   9  10
ENDBRANCH   1   9
TORSDOF 10
ENDMDL
MODEL 7
REMARK VINA RESULT:    -4.348      8.792     10.071
REMARK INTER + INTRA:          -8.041
REMARK INTER:                  -7.267
REMARK INTRA:                  -0.774
REMARK UNBOUND:                -1.151
REMARK SMILES CCCCCCCCCCCC(=O)[O-]
REMARK SMILES IDX 7 1 8 2 9 3 10 4 11 5 12 6 13 7 14 8 6 9 5 10 4 11 3 12 2 13
REMARK SMILES IDX 1 14
REMARK H PARENT
REMARK Flexibility Score: inf
ROOT
ATOM      1  C   UNL     1       6.027  42.110  45.467  1.00  0.00     0.000 C 
ENDROOT
BRANCH   1   2
ATOM      2  C   UNL     1       4.906  42.182  46.520  1.00  0.00     0.000 C 
BRANCH   2   3
ATOM      3  C   UNL     1       5.383  42.135  47.985  1.00  0.00     0.000 C 
BRANCH   3   4
ATOM      4  C   UNL     1       5.905  40.753  48.402  1.00  0.00     0.006 C 
BRANCH   4   5
ATOM      5  C   UNL     1       7.421  40.782  48.621  1.00  0.00     0.053 C 
BRANCH   5   6
ATOM      6  C   UNL     1       8.077  39.649  47.898  1.00  0.00     0.041 C 
ATOM      7  O   UNL     1       8.278  38.554  48.486  1.00  0.00    -0.550 OA
ATOM      8  O   UNL     1       8.512  39.818  46.589  1.00  0.00    -0.550 OA
ENDBRANCH   5   6
ENDBRANCH   4   5
ENDBRANCH   3   4
ENDBRANCH   2   3
ENDBRANCH   1   2
BRANCH   1   9
ATOM      9  C   UNL     1       5.656  42.809  44.148  1.00  0.00     0.000 C 
BRANCH   9  10
ATOM     10  C   UNL     1       6.678  43.884  43.743  1.00  0.00    -0.000 C 
BRANCH  10  11
ATOM     11  C   UNL     1       7.756  43.341  42.789  1.00  0.00    -0.000 C 
BRANCH  11  12
ATOM     12  C   UNL     1       7.281  42.108  42.003  1.00  0.00    -0.000 C 
BRANCH  12  13
ATOM     13  C   UNL     1       8.385  41.054  41.829  1.00  0.00    -0.003 C 
ATOM     14  C   UNL     1       9.028  40.707  43.169  1.00  0.00     0.004 C 
ENDBRANCH  12  13
ENDBRANCH  11  12
ENDBRANCH  10  11
ENDBRANCH   9  10
ENDBRANCH   1   9
TORSDOF 10
ENDMDL
MODEL 8
REMARK VINA RESULT:    -4.296      9.235     10.755
REMARK INTER + INTRA:          -7.958
REMARK INTER:                  -7.231
REMARK INTRA:                  -0.727
REMARK UNBOUND:                -1.151
REMARK SMILES CCCCCCCCCCCC(=O)[O-]
REMARK SMILES IDX 7 1 8 2 9 3 10 4 11 5 12 6 13 7 14 8 6 9 5 10 4 11 3 12 2 13
REMARK SMILES IDX 1 14
REMARK H PARENT
REMARK Flexibility Score: inf
ROOT
ATOM      1  C   UNL     1       6.310  40.461  48.339  1.00  0.00     0.000 C 
ENDROOT
BRANCH   1   2
ATOM      2  C   UNL     1       5.638  41.822  48.080  1.00  0.00     0.000 C 
BRANCH   2   3
ATOM      3  C   UNL     1       4.794  41.899  46.793  1.00  0.00     0.000 C 
BRANCH   3   4
ATOM      4  C   UNL     1       5.540  42.563  45.626  1.00  0.00     0.006 C 
BRANCH   4   5
ATOM      5  C   UNL     1       6.222  41.514  44.743  1.00  0.00     0.053 C 
BRANCH   5   6
ATOM      6  C   UNL     1       6.844  42.160  43.546  1.00  0.00     0.041 C 
ATOM      7  O   UNL     1       7.416  41.457  42.672  1.00  0.00    -0.550 OA
ATOM      8  O   UNL     1       6.834  43.544  43.420  1.00  0.00    -0.550 OA
ENDBRANCH   5   6
ENDBRANCH   4   5
ENDBRANCH   3   4
ENDBRANCH   2   3
ENDBRANCH   1   2
BRANCH   1   9
ATOM      9  C   UNL     1       7.839  40.563  48.471  1.00  0.00     0.000 C 
BRANCH   9  10
ATOM     10  C   UNL     1       8.579  39.779  47.375  1.00  0.00    -0.000 C 
BRANCH  10  11
ATOM     11  C   UNL     1       9.957  39.277  47.839  1.00  0.00    -0.000 C 
BRANCH  11  12
ATOM     12  C   UNL     1      11.090  40.255  47.491  1.00  0.00    -0.000 C 
BRANCH  12  13
ATOM     13  C   UNL     1      12.034  40.515  48.675  1.00  0.00    -0.003 C 
ATOM     14  C   UNL     1      11.259  40.601  49.987  1.00  0.00     0.004 C 
ENDBRANCH  12  13
ENDBRANCH  11  12
ENDBRANCH  10  11
ENDBRANCH   9  10
ENDBRANCH   1   9
TORSDOF 10
ENDMDL
MODEL 9
REMARK VINA RESULT:    -4.279     11.702     13.644
REMARK INTER + INTRA:          -7.932
REMARK INTER:                  -7.527
REMARK INTRA:                  -0.405
REMARK UNBOUND:                -1.151
REMARK SMILES CCCCCCCCCCCC(=O)[O-]
REMARK SMILES IDX 7 1 8 2 9 3 10 4 11 5 12 6 13 7 14 8 6 9 5 10 4 11 3 12 2 13
REMARK SMILES IDX 1 14
REMARK H PARENT
REMARK Flexibility Score: inf
ROOT
ATOM      1  C   UNL     1       6.163  43.172  43.551  1.00  0.00     0.000 C 
ENDROOT
BRANCH   1   2
ATOM      2  C   UNL     1       7.088  44.383  43.773  1.00  0.00     0.000 C 
BRANCH   2   3
ATOM      3  C   UNL     1       7.120  45.401  42.617  1.00  0.00     0.000 C 
BRANCH   3   4
ATOM      4  C   UNL     1       7.823  44.862  41.362  1.00  0.00     0.006 C 
BRANCH   4   5
ATOM      5  C   UNL     1       9.009  45.750  40.975  1.00  0.00     0.053 C 
BRANCH   5   6
ATOM      6  C   UNL     1       8.560  46.865  40.085  1.00  0.00     0.041 C 
ATOM      7  O   UNL     1       8.538  46.709  38.836  1.00  0.00    -0.550 OA
ATOM      8  O   UNL     1       8.213  48.095  40.632  1.00  0.00    -0.550 OA
ENDBRANCH   5   6
ENDBRANCH   4   5
ENDBRANCH   3   4
ENDBRANCH   2   3
ENDBRANCH   1   2
BRANCH   1   9
ATOM      9  C   UNL     1       6.133  42.212  44.753  1.00  0.00     0.000 C 
BRANCH   9  10
ATOM     10  C   UNL     1       4.947  42.484  45.693  1.00  0.00    -0.000 C 
BRANCH  10  11
ATOM     11  C   UNL     1       5.283  42.186  47.165  1.00  0.00    -0.000 C 
BRANCH  11  12
ATOM     12  C   UNL     1       6.320  41.061  47.318  1.00  0.00    -0.000 C 
BRANCH  12  13
ATOM     13  C   UNL     1       7.006  41.069  48.692  1.00  0.00    -0.003 C 
ATOM     14  C   UNL     1       8.385  40.419  48.620  1.00  0.00     0.004 C 
ENDBRANCH  12  13
ENDBRANCH  11  12
ENDBRANCH  10  11
ENDBRANCH   9  10
ENDBRANCH   1   9
TORSDOF 10
ENDMDL
