MODEL 1
REMARK VINA RESULT:     9.137      0.000      0.000
REMARK INTER + INTRA:          21.398
REMARK INTER:                  23.024
REMARK INTRA:                  -1.626
REMARK UNBOUND:                -1.626
REMARK SMILES CCCCCCCCCCCCCCCCCCCCCCCCCCCC(=O)[O-]
REMARK SMILES IDX 15 1 16 2 17 3 18 4 19 5 20 6 21 7 22 8 23 9 24 10 25 11
REMARK SMILES IDX 26 12 27 13 28 14 29 15 30 16 14 17 13 18 12 19 11 20 10 21
REMARK SMILES IDX 9 22 8 23 7 24 6 25 5 26 4 27 3 28 2 29 1 30
REMARK H PARENT
REMARK Flexibility Score: inf
ROOT
ATOM      1  C   UNL     1      13.764  16.816  -7.561  1.00  0.00     0.000 C 
ENDROOT
BRANCH   1   2
ATOM      2  C   UNL     1      13.610  17.788  -6.377  1.00  0.00     0.000 C 
BRANCH   2   3
ATOM      3  C   UNL     1      12.458  17.358  -5.453  1.00  0.00     0.000 C 
BRANCH   3   4
ATOM      4  C   UNL     1      11.476  16.382  -6.124  1.00  0.00     0.000 C 
BRANCH   4   5
ATOM      5  C   UNL     1      11.112  15.187  -5.225  1.00  0.00     0.000 C 
BRANCH   5   6
ATOM      6  C   UNL     1      11.160  15.571  -3.739  1.00  0.00     0.000 C 
BRANCH   6   7
ATOM      7  C   UNL     1      11.350  14.350  -2.818  1.00  0.00     0.000 C 
BRANCH   7   8
ATOM      8  C   UNL     1      10.154  14.020  -1.899  1.00  0.00     0.000 C 
BRANCH   8   9
ATOM      9  C   UNL     1      10.516  13.267  -0.604  1.00  0.00     0.000 C 
BRANCH   9  10
ATOM     10  C   UNL     1      12.031  13.214  -0.347  1.00  0.00     0.000 C 
BRANCH  10  11
ATOM     11  C   UNL     1      12.354  13.064   1.149  1.00  0.00     0.000 C 
BRANCH  11  12
ATOM     12  C   UNL     1      11.377  13.870   2.027  1.00  0.00     0.006 C 
BRANCH  12  13
ATOM     13  C   UNL     1      11.769  15.354   2.125  1.00  0.00     0.053 C 
BRANCH  13  14
ATOM     14  C   UNL     1      10.735  16.276   1.540  1.00  0.00     0.041 C 
ATOM     15  O   UNL     1       9.535  15.905   1.410  1.00  0.00    -0.550 OA
ATOM     16  O   UNL     1      11.116  17.526   1.070  1.00  0.00    -0.550 OA
ENDBRANCH  13  14
ENDBRANCH  12  13
ENDBRANCH  11  12
ENDBRANCH  10  11
ENDBRANCH   9  10
ENDBRANCH   8   9
ENDBRANCH   7   8
ENDBRANCH   6   7
ENDBRANCH   5   6
ENDBRANCH   4   5
ENDBRANCH   3   4
ENDBRANCH   2   3
ENDBRANCH   1   2
BRANCH   1  17
ATOM     17  C   UNL     1      14.819  15.732  -7.306  1.00  0.00     0.000 C 
BRANCH  17  18
ATOM     18  C   UNL     1      15.593  15.339  -8.575  1.00  0.00     0.000 C 
BRANCH  18  19
ATOM     19  C   UNL     1      14.655  14.814  -9.669  1.00  0.00     0.000 C 
BRANCH  19  20
ATOM     20  C   UNL     1      14.906  15.478 -11.038  1.00  0.00     0.000 C 
BRANCH  20  21
ATOM     21  C   UNL     1      15.030  14.452 -12.175  1.00  0.00     0.000 C 
BRANCH  21  22
ATOM     22  C   UNL     1      15.730  15.048 -13.411  1.00  0.00    -0.000 C 
BRANCH  22  23
ATOM     23  C   UNL     1      17.171  14.529 -13.531  1.00  0.00    -0.000 C 
BRANCH  23  24
ATOM     24  C   UNL     1      18.212  15.574 -13.077  1.00  0.00    -0.000 C 
BRANCH  24  25
ATOM     25  C   UNL     1      17.587  16.861 -12.503  1.00  0.00    -0.000 C 
BRANCH  25  26
ATOM     26  C   UNL     1      18.073  18.151 -13.199  1.00  0.00    -0.000 C 
BRANCH  26  27
ATOM     27  C   UNL     1      18.828  19.092 -12.242  1.00  0.00    -0.000 C 
BRANCH  27  28
ATOM     28  C   UNL     1      18.347  20.549 -12.367  1.00  0.00    -0.000 C 
BRANCH  28  29
ATOM     29  C   UNL     1      19.499  21.550 -12.190  1.00  0.00    -0.003 C 
ATOM     30  C   UNL     1      20.824  20.972 -12.688  1.00  0.00     0.004 C 
ENDBRANCH  28  29
ENDBRANCH  27  28
ENDBRANCH  26  27
ENDBRANCH  25  26
ENDBRANCH  24  25
ENDBRANCH  23  24
ENDBRANCH  22  23
ENDBRANCH  21  22
ENDBRANCH  20  21
ENDBRANCH  19  20
ENDBRANCH  18  19
ENDBRANCH  17  18
ENDBRANCH   1  17
TORSDOF 26
ENDMDL
MODEL 2
REMARK VINA RESULT:     9.251      1.345      2.111
REMARK INTER + INTRA:          21.685
REMARK INTER:                  22.846
REMARK INTRA:                  -1.161
REMARK UNBOUND:                -1.626
REMARK SMILES CCCCCCCCCCCCCCCCCCCCCCCCCCCC(=O)[O-]
REMARK SMILES IDX 15 1 16 2 17 3 18 4 19 5 20 6 21 7 22 8 23 9 24 10 25 11
REMARK SMILES IDX 26 12 27 13 28 14 29 15 30 16 14 17 13 18 12 19 11 20 10 21
REMARK SMILES IDX 9 22 8 23 7 24 6 25 5 26 4 27 3 28 2 29 1 30
REMARK H PARENT
REMARK Flexibility Score: inf
ROOT
ATOM      1  C   UNL     1      13.462  17.673  -6.362  1.00  0.00     0.000 C 
ENDROOT
BRANCH   1   2
ATOM      2  C   UNL     1      12.600  17.075  -5.234  1.00  0.00     0.000 C 
BRANCH   2   3
ATOM      3  C   UNL     1      11.890  15.794  -5.699  1.00  0.00     0.000 C 
BRANCH   3   4
ATOM      4  C   UNL     1      10.595  15.502  -4.920  1.00  0.00     0.000 C 
BRANCH   4   5
ATOM      5  C   UNL     1      10.628  14.148  -4.190  1.00  0.00     0.000 C 
BRANCH   5   6
ATOM      6  C   UNL     1      11.286  14.274  -2.808  1.00  0.00     0.000 C 
BRANCH   6   7
ATOM      7  C   UNL     1      10.412  13.692  -1.681  1.00  0.00     0.000 C 
BRANCH   7   8
ATOM      8  C   UNL     1       9.477  14.701  -0.980  1.00  0.00     0.000 C 
BRANCH   8   9
ATOM      9  C   UNL     1       9.272  14.459   0.529  1.00  0.00     0.000 C 
BRANCH   9  10
ATOM     10  C   UNL     1       8.791  15.714   1.276  1.00  0.00     0.000 C 
BRANCH  10  11
ATOM     11  C   UNL     1       9.911  16.341   2.124  1.00  0.00     0.000 C 
BRANCH  11  12
ATOM     12  C   UNL     1      11.277  16.256   1.415  1.00  0.00     0.006 C 
BRANCH  12  13
ATOM     13  C   UNL     1      12.243  15.290   2.123  1.00  0.00     0.053 C 
BRANCH  13  14
ATOM     14  C   UNL     1      12.243  13.912   1.521  1.00  0.00     0.041 C 
ATOM     15  O   UNL     1      12.848  13.678   0.438  1.00  0.00    -0.550 OA
ATOM     16  O   UNL     1      11.510  12.899   2.125  1.00  0.00    -0.550 OA
ENDBRANCH  13  14
ENDBRANCH  12  13
ENDBRANCH  11  12
ENDBRANCH  10  11
ENDBRANCH   9  10
ENDBRANCH   8   9
ENDBRANCH   7   8
ENDBRANCH   6   7
ENDBRANCH   5   6
ENDBRANCH   4   5
ENDBRANCH   3   4
ENDBRANCH   2   3
ENDBRANCH   1   2
BRANCH   1  17
ATOM     17  C   UNL     1      13.586  16.739  -7.573  1.00  0.00     0.000 C 
BRANCH  17  18
ATOM     18  C   UNL     1      14.884  15.915  -7.563  1.00  0.00     0.000 C 
BRANCH  18  19
ATOM     19  C   UNL     1      14.937  14.933  -8.741  1.00  0.00     0.000 C 
BRANCH  19  20
ATOM     20  C   UNL     1      14.450  15.562 -10.062  1.00  0.00     0.000 C 
BRANCH  20  21
ATOM     21  C   UNL     1      14.816  14.709 -11.288  1.00  0.00     0.000 C 
BRANCH  21  22
ATOM     22  C   UNL     1      15.346  15.573 -12.447  1.00  0.00    -0.000 C 
BRANCH  22  23
ATOM     23  C   UNL     1      16.431  14.825 -13.238  1.00  0.00    -0.000 C 
BRANCH  23  24
ATOM     24  C   UNL     1      17.772  15.588 -13.263  1.00  0.00    -0.000 C 
BRANCH  24  25
ATOM     25  C   UNL     1      17.817  16.792 -12.300  1.00  0.00    -0.000 C 
BRANCH  25  26
ATOM     26  C   UNL     1      18.579  18.010 -12.863  1.00  0.00    -0.000 C 
BRANCH  26  27
ATOM     27  C   UNL     1      17.668  18.963 -13.659  1.00  0.00    -0.000 C 
BRANCH  27  28
ATOM     28  C   UNL     1      17.975  20.441 -13.354  1.00  0.00    -0.000 C 
BRANCH  28  29
ATOM     29  C   UNL     1      18.723  20.607 -12.022  1.00  0.00    -0.003 C 
ATOM     30  C   UNL     1      19.742  21.744 -12.091  1.00  0.00     0.004 C 
ENDBRANCH  28  29
ENDBRANCH  27  28
ENDBRANCH  26  27
ENDBRANCH  25  26
ENDBRANCH  24  25
ENDBRANCH  23  24
ENDBRANCH  22  23
ENDBRANCH  21  22
ENDBRANCH  20  21
ENDBRANCH  19  20
ENDBRANCH  18  19
ENDBRANCH  17  18
ENDBRANCH   1  17
TORSDOF 26
ENDMDL
MODEL 3
REMARK VINA RESULT:     9.328      1.145      1.622
REMARK INTER + INTRA:          21.880
REMARK INTER:                  23.685
REMARK INTRA:                  -1.806
REMARK UNBOUND:                -1.626
REMARK SMILES CCCCCCCCCCCCCCCCCCCCCCCCCCCC(=O)[O-]
REMARK SMILES IDX 15 1 16 2 17 3 18 4 19 5 20 6 21 7 22 8 23 9 24 10 25 11
REMARK SMILES IDX 26 12 27 13 28 14 29 15 30 16 14 17 13 18 12 19 11 20 10 21
REMARK SMILES IDX 9 22 8 23 7 24 6 25 5 26 4 27 3 28 2 29 1 30
REMARK H PARENT
REMARK Flexibility Score: inf
ROOT
ATOM      1  C   UNL     1      13.591  16.910  -7.494  1.00  0.00     0.000 C 
ENDROOT
BRANCH   1   2
ATOM      2  C   UNL     1      13.722  17.566  -6.107  1.00  0.00     0.000 C 
BRANCH   2   3
ATOM      3  C   UNL     1      12.487  17.278  -5.239  1.00  0.00     0.000 C 
BRANCH   3   4
ATOM      4  C   UNL     1      11.416  16.444  -5.965  1.00  0.00     0.000 C 
BRANCH   4   5
ATOM      5  C   UNL     1      10.652  15.499  -5.022  1.00  0.00     0.000 C 
BRANCH   5   6
ATOM      6  C   UNL     1      11.616  14.651  -4.180  1.00  0.00     0.000 C 
BRANCH   6   7
ATOM      7  C   UNL     1      10.892  13.846  -3.083  1.00  0.00     0.000 C 
BRANCH   7   8
ATOM      8  C   UNL     1      11.352  14.134  -1.637  1.00  0.00     0.000 C 
BRANCH   8   9
ATOM      9  C   UNL     1      10.311  13.811  -0.547  1.00  0.00     0.000 C 
BRANCH   9  10
ATOM     10  C   UNL     1       9.251  14.914  -0.386  1.00  0.00     0.000 C 
BRANCH  10  11
ATOM     11  C   UNL     1       8.355  14.673   0.839  1.00  0.00     0.000 C 
BRANCH  11  12
ATOM     12  C   UNL     1       8.981  15.247   2.125  1.00  0.00     0.006 C 
BRANCH  12  13
ATOM     13  C   UNL     1       9.795  16.525   1.858  1.00  0.00     0.053 C 
BRANCH  13  14
ATOM     14  C   UNL     1      11.278  16.316   1.989  1.00  0.00     0.041 C 
ATOM     15  O   UNL     1      12.077  17.291   1.923  1.00  0.00    -0.550 OA
ATOM     16  O   UNL     1      11.782  15.028   2.112  1.00  0.00    -0.550 OA
ENDBRANCH  13  14
ENDBRANCH  12  13
ENDBRANCH  11  12
ENDBRANCH  10  11
ENDBRANCH   9  10
ENDBRANCH   8   9
ENDBRANCH   7   8
ENDBRANCH   6   7
ENDBRANCH   5   6
ENDBRANCH   4   5
ENDBRANCH   3   4
ENDBRANCH   2   3
ENDBRANCH   1   2
BRANCH   1  17
ATOM     17  C   UNL     1      14.519  15.701  -7.670  1.00  0.00     0.000 C 
BRANCH  17  18
ATOM     18  C   UNL     1      15.388  15.792  -8.935  1.00  0.00     0.000 C 
BRANCH  18  19
ATOM     19  C   UNL     1      14.588  15.438 -10.196  1.00  0.00     0.000 C 
BRANCH  19  20
ATOM     20  C   UNL     1      14.572  13.923 -10.485  1.00  0.00     0.000 C 
BRANCH  20  21
ATOM     21  C   UNL     1      15.099  13.588 -11.890  1.00  0.00     0.000 C 
BRANCH  21  22
ATOM     22  C   UNL     1      15.244  14.847 -12.762  1.00  0.00    -0.000 C 
BRANCH  22  23
ATOM     23  C   UNL     1      16.403  14.695 -13.759  1.00  0.00    -0.000 C 
BRANCH  23  24
ATOM     24  C   UNL     1      17.733  15.249 -13.204  1.00  0.00    -0.000 C 
BRANCH  24  25
ATOM     25  C   UNL     1      17.735  16.779 -13.015  1.00  0.00    -0.000 C 
BRANCH  25  26
ATOM     26  C   UNL     1      18.074  17.227 -11.578  1.00  0.00    -0.000 C 
BRANCH  26  27
ATOM     27  C   UNL     1      18.653  18.654 -11.522  1.00  0.00    -0.000 C 
BRANCH  27  28
ATOM     28  C   UNL     1      18.366  19.442 -12.813  1.00  0.00    -0.000 C 
BRANCH  28  29
ATOM     29  C   UNL     1      18.432  20.960 -12.582  1.00  0.00    -0.003 C 
ATOM     30  C   UNL     1      19.872  21.436 -12.395  1.00  0.00     0.004 C 
ENDBRANCH  28  29
ENDBRANCH  27  28
ENDBRANCH  26  27
ENDBRANCH  25  26
ENDBRANCH  24  25
ENDBRANCH  23  24
ENDBRANCH  22  23
ENDBRANCH  21  22
ENDBRANCH  20  21
ENDBRANCH  19  20
ENDBRANCH  18  19
ENDBRANCH  17  18
ENDBRANCH   1  17
TORSDOF 26
ENDMDL
MODEL 4
REMARK VINA RESULT:     9.619      4.324     13.111
REMARK INTER + INTRA:          22.613
REMARK INTER:                  22.661
REMARK INTRA:                  -0.048
REMARK UNBOUND:                -1.626
REMARK SMILES CCCCCCCCCCCCCCCCCCCCCCCCCCCC(=O)[O-]
REMARK SMILES IDX 15 1 16 2 17 3 18 4 19 5 20 6 21 7 22 8 23 9 24 10 25 11
REMARK SMILES IDX 26 12 27 13 28 14 29 15 30 16 14 17 13 18 12 19 11 20 10 21
REMARK SMILES IDX 9 22 8 23 7 24 6 25 5 26 4 27 3 28 2 29 1 30
REMARK H PARENT
REMARK Flexibility Score: inf
ROOT
ATOM      1  C   UNL     1      13.984  17.472  -7.229  1.00  0.00     0.000 C 
ENDROOT
BRANCH   1   2
ATOM      2  C   UNL     1      14.446  16.005  -7.311  1.00  0.00     0.000 C 
BRANCH   2   3
ATOM      3  C   UNL     1      15.156  15.721  -8.645  1.00  0.00     0.000 C 
BRANCH   3   4
ATOM      4  C   UNL     1      14.212  15.787  -9.859  1.00  0.00     0.000 C 
BRANCH   4   5
ATOM      5  C   UNL     1      14.562  14.754 -10.945  1.00  0.00     0.000 C 
BRANCH   5   6
ATOM      6  C   UNL     1      15.396  15.385 -12.070  1.00  0.00     0.000 C 
BRANCH   6   7
ATOM      7  C   UNL     1      16.080  14.331 -12.962  1.00  0.00     0.000 C 
BRANCH   7   8
ATOM      8  C   UNL     1      17.229  14.859 -13.848  1.00  0.00     0.000 C 
BRANCH   8   9
ATOM      9  C   UNL     1      18.605  14.929 -13.157  1.00  0.00     0.000 C 
BRANCH   9  10
ATOM     10  C   UNL     1      18.952  16.342 -12.658  1.00  0.00     0.000 C 
BRANCH  10  11
ATOM     11  C   UNL     1      17.754  17.299 -12.768  1.00  0.00     0.000 C 
BRANCH  11  12
ATOM     12  C   UNL     1      18.041  18.653 -12.092  1.00  0.00     0.006 C 
BRANCH  12  13
ATOM     13  C   UNL     1      18.429  19.742 -13.106  1.00  0.00     0.053 C 
BRANCH  13  14
ATOM     14  C   UNL     1      19.386  20.757 -12.545  1.00  0.00     0.041 C 
ATOM     15  O   UNL     1      20.629  20.652 -12.741  1.00  0.00    -0.550 OA
ATOM     16  O   UNL     1      18.907  21.782 -11.740  1.00  0.00    -0.550 OA
ENDBRANCH  13  14
ENDBRANCH  12  13
ENDBRANCH  11  12
ENDBRANCH  10  11
ENDBRANCH   9  10
ENDBRANCH   8   9
ENDBRANCH   7   8
ENDBRANCH   6   7
ENDBRANCH   5   6
ENDBRANCH   4   5
ENDBRANCH   3   4
ENDBRANCH   2   3
ENDBRANCH   1   2
BRANCH   1  17
ATOM     17  C   UNL     1      13.078  17.743  -6.022  1.00  0.00     0.000 C 
BRANCH  17  18
ATOM     18  C   UNL     1      11.932  16.726  -5.892  1.00  0.00     0.000 C 
BRANCH  18  19
ATOM     19  C   UNL     1      11.830  16.169  -4.466  1.00  0.00     0.000 C 
BRANCH  19  20
ATOM     20  C   UNL     1      11.119  14.803  -4.411  1.00  0.00     0.000 C 
BRANCH  20  21
ATOM     21  C   UNL     1      10.520  14.508  -3.025  1.00  0.00     0.000 C 
BRANCH  21  22
ATOM     22  C   UNL     1      11.614  14.263  -1.970  1.00  0.00    -0.000 C 
BRANCH  22  23
ATOM     23  C   UNL     1      11.117  13.305  -0.876  1.00  0.00    -0.000 C 
BRANCH  23  24
ATOM     24  C   UNL     1      12.131  13.153   0.278  1.00  0.00    -0.000 C 
BRANCH  24  25
ATOM     25  C   UNL     1      11.494  13.261   1.679  1.00  0.00    -0.000 C 
BRANCH  25  26
ATOM     26  C   UNL     1      10.192  14.089   1.708  1.00  0.00    -0.000 C 
BRANCH  26  27
ATOM     27  C   UNL     1      10.240  15.302   0.760  1.00  0.00    -0.000 C 
BRANCH  27  28
ATOM     28  C   UNL     1      11.021  16.480   1.371  1.00  0.00    -0.000 C 
BRANCH  28  29
ATOM     29  C   UNL     1      10.098  17.449   2.124  1.00  0.00    -0.003 C 
ATOM     30  C   UNL     1       8.695  17.472   1.517  1.00  0.00     0.004 C 
ENDBRANCH  28  29
ENDBRANCH  27  28
ENDBRANCH  26  27
ENDBRANCH  25  26
ENDBRANCH  24  25
ENDBRANCH  23  24
ENDBRANCH  22  23
ENDBRANCH  21  22
ENDBRANCH  20  21
ENDBRANCH  19  20
ENDBRANCH  18  19
ENDBRANCH  17  18
ENDBRANCH   1  17
TORSDOF 26
ENDMDL
MODEL 5
REMARK VINA RESULT:     9.829      4.471     13.148
REMARK INTER + INTRA:          23.142
REMARK INTER:                  24.808
REMARK INTRA:                  -1.666
REMARK UNBOUND:                -1.626
REMARK SMILES CCCCCCCCCCCCCCCCCCCCCCCCCCCC(=O)[O-]
REMARK SMILES IDX 15 1 16 2 17 3 18 4 19 5 20 6 21 7 22 8 23 9 24 10 25 11
REMARK SMILES IDX 26 12 27 13 28 14 29 15 30 16 14 17 13 18 12 19 11 20 10 21
REMARK SMILES IDX 9 22 8 23 7 24 6 25 5 26 4 27 3 28 2 29 1 30
REMARK H PARENT
REMARK Flexibility Score: inf
ROOT
ATOM      1  C   UNL     1      12.380  17.061  -5.379  1.00  0.00     0.000 C 
ENDROOT
BRANCH   1   2
ATOM      2  C   UNL     1      13.445  17.447  -6.423  1.00  0.00     0.000 C 
BRANCH   2   3
ATOM      3  C   UNL     1      13.619  16.338  -7.473  1.00  0.00     0.000 C 
BRANCH   3   4
ATOM      4  C   UNL     1      14.859  16.535  -8.363  1.00  0.00     0.000 C 
BRANCH   4   5
ATOM      5  C   UNL     1      15.082  15.371  -9.344  1.00  0.00     0.000 C 
BRANCH   5   6
ATOM      6  C   UNL     1      15.038  15.852 -10.802  1.00  0.00     0.000 C 
BRANCH   6   7
ATOM      7  C   UNL     1      15.567  14.796 -11.791  1.00  0.00     0.000 C 
BRANCH   7   8
ATOM      8  C   UNL     1      15.820  15.301 -13.227  1.00  0.00     0.000 C 
BRANCH   8   9
ATOM      9  C   UNL     1      17.303  15.361 -13.645  1.00  0.00     0.000 C 
BRANCH   9  10
ATOM     10  C   UNL     1      18.216  15.900 -12.531  1.00  0.00     0.000 C 
BRANCH  10  11
ATOM     11  C   UNL     1      18.528  17.394 -12.719  1.00  0.00     0.000 C 
BRANCH  11  12
ATOM     12  C   UNL     1      18.600  18.134 -11.369  1.00  0.00     0.006 C 
BRANCH  12  13
ATOM     13  C   UNL     1      17.877  19.491 -11.409  1.00  0.00     0.053 C 
BRANCH  13  14
ATOM     14  C   UNL     1      18.348  20.378 -12.528  1.00  0.00     0.041 C 
ATOM     15  O   UNL     1      17.585  20.665 -13.492  1.00  0.00    -0.550 OA
ATOM     16  O   UNL     1      19.661  20.829 -12.540  1.00  0.00    -0.550 OA
ENDBRANCH  13  14
ENDBRANCH  12  13
ENDBRANCH  11  12
ENDBRANCH  10  11
ENDBRANCH   9  10
ENDBRANCH   8   9
ENDBRANCH   7   8
ENDBRANCH   6   7
ENDBRANCH   5   6
ENDBRANCH   4   5
ENDBRANCH   3   4
ENDBRANCH   2   3
ENDBRANCH   1   2
BRANCH   1  17
ATOM     17  C   UNL     1      12.047  15.563  -5.395  1.00  0.00     0.000 C 
BRANCH  17  18
ATOM     18  C   UNL     1      10.852  15.206  -4.496  1.00  0.00     0.000 C 
BRANCH  18  19
ATOM     19  C   UNL     1      10.653  13.688  -4.400  1.00  0.00     0.000 C 
BRANCH  19  20
ATOM     20  C   UNL     1      11.139  13.109  -3.055  1.00  0.00     0.000 C 
BRANCH  20  21
ATOM     21  C   UNL     1      10.734  13.984  -1.858  1.00  0.00     0.000 C 
BRANCH  21  22
ATOM     22  C   UNL     1      10.652  13.169  -0.555  1.00  0.00    -0.000 C 
BRANCH  22  23
ATOM     23  C   UNL     1      12.043  12.991   0.072  1.00  0.00    -0.000 C 
BRANCH  23  24
ATOM     24  C   UNL     1      12.049  13.283   1.587  1.00  0.00    -0.000 C 
BRANCH  24  25
ATOM     25  C   UNL     1      12.452  14.731   1.936  1.00  0.00    -0.000 C 
BRANCH  25  26
ATOM     26  C   UNL     1      11.268  15.720   1.948  1.00  0.00    -0.000 C 
BRANCH  26  27
ATOM     27  C   UNL     1       9.909  15.017   2.120  1.00  0.00    -0.000 C 
BRANCH  27  28
ATOM     28  C   UNL     1       8.739  16.018   2.125  1.00  0.00    -0.000 C 
BRANCH  28  29
ATOM     29  C   UNL     1       9.027  17.239   1.238  1.00  0.00    -0.003 C 
ATOM     30  C   UNL     1       7.883  18.251   1.291  1.00  0.00     0.004 C 
ENDBRANCH  28  29
ENDBRANCH  27  28
ENDBRANCH  26  27
ENDBRANCH  25  26
ENDBRANCH  24  25
ENDBRANCH  23  24
ENDBRANCH  22  23
ENDBRANCH  21  22
ENDBRANCH  20  21
ENDBRANCH  19  20
ENDBRANCH  18  19
ENDBRANCH  17  18
ENDBRANCH   1  17
TORSDOF 26
ENDMDL
MODEL 6
REMARK VINA RESULT:    10.292      1.192      1.718
REMARK INTER + INTRA:          24.309
REMARK INTER:                  25.425
REMARK INTRA:                  -1.116
REMARK UNBOUND:                -1.626
REMARK SMILES CCCCCCCCCCCCCCCCCCCCCCCCCCCC(=O)[O-]
REMARK SMILES IDX 15 1 16 2 17 3 18 4 19 5 20 6 21 7 22 8 23 9 24 10 25 11
REMARK SMILES IDX 26 12 27 13 28 14 29 15 30 16 14 17 13 18 12 19 11 20 10 21
REMARK SMILES IDX 9 22 8 23 7 24 6 25 5 26 4 27 3 28 2 29 1 30
REMARK H PARENT
REMARK Flexibility Score: inf
ROOT
ATOM      1  C   UNL     1      14.363  16.969  -7.292  1.00  0.00     0.000 C 
ENDROOT
BRANCH   1   2
ATOM      2  C   UNL     1      12.869  16.903  -6.924  1.00  0.00     0.000 C 
BRANCH   2   3
ATOM      3  C   UNL     1      12.632  17.380  -5.482  1.00  0.00     0.000 C 
BRANCH   3   4
ATOM      4  C   UNL     1      12.079  16.277  -4.562  1.00  0.00     0.000 C 
BRANCH   4   5
ATOM      5  C   UNL     1      10.906  15.506  -5.191  1.00  0.00     0.000 C 
BRANCH   5   6
ATOM      6  C   UNL     1      10.652  14.180  -4.459  1.00  0.00     0.000 C 
BRANCH   6   7
ATOM      7  C   UNL     1      11.503  14.035  -3.183  1.00  0.00     0.000 C 
BRANCH   7   8
ATOM      8  C   UNL     1      10.721  14.103  -1.854  1.00  0.00     0.000 C 
BRANCH   8   9
ATOM      9  C   UNL     1      11.566  13.855  -0.587  1.00  0.00     0.000 C 
BRANCH   9  10
ATOM     10  C   UNL     1      11.135  14.734   0.599  1.00  0.00     0.000 C 
BRANCH  10  11
ATOM     11  C   UNL     1      10.041  14.061   1.443  1.00  0.00     0.000 C 
BRANCH  11  12
ATOM     12  C   UNL     1       8.699  14.813   1.341  1.00  0.00     0.006 C 
BRANCH  12  13
ATOM     13  C   UNL     1       8.711  16.136   2.125  1.00  0.00     0.053 C 
BRANCH  13  14
ATOM     14  C   UNL     1       9.467  17.230   1.423  1.00  0.00     0.041 C 
ATOM     15  O   UNL     1       8.904  17.952   0.554  1.00  0.00    -0.550 OA
ATOM     16  O   UNL     1      10.820  17.403   1.680  1.00  0.00    -0.550 OA
ENDBRANCH  13  14
ENDBRANCH  12  13
ENDBRANCH  11  12
ENDBRANCH  10  11
ENDBRANCH   9  10
ENDBRANCH   8   9
ENDBRANCH   7   8
ENDBRANCH   6   7
ENDBRANCH   5   6
ENDBRANCH   4   5
ENDBRANCH   3   4
ENDBRANCH   2   3
ENDBRANCH   1   2
BRANCH   1  17
ATOM     17  C   UNL     1      14.839  15.735  -8.070  1.00  0.00     0.000 C 
BRANCH  17  18
ATOM     18  C   UNL     1      14.305  15.695  -9.512  1.00  0.00     0.000 C 
BRANCH  18  19
ATOM     19  C   UNL     1      15.433  15.884 -10.535  1.00  0.00     0.000 C 
BRANCH  19  20
ATOM     20  C   UNL     1      15.438  14.790 -11.622  1.00  0.00     0.000 C 
BRANCH  20  21
ATOM     21  C   UNL     1      15.928  15.315 -12.982  1.00  0.00     0.000 C 
BRANCH  21  22
ATOM     22  C   UNL     1      17.459  15.483 -13.012  1.00  0.00    -0.000 C 
BRANCH  22  23
ATOM     23  C   UNL     1      17.846  16.934 -13.339  1.00  0.00    -0.000 C 
BRANCH  23  24
ATOM     24  C   UNL     1      18.583  17.623 -12.170  1.00  0.00    -0.000 C 
BRANCH  24  25
ATOM     25  C   UNL     1      17.852  18.867 -11.626  1.00  0.00    -0.000 C 
BRANCH  25  26
ATOM     26  C   UNL     1      17.348  19.823 -12.728  1.00  0.00    -0.000 C 
BRANCH  26  27
ATOM     27  C   UNL     1      18.393  20.885 -13.115  1.00  0.00    -0.000 C 
BRANCH  27  28
ATOM     28  C   UNL     1      19.296  21.265 -11.926  1.00  0.00    -0.000 C 
BRANCH  28  29
ATOM     29  C   UNL     1      20.729  20.741 -12.106  1.00  0.00    -0.003 C 
ATOM     30  C   UNL     1      20.973  20.260 -13.536  1.00  0.00     0.004 C 
ENDBRANCH  28  29
ENDBRANCH  27  28
ENDBRANCH  26  27
ENDBRANCH  25  26
ENDBRANCH  24  25
ENDBRANCH  23  24
ENDBRANCH  22  23
ENDBRANCH  21  22
ENDBRANCH  20  21
ENDBRANCH  19  20
ENDBRANCH  18  19
ENDBRANCH  17  18
ENDBRANCH   1  17
TORSDOF 26
ENDMDL
MODEL 7
REMARK VINA RESULT:    10.978      1.294      2.104
REMARK INTER + INTRA:          26.038
REMARK INTER:                  25.954
REMARK INTRA:                   0.083
REMARK UNBOUND:                -1.626
REMARK SMILES CCCCCCCCCCCCCCCCCCCCCCCCCCCC(=O)[O-]
REMARK SMILES IDX 15 1 16 2 17 3 18 4 19 5 20 6 21 7 22 8 23 9 24 10 25 11
REMARK SMILES IDX 26 12 27 13 28 14 29 15 30 16 14 17 13 18 12 19 11 20 10 21
REMARK SMILES IDX 9 22 8 23 7 24 6 25 5 26 4 27 3 28 2 29 1 30
REMARK H PARENT
REMARK Flexibility Score: inf
ROOT
ATOM      1  C   UNL     1      13.618  17.671  -6.055  1.00  0.00     0.000 C 
ENDROOT
BRANCH   1   2
ATOM      2  C   UNL     1      12.673  17.058  -5.005  1.00  0.00     0.000 C 
BRANCH   2   3
ATOM      3  C   UNL     1      11.725  16.030  -5.644  1.00  0.00     0.000 C 
BRANCH   3   4
ATOM      4  C   UNL     1      10.737  15.411  -4.639  1.00  0.00     0.000 C 
BRANCH   4   5
ATOM      5  C   UNL     1      11.398  15.044  -3.299  1.00  0.00     0.000 C 
BRANCH   5   6
ATOM      6  C   UNL     1      10.348  14.699  -2.233  1.00  0.00     0.000 C 
BRANCH   6   7
ATOM      7  C   UNL     1      10.759  13.495  -1.364  1.00  0.00     0.000 C 
BRANCH   7   8
ATOM      8  C   UNL     1      12.083  13.660  -0.587  1.00  0.00     0.000 C 
BRANCH   8   9
ATOM      9  C   UNL     1      11.923  14.021   0.903  1.00  0.00     0.000 C 
BRANCH   9  10
ATOM     10  C   UNL     1      10.559  13.601   1.477  1.00  0.00     0.000 C 
BRANCH  10  11
ATOM     11  C   UNL     1       9.811  14.788   2.104  1.00  0.00     0.000 C 
BRANCH  11  12
ATOM     12  C   UNL     1      10.186  16.121   1.427  1.00  0.00     0.006 C 
BRANCH  12  13
ATOM     13  C   UNL     1       9.412  17.313   2.015  1.00  0.00     0.053 C 
BRANCH  13  14
ATOM     14  C   UNL     1       7.927  17.083   2.066  1.00  0.00     0.041 C 
ATOM     15  O   UNL     1       7.123  18.054   2.125  1.00  0.00    -0.550 OA
ATOM     16  O   UNL     1       7.435  15.786   2.123  1.00  0.00    -0.550 OA
ENDBRANCH  13  14
ENDBRANCH  12  13
ENDBRANCH  11  12
ENDBRANCH  10  11
ENDBRANCH   9  10
ENDBRANCH   8   9
ENDBRANCH   7   8
ENDBRANCH   6   7
ENDBRANCH   5   6
ENDBRANCH   4   5
ENDBRANCH   3   4
ENDBRANCH   2   3
ENDBRANCH   1   2
BRANCH   1  17
ATOM     17  C   UNL     1      13.708  16.830  -7.336  1.00  0.00     0.000 C 
BRANCH  17  18
ATOM     18  C   UNL     1      14.690  15.654  -7.212  1.00  0.00     0.000 C 
BRANCH  18  19
ATOM     19  C   UNL     1      15.097  15.112  -8.589  1.00  0.00     0.000 C 
BRANCH  19  20
ATOM     20  C   UNL     1      14.171  15.603  -9.719  1.00  0.00     0.000 C 
BRANCH  20  21
ATOM     21  C   UNL     1      14.719  15.268 -11.116  1.00  0.00     0.000 C 
BRANCH  21  22
ATOM     22  C   UNL     1      16.080  15.938 -11.373  1.00  0.00    -0.000 C 
BRANCH  22  23
ATOM     23  C   UNL     1      16.382  16.011 -12.878  1.00  0.00    -0.000 C 
BRANCH  23  24
ATOM     24  C   UNL     1      17.748  16.667 -13.173  1.00  0.00    -0.000 C 
BRANCH  24  25
ATOM     25  C   UNL     1      18.462  17.202 -11.915  1.00  0.00    -0.000 C 
BRANCH  25  26
ATOM     26  C   UNL     1      17.598  18.164 -11.072  1.00  0.00    -0.000 C 
BRANCH  26  27
ATOM     27  C   UNL     1      17.949  19.643 -11.315  1.00  0.00    -0.000 C 
BRANCH  27  28
ATOM     28  C   UNL     1      18.816  19.831 -12.574  1.00  0.00    -0.000 C 
BRANCH  28  29
ATOM     29  C   UNL     1      19.455  21.226 -12.625  1.00  0.00    -0.003 C 
ATOM     30  C   UNL     1      20.975  21.151 -12.481  1.00  0.00     0.004 C 
ENDBRANCH  28  29
ENDBRANCH  27  28
ENDBRANCH  26  27
ENDBRANCH  25  26
ENDBRANCH  24  25
ENDBRANCH  23  24
ENDBRANCH  22  23
ENDBRANCH  21  22
ENDBRANCH  20  21
ENDBRANCH  19  20
ENDBRANCH  18  19
ENDBRANCH  17  18
ENDBRANCH   1  17
TORSDOF 26
ENDMDL
