MODEL 1
REMARK VINA RESULT:    -2.756      0.000      0.000
REMARK INTER + INTRA:          -5.906
REMARK INTER:                  -5.012
REMARK INTRA:                  -0.894
REMARK UNBOUND:                -0.894
REMARK SMILES CCCCCCCCCCCCCCCC(=O)[O-]
REMARK SMILES IDX 9 1 10 2 11 3 12 4 13 5 14 6 15 7 16 8 17 9 18 10 8 11 7 12
REMARK SMILES IDX 6 13 5 14 4 15 3 16 2 17 1 18
REMARK H PARENT
REMARK Flexibility Score: inf
ROOT
ATOM      1  C   UNL     1     -21.627   0.703   6.397  1.00  0.00     0.000 C 
ENDROOT
BRANCH   1   2
ATOM      2  C   UNL     1     -21.004   1.835   7.223  1.00  0.00     0.000 C 
BRANCH   2   3
ATOM      3  C   UNL     1     -21.885   2.186   8.427  1.00  0.00     0.000 C 
BRANCH   3   4
ATOM      4  C   UNL     1     -21.743   1.139   9.539  1.00  0.00     0.000 C 
BRANCH   4   5
ATOM      5  C   UNL     1     -22.521   1.561  10.794  1.00  0.00     0.000 C 
BRANCH   5   6
ATOM      6  C   UNL     1     -21.674   1.475  12.073  1.00  0.00     0.006 C 
BRANCH   6   7
ATOM      7  C   UNL     1     -22.316   0.588  13.148  1.00  0.00     0.053 C 
BRANCH   7   8
ATOM      8  C   UNL     1     -21.370  -0.494  13.565  1.00  0.00     0.041 C 
ATOM      9  O   UNL     1     -20.792  -0.436  14.682  1.00  0.00    -0.550 OA
ATOM     10  O   UNL     1     -21.085  -1.541  12.697  1.00  0.00    -0.550 OA
ENDBRANCH   7   8
ENDBRANCH   6   7
ENDBRANCH   5   6
ENDBRANCH   4   5
ENDBRANCH   3   4
ENDBRANCH   2   3
ENDBRANCH   1   2
BRANCH   1  11
ATOM     11  C   UNL     1     -20.618  -0.426   6.159  1.00  0.00     0.000 C 
BRANCH  11  12
ATOM     12  C   UNL     1     -21.055  -1.712   6.874  1.00  0.00    -0.000 C 
BRANCH  12  13
ATOM     13  C   UNL     1     -20.671  -1.728   8.365  1.00  0.00    -0.000 C 
BRANCH  13  14
ATOM     14  C   UNL     1     -20.422  -3.129   8.958  1.00  0.00    -0.000 C 
BRANCH  14  15
ATOM     15  C   UNL     1     -19.761  -4.140   7.999  1.00  0.00    -0.000 C 
BRANCH  15  16
ATOM     16  C   UNL     1     -20.031  -5.618   8.328  1.00  0.00    -0.000 C 
BRANCH  16  17
ATOM     17  C   UNL     1     -21.429  -6.079   7.894  1.00  0.00    -0.003 C 
ATOM     18  C   UNL     1     -22.313  -6.369   9.102  1.00  0.00     0.004 C 
ENDBRANCH  16  17
ENDBRANCH  15  16
ENDBRANCH  14  15
ENDBRANCH  13  14
ENDBRANCH  12  13
ENDBRANCH  11  12
ENDBRANCH   1  11
TORSDOF 14
ENDMDL
MODEL 2
REMARK VINA RESULT:    -2.529      1.992      6.087
REMARK INTER + INTRA:          -5.492
REMARK INTER:                  -4.997
REMARK INTRA:                  -0.496
REMARK UNBOUND:                -0.894
REMARK SMILES CCCCCCCCCCCCCCCC(=O)[O-]
REMARK SMILES IDX 9 1 10 2 11 3 12 4 13 5 14 6 15 7 16 8 17 9 18 10 8 11 7 12
REMARK SMILES IDX 6 13 5 14 4 15 3 16 2 17 1 18
REMARK H PARENT
REMARK Flexibility Score: inf
ROOT
ATOM      1  C   UNL     1     -20.536  -0.308   6.130  1.00  0.00     0.000 C 
ENDROOT
BRANCH   1   2
ATOM      2  C   UNL     1     -21.011  -1.551   6.891  1.00  0.00     0.000 C 
BRANCH   2   3
ATOM      3  C   UNL     1     -20.998  -1.309   8.404  1.00  0.00     0.000 C 
BRANCH   3   4
ATOM      4  C   UNL     1     -20.250  -2.431   9.136  1.00  0.00     0.000 C 
BRANCH   4   5
ATOM      5  C   UNL     1     -20.852  -2.675  10.527  1.00  0.00     0.000 C 
BRANCH   5   6
ATOM      6  C   UNL     1     -20.632  -1.491  11.482  1.00  0.00     0.006 C 
BRANCH   6   7
ATOM      7  C   UNL     1     -21.363  -1.668  12.820  1.00  0.00     0.053 C 
BRANCH   7   8
ATOM      8  C   UNL     1     -21.436  -0.364  13.551  1.00  0.00     0.041 C 
ATOM      9  O   UNL     1     -21.214  -0.318  14.789  1.00  0.00    -0.550 OA
ATOM     10  O   UNL     1     -21.801   0.792  12.874  1.00  0.00    -0.550 OA
ENDBRANCH   7   8
ENDBRANCH   6   7
ENDBRANCH   5   6
ENDBRANCH   4   5
ENDBRANCH   3   4
ENDBRANCH   2   3
ENDBRANCH   1   2
BRANCH   1  11
ATOM     11  C   UNL     1     -21.563   0.826   6.231  1.00  0.00     0.000 C 
BRANCH  11  12
ATOM     12  C   UNL     1     -21.115   1.883   7.251  1.00  0.00    -0.000 C 
BRANCH  12  13
ATOM     13  C   UNL     1     -21.761   1.689   8.635  1.00  0.00    -0.000 C 
BRANCH  13  14
ATOM     14  C   UNL     1     -22.419   2.951   9.229  1.00  0.00    -0.000 C 
BRANCH  14  15
ATOM     15  C   UNL     1     -22.537   4.146   8.261  1.00  0.00    -0.000 C 
BRANCH  15  16
ATOM     16  C   UNL     1     -22.330   5.526   8.907  1.00  0.00    -0.000 C 
BRANCH  16  17
ATOM     17  C   UNL     1     -20.885   6.032   8.784  1.00  0.00    -0.003 C 
ATOM     18  C   UNL     1     -20.167   5.976  10.127  1.00  0.00     0.004 C 
ENDBRANCH  16  17
ENDBRANCH  15  16
ENDBRANCH  14  15
ENDBRANCH  13  14
ENDBRANCH  12  13
ENDBRANCH  11  12
ENDBRANCH   1  11
TORSDOF 14
ENDMDL
MODEL 3
REMARK VINA RESULT:    -2.315      3.034      7.438
REMARK INTER + INTRA:          -5.105
REMARK INTER:                  -3.771
REMARK INTRA:                  -1.334
REMARK UNBOUND:                -0.894
REMARK SMILES CCCCCCCCCCCCCCCC(=O)[O-]
REMARK SMILES IDX 9 1 10 2 11 3 12 4 13 5 14 6 15 7 16 8 17 9 18 10 8 11 7 12
REMARK SMILES IDX 6 13 5 14 4 15 3 16 2 17 1 18
REMARK H PARENT
REMARK Flexibility Score: inf
ROOT
ATOM      1  C   UNL     1     -21.048  -0.710  13.631  1.00  0.00     0.000 C 
ENDROOT
BRANCH   1   2
ATOM      2  C   UNL     1     -21.377  -1.881  12.697  1.00  0.00     0.000 C 
BRANCH   2   3
ATOM      3  C   UNL     1     -20.411  -1.924  11.508  1.00  0.00     0.000 C 
BRANCH   3   4
ATOM      4  C   UNL     1     -21.009  -2.716  10.339  1.00  0.00     0.000 C 
BRANCH   4   5
ATOM      5  C   UNL     1     -20.401  -2.267   9.002  1.00  0.00     0.000 C 
BRANCH   5   6
ATOM      6  C   UNL     1     -20.974  -0.929   8.512  1.00  0.00     0.006 C 
BRANCH   6   7
ATOM      7  C   UNL     1     -21.299  -0.940   7.012  1.00  0.00     0.053 C 
BRANCH   7   8
ATOM      8  C   UNL     1     -21.181   0.439   6.442  1.00  0.00     0.041 C 
ATOM      9  O   UNL     1     -21.926   0.799   5.494  1.00  0.00    -0.550 OA
ATOM     10  O   UNL     1     -20.211   1.309   6.924  1.00  0.00    -0.550 OA
ENDBRANCH   7   8
ENDBRANCH   6   7
ENDBRANCH   5   6
ENDBRANCH   4   5
ENDBRANCH   3   4
ENDBRANCH   2   3
ENDBRANCH   1   2
BRANCH   1  11
ATOM     11  C   UNL     1     -22.115   0.387  13.537  1.00  0.00     0.000 C 
BRANCH  11  12
ATOM     12  C   UNL     1     -21.702   1.470  12.530  1.00  0.00    -0.000 C 
BRANCH  12  13
ATOM     13  C   UNL     1     -22.307   1.248  11.132  1.00  0.00    -0.000 C 
BRANCH  13  14
ATOM     14  C   UNL     1     -21.707   2.127  10.016  1.00  0.00    -0.000 C 
BRANCH  14  15
ATOM     15  C   UNL     1     -22.737   2.807   9.091  1.00  0.00    -0.000 C 
BRANCH  15  16
ATOM     16  C   UNL     1     -22.170   3.923   8.198  1.00  0.00    -0.000 C 
BRANCH  16  17
ATOM     17  C   UNL     1     -22.332   5.320   8.814  1.00  0.00    -0.003 C 
ATOM     18  C   UNL     1     -20.977   5.978   9.050  1.00  0.00     0.004 C 
ENDBRANCH  16  17
ENDBRANCH  15  16
ENDBRANCH  14  15
ENDBRANCH  13  14
ENDBRANCH  12  13
ENDBRANCH  11  12
ENDBRANCH   1  11
TORSDOF 14
ENDMDL
MODEL 4
REMARK VINA RESULT:    -2.221      2.596      4.873
REMARK INTER + INTRA:          -4.933
REMARK INTER:                  -3.513
REMARK INTRA:                  -1.421
REMARK UNBOUND:                -0.894
REMARK SMILES CCCCCCCCCCCCCCCC(=O)[O-]
REMARK SMILES IDX 9 1 10 2 11 3 12 4 13 5 14 6 15 7 16 8 17 9 18 10 8 11 7 12
REMARK SMILES IDX 6 13 5 14 4 15 3 16 2 17 1 18
REMARK H PARENT
REMARK Flexibility Score: inf
ROOT
ATOM      1  C   UNL     1     -22.239   0.026  13.106  1.00  0.00     0.000 C 
ENDROOT
BRANCH   1   2
ATOM      2  C   UNL     1     -21.404   1.309  13.198  1.00  0.00     0.000 C 
BRANCH   2   3
ATOM      3  C   UNL     1     -21.530   2.140  11.917  1.00  0.00     0.000 C 
BRANCH   3   4
ATOM      4  C   UNL     1     -22.515   1.494  10.934  1.00  0.00     0.000 C 
BRANCH   4   5
ATOM      5  C   UNL     1     -22.175   1.877   9.486  1.00  0.00     0.000 C 
BRANCH   5   6
ATOM      6  C   UNL     1     -21.404   0.772   8.747  1.00  0.00     0.006 C 
BRANCH   6   7
ATOM      7  C   UNL     1     -21.171   1.103   7.267  1.00  0.00     0.053 C 
BRANCH   7   8
ATOM      8  C   UNL     1     -21.028  -0.154   6.467  1.00  0.00     0.041 C 
ATOM      9  O   UNL     1     -20.039  -0.312   5.706  1.00  0.00    -0.550 OA
ATOM     10  O   UNL     1     -22.016  -1.129   6.523  1.00  0.00    -0.550 OA
ENDBRANCH   7   8
ENDBRANCH   6   7
ENDBRANCH   5   6
ENDBRANCH   4   5
ENDBRANCH   3   4
ENDBRANCH   2   3
ENDBRANCH   1   2
BRANCH   1  11
ATOM     11  C   UNL     1     -21.441  -1.188  13.597  1.00  0.00     0.000 C 
BRANCH  11  12
ATOM     12  C   UNL     1     -21.310  -2.243  12.489  1.00  0.00    -0.000 C 
BRANCH  12  13
ATOM     13  C   UNL     1     -20.425  -1.775  11.319  1.00  0.00    -0.000 C 
BRANCH  13  14
ATOM     14  C   UNL     1     -20.876  -2.260   9.927  1.00  0.00    -0.000 C 
BRANCH  14  15
ATOM     15  C   UNL     1     -19.770  -2.905   9.067  1.00  0.00    -0.000 C 
BRANCH  15  16
ATOM     16  C   UNL     1     -20.277  -3.791   7.917  1.00  0.00    -0.000 C 
BRANCH  16  17
ATOM     17  C   UNL     1     -19.989  -5.283   8.143  1.00  0.00    -0.003 C 
ATOM     18  C   UNL     1     -21.276  -6.056   8.411  1.00  0.00     0.004 C 
ENDBRANCH  16  17
ENDBRANCH  15  16
ENDBRANCH  14  15
ENDBRANCH  13  14
ENDBRANCH  12  13
ENDBRANCH  11  12
ENDBRANCH   1  11
TORSDOF 14
ENDMDL
MODEL 5
REMARK VINA RESULT:    -2.097      3.122      5.284
REMARK INTER + INTRA:          -4.707
REMARK INTER:                  -3.377
REMARK INTRA:                  -1.330
REMARK UNBOUND:                -0.894
REMARK SMILES CCCCCCCCCCCCCCCC(=O)[O-]
REMARK SMILES IDX 9 1 10 2 11 3 12 4 13 5 14 6 15 7 16 8 17 9 18 10 8 11 7 12
REMARK SMILES IDX 6 13 5 14 4 15 3 16 2 17 1 18
REMARK H PARENT
REMARK Flexibility Score: inf
ROOT
ATOM      1  C   UNL     1     -21.376  -1.322   7.036  1.00  0.00     0.000 C 
ENDROOT
BRANCH   1   2
ATOM      2  C   UNL     1     -20.567  -0.334   6.187  1.00  0.00     0.000 C 
BRANCH   2   3
ATOM      3  C   UNL     1     -20.407   1.009   6.907  1.00  0.00     0.000 C 
BRANCH   3   4
ATOM      4  C   UNL     1     -21.748   1.495   7.472  1.00  0.00     0.000 C 
BRANCH   4   5
ATOM      5  C   UNL     1     -21.672   1.662   8.997  1.00  0.00     0.000 C 
BRANCH   5   6
ATOM      6  C   UNL     1     -22.318   2.970   9.481  1.00  0.00     0.006 C 
BRANCH   6   7
ATOM      7  C   UNL     1     -22.514   3.987   8.348  1.00  0.00     0.053 C 
BRANCH   7   8
ATOM      8  C   UNL     1     -22.038   5.340   8.774  1.00  0.00     0.041 C 
ATOM      9  O   UNL     1     -22.512   6.376   8.239  1.00  0.00    -0.550 OA
ATOM     10  O   UNL     1     -21.033   5.456   9.726  1.00  0.00    -0.550 OA
ENDBRANCH   7   8
ENDBRANCH   6   7
ENDBRANCH   5   6
ENDBRANCH   4   5
ENDBRANCH   3   4
ENDBRANCH   2   3
ENDBRANCH   1   2
BRANCH   1  11
ATOM     11  C   UNL     1     -20.640  -2.659   7.179  1.00  0.00     0.000 C 
BRANCH  11  12
ATOM     12  C   UNL     1     -20.181  -2.882   8.627  1.00  0.00    -0.000 C 
BRANCH  12  13
ATOM     13  C   UNL     1     -20.692  -1.794   9.590  1.00  0.00    -0.000 C 
BRANCH  13  14
ATOM     14  C   UNL     1     -20.162  -1.902  11.033  1.00  0.00    -0.000 C 
BRANCH  14  15
ATOM     15  C   UNL     1     -21.248  -2.019  12.124  1.00  0.00    -0.000 C 
BRANCH  15  16
ATOM     16  C   UNL     1     -21.028  -1.125  13.356  1.00  0.00    -0.000 C 
BRANCH  16  17
ATOM     17  C   UNL     1     -22.089  -0.023  13.490  1.00  0.00    -0.003 C 
ATOM     18  C   UNL     1     -21.708   1.210  12.677  1.00  0.00     0.004 C 
ENDBRANCH  16  17
ENDBRANCH  15  16
ENDBRANCH  14  15
ENDBRANCH  13  14
ENDBRANCH  12  13
ENDBRANCH  11  12
ENDBRANCH   1  11
TORSDOF 14
ENDMDL
MODEL 6
REMARK VINA RESULT:    -2.094      1.984      5.500
REMARK INTER + INTRA:          -4.702
REMARK INTER:                  -4.036
REMARK INTRA:                  -0.666
REMARK UNBOUND:                -0.894
REMARK SMILES CCCCCCCCCCCCCCCC(=O)[O-]
REMARK SMILES IDX 9 1 10 2 11 3 12 4 13 5 14 6 15 7 16 8 17 9 18 10 8 11 7 12
REMARK SMILES IDX 6 13 5 14 4 15 3 16 2 17 1 18
REMARK H PARENT
REMARK Flexibility Score: inf
ROOT
ATOM      1  C   UNL     1     -21.028  -1.583   8.320  1.00  0.00     0.000 C 
ENDROOT
BRANCH   1   2
ATOM      2  C   UNL     1     -20.264  -2.747   8.962  1.00  0.00     0.000 C 
BRANCH   2   3
ATOM      3  C   UNL     1     -19.698  -2.346  10.329  1.00  0.00     0.000 C 
BRANCH   3   4
ATOM      4  C   UNL     1     -20.686  -1.458  11.096  1.00  0.00     0.000 C 
BRANCH   4   5
ATOM      5  C   UNL     1     -21.082  -2.104  12.432  1.00  0.00     0.000 C 
BRANCH   5   6
ATOM      6  C   UNL     1     -21.967  -1.188  13.292  1.00  0.00     0.006 C 
BRANCH   6   7
ATOM      7  C   UNL     1     -21.207   0.029  13.834  1.00  0.00     0.053 C 
BRANCH   7   8
ATOM      8  C   UNL     1     -21.586   1.262  13.075  1.00  0.00     0.041 C 
ATOM      9  O   UNL     1     -22.269   1.172  12.022  1.00  0.00    -0.550 OA
ATOM     10  O   UNL     1     -21.141   2.506  13.503  1.00  0.00    -0.550 OA
ENDBRANCH   7   8
ENDBRANCH   6   7
ENDBRANCH   5   6
ENDBRANCH   4   5
ENDBRANCH   3   4
ENDBRANCH   2   3
ENDBRANCH   1   2
BRANCH   1  11
ATOM     11  C   UNL     1     -20.996  -1.679   6.790  1.00  0.00     0.000 C 
BRANCH  11  12
ATOM     12  C   UNL     1     -20.443  -0.388   6.170  1.00  0.00    -0.000 C 
BRANCH  12  13
ATOM     13  C   UNL     1     -21.454   0.772   6.204  1.00  0.00    -0.000 C 
BRANCH  13  14
ATOM     14  C   UNL     1     -21.155   1.866   7.249  1.00  0.00    -0.000 C 
BRANCH  14  15
ATOM     15  C   UNL     1     -21.870   1.691   8.605  1.00  0.00    -0.000 C 
BRANCH  15  16
ATOM     16  C   UNL     1     -22.237   3.003   9.318  1.00  0.00    -0.000 C 
BRANCH  16  17
ATOM     17  C   UNL     1     -22.527   4.152   8.341  1.00  0.00    -0.003 C 
ATOM     18  C   UNL     1     -22.040   5.485   8.899  1.00  0.00     0.004 C 
ENDBRANCH  16  17
ENDBRANCH  15  16
ENDBRANCH  14  15
ENDBRANCH  13  14
ENDBRANCH  12  13
ENDBRANCH  11  12
ENDBRANCH   1  11
TORSDOF 14
ENDMDL
MODEL 7
REMARK VINA RESULT:    -2.054      2.436      5.807
REMARK INTER + INTRA:          -4.629
REMARK INTER:                  -3.629
REMARK INTRA:                  -1.001
REMARK UNBOUND:                -0.894
REMARK SMILES CCCCCCCCCCCCCCCC(=O)[O-]
REMARK SMILES IDX 9 1 10 2 11 3 12 4 13 5 14 6 15 7 16 8 17 9 18 10 8 11 7 12
REMARK SMILES IDX 6 13 5 14 4 15 3 16 2 17 1 18
REMARK H PARENT
REMARK Flexibility Score: inf
ROOT
ATOM      1  C   UNL     1     -21.123   1.820   7.319  1.00  0.00     0.000 C 
ENDROOT
BRANCH   1   2
ATOM      2  C   UNL     1     -21.629   0.609   6.526  1.00  0.00     0.000 C 
BRANCH   2   3
ATOM      3  C   UNL     1     -20.507  -0.411   6.304  1.00  0.00     0.000 C 
BRANCH   3   4
ATOM      4  C   UNL     1     -20.890  -1.785   6.870  1.00  0.00     0.000 C 
BRANCH   4   5
ATOM      5  C   UNL     1     -20.680  -1.829   8.390  1.00  0.00     0.000 C 
BRANCH   5   6
ATOM      6  C   UNL     1     -20.303  -3.231   8.895  1.00  0.00     0.006 C 
BRANCH   6   7
ATOM      7  C   UNL     1     -20.016  -4.213   7.751  1.00  0.00     0.053 C 
BRANCH   7   8
ATOM      8  C   UNL     1     -20.385  -5.606   8.154  1.00  0.00     0.041 C 
ATOM      9  O   UNL     1     -19.616  -6.567   7.891  1.00  0.00    -0.550 OA
ATOM     10  O   UNL     1     -21.603  -5.850   8.775  1.00  0.00    -0.550 OA
ENDBRANCH   7   8
ENDBRANCH   6   7
ENDBRANCH   5   6
ENDBRANCH   4   5
ENDBRANCH   3   4
ENDBRANCH   2   3
ENDBRANCH   1   2
BRANCH   1  11
ATOM     11  C   UNL     1     -22.021   2.099   8.530  1.00  0.00     0.000 C 
BRANCH  11  12
ATOM     12  C   UNL     1     -21.753   1.090   9.656  1.00  0.00    -0.000 C 
BRANCH  12  13
ATOM     13  C   UNL     1     -22.439   1.474  10.980  1.00  0.00    -0.000 C 
BRANCH  13  14
ATOM     14  C   UNL     1     -21.493   1.603  12.190  1.00  0.00    -0.000 C 
BRANCH  14  15
ATOM     15  C   UNL     1     -21.991   0.931  13.486  1.00  0.00    -0.000 C 
BRANCH  15  16
ATOM     16  C   UNL     1     -21.210  -0.325  13.907  1.00  0.00    -0.000 C 
BRANCH  16  17
ATOM     17  C   UNL     1     -21.614  -1.574  13.109  1.00  0.00    -0.003 C 
ATOM     18  C   UNL     1     -20.655  -1.819  11.949  1.00  0.00     0.004 C 
ENDBRANCH  16  17
ENDBRANCH  15  16
ENDBRANCH  14  15
ENDBRANCH  13  14
ENDBRANCH  12  13
ENDBRANCH  11  12
ENDBRANCH   1  11
TORSDOF 14
ENDMDL
MODEL 8
REMARK VINA RESULT:    -1.900      3.243      5.682
REMARK INTER + INTRA:          -4.349
REMARK INTER:                  -3.026
REMARK INTRA:                  -1.323
REMARK UNBOUND:                -0.894
REMARK SMILES CCCCCCCCCCCCCCCC(=O)[O-]
REMARK SMILES IDX 9 1 10 2 11 3 12 4 13 5 14 6 15 7 16 8 17 9 18 10 8 11 7 12
REMARK SMILES IDX 6 13 5 14 4 15 3 16 2 17 1 18
REMARK H PARENT
REMARK Flexibility Score: inf
ROOT
ATOM      1  C   UNL     1     -20.895  -0.638  13.457  1.00  0.00     0.000 C 
ENDROOT
BRANCH   1   2
ATOM      2  C   UNL     1     -21.765   0.604  13.685  1.00  0.00     0.000 C 
BRANCH   2   3
ATOM      3  C   UNL     1     -21.581   1.619  12.552  1.00  0.00     0.000 C 
BRANCH   3   4
ATOM      4  C   UNL     1     -22.397   1.221  11.316  1.00  0.00     0.000 C 
BRANCH   4   5
ATOM      5  C   UNL     1     -21.818   1.862  10.046  1.00  0.00     0.000 C 
BRANCH   5   6
ATOM      6  C   UNL     1     -22.752   2.921   9.440  1.00  0.00     0.006 C 
BRANCH   6   7
ATOM      7  C   UNL     1     -22.070   3.752   8.345  1.00  0.00     0.053 C 
BRANCH   7   8
ATOM      8  C   UNL     1     -22.001   5.191   8.748  1.00  0.00     0.041 C 
ATOM      9  O   UNL     1     -22.757   6.039   8.205  1.00  0.00    -0.550 OA
ATOM     10  O   UNL     1     -21.066   5.606   9.688  1.00  0.00    -0.550 OA
ENDBRANCH   7   8
ENDBRANCH   6   7
ENDBRANCH   5   6
ENDBRANCH   4   5
ENDBRANCH   3   4
ENDBRANCH   2   3
ENDBRANCH   1   2
BRANCH   1  11
ATOM     11  C   UNL     1     -21.760  -1.881  13.216  1.00  0.00     0.000 C 
BRANCH  11  12
ATOM     12  C   UNL     1     -21.311  -2.625  11.951  1.00  0.00    -0.000 C 
BRANCH  12  13
ATOM     13  C   UNL     1     -20.521  -1.729  10.979  1.00  0.00    -0.000 C 
BRANCH  13  14
ATOM     14  C   UNL     1     -20.554  -2.181   9.505  1.00  0.00    -0.000 C 
BRANCH  14  15
ATOM     15  C   UNL     1     -20.949  -1.086   8.492  1.00  0.00    -0.000 C 
BRANCH  15  16
ATOM     16  C   UNL     1     -20.892  -1.517   7.017  1.00  0.00    -0.000 C 
BRANCH  16  17
ATOM     17  C   UNL     1     -20.591  -0.350   6.066  1.00  0.00    -0.003 C 
ATOM     18  C   UNL     1     -21.360   0.903   6.472  1.00  0.00     0.004 C 
ENDBRANCH  16  17
ENDBRANCH  15  16
ENDBRANCH  14  15
ENDBRANCH  13  14
ENDBRANCH  12  13
ENDBRANCH  11  12
ENDBRANCH   1  11
TORSDOF 14
ENDMDL
MODEL 9
REMARK VINA RESULT:    -1.709      1.619      2.325
REMARK INTER + INTRA:          -4.002
REMARK INTER:                  -3.001
REMARK INTRA:                  -1.002
REMARK UNBOUND:                -0.894
REMARK SMILES CCCCCCCCCCCCCCCC(=O)[O-]
REMARK SMILES IDX 9 1 10 2 11 3 12 4 13 5 14 6 15 7 16 8 17 9 18 10 8 11 7 12
REMARK SMILES IDX 6 13 5 14 4 15 3 16 2 17 1 18
REMARK H PARENT
REMARK Flexibility Score: inf
ROOT
ATOM      1  C   UNL     1     -20.863   1.845   7.132  1.00  0.00     0.000 C 
ENDROOT
BRANCH   1   2
ATOM      2  C   UNL     1     -21.845   2.123   8.277  1.00  0.00     0.000 C 
BRANCH   2   3
ATOM      3  C   UNL     1     -21.735   1.053   9.369  1.00  0.00     0.000 C 
BRANCH   3   4
ATOM      4  C   UNL     1     -22.494   1.474  10.633  1.00  0.00     0.000 C 
BRANCH   4   5
ATOM      5  C   UNL     1     -21.598   2.312  11.557  1.00  0.00     0.000 C 
BRANCH   5   6
ATOM      6  C   UNL     1     -21.323   1.620  12.902  1.00  0.00     0.006 C 
BRANCH   6   7
ATOM      7  C   UNL     1     -22.124   0.321  13.072  1.00  0.00     0.053 C 
BRANCH   7   8
ATOM      8  C   UNL     1     -21.716  -0.382  14.328  1.00  0.00     0.041 C 
ATOM      9  O   UNL     1     -20.695  -0.008  14.961  1.00  0.00    -0.550 OA
ATOM     10  O   UNL     1     -22.435  -1.485  14.771  1.00  0.00    -0.550 OA
ENDBRANCH   7   8
ENDBRANCH   6   7
ENDBRANCH   5   6
ENDBRANCH   4   5
ENDBRANCH   3   4
ENDBRANCH   2   3
ENDBRANCH   1   2
BRANCH   1  11
ATOM     11  C   UNL     1     -21.437   0.816   6.151  1.00  0.00     0.000 C 
BRANCH  11  12
ATOM     12  C   UNL     1     -20.617  -0.482   6.175  1.00  0.00    -0.000 C 
BRANCH  12  13
ATOM     13  C   UNL     1     -21.363  -1.649   6.847  1.00  0.00    -0.000 C 
BRANCH  13  14
ATOM     14  C   UNL     1     -20.479  -2.853   7.228  1.00  0.00    -0.000 C 
BRANCH  14  15
ATOM     15  C   UNL     1     -20.161  -2.983   8.732  1.00  0.00    -0.000 C 
BRANCH  15  16
ATOM     16  C   UNL     1     -20.608  -1.791   9.595  1.00  0.00    -0.000 C 
BRANCH  16  17
ATOM     17  C   UNL     1     -20.251  -1.963  11.079  1.00  0.00    -0.003 C 
ATOM     18  C   UNL     1     -21.333  -2.741  11.819  1.00  0.00     0.004 C 
ENDBRANCH  16  17
ENDBRANCH  15  16
ENDBRANCH  14  15
ENDBRANCH  13  14
ENDBRANCH  12  13
ENDBRANCH  11  12
ENDBRANCH   1  11
TORSDOF 14
ENDMDL
