MODEL 1
REMARK VINA RESULT:    -3.490      0.000      0.000
REMARK INTER + INTRA:          -6.622
REMARK INTER:                  -5.530
REMARK INTRA:                  -1.092
REMARK UNBOUND:                -1.092
REMARK SMILES CCCCCCCCCCCC(=O)[O-]
REMARK SMILES IDX 7 1 8 2 9 3 10 4 11 5 12 6 13 7 14 8 6 9 5 10 4 11 3 12 2 13
REMARK SMILES IDX 1 14
REMARK H PARENT
REMARK Flexibility Score: inf
ROOT
ATOM      1  C   UNL     1      56.788  26.832  51.409  1.00  0.00     0.000 C 
ENDROOT
BRANCH   1   2
ATOM      2  C   UNL     1      57.731  28.049  51.379  1.00  0.00     0.000 C 
BRANCH   2   3
ATOM      3  C   UNL     1      57.565  28.899  50.110  1.00  0.00     0.000 C 
BRANCH   3   4
ATOM      4  C   UNL     1      58.842  28.874  49.262  1.00  0.00     0.006 C 
BRANCH   4   5
ATOM      5  C   UNL     1      60.052  28.456  50.101  1.00  0.00     0.053 C 
BRANCH   5   6
ATOM      6  C   UNL     1      60.675  27.216  49.541  1.00  0.00     0.041 C 
ATOM      7  O   UNL     1      59.967  26.200  49.313  1.00  0.00    -0.550 OA
ATOM      8  O   UNL     1      62.027  27.198  49.226  1.00  0.00    -0.550 OA
ENDBRANCH   5   6
ENDBRANCH   4   5
ENDBRANCH   3   4
ENDBRANCH   2   3
ENDBRANCH   1   2
BRANCH   1   9
ATOM      9  C   UNL     1      56.540  26.161  50.042  1.00  0.00     0.000 C 
BRANCH   9  10
ATOM     10  C   UNL     1      55.071  26.134  49.581  1.00  0.00    -0.000 C 
BRANCH  10  11
ATOM     11  C   UNL     1      54.134  26.896  50.532  1.00  0.00    -0.000 C 
BRANCH  11  12
ATOM     12  C   UNL     1      53.466  28.106  49.857  1.00  0.00    -0.000 C 
BRANCH  12  13
ATOM     13  C   UNL     1      54.001  29.446  50.384  1.00  0.00    -0.003 C 
ATOM     14  C   UNL     1      53.044  30.054  51.407  1.00  0.00     0.004 C 
ENDBRANCH  12  13
ENDBRANCH  11  12
ENDBRANCH  10  11
ENDBRANCH   9  10
ENDBRANCH   1   9
TORSDOF 10
ENDMDL
MODEL 2
REMARK VINA RESULT:    -3.414      1.700      2.807
REMARK INTER + INTRA:          -6.501
REMARK INTER:                  -5.243
REMARK INTRA:                  -1.258
REMARK UNBOUND:                -1.092
REMARK SMILES CCCCCCCCCCCC(=O)[O-]
REMARK SMILES IDX 7 1 8 2 9 3 10 4 11 5 12 6 13 7 14 8 6 9 5 10 4 11 3 12 2 13
REMARK SMILES IDX 1 14
REMARK H PARENT
REMARK Flexibility Score: inf
ROOT
ATOM      1  C   UNL     1      56.853  26.767  52.103  1.00  0.00     0.000 C 
ENDROOT
BRANCH   1   2
ATOM      2  C   UNL     1      57.115  25.878  50.874  1.00  0.00     0.000 C 
BRANCH   2   3
ATOM      3  C   UNL     1      58.609  25.614  50.639  1.00  0.00     0.000 C 
BRANCH   3   4
ATOM      4  C   UNL     1      59.082  26.263  49.332  1.00  0.00     0.006 C 
BRANCH   4   5
ATOM      5  C   UNL     1      60.221  27.253  49.589  1.00  0.00     0.053 C 
BRANCH   5   6
ATOM      6  C   UNL     1      59.677  28.628  49.821  1.00  0.00     0.041 C 
ATOM      7  O   UNL     1      60.003  29.271  50.854  1.00  0.00    -0.550 OA
ATOM      8  O   UNL     1      58.851  29.218  48.875  1.00  0.00    -0.550 OA
ENDBRANCH   5   6
ENDBRANCH   4   5
ENDBRANCH   3   4
ENDBRANCH   2   3
ENDBRANCH   1   2
BRANCH   1   9
ATOM      9  C   UNL     1      56.619  28.260  51.795  1.00  0.00     0.000 C 
BRANCH   9  10
ATOM     10  C   UNL     1      55.864  28.550  50.484  1.00  0.00    -0.000 C 
BRANCH  10  11
ATOM     11  C   UNL     1      54.354  28.742  50.696  1.00  0.00    -0.000 C 
BRANCH  11  12
ATOM     12  C   UNL     1      53.510  27.930  49.698  1.00  0.00    -0.000 C 
BRANCH  12  13
ATOM     13  C   UNL     1      53.339  26.464  50.123  1.00  0.00    -0.003 C 
ATOM     14  C   UNL     1      53.900  25.518  49.064  1.00  0.00     0.004 C 
ENDBRANCH  12  13
ENDBRANCH  11  12
ENDBRANCH  10  11
ENDBRANCH   9  10
ENDBRANCH   1   9
TORSDOF 10
ENDMDL
MODEL 3
REMARK VINA RESULT:    -3.368      1.611      2.886
REMARK INTER + INTRA:          -6.428
REMARK INTER:                  -5.499
REMARK INTRA:                  -0.930
REMARK UNBOUND:                -1.092
REMARK SMILES CCCCCCCCCCCC(=O)[O-]
REMARK SMILES IDX 7 1 8 2 9 3 10 4 11 5 12 6 13 7 14 8 6 9 5 10 4 11 3 12 2 13
REMARK SMILES IDX 1 14
REMARK H PARENT
REMARK Flexibility Score: inf
ROOT
ATOM      1  C   UNL     1      56.894  28.753  50.281  1.00  0.00     0.000 C 
ENDROOT
BRANCH   1   2
ATOM      2  C   UNL     1      58.373  29.164  50.391  1.00  0.00     0.000 C 
BRANCH   2   3
ATOM      3  C   UNL     1      59.202  28.738  49.171  1.00  0.00     0.000 C 
BRANCH   3   4
ATOM      4  C   UNL     1      60.142  27.578  49.523  1.00  0.00     0.006 C 
BRANCH   4   5
ATOM      5  C   UNL     1      59.432  26.230  49.373  1.00  0.00     0.053 C 
BRANCH   5   6
ATOM      6  C   UNL     1      59.104  25.657  50.715  1.00  0.00     0.041 C 
ATOM      7  O   UNL     1      60.014  25.475  51.565  1.00  0.00    -0.550 OA
ATOM      8  O   UNL     1      57.786  25.371  51.046  1.00  0.00    -0.550 OA
ENDBRANCH   5   6
ENDBRANCH   4   5
ENDBRANCH   3   4
ENDBRANCH   2   3
ENDBRANCH   1   2
BRANCH   1   9
ATOM      9  C   UNL     1      56.163  28.565  51.626  1.00  0.00     0.000 C 
BRANCH   9  10
ATOM     10  C   UNL     1      54.742  29.153  51.689  1.00  0.00    -0.000 C 
BRANCH  10  11
ATOM     11  C   UNL     1      53.951  28.942  50.388  1.00  0.00    -0.000 C 
BRANCH  11  12
ATOM     12  C   UNL     1      53.092  27.666  50.419  1.00  0.00    -0.000 C 
BRANCH  12  13
ATOM     13  C   UNL     1      53.345  26.754  49.210  1.00  0.00    -0.003 C 
ATOM     14  C   UNL     1      54.604  25.913  49.411  1.00  0.00     0.004 C 
ENDBRANCH  12  13
ENDBRANCH  11  12
ENDBRANCH  10  11
ENDBRANCH   9  10
ENDBRANCH   1   9
TORSDOF 10
ENDMDL
MODEL 4
REMARK VINA RESULT:    -3.360     12.116     13.702
REMARK INTER + INTRA:          -6.415
REMARK INTER:                  -5.216
REMARK INTRA:                  -1.199
REMARK UNBOUND:                -1.092
REMARK SMILES CCCCCCCCCCCC(=O)[O-]
REMARK SMILES IDX 7 1 8 2 9 3 10 4 11 5 12 6 13 7 14 8 6 9 5 10 4 11 3 12 2 13
REMARK SMILES IDX 1 14
REMARK H PARENT
REMARK Flexibility Score: inf
ROOT
ATOM      1  C   UNL     1      62.456  32.056  58.747  1.00  0.00     0.000 C 
ENDROOT
BRANCH   1   2
ATOM      2  C   UNL     1      63.921  32.456  58.998  1.00  0.00     0.000 C 
BRANCH   2   3
ATOM      3  C   UNL     1      64.711  31.377  59.753  1.00  0.00     0.000 C 
BRANCH   3   4
ATOM      4  C   UNL     1      64.275  31.304  61.221  1.00  0.00     0.006 C 
BRANCH   4   5
ATOM      5  C   UNL     1      63.933  29.866  61.622  1.00  0.00     0.053 C 
BRANCH   5   6
ATOM      6  C   UNL     1      62.450  29.675  61.674  1.00  0.00     0.041 C 
ATOM      7  O   UNL     1      61.710  30.586  62.132  1.00  0.00    -0.550 OA
ATOM      8  O   UNL     1      61.880  28.513  61.174  1.00  0.00    -0.550 OA
ENDBRANCH   5   6
ENDBRANCH   4   5
ENDBRANCH   3   4
ENDBRANCH   2   3
ENDBRANCH   1   2
BRANCH   1   9
ATOM      9  C   UNL     1      61.406  33.090  59.202  1.00  0.00     0.000 C 
BRANCH   9  10
ATOM     10  C   UNL     1      61.709  33.787  60.541  1.00  0.00    -0.000 C 
BRANCH  10  11
ATOM     11  C   UNL     1      61.779  35.317  60.415  1.00  0.00    -0.000 C 
BRANCH  11  12
ATOM     12  C   UNL     1      62.795  35.944  61.385  1.00  0.00    -0.000 C 
BRANCH  12  13
ATOM     13  C   UNL     1      64.054  35.082  61.561  1.00  0.00    -0.003 C 
ATOM     14  C   UNL     1      65.311  35.949  61.595  1.00  0.00     0.004 C 
ENDBRANCH  12  13
ENDBRANCH  11  12
ENDBRANCH  10  11
ENDBRANCH   9  10
ENDBRANCH   1   9
TORSDOF 10
ENDMDL
MODEL 5
REMARK VINA RESULT:    -3.354     12.061     13.729
REMARK INTER + INTRA:          -6.407
REMARK INTER:                  -5.098
REMARK INTRA:                  -1.309
REMARK UNBOUND:                -1.092
REMARK SMILES CCCCCCCCCCCC(=O)[O-]
REMARK SMILES IDX 7 1 8 2 9 3 10 4 11 5 12 6 13 7 14 8 6 9 5 10 4 11 3 12 2 13
REMARK SMILES IDX 1 14
REMARK H PARENT
REMARK Flexibility Score: inf
ROOT
ATOM      1  C   UNL     1      60.792  31.149  60.282  1.00  0.00     0.000 C 
ENDROOT
BRANCH   1   2
ATOM      2  C   UNL     1      61.068  32.560  59.730  1.00  0.00     0.000 C 
BRANCH   2   3
ATOM      3  C   UNL     1      61.764  33.472  60.751  1.00  0.00     0.000 C 
BRANCH   3   4
ATOM      4  C   UNL     1      61.859  34.910  60.226  1.00  0.00     0.006 C 
BRANCH   4   5
ATOM      5  C   UNL     1      62.684  35.788  61.172  1.00  0.00     0.053 C 
BRANCH   5   6
ATOM      6  C   UNL     1      64.126  35.390  61.133  1.00  0.00     0.041 C 
ATOM      7  O   UNL     1      64.774  35.257  62.204  1.00  0.00    -0.550 OA
ATOM      8  O   UNL     1      64.740  35.118  59.918  1.00  0.00    -0.550 OA
ENDBRANCH   5   6
ENDBRANCH   4   5
ENDBRANCH   3   4
ENDBRANCH   2   3
ENDBRANCH   1   2
BRANCH   1   9
ATOM      9  C   UNL     1      61.188  30.934  61.757  1.00  0.00     0.000 C 
BRANCH   9  10
ATOM     10  C   UNL     1      62.212  29.811  62.005  1.00  0.00    -0.000 C 
BRANCH  10  11
ATOM     11  C   UNL     1      63.384  29.843  61.011  1.00  0.00    -0.000 C 
BRANCH  11  12
ATOM     12  C   UNL     1      64.317  31.045  61.238  1.00  0.00    -0.000 C 
BRANCH  12  13
ATOM     13  C   UNL     1      64.917  31.584  59.932  1.00  0.00    -0.003 C 
ATOM     14  C   UNL     1      64.225  30.971  58.717  1.00  0.00     0.004 C 
ENDBRANCH  12  13
ENDBRANCH  11  12
ENDBRANCH  10  11
ENDBRANCH   9  10
ENDBRANCH   1   9
TORSDOF 10
ENDMDL
MODEL 6
REMARK VINA RESULT:    -3.344      1.537      2.654
REMARK INTER + INTRA:          -6.391
REMARK INTER:                  -5.616
REMARK INTRA:                  -0.775
REMARK UNBOUND:                -1.092
REMARK SMILES CCCCCCCCCCCC(=O)[O-]
REMARK SMILES IDX 7 1 8 2 9 3 10 4 11 5 12 6 13 7 14 8 6 9 5 10 4 11 3 12 2 13
REMARK SMILES IDX 1 14
REMARK H PARENT
REMARK Flexibility Score: inf
ROOT
ATOM      1  C   UNL     1      57.500  27.936  50.038  1.00  0.00     0.000 C 
ENDROOT
BRANCH   1   2
ATOM      2  C   UNL     1      57.846  26.436  50.027  1.00  0.00     0.000 C 
BRANCH   2   3
ATOM      3  C   UNL     1      59.319  26.167  49.685  1.00  0.00     0.000 C 
BRANCH   3   4
ATOM      4  C   UNL     1      60.003  27.439  49.168  1.00  0.00     0.006 C 
BRANCH   4   5
ATOM      5  C   UNL     1      61.269  27.748  49.972  1.00  0.00     0.053 C 
BRANCH   5   6
ATOM      6  C   UNL     1      62.454  27.062  49.369  1.00  0.00     0.041 C 
ATOM      7  O   UNL     1      63.092  27.608  48.432  1.00  0.00    -0.550 OA
ATOM      8  O   UNL     1      62.882  25.842  49.874  1.00  0.00    -0.550 OA
ENDBRANCH   5   6
ENDBRANCH   4   5
ENDBRANCH   3   4
ENDBRANCH   2   3
ENDBRANCH   1   2
BRANCH   1   9
ATOM      9  C   UNL     1      56.619  28.397  51.217  1.00  0.00     0.000 C 
BRANCH   9  10
ATOM     10  C   UNL     1      55.292  29.070  50.822  1.00  0.00    -0.000 C 
BRANCH  10  11
ATOM     11  C   UNL     1      54.082  28.131  50.960  1.00  0.00    -0.000 C 
BRANCH  11  12
ATOM     12  C   UNL     1      53.348  27.914  49.626  1.00  0.00    -0.000 C 
BRANCH  12  13
ATOM     13  C   UNL     1      53.053  26.434  49.347  1.00  0.00    -0.003 C 
ATOM     14  C   UNL     1      54.344  25.647  49.134  1.00  0.00     0.004 C 
ENDBRANCH  12  13
ENDBRANCH  11  12
ENDBRANCH  10  11
ENDBRANCH   9  10
ENDBRANCH   1   9
TORSDOF 10
ENDMDL
MODEL 7
REMARK VINA RESULT:    -3.334      2.998      5.416
REMARK INTER + INTRA:          -6.375
REMARK INTER:                  -5.033
REMARK INTRA:                  -1.341
REMARK UNBOUND:                -1.092
REMARK SMILES CCCCCCCCCCCC(=O)[O-]
REMARK SMILES IDX 7 1 8 2 9 3 10 4 11 5 12 6 13 7 14 8 6 9 5 10 4 11 3 12 2 13
REMARK SMILES IDX 1 14
REMARK H PARENT
REMARK Flexibility Score: inf
ROOT
ATOM      1  C   UNL     1      58.613  29.139  51.037  1.00  0.00     0.000 C 
ENDROOT
BRANCH   1   2
ATOM      2  C   UNL     1      57.161  28.990  51.526  1.00  0.00     0.000 C 
BRANCH   2   3
ATOM      3  C   UNL     1      56.172  28.723  50.382  1.00  0.00     0.000 C 
BRANCH   3   4
ATOM      4  C   UNL     1      54.854  28.151  50.917  1.00  0.00     0.006 C 
BRANCH   4   5
ATOM      5  C   UNL     1      54.062  27.459  49.804  1.00  0.00     0.053 C 
BRANCH   5   6
ATOM      6  C   UNL     1      54.048  25.978  50.014  1.00  0.00     0.041 C 
ATOM      7  O   UNL     1      53.766  25.206  49.060  1.00  0.00    -0.550 OA
ATOM      8  O   UNL     1      54.393  25.447  51.249  1.00  0.00    -0.550 OA
ENDBRANCH   5   6
ENDBRANCH   4   5
ENDBRANCH   3   4
ENDBRANCH   2   3
ENDBRANCH   1   2
BRANCH   1   9
ATOM      9  C   UNL     1      58.833  28.851  49.538  1.00  0.00     0.000 C 
BRANCH   9  10
ATOM     10  C   UNL     1      60.033  27.942  49.214  1.00  0.00    -0.000 C 
BRANCH  10  11
ATOM     11  C   UNL     1      59.912  26.546  49.846  1.00  0.00    -0.000 C 
BRANCH  11  12
ATOM     12  C   UNL     1      58.532  25.909  49.611  1.00  0.00    -0.000 C 
BRANCH  12  13
ATOM     13  C   UNL     1      57.907  25.359  50.900  1.00  0.00    -0.003 C 
ATOM     14  C   UNL     1      58.844  25.551  52.090  1.00  0.00     0.004 C 
ENDBRANCH  12  13
ENDBRANCH  11  12
ENDBRANCH  10  11
ENDBRANCH   9  10
ENDBRANCH   1   9
TORSDOF 10
ENDMDL
MODEL 8
REMARK VINA RESULT:    -3.316     12.458     13.884
REMARK INTER + INTRA:          -6.347
REMARK INTER:                  -5.608
REMARK INTRA:                  -0.739
REMARK UNBOUND:                -1.092
REMARK SMILES CCCCCCCCCCCC(=O)[O-]
REMARK SMILES IDX 7 1 8 2 9 3 10 4 11 5 12 6 13 7 14 8 6 9 5 10 4 11 3 12 2 13
REMARK SMILES IDX 1 14
REMARK H PARENT
REMARK Flexibility Score: inf
ROOT
ATOM      1  C   UNL     1      61.089  31.238  61.077  1.00  0.00     0.000 C 
ENDROOT
BRANCH   1   2
ATOM      2  C   UNL     1      62.005  30.394  61.982  1.00  0.00     0.000 C 
BRANCH   2   3
ATOM      3  C   UNL     1      62.120  28.935  61.518  1.00  0.00     0.000 C 
BRANCH   3   4
ATOM      4  C   UNL     1      63.457  28.688  60.808  1.00  0.00     0.006 C 
BRANCH   4   5
ATOM      5  C   UNL     1      64.579  29.510  61.447  1.00  0.00     0.053 C 
BRANCH   5   6
ATOM      6  C   UNL     1      65.905  29.124  60.872  1.00  0.00     0.041 C 
ATOM      7  O   UNL     1      66.451  29.847  59.997  1.00  0.00    -0.550 OA
ATOM      8  O   UNL     1      66.561  27.991  61.335  1.00  0.00    -0.550 OA
ENDBRANCH   5   6
ENDBRANCH   4   5
ENDBRANCH   3   4
ENDBRANCH   2   3
ENDBRANCH   1   2
BRANCH   1   9
ATOM      9  C   UNL     1      61.683  32.585  60.617  1.00  0.00     0.000 C 
BRANCH   9  10
ATOM     10  C   UNL     1      63.187  32.767  60.890  1.00  0.00    -0.000 C 
BRANCH  10  11
ATOM     11  C   UNL     1      63.692  34.175  60.534  1.00  0.00    -0.000 C 
BRANCH  11  12
ATOM     12  C   UNL     1      62.727  35.281  60.995  1.00  0.00    -0.000 C 
BRANCH  12  13
ATOM     13  C   UNL     1      63.450  36.447  61.684  1.00  0.00    -0.003 C 
ATOM     14  C   UNL     1      64.887  36.071  62.036  1.00  0.00     0.004 C 
ENDBRANCH  12  13
ENDBRANCH  11  12
ENDBRANCH  10  11
ENDBRANCH   9  10
ENDBRANCH   1   9
TORSDOF 10
ENDMDL
MODEL 9
REMARK VINA RESULT:    -3.316      3.172      5.362
REMARK INTER + INTRA:          -6.346
REMARK INTER:                  -4.649
REMARK INTRA:                  -1.697
REMARK UNBOUND:                -1.092
REMARK SMILES CCCCCCCCCCCC(=O)[O-]
REMARK SMILES IDX 7 1 8 2 9 3 10 4 11 5 12 6 13 7 14 8 6 9 5 10 4 11 3 12 2 13
REMARK SMILES IDX 1 14
REMARK H PARENT
REMARK Flexibility Score: inf
ROOT
ATOM      1  C   UNL     1      58.932  25.884  49.933  1.00  0.00     0.000 C 
ENDROOT
BRANCH   1   2
ATOM      2  C   UNL     1      57.409  26.102  49.905  1.00  0.00     0.000 C 
BRANCH   2   3
ATOM      3  C   UNL     1      56.746  25.842  51.266  1.00  0.00     0.000 C 
BRANCH   3   4
ATOM      4  C   UNL     1      55.490  26.704  51.439  1.00  0.00     0.006 C 
BRANCH   4   5
ATOM      5  C   UNL     1      55.209  27.526  50.178  1.00  0.00     0.053 C 
BRANCH   5   6
ATOM      6  C   UNL     1      53.889  27.141  49.585  1.00  0.00     0.041 C 
ATOM      7  O   UNL     1      52.937  27.965  49.574  1.00  0.00    -0.550 OA
ATOM      8  O   UNL     1      53.726  25.892  49.003  1.00  0.00    -0.550 OA
ENDBRANCH   5   6
ENDBRANCH   4   5
ENDBRANCH   3   4
ENDBRANCH   2   3
ENDBRANCH   1   2
BRANCH   1   9
ATOM      9  C   UNL     1      59.769  27.022  49.313  1.00  0.00     0.000 C 
BRANCH   9  10
ATOM     10  C   UNL     1      59.086  28.402  49.291  1.00  0.00    -0.000 C 
BRANCH  10  11
ATOM     11  C   UNL     1      59.381  29.234  50.549  1.00  0.00    -0.000 C 
BRANCH  11  12
ATOM     12  C   UNL     1      58.118  29.509  51.384  1.00  0.00    -0.000 C 
BRANCH  12  13
ATOM     13  C   UNL     1      58.199  28.909  52.795  1.00  0.00    -0.003 C 
ATOM     14  C   UNL     1      59.450  28.047  52.954  1.00  0.00     0.004 C 
ENDBRANCH  12  13
ENDBRANCH  11  12
ENDBRANCH  10  11
ENDBRANCH   9  10
ENDBRANCH   1   9
TORSDOF 10
ENDMDL
