MODEL 1
REMARK VINA RESULT:    -7.138      0.000      0.000
REMARK INTER + INTRA:          -9.124
REMARK INTER:                  -8.807
REMARK INTRA:                  -0.316
REMARK UNBOUND:                -0.316
REMARK SMILES Oc1cc(O)c2cc(O)c(-c3cc(O)c(O)c(O)c3)[o+]c2c1
REMARK SMILES IDX 10 1 20 2 21 3 22 4 2 5 3 6 4 7 6 8 7 9 8 10 11 11 12 12
REMARK SMILES IDX 13 13 19 14 15 15 17 16 14 17 16 19 18 21 9 23 1 25 5 27
REMARK H PARENT 14 18 16 20 18 22 9 24 1 26 5 28
REMARK Flexibility Score: inf
ROOT
ATOM      1  C   UNL     1     -18.676  -6.476  21.938  1.00  0.00     0.402 A 
ATOM      2  O   UNL     1     -19.401  -6.488  23.054  1.00  0.00    -0.202 OA
ATOM      3  C   UNL     1     -19.432  -5.477  23.916  1.00  0.00     0.368 A 
ATOM      4  C   UNL     1     -20.227  -5.581  25.059  1.00  0.00     0.162 A 
ATOM      5  C   UNL     1     -20.280  -4.532  25.981  1.00  0.00     0.128 A 
ATOM      6  C   UNL     1     -19.535  -3.373  25.757  1.00  0.00     0.093 A 
ATOM      7  C   UNL     1     -18.730  -3.243  24.618  1.00  0.00     0.136 A 
ATOM      8  C   UNL     1     -18.671  -4.307  23.681  1.00  0.00     0.125 A 
ATOM      9  C   UNL     1     -17.882  -4.269  22.519  1.00  0.00     0.078 A 
ATOM     10  C   UNL     1     -17.872  -5.360  21.644  1.00  0.00     0.223 A 
ENDROOT
BRANCH   1  11
ATOM     11  C   UNL     1     -18.734  -7.661  21.052  1.00  0.00     0.091 A 
ATOM     12  C   UNL     1     -19.843  -7.840  20.211  1.00  0.00     0.068 A 
ATOM     13  C   UNL     1     -19.914  -8.942  19.347  1.00  0.00     0.162 A 
ATOM     14  C   UNL     1     -17.674  -8.582  20.992  1.00  0.00     0.068 A 
ATOM     15  C   UNL     1     -18.859  -9.870  19.310  1.00  0.00     0.200 A 
ATOM     16  C   UNL     1     -17.738  -9.685  20.130  1.00  0.00     0.162 A 
BRANCH  13  17
ATOM     17  O   UNL     1     -21.027  -9.117  18.527  1.00  0.00    -0.504 OA
ATOM     18  H   UNL     1     -21.317 -10.037  18.215  1.00  0.00     0.293 HD
ENDBRANCH  13  17
BRANCH  15  19
ATOM     19  O   UNL     1     -18.907 -10.976  18.460  1.00  0.00    -0.502 OA
ATOM     20  H   UNL     1     -18.595 -10.930  17.498  1.00  0.00     0.293 HD
ENDBRANCH  15  19
BRANCH  16  21
ATOM     21  O   UNL     1     -16.688 -10.600  20.078  1.00  0.00    -0.504 OA
ATOM     22  H   UNL     1     -16.751 -11.505  20.530  1.00  0.00     0.293 HD
ENDBRANCH  16  21
ENDBRANCH   1  11
BRANCH  10  23
ATOM     23  O   UNL     1     -17.050  -5.344  20.517  1.00  0.00    -0.500 OA
ATOM     24  H   UNL     1     -17.433  -5.311  19.580  1.00  0.00     0.294 HD
ENDBRANCH  10  23
BRANCH   5  25
ATOM     25  O   UNL     1     -21.071  -4.630  27.124  1.00  0.00    -0.507 OA
ATOM     26  H   UNL     1     -20.661  -4.726  28.045  1.00  0.00     0.293 HD
ENDBRANCH   5  25
BRANCH   7  27
ATOM     27  O   UNL     1     -18.018  -2.049  24.465  1.00  0.00    -0.507 OA
ATOM     28  H   UNL     1     -18.428  -1.173  24.177  1.00  0.00     0.293 HD
ENDBRANCH   7  27
TORSDOF 7
ENDMDL
MODEL 2
REMARK VINA RESULT:    -6.885      0.263      1.804
REMARK INTER + INTRA:          -8.812
REMARK INTER:                  -8.514
REMARK INTRA:                  -0.298
REMARK UNBOUND:                -0.316
REMARK SMILES Oc1cc(O)c2cc(O)c(-c3cc(O)c(O)c(O)c3)[o+]c2c1
REMARK SMILES IDX 10 1 20 2 21 3 22 4 2 5 3 6 4 7 6 8 7 9 8 10 11 11 12 12
REMARK SMILES IDX 13 13 19 14 15 15 17 16 14 17 16 19 18 21 9 23 1 25 5 27
REMARK H PARENT 14 18 16 20 18 22 9 24 1 26 5 28
REMARK Flexibility Score: inf
ROOT
ATOM      1  C   UNL     1     -18.572  -6.446  22.040  1.00  0.00     0.402 A 
ATOM      2  O   UNL     1     -19.385  -6.428  23.093  1.00  0.00    -0.202 OA
ATOM      3  C   UNL     1     -19.371  -5.464  24.008  1.00  0.00     0.368 A 
ATOM      4  C   UNL     1     -20.266  -5.530  25.079  1.00  0.00     0.162 A 
ATOM      5  C   UNL     1     -20.275  -4.529  26.054  1.00  0.00     0.128 A 
ATOM      6  C   UNL     1     -19.387  -3.456  25.957  1.00  0.00     0.093 A 
ATOM      7  C   UNL     1     -18.481  -3.366  24.893  1.00  0.00     0.136 A 
ATOM      8  C   UNL     1     -18.465  -4.382  23.903  1.00  0.00     0.125 A 
ATOM      9  C   UNL     1     -17.583  -4.380  22.809  1.00  0.00     0.078 A 
ATOM     10  C   UNL     1     -17.624  -5.420  21.875  1.00  0.00     0.223 A 
ENDROOT
BRANCH   1  11
ATOM     11  C   UNL     1     -18.690  -7.571  21.083  1.00  0.00     0.091 A 
ATOM     12  C   UNL     1     -17.718  -8.584  21.086  1.00  0.00     0.068 A 
ATOM     13  C   UNL     1     -17.815  -9.670  20.205  1.00  0.00     0.162 A 
ATOM     14  C   UNL     1     -19.786  -7.678  20.211  1.00  0.00     0.068 A 
ATOM     15  C   UNL     1     -18.904  -9.757  19.321  1.00  0.00     0.200 A 
ATOM     16  C   UNL     1     -19.891  -8.762  19.329  1.00  0.00     0.162 A 
BRANCH  13  17
ATOM     17  O   UNL     1     -16.837 -10.662  20.207  1.00  0.00    -0.504 OA
ATOM     18  H   UNL     1     -17.031 -11.598  20.543  1.00  0.00     0.293 HD
ENDBRANCH  13  17
BRANCH  15  19
ATOM     19  O   UNL     1     -19.023 -10.827  18.433  1.00  0.00    -0.502 OA
ATOM     20  H   UNL     1     -19.734 -10.852  17.713  1.00  0.00     0.293 HD
ENDBRANCH  15  19
BRANCH  16  21
ATOM     21  O   UNL     1     -20.976  -8.861  18.460  1.00  0.00    -0.504 OA
ATOM     22  H   UNL     1     -20.980  -9.518  17.689  1.00  0.00     0.293 HD
ENDBRANCH  16  21
ENDBRANCH   1  11
BRANCH  10  23
ATOM     23  O   UNL     1     -16.714  -5.446  20.817  1.00  0.00    -0.500 OA
ATOM     24  H   UNL     1     -17.000  -5.251  19.865  1.00  0.00     0.294 HD
ENDBRANCH  10  23
BRANCH   5  25
ATOM     25  O   UNL     1     -21.165  -4.589  27.125  1.00  0.00    -0.507 OA
ATOM     26  H   UNL     1     -22.119  -4.906  27.003  1.00  0.00     0.293 HD
ENDBRANCH   5  25
BRANCH   7  27
ATOM     27  O   UNL     1     -17.627  -2.259  24.867  1.00  0.00    -0.507 OA
ATOM     28  H   UNL     1     -17.241  -1.817  25.686  1.00  0.00     0.293 HD
ENDBRANCH   7  27
TORSDOF 7
ENDMDL
MODEL 3
REMARK VINA RESULT:    -6.851      1.157      7.012
REMARK INTER + INTRA:          -8.769
REMARK INTER:                  -8.723
REMARK INTRA:                  -0.046
REMARK UNBOUND:                -0.316
REMARK SMILES Oc1cc(O)c2cc(O)c(-c3cc(O)c(O)c(O)c3)[o+]c2c1
REMARK SMILES IDX 10 1 20 2 21 3 22 4 2 5 3 6 4 7 6 8 7 9 8 10 11 11 12 12
REMARK SMILES IDX 13 13 19 14 15 15 17 16 14 17 16 19 18 21 9 23 1 25 5 27
REMARK H PARENT 14 18 16 20 18 22 9 24 1 26 5 28
REMARK Flexibility Score: inf
ROOT
ATOM      1  C   UNL     1     -18.631  -6.396  22.670  1.00  0.00     0.402 A 
ATOM      2  O   UNL     1     -19.655  -7.126  22.235  1.00  0.00    -0.202 OA
ATOM      3  C   UNL     1     -19.539  -8.060  21.296  1.00  0.00     0.368 A 
ATOM      4  C   UNL     1     -20.673  -8.777  20.907  1.00  0.00     0.162 A 
ATOM      5  C   UNL     1     -20.579  -9.766  19.924  1.00  0.00     0.128 A 
ATOM      6  C   UNL     1     -19.345 -10.040  19.330  1.00  0.00     0.093 A 
ATOM      7  C   UNL     1     -18.194  -9.336  19.702  1.00  0.00     0.136 A 
ATOM      8  C   UNL     1     -18.285  -8.328  20.698  1.00  0.00     0.125 A 
ATOM      9  C   UNL     1     -17.186  -7.564  21.125  1.00  0.00     0.078 A 
ATOM     10  C   UNL     1     -17.355  -6.584  22.108  1.00  0.00     0.223 A 
ENDROOT
BRANCH   1  11
ATOM     11  C   UNL     1     -18.885  -5.393  23.729  1.00  0.00     0.091 A 
ATOM     12  C   UNL     1     -19.521  -5.788  24.917  1.00  0.00     0.068 A 
ATOM     13  C   UNL     1     -19.756  -4.863  25.943  1.00  0.00     0.162 A 
ATOM     14  C   UNL     1     -18.453  -4.062  23.595  1.00  0.00     0.068 A 
ATOM     15  C   UNL     1     -19.339  -3.530  25.792  1.00  0.00     0.200 A 
ATOM     16  C   UNL     1     -18.683  -3.133  24.618  1.00  0.00     0.162 A 
BRANCH  13  17
ATOM     17  O   UNL     1     -20.400  -5.264  27.112  1.00  0.00    -0.504 OA
ATOM     18  H   UNL     1     -21.270  -4.837  27.412  1.00  0.00     0.293 HD
ENDBRANCH  13  17
BRANCH  15  19
ATOM     19  O   UNL     1     -19.563  -2.590  26.798  1.00  0.00    -0.502 OA
ATOM     20  H   UNL     1     -18.911  -2.451  27.560  1.00  0.00     0.293 HD
ENDBRANCH  15  19
BRANCH  16  21
ATOM     21  O   UNL     1     -18.259  -1.812  24.479  1.00  0.00    -0.504 OA
ATOM     22  H   UNL     1     -18.894  -1.035  24.614  1.00  0.00     0.293 HD
ENDBRANCH  16  21
ENDBRANCH   1  11
BRANCH  10  23
ATOM     23  O   UNL     1     -16.275  -5.790  22.496  1.00  0.00    -0.500 OA
ATOM     24  H   UNL     1     -15.985  -4.985  21.954  1.00  0.00     0.294 HD
ENDBRANCH  10  23
BRANCH   5  25
ATOM     25  O   UNL     1     -21.706 -10.485  19.530  1.00  0.00    -0.507 OA
ATOM     26  H   UNL     1     -22.394 -10.089  18.901  1.00  0.00     0.293 HD
ENDBRANCH   5  25
BRANCH   7  27
ATOM     27  O   UNL     1     -16.997  -9.673  19.062  1.00  0.00    -0.507 OA
ATOM     28  H   UNL     1     -16.238 -10.172  19.500  1.00  0.00     0.293 HD
ENDBRANCH   7  27
TORSDOF 7
ENDMDL
MODEL 4
REMARK VINA RESULT:    -6.804      1.127      7.037
REMARK INTER + INTRA:          -8.712
REMARK INTER:                  -8.604
REMARK INTRA:                  -0.108
REMARK UNBOUND:                -0.316
REMARK SMILES Oc1cc(O)c2cc(O)c(-c3cc(O)c(O)c(O)c3)[o+]c2c1
REMARK SMILES IDX 10 1 20 2 21 3 22 4 2 5 3 6 4 7 6 8 7 9 8 10 11 11 12 12
REMARK SMILES IDX 13 13 19 14 15 15 17 16 14 17 16 19 18 21 9 23 1 25 5 27
REMARK H PARENT 14 18 16 20 18 22 9 24 1 26 5 28
REMARK Flexibility Score: inf
ROOT
ATOM      1  C   UNL     1     -18.596  -6.359  22.779  1.00  0.00     0.402 A 
ATOM      2  O   UNL     1     -19.626  -7.006  22.241  1.00  0.00    -0.202 OA
ATOM      3  C   UNL     1     -19.494  -7.925  21.289  1.00  0.00     0.368 A 
ATOM      4  C   UNL     1     -20.637  -8.553  20.788  1.00  0.00     0.162 A 
ATOM      5  C   UNL     1     -20.527  -9.525  19.789  1.00  0.00     0.128 A 
ATOM      6  C   UNL     1     -19.269  -9.870  19.292  1.00  0.00     0.093 A 
ATOM      7  C   UNL     1     -18.109  -9.256  19.778  1.00  0.00     0.136 A 
ATOM      8  C   UNL     1     -18.215  -8.266  20.789  1.00  0.00     0.125 A 
ATOM      9  C   UNL     1     -17.108  -7.590  21.327  1.00  0.00     0.078 A 
ATOM     10  C   UNL     1     -17.292  -6.622  22.319  1.00  0.00     0.223 A 
ENDROOT
BRANCH   1  11
ATOM     11  C   UNL     1     -18.871  -5.363  23.840  1.00  0.00     0.091 A 
ATOM     12  C   UNL     1     -18.451  -4.035  23.666  1.00  0.00     0.068 A 
ATOM     13  C   UNL     1     -18.716  -3.067  24.645  1.00  0.00     0.162 A 
ATOM     14  C   UNL     1     -19.595  -5.705  24.995  1.00  0.00     0.068 A 
ATOM     15  C   UNL     1     -19.421  -3.424  25.806  1.00  0.00     0.200 A 
ATOM     16  C   UNL     1     -19.864  -4.742  25.977  1.00  0.00     0.162 A 
BRANCH  13  17
ATOM     17  O   UNL     1     -18.282  -1.755  24.467  1.00  0.00    -0.504 OA
ATOM     18  H   UNL     1     -18.389  -1.276  23.580  1.00  0.00     0.293 HD
ENDBRANCH  13  17
BRANCH  15  19
ATOM     19  O   UNL     1     -19.695  -2.479  26.796  1.00  0.00    -0.502 OA
ATOM     20  H   UNL     1     -19.977  -1.533  26.574  1.00  0.00     0.293 HD
ENDBRANCH  15  19
BRANCH  16  21
ATOM     21  O   UNL     1     -20.576  -5.087  27.125  1.00  0.00    -0.504 OA
ATOM     22  H   UNL     1     -20.273  -5.840  27.731  1.00  0.00     0.293 HD
ENDBRANCH  16  21
ENDBRANCH   1  11
BRANCH  10  23
ATOM     23  O   UNL     1     -16.198  -5.913  22.817  1.00  0.00    -0.500 OA
ATOM     24  H   UNL     1     -15.832  -5.097  22.342  1.00  0.00     0.294 HD
ENDBRANCH  10  23
BRANCH   5  25
ATOM     25  O   UNL     1     -21.663 -10.155  19.284  1.00  0.00    -0.507 OA
ATOM     26  H   UNL     1     -21.596 -10.886  18.586  1.00  0.00     0.293 HD
ENDBRANCH   5  25
BRANCH   7  27
ATOM     27  O   UNL     1     -16.887  -9.661  19.230  1.00  0.00    -0.507 OA
ATOM     28  H   UNL     1     -16.567 -10.616  19.195  1.00  0.00     0.293 HD
ENDBRANCH   7  27
TORSDOF 7
ENDMDL
MODEL 5
REMARK VINA RESULT:    -6.474      1.070      2.601
REMARK INTER + INTRA:          -8.304
REMARK INTER:                  -7.927
REMARK INTRA:                  -0.377
REMARK UNBOUND:                -0.316
REMARK SMILES Oc1cc(O)c2cc(O)c(-c3cc(O)c(O)c(O)c3)[o+]c2c1
REMARK SMILES IDX 10 1 20 2 21 3 22 4 2 5 3 6 4 7 6 8 7 9 8 10 11 11 12 12
REMARK SMILES IDX 13 13 19 14 15 15 17 16 14 17 16 19 18 21 9 23 1 25 5 27
REMARK H PARENT 14 18 16 20 18 22 9 24 1 26 5 28
REMARK Flexibility Score: inf
ROOT
ATOM      1  C   UNL     1     -19.371  -7.465  22.697  1.00  0.00     0.402 A 
ATOM      2  O   UNL     1     -18.914  -6.219  22.607  1.00  0.00    -0.202 OA
ATOM      3  C   UNL     1     -18.996  -5.337  23.599  1.00  0.00     0.368 A 
ATOM      4  C   UNL     1     -18.484  -4.052  23.410  1.00  0.00     0.162 A 
ATOM      5  C   UNL     1     -18.555  -3.106  24.437  1.00  0.00     0.128 A 
ATOM      6  C   UNL     1     -19.138  -3.449  25.658  1.00  0.00     0.093 A 
ATOM      7  C   UNL     1     -19.658  -4.731  25.873  1.00  0.00     0.136 A 
ATOM      8  C   UNL     1     -19.592  -5.693  24.832  1.00  0.00     0.125 A 
ATOM      9  C   UNL     1     -20.099  -6.998  24.954  1.00  0.00     0.078 A 
ATOM     10  C   UNL     1     -20.001  -7.890  23.882  1.00  0.00     0.223 A 
ENDROOT
BRANCH   1  11
ATOM     11  C   UNL     1     -19.212  -8.356  21.526  1.00  0.00     0.091 A 
ATOM     12  C   UNL     1     -20.233  -8.420  20.564  1.00  0.00     0.068 A 
ATOM     13  C   UNL     1     -20.100  -9.240  19.435  1.00  0.00     0.162 A 
ATOM     14  C   UNL     1     -18.035  -9.097  21.324  1.00  0.00     0.068 A 
ATOM     15  C   UNL     1     -18.928  -9.995  19.253  1.00  0.00     0.200 A 
ATOM     16  C   UNL     1     -17.895  -9.917  20.197  1.00  0.00     0.162 A 
BRANCH  13  17
ATOM     17  O   UNL     1     -21.125  -9.307  18.494  1.00  0.00    -0.504 OA
ATOM     18  H   UNL     1     -22.082  -9.073  18.734  1.00  0.00     0.293 HD
ENDBRANCH  13  17
BRANCH  15  19
ATOM     19  O   UNL     1     -18.773 -10.820  18.139  1.00  0.00    -0.502 OA
ATOM     20  H   UNL     1     -17.929 -10.815  17.579  1.00  0.00     0.293 HD
ENDBRANCH  15  19
BRANCH  16  21
ATOM     21  O   UNL     1     -16.729 -10.657  20.004  1.00  0.00    -0.504 OA
ATOM     22  H   UNL     1     -16.456 -11.393  20.644  1.00  0.00     0.293 HD
ENDBRANCH  16  21
ENDBRANCH   1  11
BRANCH  10  23
ATOM     23  O   UNL     1     -20.549  -9.169  23.984  1.00  0.00    -0.500 OA
ATOM     24  H   UNL     1     -20.101  -9.898  24.525  1.00  0.00     0.294 HD
ENDBRANCH  10  23
BRANCH   5  25
ATOM     25  O   UNL     1     -18.046  -1.821  24.255  1.00  0.00    -0.507 OA
ATOM     26  H   UNL     1     -18.454  -1.019  24.720  1.00  0.00     0.293 HD
ENDBRANCH   5  25
BRANCH   7  27
ATOM     27  O   UNL     1     -20.223  -4.996  27.124  1.00  0.00    -0.507 OA
ATOM     28  H   UNL     1     -20.764  -4.332  27.658  1.00  0.00     0.293 HD
ENDBRANCH   7  27
TORSDOF 7
ENDMDL
MODEL 6
REMARK VINA RESULT:    -6.278      2.257      6.955
REMARK INTER + INTRA:          -8.062
REMARK INTER:                  -7.867
REMARK INTRA:                  -0.195
REMARK UNBOUND:                -0.316
REMARK SMILES Oc1cc(O)c2cc(O)c(-c3cc(O)c(O)c(O)c3)[o+]c2c1
REMARK SMILES IDX 10 1 20 2 21 3 22 4 2 5 3 6 4 7 6 8 7 9 8 10 11 11 12 12
REMARK SMILES IDX 13 13 19 14 15 15 17 16 14 17 16 19 18 21 9 23 1 25 5 27
REMARK H PARENT 14 18 16 20 18 22 9 24 1 26 5 28
REMARK Flexibility Score: inf
ROOT
ATOM      1  C   UNL     1     -17.705  -6.255  22.548  1.00  0.00     0.402 A 
ATOM      2  O   UNL     1     -17.525  -7.521  22.913  1.00  0.00    -0.202 OA
ATOM      3  C   UNL     1     -16.989  -8.441  22.116  1.00  0.00     0.368 A 
ATOM      4  C   UNL     1     -16.838  -9.746  22.591  1.00  0.00     0.162 A 
ATOM      5  C   UNL     1     -16.275 -10.732  21.775  1.00  0.00     0.128 A 
ATOM      6  C   UNL     1     -15.859 -10.411  20.482  1.00  0.00     0.093 A 
ATOM      7  C   UNL     1     -15.999  -9.110  19.983  1.00  0.00     0.136 A 
ATOM      8  C   UNL     1     -16.574  -8.106  20.806  1.00  0.00     0.125 A 
ATOM      9  C   UNL     1     -16.764  -6.779  20.385  1.00  0.00     0.078 A 
ATOM     10  C   UNL     1     -17.342  -5.846  21.251  1.00  0.00     0.223 A 
ENDROOT
BRANCH   1  11
ATOM     11  C   UNL     1     -18.304  -5.322  23.529  1.00  0.00     0.091 A 
ATOM     12  C   UNL     1     -19.547  -5.630  24.105  1.00  0.00     0.068 A 
ATOM     13  C   UNL     1     -20.128  -4.774  25.051  1.00  0.00     0.162 A 
ATOM     14  C   UNL     1     -17.629  -4.160  23.942  1.00  0.00     0.068 A 
ATOM     15  C   UNL     1     -19.455  -3.604  25.441  1.00  0.00     0.200 A 
ATOM     16  C   UNL     1     -18.203  -3.302  24.889  1.00  0.00     0.162 A 
BRANCH  13  17
ATOM     17  O   UNL     1     -21.369  -5.083  25.605  1.00  0.00    -0.504 OA
ATOM     18  H   UNL     1     -21.921  -5.863  25.268  1.00  0.00     0.293 HD
ENDBRANCH  13  17
BRANCH  15  19
ATOM     19  O   UNL     1     -20.013  -2.735  26.380  1.00  0.00    -0.502 OA
ATOM     20  H   UNL     1     -21.006  -2.722  26.577  1.00  0.00     0.293 HD
ENDBRANCH  15  19
BRANCH  16  21
ATOM     21  O   UNL     1     -17.534  -2.147  25.290  1.00  0.00    -0.504 OA
ATOM     22  H   UNL     1     -18.033  -1.292  25.505  1.00  0.00     0.293 HD
ENDBRANCH  16  21
ENDBRANCH   1  11
BRANCH  10  23
ATOM     23  O   UNL     1     -17.578  -4.541  20.817  1.00  0.00    -0.500 OA
ATOM     24  H   UNL     1     -17.744  -3.785  21.470  1.00  0.00     0.294 HD
ENDBRANCH  10  23
BRANCH   5  25
ATOM     25  O   UNL     1     -16.121 -12.037  22.242  1.00  0.00    -0.507 OA
ATOM     26  H   UNL     1     -16.743 -12.780  21.948  1.00  0.00     0.293 HD
ENDBRANCH   5  25
BRANCH   7  27
ATOM     27  O   UNL     1     -15.555  -8.869  18.679  1.00  0.00    -0.507 OA
ATOM     28  H   UNL     1     -14.712  -8.366  18.448  1.00  0.00     0.293 HD
ENDBRANCH   7  27
TORSDOF 7
ENDMDL
MODEL 7
REMARK VINA RESULT:    -6.139      1.883      2.403
REMARK INTER + INTRA:          -7.891
REMARK INTER:                  -7.716
REMARK INTRA:                  -0.175
REMARK UNBOUND:                -0.316
REMARK SMILES Oc1cc(O)c2cc(O)c(-c3cc(O)c(O)c(O)c3)[o+]c2c1
REMARK SMILES IDX 10 1 20 2 21 3 22 4 2 5 3 6 4 7 6 8 7 9 8 10 11 11 12 12
REMARK SMILES IDX 13 13 19 14 15 15 17 16 14 17 16 19 18 21 9 23 1 25 5 27
REMARK H PARENT 14 18 16 20 18 22 9 24 1 26 5 28
REMARK Flexibility Score: inf
ROOT
ATOM      1  C   UNL     1     -18.796  -6.544  22.712  1.00  0.00     0.402 A 
ATOM      2  O   UNL     1     -19.434  -5.854  23.653  1.00  0.00    -0.202 OA
ATOM      3  C   UNL     1     -18.869  -4.869  24.346  1.00  0.00     0.368 A 
ATOM      4  C   UNL     1     -19.623  -4.200  25.313  1.00  0.00     0.162 A 
ATOM      5  C   UNL     1     -19.055  -3.160  26.054  1.00  0.00     0.128 A 
ATOM      6  C   UNL     1     -17.729  -2.786  25.825  1.00  0.00     0.093 A 
ATOM      7  C   UNL     1     -16.954  -3.441  24.861  1.00  0.00     0.136 A 
ATOM      8  C   UNL     1     -17.524  -4.500  24.108  1.00  0.00     0.125 A 
ATOM      9  C   UNL     1     -16.817  -5.220  23.131  1.00  0.00     0.078 A 
ATOM     10  C   UNL     1     -17.447  -6.256  22.432  1.00  0.00     0.223 A 
ENDROOT
BRANCH   1  11
ATOM     11  C   UNL     1     -19.536  -7.612  22.002  1.00  0.00     0.091 A 
ATOM     12  C   UNL     1     -20.174  -8.619  22.744  1.00  0.00     0.068 A 
ATOM     13  C   UNL     1     -20.899  -9.631  22.099  1.00  0.00     0.162 A 
ATOM     14  C   UNL     1     -19.664  -7.609  20.603  1.00  0.00     0.068 A 
ATOM     15  C   UNL     1     -21.003  -9.631  20.698  1.00  0.00     0.200 A 
ATOM     16  C   UNL     1     -20.389  -8.616  19.952  1.00  0.00     0.162 A 
BRANCH  13  17
ATOM     17  O   UNL     1     -21.516 -10.633  22.844  1.00  0.00    -0.504 OA
ATOM     18  H   UNL     1     -22.525 -10.716  22.890  1.00  0.00     0.293 HD
ENDBRANCH  13  17
BRANCH  15  19
ATOM     19  O   UNL     1     -21.717 -10.629  20.032  1.00  0.00    -0.502 OA
ATOM     20  H   UNL     1     -21.410 -11.593  20.020  1.00  0.00     0.293 HD
ENDBRANCH  15  19
BRANCH  16  21
ATOM     21  O   UNL     1     -20.507  -8.613  18.563  1.00  0.00    -0.504 OA
ATOM     22  H   UNL     1     -21.407  -8.706  18.107  1.00  0.00     0.293 HD
ENDBRANCH  16  21
ENDBRANCH   1  11
BRANCH  10  23
ATOM     23  O   UNL     1     -16.731  -7.005  21.498  1.00  0.00    -0.500 OA
ATOM     24  H   UNL     1     -17.197  -7.605  20.828  1.00  0.00     0.294 HD
ENDBRANCH  10  23
BRANCH   5  25
ATOM     25  O   UNL     1     -19.801  -2.488  27.021  1.00  0.00    -0.507 OA
ATOM     26  H   UNL     1     -19.563  -2.540  28.004  1.00  0.00     0.293 HD
ENDBRANCH   5  25
BRANCH   7  27
ATOM     27  O   UNL     1     -15.636  -3.005  24.689  1.00  0.00    -0.507 OA
ATOM     28  H   UNL     1     -14.945  -2.975  25.423  1.00  0.00     0.293 HD
ENDBRANCH   7  27
TORSDOF 7
ENDMDL
MODEL 8
REMARK VINA RESULT:    -5.766      2.462      7.486
REMARK INTER + INTRA:          -7.431
REMARK INTER:                  -7.290
REMARK INTRA:                  -0.141
REMARK UNBOUND:                -0.316
REMARK SMILES Oc1cc(O)c2cc(O)c(-c3cc(O)c(O)c(O)c3)[o+]c2c1
REMARK SMILES IDX 10 1 20 2 21 3 22 4 2 5 3 6 4 7 6 8 7 9 8 10 11 11 12 12
REMARK SMILES IDX 13 13 19 14 15 15 17 16 14 17 16 19 18 21 9 23 1 25 5 27
REMARK H PARENT 14 18 16 20 18 22 9 24 1 26 5 28
REMARK Flexibility Score: inf
ROOT
ATOM      1  C   UNL     1     -17.793  -7.329  23.550  1.00  0.00     0.402 A 
ATOM      2  O   UNL     1     -17.331  -7.282  22.304  1.00  0.00    -0.202 OA
ATOM      3  C   UNL     1     -16.800  -8.330  21.681  1.00  0.00     0.368 A 
ATOM      4  C   UNL     1     -16.345  -8.183  20.369  1.00  0.00     0.162 A 
ATOM      5  C   UNL     1     -15.785  -9.269  19.690  1.00  0.00     0.128 A 
ATOM      6  C   UNL     1     -15.683 -10.508  20.326  1.00  0.00     0.093 A 
ATOM      7  C   UNL     1     -16.133 -10.681  21.641  1.00  0.00     0.136 A 
ATOM      8  C   UNL     1     -16.698  -9.580  22.335  1.00  0.00     0.125 A 
ATOM      9  C   UNL     1     -17.164  -9.660  23.659  1.00  0.00     0.078 A 
ATOM     10  C   UNL     1     -17.705  -8.529  24.279  1.00  0.00     0.223 A 
ENDROOT
BRANCH   1  11
ATOM     11  C   UNL     1     -18.370  -6.095  24.131  1.00  0.00     0.091 A 
ATOM     12  C   UNL     1     -17.640  -4.897  24.071  1.00  0.00     0.068 A 
ATOM     13  C   UNL     1     -18.171  -3.710  24.595  1.00  0.00     0.162 A 
ATOM     14  C   UNL     1     -19.659  -6.083  24.690  1.00  0.00     0.068 A 
ATOM     15  C   UNL     1     -19.452  -3.712  25.172  1.00  0.00     0.200 A 
ATOM     16  C   UNL     1     -20.196  -4.899  25.214  1.00  0.00     0.162 A 
BRANCH  13  17
ATOM     17  O   UNL     1     -17.431  -2.531  24.543  1.00  0.00    -0.504 OA
ATOM     18  H   UNL     1     -16.933  -2.252  23.705  1.00  0.00     0.293 HD
ENDBRANCH  13  17
BRANCH  15  19
ATOM     19  O   UNL     1     -20.002  -2.545  25.702  1.00  0.00    -0.502 OA
ATOM     20  H   UNL     1     -20.991  -2.456  25.898  1.00  0.00     0.293 HD
ENDBRANCH  15  19
BRANCH  16  21
ATOM     21  O   UNL     1     -21.472  -4.893  25.774  1.00  0.00    -0.504 OA
ATOM     22  H   UNL     1     -21.893  -4.040  26.124  1.00  0.00     0.293 HD
ENDBRANCH  16  21
ENDBRANCH   1  11
BRANCH  10  23
ATOM     23  O   UNL     1     -18.121  -8.593  25.610  1.00  0.00    -0.500 OA
ATOM     24  H   UNL     1     -18.236  -9.478  26.089  1.00  0.00     0.294 HD
ENDBRANCH  10  23
BRANCH   5  25
ATOM     25  O   UNL     1     -15.328  -9.129  18.381  1.00  0.00    -0.507 OA
ATOM     26  H   UNL     1     -14.472  -9.570  18.069  1.00  0.00     0.293 HD
ENDBRANCH   5  25
BRANCH   7  27
ATOM     27  O   UNL     1     -15.999 -11.954  22.205  1.00  0.00    -0.507 OA
ATOM     28  H   UNL     1     -15.133 -12.469  22.250  1.00  0.00     0.293 HD
ENDBRANCH   7  27
TORSDOF 7
ENDMDL
MODEL 9
REMARK VINA RESULT:    -5.675      4.206      5.349
REMARK INTER + INTRA:          -7.319
REMARK INTER:                  -7.410
REMARK INTRA:                   0.091
REMARK UNBOUND:                -0.316
REMARK SMILES Oc1cc(O)c2cc(O)c(-c3cc(O)c(O)c(O)c3)[o+]c2c1
REMARK SMILES IDX 10 1 20 2 21 3 22 4 2 5 3 6 4 7 6 8 7 9 8 10 11 11 12 12
REMARK SMILES IDX 13 13 19 14 15 15 17 16 14 17 16 19 18 21 9 23 1 25 5 27
REMARK H PARENT 14 18 16 20 18 22 9 24 1 26 5 28
REMARK Flexibility Score: inf
ROOT
ATOM      1  C   UNL     1     -19.720  -8.538  24.501  1.00  0.00     0.402 A 
ATOM      2  O   UNL     1     -20.003  -7.366  25.064  1.00  0.00    -0.202 OA
ATOM      3  C   UNL     1     -19.581  -6.202  24.578  1.00  0.00     0.368 A 
ATOM      4  C   UNL     1     -19.933  -5.023  25.238  1.00  0.00     0.162 A 
ATOM      5  C   UNL     1     -19.506  -3.785  24.748  1.00  0.00     0.128 A 
ATOM      6  C   UNL     1     -18.726  -3.729  23.591  1.00  0.00     0.093 A 
ATOM      7  C   UNL     1     -18.360  -4.896  22.911  1.00  0.00     0.136 A 
ATOM      8  C   UNL     1     -18.789  -6.155  23.407  1.00  0.00     0.125 A 
ATOM      9  C   UNL     1     -18.460  -7.377  22.797  1.00  0.00     0.078 A 
ATOM     10  C   UNL     1     -18.915  -8.579  23.348  1.00  0.00     0.223 A 
ENDROOT
BRANCH   1  11
ATOM     11  C   UNL     1     -20.256  -9.765  25.132  1.00  0.00     0.091 A 
ATOM     12  C   UNL     1     -19.427 -10.891  25.267  1.00  0.00     0.068 A 
ATOM     13  C   UNL     1     -19.902 -12.059  25.878  1.00  0.00     0.162 A 
ATOM     14  C   UNL     1     -21.560  -9.811  25.653  1.00  0.00     0.068 A 
ATOM     15  C   UNL     1     -21.215 -12.103  26.377  1.00  0.00     0.200 A 
ATOM     16  C   UNL     1     -22.041 -10.976  26.267  1.00  0.00     0.162 A 
BRANCH  13  17
ATOM     17  O   UNL     1     -19.075 -13.174  25.993  1.00  0.00    -0.504 OA
ATOM     18  H   UNL     1     -18.967 -13.836  25.233  1.00  0.00     0.293 HD
ENDBRANCH  13  17
BRANCH  15  19
ATOM     19  O   UNL     1     -21.712 -13.255  26.987  1.00  0.00    -0.502 OA
ATOM     20  H   UNL     1     -21.264 -14.156  26.882  1.00  0.00     0.293 HD
ENDBRANCH  15  19
BRANCH  16  21
ATOM     21  O   UNL     1     -23.338 -11.020  26.776  1.00  0.00    -0.504 OA
ATOM     22  H   UNL     1     -23.526 -10.885  27.762  1.00  0.00     0.293 HD
ENDBRANCH  16  21
ENDBRANCH   1  11
BRANCH  10  23
ATOM     23  O   UNL     1     -18.547  -9.796  22.773  1.00  0.00    -0.500 OA
ATOM     24  H   UNL     1     -17.649  -9.921  22.322  1.00  0.00     0.294 HD
ENDBRANCH  10  23
BRANCH   5  25
ATOM     25  O   UNL     1     -19.853  -2.604  25.401  1.00  0.00    -0.507 OA
ATOM     26  H   UNL     1     -19.240  -2.178  26.085  1.00  0.00     0.293 HD
ENDBRANCH   5  25
BRANCH   7  27
ATOM     27  O   UNL     1     -17.581  -4.754  21.758  1.00  0.00    -0.507 OA
ATOM     28  H   UNL     1     -17.421  -3.879  21.283  1.00  0.00     0.293 HD
ENDBRANCH   7  27
TORSDOF 7
ENDMDL
