MODEL 1
REMARK VINA RESULT:    -3.917      0.000      0.000
REMARK INTER + INTRA:          -7.319
REMARK INTER:                  -6.206
REMARK INTRA:                  -1.112
REMARK UNBOUND:                -1.112
REMARK SMILES CCCCCCCCCCCC(=O)[O-]
REMARK SMILES IDX 7 1 8 2 9 3 10 4 11 5 12 6 13 7 14 8 6 9 5 10 4 11 3 12 2 13
REMARK SMILES IDX 1 14
REMARK H PARENT
REMARK Flexibility Score: inf
ROOT
ATOM      1  C   UNL     1      44.141  74.862  14.177  1.00  0.00     0.000 C 
ENDROOT
BRANCH   1   2
ATOM      2  C   UNL     1      43.625  74.817  12.729  1.00  0.00     0.000 C 
BRANCH   2   3
ATOM      3  C   UNL     1      44.615  75.443  11.730  1.00  0.00     0.000 C 
BRANCH   3   4
ATOM      4  C   UNL     1      44.636  74.712  10.375  1.00  0.00     0.006 C 
BRANCH   4   5
ATOM      5  C   UNL     1      43.273  74.152   9.935  1.00  0.00     0.053 C 
BRANCH   5   6
ATOM      6  C   UNL     1      43.409  73.133   8.845  1.00  0.00     0.041 C 
ATOM      7  O   UNL     1      42.628  73.153   7.858  1.00  0.00    -0.550 OA
ATOM      8  O   UNL     1      44.421  72.183   8.904  1.00  0.00    -0.550 OA
ENDBRANCH   5   6
ENDBRANCH   4   5
ENDBRANCH   3   4
ENDBRANCH   2   3
ENDBRANCH   1   2
BRANCH   1   9
ATOM      9  C   UNL     1      45.517  75.535  14.296  1.00  0.00     0.000 C 
BRANCH   9  10
ATOM     10  C   UNL     1      46.383  74.827  15.345  1.00  0.00    -0.000 C 
BRANCH  10  11
ATOM     11  C   UNL     1      46.398  73.309  15.114  1.00  0.00    -0.000 C 
BRANCH  11  12
ATOM     12  C   UNL     1      47.517  72.861  14.159  1.00  0.00    -0.000 C 
BRANCH  12  13
ATOM     13  C   UNL     1      47.134  71.653  13.279  1.00  0.00    -0.003 C 
ATOM     14  C   UNL     1      46.313  72.061  12.056  1.00  0.00     0.004 C 
ENDBRANCH  12  13
ENDBRANCH  11  12
ENDBRANCH  10  11
ENDBRANCH   9  10
ENDBRANCH   1   9
TORSDOF 10
ENDMDL
MODEL 2
REMARK VINA RESULT:    -3.889     11.110     13.264
REMARK INTER + INTRA:          -7.274
REMARK INTER:                  -6.205
REMARK INTRA:                  -1.069
REMARK UNBOUND:                -1.112
REMARK SMILES CCCCCCCCCCCC(=O)[O-]
REMARK SMILES IDX 7 1 8 2 9 3 10 4 11 5 12 6 13 7 14 8 6 9 5 10 4 11 3 12 2 13
REMARK SMILES IDX 1 14
REMARK H PARENT
REMARK Flexibility Score: inf
ROOT
ATOM      1  C   UNL     1      32.261  77.387   9.118  1.00  0.00     0.000 C 
ENDROOT
BRANCH   1   2
ATOM      2  C   UNL     1      31.693  78.365  10.160  1.00  0.00     0.000 C 
BRANCH   2   3
ATOM      3  C   UNL     1      32.764  78.863  11.147  1.00  0.00     0.000 C 
BRANCH   3   4
ATOM      4  C   UNL     1      32.738  78.105  12.487  1.00  0.00     0.006 C 
BRANCH   4   5
ATOM      5  C   UNL     1      31.577  78.498  13.416  1.00  0.00     0.053 C 
BRANCH   5   6
ATOM      6  C   UNL     1      32.005  79.472  14.470  1.00  0.00     0.041 C 
ATOM      7  O   UNL     1      31.325  80.508  14.690  1.00  0.00    -0.550 OA
ATOM      8  O   UNL     1      33.138  79.218  15.233  1.00  0.00    -0.550 OA
ENDBRANCH   5   6
ENDBRANCH   4   5
ENDBRANCH   3   4
ENDBRANCH   2   3
ENDBRANCH   1   2
BRANCH   1   9
ATOM      9  C   UNL     1      33.653  77.799   8.615  1.00  0.00     0.000 C 
BRANCH   9  10
ATOM     10  C   UNL     1      34.370  76.614   7.956  1.00  0.00    -0.000 C 
BRANCH  10  11
ATOM     11  C   UNL     1      34.736  75.545   8.995  1.00  0.00    -0.000 C 
BRANCH  11  12
ATOM     12  C   UNL     1      36.021  75.882   9.771  1.00  0.00    -0.000 C 
BRANCH  12  13
ATOM     13  C   UNL     1      35.761  76.422  11.193  1.00  0.00    -0.003 C 
ATOM     14  C   UNL     1      36.540  77.707  11.478  1.00  0.00     0.004 C 
ENDBRANCH  12  13
ENDBRANCH  11  12
ENDBRANCH  10  11
ENDBRANCH   9  10
ENDBRANCH   1   9
TORSDOF 10
ENDMDL
MODEL 3
REMARK VINA RESULT:    -3.875     12.172     14.248
REMARK INTER + INTRA:          -7.252
REMARK INTER:                  -6.574
REMARK INTRA:                  -0.677
REMARK UNBOUND:                -1.112
REMARK SMILES CCCCCCCCCCCC(=O)[O-]
REMARK SMILES IDX 7 1 8 2 9 3 10 4 11 5 12 6 13 7 14 8 6 9 5 10 4 11 3 12 2 13
REMARK SMILES IDX 1 14
REMARK H PARENT
REMARK Flexibility Score: inf
ROOT
ATOM      1  C   UNL     1      32.760  78.964  11.553  1.00  0.00     0.000 C 
ENDROOT
BRANCH   1   2
ATOM      2  C   UNL     1      32.554  78.286  12.918  1.00  0.00     0.000 C 
BRANCH   2   3
ATOM      3  C   UNL     1      31.578  79.061  13.821  1.00  0.00     0.000 C 
BRANCH   3   4
ATOM      4  C   UNL     1      32.292  79.814  14.959  1.00  0.00     0.006 C 
BRANCH   4   5
ATOM      5  C   UNL     1      31.607  81.124  15.381  1.00  0.00     0.053 C 
BRANCH   5   6
ATOM      6  C   UNL     1      32.391  81.857  16.426  1.00  0.00     0.041 C 
ATOM      7  O   UNL     1      33.110  82.839  16.106  1.00  0.00    -0.550 OA
ATOM      8  O   UNL     1      32.299  81.476  17.759  1.00  0.00    -0.550 OA
ENDBRANCH   5   6
ENDBRANCH   4   5
ENDBRANCH   3   4
ENDBRANCH   2   3
ENDBRANCH   1   2
BRANCH   1   9
ATOM      9  C   UNL     1      31.810  78.426  10.473  1.00  0.00     0.000 C 
BRANCH   9  10
ATOM     10  C   UNL     1      32.551  77.492   9.508  1.00  0.00    -0.000 C 
BRANCH  10  11
ATOM     11  C   UNL     1      34.051  77.816   9.471  1.00  0.00    -0.000 C 
BRANCH  11  12
ATOM     12  C   UNL     1      34.923  76.578   9.202  1.00  0.00    -0.000 C 
BRANCH  12  13
ATOM     13  C   UNL     1      35.923  76.267  10.335  1.00  0.00    -0.003 C 
ATOM     14  C   UNL     1      36.142  77.463  11.262  1.00  0.00     0.004 C 
ENDBRANCH  12  13
ENDBRANCH  11  12
ENDBRANCH  10  11
ENDBRANCH   9  10
ENDBRANCH   1   9
TORSDOF 10
ENDMDL
MODEL 4
REMARK VINA RESULT:    -3.856      0.952      3.173
REMARK INTER + INTRA:          -7.223
REMARK INTER:                  -6.113
REMARK INTRA:                  -1.110
REMARK UNBOUND:                -1.112
REMARK SMILES CCCCCCCCCCCC(=O)[O-]
REMARK SMILES IDX 7 1 8 2 9 3 10 4 11 5 12 6 13 7 14 8 6 9 5 10 4 11 3 12 2 13
REMARK SMILES IDX 1 14
REMARK H PARENT
REMARK Flexibility Score: inf
ROOT
ATOM      1  C   UNL     1      47.275  71.778  13.200  1.00  0.00     0.000 C 
ENDROOT
BRANCH   1   2
ATOM      2  C   UNL     1      47.142  72.485  11.841  1.00  0.00     0.000 C 
BRANCH   2   3
ATOM      3  C   UNL     1      45.790  72.206  11.160  1.00  0.00     0.000 C 
BRANCH   3   4
ATOM      4  C   UNL     1      45.523  73.138   9.963  1.00  0.00     0.006 C 
BRANCH   4   5
ATOM      5  C   UNL     1      44.035  73.332   9.630  1.00  0.00     0.053 C 
BRANCH   5   6
ATOM      6  C   UNL     1      43.688  72.797   8.274  1.00  0.00     0.041 C 
ATOM      7  O   UNL     1      44.489  72.041   7.666  1.00  0.00    -0.550 OA
ATOM      8  O   UNL     1      42.463  73.109   7.697  1.00  0.00    -0.550 OA
ENDBRANCH   5   6
ENDBRANCH   4   5
ENDBRANCH   3   4
ENDBRANCH   2   3
ENDBRANCH   1   2
BRANCH   1   9
ATOM      9  C   UNL     1      47.335  72.762  14.377  1.00  0.00     0.000 C 
BRANCH   9  10
ATOM     10  C   UNL     1      45.933  73.265  14.743  1.00  0.00    -0.000 C 
BRANCH  10  11
ATOM     11  C   UNL     1      45.905  74.798  14.837  1.00  0.00    -0.000 C 
BRANCH  11  12
ATOM     12  C   UNL     1      45.386  75.466  13.553  1.00  0.00    -0.000 C 
BRANCH  12  13
ATOM     13  C   UNL     1      44.048  74.884  13.050  1.00  0.00    -0.003 C 
ATOM     14  C   UNL     1      42.882  75.215  13.982  1.00  0.00     0.004 C 
ENDBRANCH  12  13
ENDBRANCH  11  12
ENDBRANCH  10  11
ENDBRANCH   9  10
ENDBRANCH   1   9
TORSDOF 10
ENDMDL
MODEL 5
REMARK VINA RESULT:    -3.843     11.348     13.535
REMARK INTER + INTRA:          -7.202
REMARK INTER:                  -6.186
REMARK INTRA:                  -1.016
REMARK UNBOUND:                -1.112
REMARK SMILES CCCCCCCCCCCC(=O)[O-]
REMARK SMILES IDX 7 1 8 2 9 3 10 4 11 5 12 6 13 7 14 8 6 9 5 10 4 11 3 12 2 13
REMARK SMILES IDX 1 14
REMARK H PARENT
REMARK Flexibility Score: inf
ROOT
ATOM      1  C   UNL     1      31.699  78.219  10.070  1.00  0.00     0.000 C 
ENDROOT
BRANCH   1   2
ATOM      2  C   UNL     1      32.732  78.866  11.007  1.00  0.00     0.000 C 
BRANCH   2   3
ATOM      3  C   UNL     1      32.213  79.011  12.448  1.00  0.00     0.000 C 
BRANCH   3   4
ATOM      4  C   UNL     1      32.901  78.043  13.428  1.00  0.00     0.006 C 
BRANCH   4   5
ATOM      5  C   UNL     1      33.307  78.678  14.768  1.00  0.00     0.053 C 
BRANCH   5   6
ATOM      6  C   UNL     1      32.162  79.389  15.424  1.00  0.00     0.041 C 
ATOM      7  O   UNL     1      32.228  80.626  15.645  1.00  0.00    -0.550 OA
ATOM      8  O   UNL     1      31.010  78.689  15.759  1.00  0.00    -0.550 OA
ENDBRANCH   5   6
ENDBRANCH   4   5
ENDBRANCH   3   4
ENDBRANCH   2   3
ENDBRANCH   1   2
BRANCH   1   9
ATOM      9  C   UNL     1      32.329  77.205   9.102  1.00  0.00     0.000 C 
BRANCH   9  10
ATOM     10  C   UNL     1      33.665  77.726   8.557  1.00  0.00    -0.000 C 
BRANCH  10  11
ATOM     11  C   UNL     1      34.724  76.614   8.540  1.00  0.00    -0.000 C 
BRANCH  11  12
ATOM     12  C   UNL     1      34.995  76.026   9.936  1.00  0.00    -0.000 C 
BRANCH  12  13
ATOM     13  C   UNL     1      36.370  76.420  10.516  1.00  0.00    -0.003 C 
ATOM     14  C   UNL     1      36.272  77.579  11.508  1.00  0.00     0.004 C 
ENDBRANCH  12  13
ENDBRANCH  11  12
ENDBRANCH  10  11
ENDBRANCH   9  10
ENDBRANCH   1   9
TORSDOF 10
ENDMDL
MODEL 6
REMARK VINA RESULT:    -3.810      9.723     11.536
REMARK INTER + INTRA:          -7.150
REMARK INTER:                  -5.875
REMARK INTRA:                  -1.275
REMARK UNBOUND:                -1.112
REMARK SMILES CCCCCCCCCCCC(=O)[O-]
REMARK SMILES IDX 7 1 8 2 9 3 10 4 11 5 12 6 13 7 14 8 6 9 5 10 4 11 3 12 2 13
REMARK SMILES IDX 1 14
REMARK H PARENT
REMARK Flexibility Score: inf
ROOT
ATOM      1  C   UNL     1      36.525  76.980  10.787  1.00  0.00     0.000 C 
ENDROOT
BRANCH   1   2
ATOM      2  C   UNL     1      36.016  75.729  10.052  1.00  0.00     0.000 C 
BRANCH   2   3
ATOM      3  C   UNL     1      36.846  75.402   8.799  1.00  0.00     0.000 C 
BRANCH   3   4
ATOM      4  C   UNL     1      35.982  75.263   7.532  1.00  0.00     0.006 C 
BRANCH   4   5
ATOM      5  C   UNL     1      34.592  75.911   7.638  1.00  0.00     0.053 C 
BRANCH   5   6
ATOM      6  C   UNL     1      33.490  74.925   7.394  1.00  0.00     0.041 C 
ATOM      7  O   UNL     1      32.822  74.971   6.329  1.00  0.00    -0.550 OA
ATOM      8  O   UNL     1      33.226  73.934   8.331  1.00  0.00    -0.550 OA
ENDBRANCH   5   6
ENDBRANCH   4   5
ENDBRANCH   3   4
ENDBRANCH   2   3
ENDBRANCH   1   2
BRANCH   1   9
ATOM      9  C   UNL     1      35.400  77.755  11.491  1.00  0.00     0.000 C 
BRANCH   9  10
ATOM     10  C   UNL     1      34.268  78.087  10.510  1.00  0.00    -0.000 C 
BRANCH  10  11
ATOM     11  C   UNL     1      32.898  77.748  11.114  1.00  0.00    -0.000 C 
BRANCH  11  12
ATOM     12  C   UNL     1      32.541  76.257  10.985  1.00  0.00    -0.000 C 
BRANCH  12  13
ATOM     13  C   UNL     1      32.726  75.460  12.293  1.00  0.00    -0.003 C 
ATOM     14  C   UNL     1      33.436  74.125  12.066  1.00  0.00     0.004 C 
ENDBRANCH  12  13
ENDBRANCH  11  12
ENDBRANCH  10  11
ENDBRANCH   9  10
ENDBRANCH   1   9
TORSDOF 10
ENDMDL
MODEL 7
REMARK VINA RESULT:    -3.773     10.544     12.746
REMARK INTER + INTRA:          -7.092
REMARK INTER:                  -5.472
REMARK INTRA:                  -1.620
REMARK UNBOUND:                -1.112
REMARK SMILES CCCCCCCCCCCC(=O)[O-]
REMARK SMILES IDX 7 1 8 2 9 3 10 4 11 5 12 6 13 7 14 8 6 9 5 10 4 11 3 12 2 13
REMARK SMILES IDX 1 14
REMARK H PARENT
REMARK Flexibility Score: inf
ROOT
ATOM      1  C   UNL     1      31.763  78.429  10.001  1.00  0.00     0.000 C 
ENDROOT
BRANCH   1   2
ATOM      2  C   UNL     1      32.536  78.781  11.283  1.00  0.00     0.000 C 
BRANCH   2   3
ATOM      3  C   UNL     1      32.108  77.920  12.485  1.00  0.00     0.000 C 
BRANCH   3   4
ATOM      4  C   UNL     1      32.856  76.576  12.550  1.00  0.00     0.006 C 
BRANCH   4   5
ATOM      5  C   UNL     1      31.964  75.342  12.340  1.00  0.00     0.053 C 
BRANCH   5   6
ATOM      6  C   UNL     1      32.744  74.161  11.848  1.00  0.00     0.041 C 
ATOM      7  O   UNL     1      33.935  73.991  12.215  1.00  0.00    -0.550 OA
ATOM      8  O   UNL     1      32.141  73.231  11.010  1.00  0.00    -0.550 OA
ENDBRANCH   5   6
ENDBRANCH   4   5
ENDBRANCH   3   4
ENDBRANCH   2   3
ENDBRANCH   1   2
BRANCH   1   9
ATOM      9  C   UNL     1      32.667  77.847   8.904  1.00  0.00     0.000 C 
BRANCH   9  10
ATOM     10  C   UNL     1      32.450  76.336   8.760  1.00  0.00    -0.000 C 
BRANCH  10  11
ATOM     11  C   UNL     1      33.784  75.579   8.830  1.00  0.00    -0.000 C 
BRANCH  11  12
ATOM     12  C   UNL     1      34.996  76.516   8.969  1.00  0.00    -0.000 C 
BRANCH  12  13
ATOM     13  C   UNL     1      35.919  76.163  10.153  1.00  0.00    -0.003 C 
ATOM     14  C   UNL     1      36.046  77.310  11.155  1.00  0.00     0.004 C 
ENDBRANCH  12  13
ENDBRANCH  11  12
ENDBRANCH  10  11
ENDBRANCH   9  10
ENDBRANCH   1   9
TORSDOF 10
ENDMDL
MODEL 8
REMARK VINA RESULT:    -3.769     10.148     11.930
REMARK INTER + INTRA:          -7.084
REMARK INTER:                  -5.487
REMARK INTRA:                  -1.597
REMARK UNBOUND:                -1.112
REMARK SMILES CCCCCCCCCCCC(=O)[O-]
REMARK SMILES IDX 7 1 8 2 9 3 10 4 11 5 12 6 13 7 14 8 6 9 5 10 4 11 3 12 2 13
REMARK SMILES IDX 1 14
REMARK H PARENT
REMARK Flexibility Score: inf
ROOT
ATOM      1  C   UNL     1      32.896  78.558  11.350  1.00  0.00     0.000 C 
ENDROOT
BRANCH   1   2
ATOM      2  C   UNL     1      33.940  78.140  10.302  1.00  0.00     0.000 C 
BRANCH   2   3
ATOM      3  C   UNL     1      35.124  77.375  10.920  1.00  0.00     0.000 C 
BRANCH   3   4
ATOM      4  C   UNL     1      35.698  76.303   9.976  1.00  0.00     0.006 C 
BRANCH   4   5
ATOM      5  C   UNL     1      35.075  76.295   8.570  1.00  0.00     0.053 C 
BRANCH   5   6
ATOM      6  C   UNL     1      35.551  75.135   7.750  1.00  0.00     0.041 C 
ATOM      7  O   UNL     1      36.783  74.943   7.579  1.00  0.00    -0.550 OA
ATOM      8  O   UNL     1      34.632  74.249   7.202  1.00  0.00    -0.550 OA
ENDBRANCH   5   6
ENDBRANCH   4   5
ENDBRANCH   3   4
ENDBRANCH   2   3
ENDBRANCH   1   2
BRANCH   1   9
ATOM      9  C   UNL     1      33.244  78.065  12.763  1.00  0.00     0.000 C 
BRANCH   9  10
ATOM     10  C   UNL     1      32.125  77.180  13.325  1.00  0.00    -0.000 C 
BRANCH  10  11
ATOM     11  C   UNL     1      31.691  76.123  12.299  1.00  0.00    -0.000 C 
BRANCH  11  12
ATOM     12  C   UNL     1      32.643  74.915  12.246  1.00  0.00    -0.000 C 
BRANCH  12  13
ATOM     13  C   UNL     1      32.775  74.292  10.841  1.00  0.00    -0.003 C 
ATOM     14  C   UNL     1      31.826  74.933   9.829  1.00  0.00     0.004 C 
ENDBRANCH  12  13
ENDBRANCH  11  12
ENDBRANCH  10  11
ENDBRANCH   9  10
ENDBRANCH   1   9
TORSDOF 10
ENDMDL
MODEL 9
REMARK VINA RESULT:    -3.744     11.598     13.538
REMARK INTER + INTRA:          -7.045
REMARK INTER:                  -5.434
REMARK INTRA:                  -1.610
REMARK UNBOUND:                -1.112
REMARK SMILES CCCCCCCCCCCC(=O)[O-]
REMARK SMILES IDX 7 1 8 2 9 3 10 4 11 5 12 6 13 7 14 8 6 9 5 10 4 11 3 12 2 13
REMARK SMILES IDX 1 14
REMARK H PARENT
REMARK Flexibility Score: inf
ROOT
ATOM      1  C   UNL     1      32.385  75.309  11.761  1.00  0.00     0.000 C 
ENDROOT
BRANCH   1   2
ATOM      2  C   UNL     1      31.986  76.215  12.938  1.00  0.00     0.000 C 
BRANCH   2   3
ATOM      3  C   UNL     1      31.273  77.499  12.479  1.00  0.00     0.000 C 
BRANCH   3   4
ATOM      4  C   UNL     1      31.953  78.777  13.004  1.00  0.00     0.006 C 
BRANCH   4   5
ATOM      5  C   UNL     1      33.123  78.524  13.968  1.00  0.00     0.053 C 
BRANCH   5   6
ATOM      6  C   UNL     1      32.799  78.941  15.370  1.00  0.00     0.041 C 
ATOM      7  O   UNL     1      32.698  78.079  16.281  1.00  0.00    -0.550 OA
ATOM      8  O   UNL     1      32.641  80.288  15.674  1.00  0.00    -0.550 OA
ENDBRANCH   5   6
ENDBRANCH   4   5
ENDBRANCH   3   4
ENDBRANCH   2   3
ENDBRANCH   1   2
BRANCH   1   9
ATOM      9  C   UNL     1      33.859  74.879  11.817  1.00  0.00     0.000 C 
BRANCH   9  10
ATOM     10  C   UNL     1      34.673  75.571  10.716  1.00  0.00    -0.000 C 
BRANCH  10  11
ATOM     11  C   UNL     1      35.092  76.984  11.148  1.00  0.00    -0.000 C 
BRANCH  11  12
ATOM     12  C   UNL     1      34.385  78.089  10.344  1.00  0.00    -0.000 C 
BRANCH  12  13
ATOM     13  C   UNL     1      33.766  77.592   9.021  1.00  0.00    -0.003 C 
ATOM     14  C   UNL     1      32.262  77.855   8.948  1.00  0.00     0.004 C 
ENDBRANCH  12  13
ENDBRANCH  11  12
ENDBRANCH  10  11
ENDBRANCH   9  10
ENDBRANCH   1   9
TORSDOF 10
ENDMDL
