MODEL 1
REMARK VINA RESULT:    -7.616      0.000      0.000
REMARK INTER + INTRA:         -14.555
REMARK INTER:                 -12.513
REMARK INTRA:                  -2.042
REMARK UNBOUND:                -2.042
REMARK SMILES C[C@H]1O[C@H](OC[C@@H]2O[C@H](Oc3c(-c4ccc(O)c(O)c4)oc4cc(O)cc(O)c4c3=O)[C@H](O)[C@@H](O)[C@H]2O)[C@H](O)[C@@H](O)[C@@H]1O
REMARK SMILES IDX 7 1 36 2 34 3 32 4 9 5 8 6 6 7 5 8 4 9 1 10 2 11 42 12 3 13
REMARK SMILES IDX 40 14 38 15 43 16 41 18 39 20 37 22 35 24 10 26 11 27 12 28
REMARK SMILES IDX 30 29 21 30 29 31 31 32 22 33 27 34 23 35 26 36 24 37 13 38
REMARK SMILES IDX 20 39 14 40 18 41 15 42 16 43 19 44 17 46 28 48 25 50 33 52
REMARK H PARENT 43 17 41 19 39 21 37 23 35 25 19 45 17 47 28 49 25 51 33 53
REMARK Flexibility Score: inf
ROOT
ATOM      1  C   UNL     1       2.882  -7.563  38.535  1.00  0.00     0.180 C 
ATOM      2  C   UNL     1       2.508  -8.604  37.459  1.00  0.00     0.177 C 
ATOM      3  C   UNL     1       1.981  -7.826  36.233  1.00  0.00     0.180 C 
ATOM      4  C   UNL     1       2.821  -6.504  36.003  1.00  0.00     0.214 C 
ATOM      5  C   UNL     1       3.991  -6.148  36.990  1.00  0.00     0.339 C 
ATOM      6  O   UNL     1       4.099  -6.982  38.140  1.00  0.00    -0.332 OA
ENDROOT
BRANCH   1   7
ATOM      7  C   UNL     1       1.656  -6.637  38.986  1.00  0.00     0.198 C 
BRANCH   7   8
ATOM      8  O   UNL     1       2.107  -5.512  39.751  1.00  0.00    -0.347 OA
BRANCH   8   9
ATOM      9  C   UNL     1       1.627  -4.288  39.265  1.00  0.00     0.281 C 
ATOM     10  C   UNL     1      -0.154  -2.589  37.367  1.00  0.00     0.041 C 
ATOM     11  C   UNL     1      -0.473  -3.254  38.713  1.00  0.00     0.150 C 
ATOM     12  C   UNL     1      -0.389  -2.255  39.863  1.00  0.00     0.174 C 
ATOM     13  O   UNL     1       0.250  -4.463  38.954  1.00  0.00    -0.344 OA
ATOM     14  C   UNL     1       1.065  -1.929  40.208  1.00  0.00     0.179 C 
ATOM     15  C   UNL     1       1.915  -3.221  40.372  1.00  0.00     0.202 C 
BRANCH  12  16
ATOM     16  O   UNL     1      -1.125  -2.670  40.999  1.00  0.00    -0.388 OA
ATOM     17  H   UNL     1      -0.621  -2.227  41.746  1.00  0.00     0.211 HD
ENDBRANCH  12  16
BRANCH  14  18
ATOM     18  O   UNL     1       1.623  -1.063  39.216  1.00  0.00    -0.387 OA
ATOM     19  H   UNL     1       2.076  -0.357  39.721  1.00  0.00     0.211 HD
ENDBRANCH  14  18
BRANCH  15  20
ATOM     20  O   UNL     1       1.762  -3.824  41.641  1.00  0.00    -0.385 OA
ATOM     21  H   UNL     1       0.814  -3.794  41.969  1.00  0.00     0.211 HD
ENDBRANCH  15  20
ENDBRANCH   8   9
ENDBRANCH   7   8
ENDBRANCH   1   7
BRANCH   2  22
ATOM     22  O   UNL     1       3.620  -9.384  37.134  1.00  0.00    -0.387 OA
ATOM     23  H   UNL     1       4.391  -8.875  37.518  1.00  0.00     0.211 HD
ENDBRANCH   2  22
BRANCH   3  24
ATOM     24  O   UNL     1       1.979  -8.656  35.088  1.00  0.00    -0.387 OA
ATOM     25  H   UNL     1       1.209  -9.280  35.154  1.00  0.00     0.211 HD
ENDBRANCH   3  24
BRANCH   5  26
ATOM     26  O   UNL     1       4.131  -4.720  37.309  1.00  0.00    -0.454 OA
BRANCH  26  27
ATOM     27  C   UNL     1       4.640  -3.716  36.433  1.00  0.00     0.214 A 
ATOM     28  C   UNL     1       5.544  -3.933  35.375  1.00  0.00     0.180 A 
ATOM     29  C   UNL     1       4.440  -2.345  36.744  1.00  0.00     0.239 A 
ATOM     30  O   UNL     1       6.531  -3.072  35.243  1.00  0.00    -0.452 OA
ATOM     31  C   UNL     1       5.402  -1.368  36.386  1.00  0.00     0.111 A 
ATOM     32  O   UNL     1       3.385  -1.991  37.390  1.00  0.00    -0.285 OA
ATOM     33  C   UNL     1       6.587  -1.932  35.895  1.00  0.00     0.146 A 
ATOM     34  C   UNL     1       5.356   0.053  36.495  1.00  0.00     0.134 A 
ATOM     35  C   UNL     1       7.781  -1.263  35.918  1.00  0.00     0.094 A 
ATOM     36  C   UNL     1       6.551   0.784  36.203  1.00  0.00     0.093 A 
ATOM     37  C   UNL     1       7.766   0.142  35.938  1.00  0.00     0.123 A 
BRANCH  28  38
ATOM     38  C   UNL     1       5.673  -5.128  34.472  1.00  0.00     0.025 A 
ATOM     39  C   UNL     1       6.596  -6.145  34.857  1.00  0.00     0.062 A 
ATOM     40  C   UNL     1       4.985  -5.296  33.252  1.00  0.00     0.016 A 
ATOM     41  C   UNL     1       6.672  -7.393  34.232  1.00  0.00     0.158 A 
ATOM     42  C   UNL     1       5.105  -6.526  32.588  1.00  0.00     0.051 A 
ATOM     43  C   UNL     1       5.890  -7.582  33.068  1.00  0.00     0.157 A 
BRANCH  41  44
ATOM     44  O   UNL     1       7.463  -8.378  34.826  1.00  0.00    -0.504 OA
ATOM     45  H   UNL     1       7.099  -9.003  35.513  1.00  0.00     0.293 HD
ENDBRANCH  41  44
BRANCH  43  46
ATOM     46  O   UNL     1       5.929  -8.765  32.315  1.00  0.00    -0.504 OA
ATOM     47  H   UNL     1       6.819  -9.139  31.953  1.00  0.00     0.293 HD
ENDBRANCH  43  46
ENDBRANCH  28  38
BRANCH  34  48
ATOM     48  O   UNL     1       4.179   0.782  36.815  1.00  0.00    -0.507 OA
ATOM     49  H   UNL     1       3.797   1.530  36.245  1.00  0.00     0.293 HD
ENDBRANCH  34  48
BRANCH  37  50
ATOM     50  O   UNL     1       8.875   0.902  35.566  1.00  0.00    -0.508 OA
ATOM     51  H   UNL     1       9.114   1.013  34.577  1.00  0.00     0.293 HD
ENDBRANCH  37  50
ENDBRANCH  26  27
ENDBRANCH   5  26
BRANCH   4  52
ATOM     52  O   UNL     1       1.945  -5.403  35.874  1.00  0.00    -0.384 OA
ATOM     53  H   UNL     1       1.138  -5.597  36.435  1.00  0.00     0.211 HD
ENDBRANCH   4  52
TORSDOF 16
ENDMDL
MODEL 2
REMARK VINA RESULT:    -7.336      2.350      7.801
REMARK INTER + INTRA:         -14.095
REMARK INTER:                 -12.638
REMARK INTRA:                  -1.457
REMARK UNBOUND:                -2.042
REMARK SMILES C[C@H]1O[C@H](OC[C@@H]2O[C@H](Oc3c(-c4ccc(O)c(O)c4)oc4cc(O)cc(O)c4c3=O)[C@H](O)[C@@H](O)[C@H]2O)[C@H](O)[C@@H](O)[C@@H]1O
REMARK SMILES IDX 7 1 36 2 34 3 32 4 9 5 8 6 6 7 5 8 4 9 1 10 2 11 42 12 3 13
REMARK SMILES IDX 40 14 38 15 43 16 41 18 39 20 37 22 35 24 10 26 11 27 12 28
REMARK SMILES IDX 30 29 21 30 29 31 31 32 22 33 27 34 23 35 26 36 24 37 13 38
REMARK SMILES IDX 20 39 14 40 18 41 15 42 16 43 19 44 17 46 28 48 25 50 33 52
REMARK H PARENT 43 17 41 19 39 21 37 23 35 25 19 45 17 47 28 49 25 51 33 53
REMARK Flexibility Score: inf
ROOT
ATOM      1  C   UNL     1       6.588  -6.281  34.820  1.00  0.00     0.180 C 
ATOM      2  C   UNL     1       6.185  -6.459  33.342  1.00  0.00     0.177 C 
ATOM      3  C   UNL     1       4.702  -6.891  33.320  1.00  0.00     0.180 C 
ATOM      4  C   UNL     1       3.875  -6.117  34.427  1.00  0.00     0.214 C 
ATOM      5  C   UNL     1       4.609  -5.094  35.367  1.00  0.00     0.339 C 
ATOM      6  O   UNL     1       6.028  -5.066  35.255  1.00  0.00    -0.332 OA
ENDROOT
BRANCH   1   7
ATOM      7  C   UNL     1       6.412  -7.608  35.699  1.00  0.00     0.198 C 
BRANCH   7   8
ATOM      8  O   UNL     1       6.850  -8.769  34.981  1.00  0.00    -0.347 OA
BRANCH   8   9
ATOM      9  C   UNL     1       5.926  -9.822  35.022  1.00  0.00     0.281 C 
ATOM     10  C   UNL     1       3.594 -11.485  33.814  1.00  0.00     0.041 C 
ATOM     11  C   UNL     1       5.110 -11.577  33.594  1.00  0.00     0.150 C 
ATOM     12  C   UNL     1       5.732 -12.683  34.441  1.00  0.00     0.174 C 
ATOM     13  O   UNL     1       5.793 -10.326  33.698  1.00  0.00    -0.344 OA
ATOM     14  C   UNL     1       5.829 -12.266  35.910  1.00  0.00     0.179 C 
ATOM     15  C   UNL     1       6.469 -10.857  36.061  1.00  0.00     0.202 C 
BRANCH  12  16
ATOM     16  O   UNL     1       6.977 -13.124  33.930  1.00  0.00    -0.388 OA
ATOM     17  H   UNL     1       6.704 -13.567  33.071  1.00  0.00     0.211 HD
ENDBRANCH  12  16
BRANCH  14  18
ATOM     18  O   UNL     1       4.537 -12.318  36.521  1.00  0.00    -0.387 OA
ATOM     19  H   UNL     1       3.921 -11.976  35.843  1.00  0.00     0.211 HD
ENDBRANCH  14  18
BRANCH  15  20
ATOM     20  O   UNL     1       7.880 -10.882  35.989  1.00  0.00    -0.385 OA
ATOM     21  H   UNL     1       8.267  -9.997  35.717  1.00  0.00     0.211 HD
ENDBRANCH  15  20
ENDBRANCH   8   9
ENDBRANCH   7   8
ENDBRANCH   1   7
BRANCH   2  22
ATOM     22  O   UNL     1       6.385  -5.270  32.639  1.00  0.00    -0.387 OA
ATOM     23  H   UNL     1       6.454  -5.564  31.684  1.00  0.00     0.211 HD
ENDBRANCH   2  22
BRANCH   3  24
ATOM     24  O   UNL     1       4.156  -6.706  32.028  1.00  0.00    -0.387 OA
ATOM     25  H   UNL     1       4.042  -7.598  31.605  1.00  0.00     0.211 HD
ENDBRANCH   3  24
BRANCH   5  26
ATOM     26  O   UNL     1       4.150  -5.085  36.765  1.00  0.00    -0.454 OA
BRANCH  26  27
ATOM     27  C   UNL     1       3.150  -4.225  37.308  1.00  0.00     0.214 A 
ATOM     28  C   UNL     1       3.364  -2.912  37.773  1.00  0.00     0.180 A 
ATOM     29  C   UNL     1       1.877  -4.754  37.646  1.00  0.00     0.239 A 
ATOM     30  O   UNL     1       2.785  -2.576  38.907  1.00  0.00    -0.452 OA
ATOM     31  C   UNL     1       1.134  -4.229  38.733  1.00  0.00     0.111 A 
ATOM     32  O   UNL     1       1.406  -5.746  36.976  1.00  0.00    -0.285 OA
ATOM     33  C   UNL     1       1.870  -3.313  39.496  1.00  0.00     0.146 A 
ATOM     34  C   UNL     1      -0.190  -4.524  39.172  1.00  0.00     0.134 A 
ATOM     35  C   UNL     1       1.561  -3.031  40.800  1.00  0.00     0.094 A 
ATOM     36  C   UNL     1      -0.625  -3.955  40.410  1.00  0.00     0.093 A 
ATOM     37  C   UNL     1       0.241  -3.232  41.238  1.00  0.00     0.123 A 
BRANCH  28  38
ATOM     38  C   UNL     1       4.324  -1.874  37.265  1.00  0.00     0.025 A 
ATOM     39  C   UNL     1       5.545  -2.334  36.689  1.00  0.00     0.062 A 
ATOM     40  C   UNL     1       4.129  -0.479  37.357  1.00  0.00     0.016 A 
ATOM     41  C   UNL     1       6.432  -1.505  35.998  1.00  0.00     0.158 A 
ATOM     42  C   UNL     1       5.050   0.362  36.715  1.00  0.00     0.051 A 
ATOM     43  C   UNL     1       6.161  -0.116  36.009  1.00  0.00     0.157 A 
BRANCH  41  44
ATOM     44  O   UNL     1       7.484  -2.103  35.302  1.00  0.00    -0.504 OA
ATOM     45  H   UNL     1       8.354  -2.316  35.742  1.00  0.00     0.293 HD
ENDBRANCH  41  44
BRANCH  43  46
ATOM     46  O   UNL     1       7.010   0.825  35.407  1.00  0.00    -0.504 OA
ATOM     47  H   UNL     1       7.544   1.501  35.973  1.00  0.00     0.293 HD
ENDBRANCH  43  46
ENDBRANCH  28  38
BRANCH  34  48
ATOM     48  O   UNL     1      -1.115  -5.298  38.421  1.00  0.00    -0.507 OA
ATOM     49  H   UNL     1      -1.724  -6.006  38.819  1.00  0.00     0.293 HD
ENDBRANCH  34  48
BRANCH  37  50
ATOM     50  O   UNL     1      -0.262  -2.619  42.386  1.00  0.00    -0.508 OA
ATOM     51  H   UNL     1       0.010  -2.960  43.313  1.00  0.00     0.293 HD
ENDBRANCH  37  50
ENDBRANCH  26  27
ENDBRANCH   5  26
BRANCH   4  52
ATOM     52  O   UNL     1       3.137  -7.042  35.198  1.00  0.00    -0.384 OA
ATOM     53  H   UNL     1       3.351  -7.957  34.851  1.00  0.00     0.211 HD
ENDBRANCH   4  52
TORSDOF 16
ENDMDL
MODEL 3
REMARK VINA RESULT:    -7.258      2.173      6.398
REMARK INTER + INTRA:         -13.966
REMARK INTER:                 -11.548
REMARK INTRA:                  -2.418
REMARK UNBOUND:                -2.042
REMARK SMILES C[C@H]1O[C@H](OC[C@@H]2O[C@H](Oc3c(-c4ccc(O)c(O)c4)oc4cc(O)cc(O)c4c3=O)[C@H](O)[C@@H](O)[C@H]2O)[C@H](O)[C@@H](O)[C@@H]1O
REMARK SMILES IDX 7 1 36 2 34 3 32 4 9 5 8 6 6 7 5 8 4 9 1 10 2 11 42 12 3 13
REMARK SMILES IDX 40 14 38 15 43 16 41 18 39 20 37 22 35 24 10 26 11 27 12 28
REMARK SMILES IDX 30 29 21 30 29 31 31 32 22 33 27 34 23 35 26 36 24 37 13 38
REMARK SMILES IDX 20 39 14 40 18 41 15 42 16 43 19 44 17 46 28 48 25 50 33 52
REMARK H PARENT 43 17 41 19 39 21 37 23 35 25 19 45 17 47 28 49 25 51 33 53
REMARK Flexibility Score: inf
ROOT
ATOM      1  C   UNL     1       0.679  -9.316  36.198  1.00  0.00     0.180 C 
ATOM      2  C   UNL     1       0.171 -10.334  37.240  1.00  0.00     0.177 C 
ATOM      3  C   UNL     1       1.161 -10.308  38.425  1.00  0.00     0.180 C 
ATOM      4  C   UNL     1       1.645  -8.831  38.722  1.00  0.00     0.214 C 
ATOM      5  C   UNL     1       1.121  -7.650  37.826  1.00  0.00     0.339 C 
ATOM      6  O   UNL     1       0.361  -8.036  36.685  1.00  0.00    -0.332 OA
ENDROOT
BRANCH   1   7
ATOM      7  C   UNL     1       2.153  -9.630  35.659  1.00  0.00     0.198 C 
BRANCH   7   8
ATOM      8  O   UNL     1       2.514  -8.749  34.587  1.00  0.00    -0.347 OA
BRANCH   8   9
ATOM      9  C   UNL     1       3.805  -8.219  34.721  1.00  0.00     0.281 C 
ATOM     10  C   UNL     1       6.135  -7.044  36.410  1.00  0.00     0.041 C 
ATOM     11  C   UNL     1       5.746  -8.499  36.114  1.00  0.00     0.150 C 
ATOM     12  C   UNL     1       6.587  -9.084  34.984  1.00  0.00     0.174 C 
ATOM     13  O   UNL     1       4.342  -8.706  35.946  1.00  0.00    -0.344 OA
ATOM     14  C   UNL     1       6.143  -8.541  33.625  1.00  0.00     0.179 C 
ATOM     15  C   UNL     1       4.602  -8.647  33.445  1.00  0.00     0.202 C 
BRANCH  12  16
ATOM     16  O   UNL     1       6.619 -10.499  35.006  1.00  0.00    -0.388 OA
ATOM     17  H   UNL     1       7.507 -10.694  34.577  1.00  0.00     0.211 HD
ENDBRANCH  12  16
BRANCH  14  18
ATOM     18  O   UNL     1       6.592  -7.193  33.463  1.00  0.00    -0.387 OA
ATOM     19  H   UNL     1       5.832  -6.637  33.731  1.00  0.00     0.211 HD
ENDBRANCH  14  18
BRANCH  15  20
ATOM     20  O   UNL     1       4.180  -9.937  33.052  1.00  0.00    -0.385 OA
ATOM     21  H   UNL     1       3.502 -10.328  33.680  1.00  0.00     0.211 HD
ENDBRANCH  15  20
ENDBRANCH   8   9
ENDBRANCH   7   8
ENDBRANCH   1   7
BRANCH   2  22
ATOM     22  O   UNL     1      -1.125 -10.007  37.645  1.00  0.00    -0.387 OA
ATOM     23  H   UNL     1      -1.029  -9.091  38.040  1.00  0.00     0.211 HD
ENDBRANCH   2  22
BRANCH   3  24
ATOM     24  O   UNL     1       0.578 -10.911  39.565  1.00  0.00    -0.387 OA
ATOM     25  H   UNL     1       0.890 -10.424  40.373  1.00  0.00     0.211 HD
ENDBRANCH   3  24
BRANCH   5  26
ATOM     26  O   UNL     1       2.111  -6.606  37.522  1.00  0.00    -0.454 OA
BRANCH  26  27
ATOM     27  C   UNL     1       1.977  -5.218  37.820  1.00  0.00     0.214 A 
ATOM     28  C   UNL     1       2.894  -4.210  37.462  1.00  0.00     0.180 A 
ATOM     29  C   UNL     1       0.985  -4.790  38.741  1.00  0.00     0.239 A 
ATOM     30  O   UNL     1       3.184  -3.310  38.379  1.00  0.00    -0.452 OA
ATOM     31  C   UNL     1       1.200  -3.662  39.573  1.00  0.00     0.111 A 
ATOM     32  O   UNL     1      -0.110  -5.457  38.847  1.00  0.00    -0.285 OA
ATOM     33  C   UNL     1       2.515  -3.183  39.503  1.00  0.00     0.146 A 
ATOM     34  C   UNL     1       0.314  -2.999  40.473  1.00  0.00     0.134 A 
ATOM     35  C   UNL     1       3.076  -2.436  40.504  1.00  0.00     0.094 A 
ATOM     36  C   UNL     1       0.858  -1.976  41.312  1.00  0.00     0.093 A 
ATOM     37  C   UNL     1       2.231  -1.703  41.353  1.00  0.00     0.123 A 
BRANCH  28  38
ATOM     38  C   UNL     1       3.758  -4.109  36.237  1.00  0.00     0.025 A 
ATOM     39  C   UNL     1       4.957  -3.343  36.340  1.00  0.00     0.062 A 
ATOM     40  C   UNL     1       3.451  -4.677  34.982  1.00  0.00     0.016 A 
ATOM     41  C   UNL     1       5.950  -3.329  35.356  1.00  0.00     0.158 A 
ATOM     42  C   UNL     1       4.420  -4.615  33.971  1.00  0.00     0.051 A 
ATOM     43  C   UNL     1       5.667  -3.999  34.142  1.00  0.00     0.157 A 
BRANCH  41  44
ATOM     44  O   UNL     1       7.165  -2.712  35.658  1.00  0.00    -0.504 OA
ATOM     45  H   UNL     1       7.209  -1.863  36.181  1.00  0.00     0.293 HD
ENDBRANCH  41  44
BRANCH  43  46
ATOM     46  O   UNL     1       6.554  -4.002  33.056  1.00  0.00    -0.504 OA
ATOM     47  H   UNL     1       6.267  -3.653  32.130  1.00  0.00     0.293 HD
ENDBRANCH  43  46
ENDBRANCH  28  38
BRANCH  34  48
ATOM     48  O   UNL     1      -1.082  -3.256  40.537  1.00  0.00    -0.507 OA
ATOM     49  H   UNL     1      -1.490  -4.108  40.910  1.00  0.00     0.293 HD
ENDBRANCH  34  48
BRANCH  37  50
ATOM     50  O   UNL     1       2.692  -0.631  42.117  1.00  0.00    -0.508 OA
ATOM     51  H   UNL     1       3.624  -0.665  42.541  1.00  0.00     0.293 HD
ENDBRANCH  37  50
ENDBRANCH  26  27
ENDBRANCH   5  26
BRANCH   4  52
ATOM     52  O   UNL     1       3.056  -8.799  38.789  1.00  0.00    -0.384 OA
ATOM     53  H   UNL     1       3.399  -8.815  37.847  1.00  0.00     0.211 HD
ENDBRANCH   4  52
TORSDOF 16
ENDMDL
MODEL 4
REMARK VINA RESULT:    -7.240      2.054      5.033
REMARK INTER + INTRA:         -13.938
REMARK INTER:                 -11.249
REMARK INTRA:                  -2.689
REMARK UNBOUND:                -2.042
REMARK SMILES C[C@H]1O[C@H](OC[C@@H]2O[C@H](Oc3c(-c4ccc(O)c(O)c4)oc4cc(O)cc(O)c4c3=O)[C@H](O)[C@@H](O)[C@H]2O)[C@H](O)[C@@H](O)[C@@H]1O
REMARK SMILES IDX 7 1 36 2 34 3 32 4 9 5 8 6 6 7 5 8 4 9 1 10 2 11 42 12 3 13
REMARK SMILES IDX 40 14 38 15 43 16 41 18 39 20 37 22 35 24 10 26 11 27 12 28
REMARK SMILES IDX 30 29 21 30 29 31 31 32 22 33 27 34 23 35 26 36 24 37 13 38
REMARK SMILES IDX 20 39 14 40 18 41 15 42 16 43 19 44 17 46 28 48 25 50 33 52
REMARK H PARENT 43 17 41 19 39 21 37 23 35 25 19 45 17 47 28 49 25 51 33 53
REMARK Flexibility Score: inf
ROOT
ATOM      1  C   UNL     1       1.619  -6.286  36.271  1.00  0.00     0.180 C 
ATOM      2  C   UNL     1       0.817  -7.204  37.216  1.00  0.00     0.177 C 
ATOM      3  C   UNL     1       1.838  -7.968  38.088  1.00  0.00     0.180 C 
ATOM      4  C   UNL     1       3.041  -7.026  38.500  1.00  0.00     0.214 C 
ATOM      5  C   UNL     1       3.069  -5.538  37.991  1.00  0.00     0.339 C 
ATOM      6  O   UNL     1       2.067  -5.197  37.039  1.00  0.00    -0.332 OA
ENDROOT
BRANCH   1   7
ATOM      7  C   UNL     1       2.638  -7.074  35.320  1.00  0.00     0.198 C 
BRANCH   7   8
ATOM      8  O   UNL     1       1.955  -8.046  34.517  1.00  0.00    -0.347 OA
BRANCH   8   9
ATOM      9  C   UNL     1       2.599  -9.290  34.492  1.00  0.00     0.281 C 
ATOM     10  C   UNL     1       5.100 -11.101  34.850  1.00  0.00     0.041 C 
ATOM     11  C   UNL     1       4.071 -10.600  35.872  1.00  0.00     0.150 C 
ATOM     12  C   UNL     1       3.010 -11.657  36.161  1.00  0.00     0.174 C 
ATOM     13  O   UNL     1       3.527  -9.313  35.571  1.00  0.00    -0.344 OA
ATOM     14  C   UNL     1       2.015 -11.773  35.005  1.00  0.00     0.179 C 
ATOM     15  C   UNL     1       1.479 -10.379  34.572  1.00  0.00     0.202 C 
BRANCH  12  16
ATOM     16  O   UNL     1       2.361 -11.451  37.402  1.00  0.00    -0.388 OA
ATOM     17  H   UNL     1       2.822 -10.627  37.744  1.00  0.00     0.211 HD
ENDBRANCH  12  16
BRANCH  14  18
ATOM     18  O   UNL     1       2.617 -12.462  33.906  1.00  0.00    -0.387 OA
ATOM     19  H   UNL     1       2.046 -13.241  33.750  1.00  0.00     0.211 HD
ENDBRANCH  14  18
BRANCH  15  20
ATOM     20  O   UNL     1       0.439  -9.906  35.403  1.00  0.00    -0.385 OA
ATOM     21  H   UNL     1       0.278 -10.501  36.195  1.00  0.00     0.211 HD
ENDBRANCH  15  20
ENDBRANCH   8   9
ENDBRANCH   7   8
ENDBRANCH   1   7
BRANCH   2  22
ATOM     22  O   UNL     1      -0.062  -6.449  37.995  1.00  0.00    -0.387 OA
ATOM     23  H   UNL     1      -0.383  -5.735  37.371  1.00  0.00     0.211 HD
ENDBRANCH   2  22
BRANCH   3  24
ATOM     24  O   UNL     1       1.196  -8.530  39.217  1.00  0.00    -0.387 OA
ATOM     25  H   UNL     1       0.379  -7.998  39.410  1.00  0.00     0.211 HD
ENDBRANCH   3  24
BRANCH   5  26
ATOM     26  O   UNL     1       4.398  -5.025  37.626  1.00  0.00    -0.454 OA
BRANCH  26  27
ATOM     27  C   UNL     1       4.658  -3.967  36.706  1.00  0.00     0.214 A 
ATOM     28  C   UNL     1       5.433  -4.072  35.533  1.00  0.00     0.180 A 
ATOM     29  C   UNL     1       4.334  -2.631  37.061  1.00  0.00     0.239 A 
ATOM     30  O   UNL     1       6.280  -3.095  35.285  1.00  0.00    -0.452 OA
ATOM     31  C   UNL     1       5.113  -1.543  36.594  1.00  0.00     0.111 A 
ATOM     32  O   UNL     1       3.340  -2.409  37.847  1.00  0.00    -0.285 OA
ATOM     33  C   UNL     1       6.282  -1.956  35.941  1.00  0.00     0.146 A 
ATOM     34  C   UNL     1       4.908  -0.138  36.730  1.00  0.00     0.134 A 
ATOM     35  C   UNL     1       7.377  -1.145  35.816  1.00  0.00     0.094 A 
ATOM     36  C   UNL     1       5.954   0.735  36.294  1.00  0.00     0.093 A 
ATOM     37  C   UNL     1       7.193   0.247  35.860  1.00  0.00     0.123 A 
BRANCH  28  38
ATOM     38  C   UNL     1       5.585  -5.242  34.603  1.00  0.00     0.025 A 
ATOM     39  C   UNL     1       6.455  -6.297  35.012  1.00  0.00     0.062 A 
ATOM     40  C   UNL     1       4.971  -5.354  33.338  1.00  0.00     0.016 A 
ATOM     41  C   UNL     1       6.536  -7.527  34.353  1.00  0.00     0.158 A 
ATOM     42  C   UNL     1       5.098  -6.566  32.644  1.00  0.00     0.051 A 
ATOM     43  C   UNL     1       5.823  -7.659  33.138  1.00  0.00     0.157 A 
BRANCH  41  44
ATOM     44  O   UNL     1       7.262  -8.552  34.963  1.00  0.00    -0.504 OA
ATOM     45  H   UNL     1       8.100  -8.372  35.475  1.00  0.00     0.293 HD
ENDBRANCH  41  44
BRANCH  43  46
ATOM     46  O   UNL     1       5.877  -8.819  32.352  1.00  0.00    -0.504 OA
ATOM     47  H   UNL     1       5.150  -9.546  32.421  1.00  0.00     0.293 HD
ENDBRANCH  43  46
ENDBRANCH  28  38
BRANCH  34  48
ATOM     48  O   UNL     1       3.703   0.439  37.215  1.00  0.00    -0.507 OA
ATOM     49  H   UNL     1       3.046  -0.037  37.825  1.00  0.00     0.293 HD
ENDBRANCH  34  48
BRANCH  37  50
ATOM     50  O   UNL     1       8.140   1.139  35.356  1.00  0.00    -0.508 OA
ATOM     51  H   UNL     1       7.939   2.142  35.328  1.00  0.00     0.293 HD
ENDBRANCH  37  50
ENDBRANCH  26  27
ENDBRANCH   5  26
BRANCH   4  52
ATOM     52  O   UNL     1       4.266  -7.663  38.201  1.00  0.00    -0.384 OA
ATOM     53  H   UNL     1       4.160  -8.107  37.309  1.00  0.00     0.211 HD
ENDBRANCH   4  52
TORSDOF 16
ENDMDL
MODEL 5
REMARK VINA RESULT:    -7.144      1.723      4.690
REMARK INTER + INTRA:         -13.780
REMARK INTER:                 -11.084
REMARK INTRA:                  -2.696
REMARK UNBOUND:                -2.042
REMARK SMILES C[C@H]1O[C@H](OC[C@@H]2O[C@H](Oc3c(-c4ccc(O)c(O)c4)oc4cc(O)cc(O)c4c3=O)[C@H](O)[C@@H](O)[C@H]2O)[C@H](O)[C@@H](O)[C@@H]1O
REMARK SMILES IDX 7 1 36 2 34 3 32 4 9 5 8 6 6 7 5 8 4 9 1 10 2 11 42 12 3 13
REMARK SMILES IDX 40 14 38 15 43 16 41 18 39 20 37 22 35 24 10 26 11 27 12 28
REMARK SMILES IDX 30 29 21 30 29 31 31 32 22 33 27 34 23 35 26 36 24 37 13 38
REMARK SMILES IDX 20 39 14 40 18 41 15 42 16 43 19 44 17 46 28 48 25 50 33 52
REMARK H PARENT 43 17 41 19 39 21 37 23 35 25 19 45 17 47 28 49 25 51 33 53
REMARK Flexibility Score: inf
ROOT
ATOM      1  C   UNL     1       0.429  -4.376  39.174  1.00  0.00     0.180 C 
ATOM      2  C   UNL     1      -0.168  -3.488  40.285  1.00  0.00     0.177 C 
ATOM      3  C   UNL     1       1.003  -3.021  41.177  1.00  0.00     0.180 C 
ATOM      4  C   UNL     1       2.279  -2.689  40.302  1.00  0.00     0.214 C 
ATOM      5  C   UNL     1       2.220  -2.883  38.743  1.00  0.00     0.339 C 
ATOM      6  O   UNL     1       1.045  -3.516  38.247  1.00  0.00    -0.332 OA
ENDROOT
BRANCH   1   7
ATOM      7  C   UNL     1       1.214  -5.657  39.727  1.00  0.00     0.198 C 
BRANCH   7   8
ATOM      8  O   UNL     1       1.766  -6.433  38.656  1.00  0.00    -0.347 OA
BRANCH   8   9
ATOM      9  C   UNL     1       0.955  -7.514  38.285  1.00  0.00     0.281 C 
ATOM     10  C   UNL     1      -1.109  -8.890  36.412  1.00  0.00     0.041 C 
ATOM     11  C   UNL     1       0.419  -8.789  36.317  1.00  0.00     0.150 C 
ATOM     12  C   UNL     1       1.096 -10.053  36.838  1.00  0.00     0.174 C 
ATOM     13  O   UNL     1       0.961  -7.585  36.864  1.00  0.00    -0.344 OA
ATOM     14  C   UNL     1       1.054 -10.113  38.366  1.00  0.00     0.179 C 
ATOM     15  C   UNL     1       1.534  -8.778  39.002  1.00  0.00     0.202 C 
BRANCH  12  16
ATOM     16  O   UNL     1       2.410 -10.213  36.336  1.00  0.00    -0.388 OA
ATOM     17  H   UNL     1       2.238 -10.444  35.373  1.00  0.00     0.211 HD
ENDBRANCH  12  16
BRANCH  14  18
ATOM     18  O   UNL     1      -0.262 -10.455  38.809  1.00  0.00    -0.387 OA
ATOM     19  H   UNL     1      -0.586  -9.662  39.282  1.00  0.00     0.211 HD
ENDBRANCH  14  18
BRANCH  15  20
ATOM     20  O   UNL     1       2.942  -8.668  39.059  1.00  0.00    -0.385 OA
ATOM     21  H   UNL     1       3.392  -9.087  38.266  1.00  0.00     0.211 HD
ENDBRANCH  15  20
ENDBRANCH   8   9
ENDBRANCH   7   8
ENDBRANCH   1   7
BRANCH   2  22
ATOM     22  O   UNL     1      -0.852  -2.407  39.725  1.00  0.00    -0.387 OA
ATOM     23  H   UNL     1      -0.651  -2.476  38.747  1.00  0.00     0.211 HD
ENDBRANCH   2  22
BRANCH   3  24
ATOM     24  O   UNL     1       0.606  -1.919  41.971  1.00  0.00    -0.387 OA
ATOM     25  H   UNL     1       0.619  -2.197  42.924  1.00  0.00     0.211 HD
ENDBRANCH   3  24
BRANCH   5  26
ATOM     26  O   UNL     1       3.450  -3.407  38.129  1.00  0.00    -0.454 OA
BRANCH  26  27
ATOM     27  C   UNL     1       4.146  -2.824  37.029  1.00  0.00     0.214 A 
ATOM     28  C   UNL     1       4.800  -3.536  36.003  1.00  0.00     0.180 A 
ATOM     29  C   UNL     1       4.434  -1.435  37.037  1.00  0.00     0.239 A 
ATOM     30  O   UNL     1       5.988  -3.102  35.637  1.00  0.00    -0.452 OA
ATOM     31  C   UNL     1       5.609  -0.930  36.426  1.00  0.00     0.111 A 
ATOM     32  O   UNL     1       3.634  -0.626  37.638  1.00  0.00    -0.285 OA
ATOM     33  C   UNL     1       6.483  -1.946  36.016  1.00  0.00     0.146 A 
ATOM     34  C   UNL     1       6.035   0.415  36.219  1.00  0.00     0.134 A 
ATOM     35  C   UNL     1       7.823  -1.730  35.834  1.00  0.00     0.094 A 
ATOM     36  C   UNL     1       7.357   0.627  35.716  1.00  0.00     0.093 A 
ATOM     37  C   UNL     1       8.262  -0.427  35.543  1.00  0.00     0.123 A 
BRANCH  28  38
ATOM     38  C   UNL     1       4.431  -4.853  35.383  1.00  0.00     0.025 A 
ATOM     39  C   UNL     1       4.733  -6.035  36.122  1.00  0.00     0.062 A 
ATOM     40  C   UNL     1       3.850  -5.011  34.107  1.00  0.00     0.016 A 
ATOM     41  C   UNL     1       4.270  -7.305  35.769  1.00  0.00     0.158 A 
ATOM     42  C   UNL     1       3.435  -6.294  33.721  1.00  0.00     0.051 A 
ATOM     43  C   UNL     1       3.591  -7.426  34.533  1.00  0.00     0.157 A 
BRANCH  41  44
ATOM     44  O   UNL     1       4.454  -8.349  36.678  1.00  0.00    -0.504 OA
ATOM     45  H   UNL     1       5.221  -8.982  36.605  1.00  0.00     0.293 HD
ENDBRANCH  41  44
BRANCH  43  46
ATOM     46  O   UNL     1       3.136  -8.656  34.037  1.00  0.00    -0.504 OA
ATOM     47  H   UNL     1       3.781  -9.325  33.593  1.00  0.00     0.293 HD
ENDBRANCH  43  46
ENDBRANCH  28  38
BRANCH  34  48
ATOM     48  O   UNL     1       5.200   1.547  36.425  1.00  0.00    -0.507 OA
ATOM     49  H   UNL     1       5.494   2.394  36.901  1.00  0.00     0.293 HD
ENDBRANCH  34  48
BRANCH  37  50
ATOM     50  O   UNL     1       9.504  -0.174  34.959  1.00  0.00    -0.508 OA
ATOM     51  H   UNL     1      10.359  -0.253  35.516  1.00  0.00     0.293 HD
ENDBRANCH  37  50
ENDBRANCH  26  27
ENDBRANCH   5  26
BRANCH   4  52
ATOM     52  O   UNL     1       3.404  -3.359  40.831  1.00  0.00    -0.384 OA
ATOM     53  H   UNL     1       4.038  -2.658  41.164  1.00  0.00     0.211 HD
ENDBRANCH   4  52
TORSDOF 16
ENDMDL
MODEL 6
REMARK VINA RESULT:    -7.125      2.113      7.454
REMARK INTER + INTRA:         -13.748
REMARK INTER:                 -11.887
REMARK INTRA:                  -1.861
REMARK UNBOUND:                -2.042
REMARK SMILES C[C@H]1O[C@H](OC[C@@H]2O[C@H](Oc3c(-c4ccc(O)c(O)c4)oc4cc(O)cc(O)c4c3=O)[C@H](O)[C@@H](O)[C@H]2O)[C@H](O)[C@@H](O)[C@@H]1O
REMARK SMILES IDX 7 1 36 2 34 3 32 4 9 5 8 6 6 7 5 8 4 9 1 10 2 11 42 12 3 13
REMARK SMILES IDX 40 14 38 15 43 16 41 18 39 20 37 22 35 24 10 26 11 27 12 28
REMARK SMILES IDX 30 29 21 30 29 31 31 32 22 33 27 34 23 35 26 36 24 37 13 38
REMARK SMILES IDX 20 39 14 40 18 41 15 42 16 43 19 44 17 46 28 48 25 50 33 52
REMARK H PARENT 43 17 41 19 39 21 37 23 35 25 19 45 17 47 28 49 25 51 33 53
REMARK Flexibility Score: inf
ROOT
ATOM      1  C   UNL     1       6.947  -7.361  34.885  1.00  0.00     0.180 C 
ATOM      2  C   UNL     1       6.656  -7.267  33.374  1.00  0.00     0.177 C 
ATOM      3  C   UNL     1       5.123  -7.186  33.206  1.00  0.00     0.180 C 
ATOM      4  C   UNL     1       4.481  -6.285  34.338  1.00  0.00     0.214 C 
ATOM      5  C   UNL     1       5.406  -5.645  35.436  1.00  0.00     0.339 C 
ATOM      6  O   UNL     1       6.764  -6.073  35.420  1.00  0.00    -0.332 OA
ENDROOT
BRANCH   1   7
ATOM      7  C   UNL     1       6.272  -8.629  35.592  1.00  0.00     0.198 C 
BRANCH   7   8
ATOM      8  O   UNL     1       6.336  -9.789  34.752  1.00  0.00    -0.347 OA
BRANCH   8   9
ATOM      9  C   UNL     1       5.211 -10.616  34.868  1.00  0.00     0.281 C 
ATOM     10  C   UNL     1       2.591 -11.516  36.278  1.00  0.00     0.041 C 
ATOM     11  C   UNL     1       2.843 -10.416  35.237  1.00  0.00     0.150 C 
ATOM     12  C   UNL     1       2.489 -10.887  33.830  1.00  0.00     0.174 C 
ATOM     13  O   UNL     1       4.133  -9.809  35.328  1.00  0.00    -0.344 OA
ATOM     14  C   UNL     1       3.551 -11.844  33.284  1.00  0.00     0.179 C 
ATOM     15  C   UNL     1       4.984 -11.267  33.464  1.00  0.00     0.202 C 
BRANCH  12  16
ATOM     16  O   UNL     1       2.236  -9.813  32.944  1.00  0.00    -0.388 OA
ATOM     17  H   UNL     1       1.415  -9.398  33.350  1.00  0.00     0.211 HD
ENDBRANCH  12  16
BRANCH  14  18
ATOM     18  O   UNL     1       3.426 -13.125  33.907  1.00  0.00    -0.387 OA
ATOM     19  H   UNL     1       4.342 -13.459  33.989  1.00  0.00     0.211 HD
ENDBRANCH  14  18
BRANCH  15  20
ATOM     20  O   UNL     1       5.331 -10.331  32.463  1.00  0.00    -0.385 OA
ATOM     21  H   UNL     1       4.774  -9.497  32.507  1.00  0.00     0.211 HD
ENDBRANCH  15  20
ENDBRANCH   8   9
ENDBRANCH   7   8
ENDBRANCH   1   7
BRANCH   2  22
ATOM     22  O   UNL     1       7.293  -6.151  32.826  1.00  0.00    -0.387 OA
ATOM     23  H   UNL     1       6.538  -5.572  32.515  1.00  0.00     0.211 HD
ENDBRANCH   2  22
BRANCH   3  24
ATOM     24  O   UNL     1       4.794  -6.720  31.911  1.00  0.00    -0.387 OA
ATOM     25  H   UNL     1       5.242  -7.305  31.244  1.00  0.00     0.211 HD
ENDBRANCH   3  24
BRANCH   5  26
ATOM     26  O   UNL     1       4.838  -5.609  36.792  1.00  0.00    -0.454 OA
BRANCH  26  27
ATOM     27  C   UNL     1       3.893  -4.656  37.275  1.00  0.00     0.214 A 
ATOM     28  C   UNL     1       4.158  -3.295  37.528  1.00  0.00     0.180 A 
ATOM     29  C   UNL     1       2.641  -5.100  37.776  1.00  0.00     0.239 A 
ATOM     30  O   UNL     1       3.670  -2.786  38.640  1.00  0.00    -0.452 OA
ATOM     31  C   UNL     1       1.988  -4.406  38.826  1.00  0.00     0.111 A 
ATOM     32  O   UNL     1       2.108  -6.166  37.292  1.00  0.00    -0.285 OA
ATOM     33  C   UNL     1       2.791  -3.408  39.394  1.00  0.00     0.146 A 
ATOM     34  C   UNL     1       0.696  -4.603  39.397  1.00  0.00     0.134 A 
ATOM     35  C   UNL     1       2.584  -2.935  40.662  1.00  0.00     0.094 A 
ATOM     36  C   UNL     1       0.362  -3.852  40.567  1.00  0.00     0.093 A 
ATOM     37  C   UNL     1       1.298  -3.038  41.218  1.00  0.00     0.123 A 
BRANCH  28  38
ATOM     38  C   UNL     1       5.092  -2.364  36.808  1.00  0.00     0.025 A 
ATOM     39  C   UNL     1       4.702  -0.996  36.701  1.00  0.00     0.062 A 
ATOM     40  C   UNL     1       6.301  -2.749  36.192  1.00  0.00     0.016 A 
ATOM     41  C   UNL     1       5.552   0.014  36.245  1.00  0.00     0.158 A 
ATOM     42  C   UNL     1       7.133  -1.744  35.677  1.00  0.00     0.051 A 
ATOM     43  C   UNL     1       6.810  -0.382  35.729  1.00  0.00     0.157 A 
BRANCH  41  44
ATOM     44  O   UNL     1       5.132   1.339  36.381  1.00  0.00    -0.504 OA
ATOM     45  H   UNL     1       4.347   1.587  36.945  1.00  0.00     0.293 HD
ENDBRANCH  41  44
BRANCH  43  46
ATOM     46  O   UNL     1       7.724   0.530  35.181  1.00  0.00    -0.504 OA
ATOM     47  H   UNL     1       8.389   0.245  34.448  1.00  0.00     0.293 HD
ENDBRANCH  43  46
ENDBRANCH  28  38
BRANCH  34  48
ATOM     48  O   UNL     1      -0.293  -5.455  38.834  1.00  0.00    -0.507 OA
ATOM     49  H   UNL     1      -0.104  -6.160  38.129  1.00  0.00     0.293 HD
ENDBRANCH  34  48
BRANCH  37  50
ATOM     50  O   UNL     1       0.889  -2.255  42.298  1.00  0.00    -0.508 OA
ATOM     51  H   UNL     1       1.580  -1.738  42.849  1.00  0.00     0.293 HD
ENDBRANCH  37  50
ENDBRANCH  26  27
ENDBRANCH   5  26
BRANCH   4  52
ATOM     52  O   UNL     1       3.414  -6.981  34.949  1.00  0.00    -0.384 OA
ATOM     53  H   UNL     1       2.582  -6.760  34.436  1.00  0.00     0.211 HD
ENDBRANCH   4  52
TORSDOF 16
ENDMDL
MODEL 7
REMARK VINA RESULT:    -7.121      1.964      6.690
REMARK INTER + INTRA:         -13.741
REMARK INTER:                 -12.292
REMARK INTRA:                  -1.450
REMARK UNBOUND:                -2.042
REMARK SMILES C[C@H]1O[C@H](OC[C@@H]2O[C@H](Oc3c(-c4ccc(O)c(O)c4)oc4cc(O)cc(O)c4c3=O)[C@H](O)[C@@H](O)[C@H]2O)[C@H](O)[C@@H](O)[C@@H]1O
REMARK SMILES IDX 7 1 36 2 34 3 32 4 9 5 8 6 6 7 5 8 4 9 1 10 2 11 42 12 3 13
REMARK SMILES IDX 40 14 38 15 43 16 41 18 39 20 37 22 35 24 10 26 11 27 12 28
REMARK SMILES IDX 30 29 21 30 29 31 31 32 22 33 27 34 23 35 26 36 24 37 13 38
REMARK SMILES IDX 20 39 14 40 18 41 15 42 16 43 19 44 17 46 28 48 25 50 33 52
REMARK H PARENT 43 17 41 19 39 21 37 23 35 25 19 45 17 47 28 49 25 51 33 53
REMARK Flexibility Score: inf
ROOT
ATOM      1  C   UNL     1      -0.816  -5.452  38.846  1.00  0.00     0.180 C 
ATOM      2  C   UNL     1      -0.706  -4.903  40.284  1.00  0.00     0.177 C 
ATOM      3  C   UNL     1       0.691  -5.291  40.817  1.00  0.00     0.180 C 
ATOM      4  C   UNL     1       1.784  -5.157  39.679  1.00  0.00     0.214 C 
ATOM      5  C   UNL     1       1.350  -4.702  38.238  1.00  0.00     0.339 C 
ATOM      6  O   UNL     1      -0.054  -4.604  38.023  1.00  0.00    -0.332 OA
ENDROOT
BRANCH   1   7
ATOM      7  C   UNL     1      -0.637  -7.040  38.750  1.00  0.00     0.198 C 
BRANCH   7   8
ATOM      8  O   UNL     1       0.498  -7.389  37.948  1.00  0.00    -0.347 OA
BRANCH   8   9
ATOM      9  C   UNL     1       0.404  -8.670  37.387  1.00  0.00     0.281 C 
ATOM     10  C   UNL     1      -0.017 -10.598  34.985  1.00  0.00     0.041 C 
ATOM     11  C   UNL     1       1.246  -9.888  35.492  1.00  0.00     0.150 C 
ATOM     12  C   UNL     1       2.102 -10.814  36.350  1.00  0.00     0.174 C 
ATOM     13  O   UNL     1       0.999  -8.616  36.096  1.00  0.00    -0.344 OA
ATOM     14  C   UNL     1       1.486 -11.010  37.736  1.00  0.00     0.179 C 
ATOM     15  C   UNL     1       1.101  -9.651  38.386  1.00  0.00     0.202 C 
BRANCH  12  16
ATOM     16  O   UNL     1       3.452 -10.395  36.423  1.00  0.00    -0.388 OA
ATOM     17  H   UNL     1       3.943 -11.271  36.412  1.00  0.00     0.211 HD
ENDBRANCH  12  16
BRANCH  14  18
ATOM     18  O   UNL     1       0.357 -11.884  37.653  1.00  0.00    -0.387 OA
ATOM     19  H   UNL     1       0.729 -12.787  37.720  1.00  0.00     0.211 HD
ENDBRANCH  14  18
BRANCH  15  20
ATOM     20  O   UNL     1       2.200  -8.994  38.982  1.00  0.00    -0.385 OA
ATOM     21  H   UNL     1       2.154  -9.000  39.985  1.00  0.00     0.211 HD
ENDBRANCH  15  20
ENDBRANCH   8   9
ENDBRANCH   7   8
ENDBRANCH   1   7
BRANCH   2  22
ATOM     22  O   UNL     1      -0.892  -3.519  40.289  1.00  0.00    -0.387 OA
ATOM     23  H   UNL     1      -0.945  -3.280  39.318  1.00  0.00     0.211 HD
ENDBRANCH   2  22
BRANCH   3  24
ATOM     24  O   UNL     1       1.016  -4.516  41.954  1.00  0.00    -0.387 OA
ATOM     25  H   UNL     1       0.220  -4.482  42.549  1.00  0.00     0.211 HD
ENDBRANCH   3  24
BRANCH   5  26
ATOM     26  O   UNL     1       2.049  -5.372  37.132  1.00  0.00    -0.454 OA
BRANCH  26  27
ATOM     27  C   UNL     1       3.451  -5.320  36.878  1.00  0.00     0.214 A 
ATOM     28  C   UNL     1       4.185  -4.159  36.565  1.00  0.00     0.180 A 
ATOM     29  C   UNL     1       4.175  -6.526  36.685  1.00  0.00     0.239 A 
ATOM     30  O   UNL     1       5.071  -4.252  35.596  1.00  0.00    -0.452 OA
ATOM     31  C   UNL     1       5.292  -6.574  35.813  1.00  0.00     0.111 A 
ATOM     32  O   UNL     1       3.791  -7.597  37.283  1.00  0.00    -0.285 OA
ATOM     33  C   UNL     1       5.447  -5.396  35.069  1.00  0.00     0.146 A 
ATOM     34  C   UNL     1       6.218  -7.628  35.559  1.00  0.00     0.134 A 
ATOM     35  C   UNL     1       6.129  -5.364  33.883  1.00  0.00     0.094 A 
ATOM     36  C   UNL     1       7.158  -7.450  34.496  1.00  0.00     0.093 A 
ATOM     37  C   UNL     1       7.110  -6.341  33.642  1.00  0.00     0.123 A 
BRANCH  28  38
ATOM     38  C   UNL     1       3.975  -2.750  37.044  1.00  0.00     0.025 A 
ATOM     39  C   UNL     1       4.898  -1.759  36.596  1.00  0.00     0.062 A 
ATOM     40  C   UNL     1       2.963  -2.343  37.939  1.00  0.00     0.016 A 
ATOM     41  C   UNL     1       4.712  -0.388  36.791  1.00  0.00     0.158 A 
ATOM     42  C   UNL     1       2.808  -0.971  38.186  1.00  0.00     0.051 A 
ATOM     43  C   UNL     1       3.624   0.008  37.604  1.00  0.00     0.157 A 
BRANCH  41  44
ATOM     44  O   UNL     1       5.571   0.492  36.129  1.00  0.00    -0.504 OA
ATOM     45  H   UNL     1       5.310   0.941  35.277  1.00  0.00     0.293 HD
ENDBRANCH  41  44
BRANCH  43  46
ATOM     46  O   UNL     1       3.371   1.349  37.927  1.00  0.00    -0.504 OA
ATOM     47  H   UNL     1       3.893   2.115  37.476  1.00  0.00     0.293 HD
ENDBRANCH  43  46
ENDBRANCH  28  38
BRANCH  34  48
ATOM     48  O   UNL     1       6.297  -8.813  36.341  1.00  0.00    -0.507 OA
ATOM     49  H   UNL     1       7.155  -9.328  36.512  1.00  0.00     0.293 HD
ENDBRANCH  34  48
BRANCH  37  50
ATOM     50  O   UNL     1       8.110  -6.171  32.684  1.00  0.00    -0.508 OA
ATOM     51  H   UNL     1       9.050  -6.541  32.851  1.00  0.00     0.293 HD
ENDBRANCH  37  50
ENDBRANCH  26  27
ENDBRANCH   5  26
BRANCH   4  52
ATOM     52  O   UNL     1       2.539  -6.348  39.604  1.00  0.00    -0.384 OA
ATOM     53  H   UNL     1       3.367  -6.210  40.151  1.00  0.00     0.211 HD
ENDBRANCH   4  52
TORSDOF 16
ENDMDL
MODEL 8
REMARK VINA RESULT:    -7.024      1.784      6.534
REMARK INTER + INTRA:         -13.583
REMARK INTER:                 -11.272
REMARK INTRA:                  -2.311
REMARK UNBOUND:                -2.042
REMARK SMILES C[C@H]1O[C@H](OC[C@@H]2O[C@H](Oc3c(-c4ccc(O)c(O)c4)oc4cc(O)cc(O)c4c3=O)[C@H](O)[C@@H](O)[C@H]2O)[C@H](O)[C@@H](O)[C@@H]1O
REMARK SMILES IDX 7 1 36 2 34 3 32 4 9 5 8 6 6 7 5 8 4 9 1 10 2 11 42 12 3 13
REMARK SMILES IDX 40 14 38 15 43 16 41 18 39 20 37 22 35 24 10 26 11 27 12 28
REMARK SMILES IDX 30 29 21 30 29 31 31 32 22 33 27 34 23 35 26 36 24 37 13 38
REMARK SMILES IDX 20 39 14 40 18 41 15 42 16 43 19 44 17 46 28 48 25 50 33 52
REMARK H PARENT 43 17 41 19 39 21 37 23 35 25 19 45 17 47 28 49 25 51 33 53
REMARK Flexibility Score: inf
ROOT
ATOM      1  C   UNL     1       5.114  -7.357  35.298  1.00  0.00     0.180 C 
ATOM      2  C   UNL     1       6.521  -7.475  34.677  1.00  0.00     0.177 C 
ATOM      3  C   UNL     1       6.535  -6.598  33.405  1.00  0.00     0.180 C 
ATOM      4  C   UNL     1       5.727  -5.257  33.638  1.00  0.00     0.214 C 
ATOM      5  C   UNL     1       5.033  -5.003  35.025  1.00  0.00     0.339 C 
ATOM      6  O   UNL     1       5.048  -6.102  35.930  1.00  0.00    -0.332 OA
ENDROOT
BRANCH   1   7
ATOM      7  C   UNL     1       3.938  -7.828  34.319  1.00  0.00     0.198 C 
BRANCH   7   8
ATOM      8  O   UNL     1       3.434  -9.117  34.693  1.00  0.00    -0.347 OA
BRANCH   8   9
ATOM      9  C   UNL     1       2.938  -9.154  36.003  1.00  0.00     0.281 C 
ATOM     10  C   UNL     1       2.085  -7.790  38.663  1.00  0.00     0.041 C 
ATOM     11  C   UNL     1       1.308  -8.020  37.360  1.00  0.00     0.150 C 
ATOM     12  C   UNL     1       0.401  -9.243  37.458  1.00  0.00     0.174 C 
ATOM     13  O   UNL     1       2.120  -8.005  36.184  1.00  0.00    -0.344 OA
ATOM     14  C   UNL     1       1.209 -10.539  37.370  1.00  0.00     0.179 C 
ATOM     15  C   UNL     1       2.188 -10.519  36.162  1.00  0.00     0.202 C 
BRANCH  12  16
ATOM     16  O   UNL     1      -0.658  -9.212  36.519  1.00  0.00    -0.388 OA
ATOM     17  H   UNL     1      -0.183  -9.437  35.662  1.00  0.00     0.211 HD
ENDBRANCH  12  16
BRANCH  14  18
ATOM     18  O   UNL     1       1.904 -10.769  38.598  1.00  0.00    -0.387 OA
ATOM     19  H   UNL     1       1.213 -11.041  39.235  1.00  0.00     0.211 HD
ENDBRANCH  14  18
BRANCH  15  20
ATOM     20  O   UNL     1       1.561 -10.842  34.938  1.00  0.00    -0.385 OA
ATOM     21  H   UNL     1       1.757 -11.781  34.642  1.00  0.00     0.211 HD
ENDBRANCH  15  20
ENDBRANCH   8   9
ENDBRANCH   7   8
ENDBRANCH   1   7
BRANCH   2  22
ATOM     22  O   UNL     1       7.491  -7.067  35.594  1.00  0.00    -0.387 OA
ATOM     23  H   UNL     1       6.972  -6.559  36.283  1.00  0.00     0.211 HD
ENDBRANCH   2  22
BRANCH   3  24
ATOM     24  O   UNL     1       7.867  -6.348  32.997  1.00  0.00    -0.387 OA
ATOM     25  H   UNL     1       8.183  -5.521  33.447  1.00  0.00     0.211 HD
ENDBRANCH   3  24
BRANCH   5  26
ATOM     26  O   UNL     1       3.721  -4.341  34.958  1.00  0.00    -0.454 OA
BRANCH  26  27
ATOM     27  C   UNL     1       3.021  -3.764  36.059  1.00  0.00     0.214 A 
ATOM     28  C   UNL     1       3.558  -2.840  36.977  1.00  0.00     0.180 A 
ATOM     29  C   UNL     1       1.763  -4.294  36.447  1.00  0.00     0.239 A 
ATOM     30  O   UNL     1       3.284  -3.032  38.251  1.00  0.00    -0.452 OA
ATOM     31  C   UNL     1       1.356  -4.285  37.805  1.00  0.00     0.111 A 
ATOM     32  O   UNL     1       0.997  -4.820  35.558  1.00  0.00    -0.285 OA
ATOM     33  C   UNL     1       2.382  -3.889  38.673  1.00  0.00     0.146 A 
ATOM     34  C   UNL     1       0.111  -4.653  38.396  1.00  0.00     0.134 A 
ATOM     35  C   UNL     1       2.389  -4.228  40.000  1.00  0.00     0.094 A 
ATOM     36  C   UNL     1       0.038  -4.699  39.823  1.00  0.00     0.093 A 
ATOM     37  C   UNL     1       1.167  -4.513  40.630  1.00  0.00     0.123 A 
BRANCH  28  38
ATOM     38  C   UNL     1       4.575  -1.759  36.745  1.00  0.00     0.025 A 
ATOM     39  C   UNL     1       5.823  -2.143  36.169  1.00  0.00     0.062 A 
ATOM     40  C   UNL     1       4.407  -0.402  37.096  1.00  0.00     0.016 A 
ATOM     41  C   UNL     1       6.775  -1.228  35.712  1.00  0.00     0.158 A 
ATOM     42  C   UNL     1       5.390   0.513  36.692  1.00  0.00     0.051 A 
ATOM     43  C   UNL     1       6.536   0.142  35.977  1.00  0.00     0.157 A 
BRANCH  41  44
ATOM     44  O   UNL     1       7.858  -1.718  34.980  1.00  0.00    -0.504 OA
ATOM     45  H   UNL     1       8.134  -2.676  35.023  1.00  0.00     0.293 HD
ENDBRANCH  41  44
BRANCH  43  46
ATOM     46  O   UNL     1       7.446   1.149  35.627  1.00  0.00    -0.504 OA
ATOM     47  H   UNL     1       8.453   1.052  35.825  1.00  0.00     0.293 HD
ENDBRANCH  43  46
ENDBRANCH  28  38
BRANCH  34  48
ATOM     48  O   UNL     1      -1.069  -4.916  37.649  1.00  0.00    -0.507 OA
ATOM     49  H   UNL     1      -1.076  -5.236  36.685  1.00  0.00     0.293 HD
ENDBRANCH  34  48
BRANCH  37  50
ATOM     50  O   UNL     1       1.018  -4.472  42.017  1.00  0.00    -0.508 OA
ATOM     51  H   UNL     1       1.272  -5.285  42.585  1.00  0.00     0.293 HD
ENDBRANCH  37  50
ENDBRANCH  26  27
ENDBRANCH   5  26
BRANCH   4  52
ATOM     52  O   UNL     1       4.797  -5.077  32.590  1.00  0.00    -0.384 OA
ATOM     53  H   UNL     1       4.958  -5.805  31.921  1.00  0.00     0.211 HD
ENDBRANCH   4  52
TORSDOF 16
ENDMDL
MODEL 9
REMARK VINA RESULT:    -6.989      1.743      6.334
REMARK INTER + INTRA:         -13.526
REMARK INTER:                 -12.281
REMARK INTRA:                  -1.245
REMARK UNBOUND:                -2.042
REMARK SMILES C[C@H]1O[C@H](OC[C@@H]2O[C@H](Oc3c(-c4ccc(O)c(O)c4)oc4cc(O)cc(O)c4c3=O)[C@H](O)[C@@H](O)[C@H]2O)[C@H](O)[C@@H](O)[C@@H]1O
REMARK SMILES IDX 7 1 36 2 34 3 32 4 9 5 8 6 6 7 5 8 4 9 1 10 2 11 42 12 3 13
REMARK SMILES IDX 40 14 38 15 43 16 41 18 39 20 37 22 35 24 10 26 11 27 12 28
REMARK SMILES IDX 30 29 21 30 29 31 31 32 22 33 27 34 23 35 26 36 24 37 13 38
REMARK SMILES IDX 20 39 14 40 18 41 15 42 16 43 19 44 17 46 28 48 25 50 33 52
REMARK H PARENT 43 17 41 19 39 21 37 23 35 25 19 45 17 47 28 49 25 51 33 53
REMARK Flexibility Score: inf
ROOT
ATOM      1  C   UNL     1       5.890  -7.840  34.903  1.00  0.00     0.180 C 
ATOM      2  C   UNL     1       5.949  -7.424  33.419  1.00  0.00     0.177 C 
ATOM      3  C   UNL     1       4.599  -6.755  33.077  1.00  0.00     0.180 C 
ATOM      4  C   UNL     1       4.096  -5.858  34.280  1.00  0.00     0.214 C 
ATOM      5  C   UNL     1       4.952  -5.776  35.596  1.00  0.00     0.339 C 
ATOM      6  O   UNL     1       6.058  -6.671  35.665  1.00  0.00    -0.332 OA
ENDROOT
BRANCH   1   7
ATOM      7  C   UNL     1       4.699  -8.857  35.239  1.00  0.00     0.198 C 
BRANCH   7   8
ATOM      8  O   UNL     1       4.210  -8.663  36.572  1.00  0.00    -0.347 OA
BRANCH   8   9
ATOM      9  C   UNL     1       2.855  -8.990  36.714  1.00  0.00     0.281 C 
ATOM     10  C   UNL     1       0.348 -10.693  36.025  1.00  0.00     0.041 C 
ATOM     11  C   UNL     1       1.481 -10.938  37.031  1.00  0.00     0.150 C 
ATOM     12  C   UNL     1       1.071 -10.533  38.444  1.00  0.00     0.174 C 
ATOM     13  O   UNL     1       2.745 -10.405  36.630  1.00  0.00    -0.344 OA
ATOM     14  C   UNL     1       1.067  -9.012  38.604  1.00  0.00     0.179 C 
ATOM     15  C   UNL     1       2.385  -8.380  38.076  1.00  0.00     0.202 C 
BRANCH  12  16
ATOM     16  O   UNL     1       1.849 -11.171  39.440  1.00  0.00    -0.388 OA
ATOM     17  H   UNL     1       1.166 -11.349  40.155  1.00  0.00     0.211 HD
ENDBRANCH  12  16
BRANCH  14  18
ATOM     18  O   UNL     1      -0.076  -8.452  37.951  1.00  0.00    -0.387 OA
ATOM     19  H   UNL     1       0.228  -8.241  37.045  1.00  0.00     0.211 HD
ENDBRANCH  14  18
BRANCH  15  20
ATOM     20  O   UNL     1       3.447  -8.462  39.005  1.00  0.00    -0.385 OA
ATOM     21  H   UNL     1       3.895  -7.577  39.156  1.00  0.00     0.211 HD
ENDBRANCH  15  20
ENDBRANCH   8   9
ENDBRANCH   7   8
ENDBRANCH   1   7
BRANCH   2  22
ATOM     22  O   UNL     1       7.022  -6.557  33.201  1.00  0.00    -0.387 OA
ATOM     23  H   UNL     1       7.276  -6.725  32.247  1.00  0.00     0.211 HD
ENDBRANCH   2  22
BRANCH   3  24
ATOM     24  O   UNL     1       4.707  -6.016  31.876  1.00  0.00    -0.387 OA
ATOM     25  H   UNL     1       5.291  -5.229  32.044  1.00  0.00     0.211 HD
ENDBRANCH   3  24
BRANCH   5  26
ATOM     26  O   UNL     1       4.178  -5.733  36.846  1.00  0.00    -0.454 OA
BRANCH  26  27
ATOM     27  C   UNL     1       3.346  -4.655  37.274  1.00  0.00     0.214 A 
ATOM     28  C   UNL     1       3.783  -3.346  37.558  1.00  0.00     0.180 A 
ATOM     29  C   UNL     1       2.013  -4.918  37.685  1.00  0.00     0.239 A 
ATOM     30  O   UNL     1       3.297  -2.774  38.640  1.00  0.00    -0.452 OA
ATOM     31  C   UNL     1       1.395  -4.140  38.696  1.00  0.00     0.111 A 
ATOM     32  O   UNL     1       1.370  -5.898  37.156  1.00  0.00    -0.285 OA
ATOM     33  C   UNL     1       2.290  -3.266  39.327  1.00  0.00     0.146 A 
ATOM     34  C   UNL     1       0.052  -4.153  39.176  1.00  0.00     0.134 A 
ATOM     35  C   UNL     1       2.066  -2.769  40.583  1.00  0.00     0.094 A 
ATOM     36  C   UNL     1      -0.251  -3.362  40.329  1.00  0.00     0.093 A 
ATOM     37  C   UNL     1       0.743  -2.690  41.050  1.00  0.00     0.123 A 
BRANCH  28  38
ATOM     38  C   UNL     1       4.886  -2.556  36.913  1.00  0.00     0.025 A 
ATOM     39  C   UNL     1       4.672  -1.157  36.732  1.00  0.00     0.062 A 
ATOM     40  C   UNL     1       6.095  -3.100  36.431  1.00  0.00     0.016 A 
ATOM     41  C   UNL     1       5.676  -0.269  36.337  1.00  0.00     0.158 A 
ATOM     42  C   UNL     1       7.086  -2.217  35.978  1.00  0.00     0.051 A 
ATOM     43  C   UNL     1       6.922  -0.826  35.961  1.00  0.00     0.157 A 
BRANCH  41  44
ATOM     44  O   UNL     1       5.404   1.099  36.396  1.00  0.00    -0.504 OA
ATOM     45  H   UNL     1       5.847   1.752  35.785  1.00  0.00     0.293 HD
ENDBRANCH  41  44
BRANCH  43  46
ATOM     46  O   UNL     1       7.986  -0.046  35.485  1.00  0.00    -0.504 OA
ATOM     47  H   UNL     1       7.843   0.662  34.750  1.00  0.00     0.293 HD
ENDBRANCH  43  46
ENDBRANCH  28  38
BRANCH  34  48
ATOM     48  O   UNL     1      -1.006  -4.855  38.539  1.00  0.00    -0.507 OA
ATOM     49  H   UNL     1      -1.136  -4.903  37.534  1.00  0.00     0.293 HD
ENDBRANCH  34  48
BRANCH  37  50
ATOM     50  O   UNL     1       0.377  -1.857  42.108  1.00  0.00    -0.508 OA
ATOM     51  H   UNL     1      -0.612  -1.661  42.290  1.00  0.00     0.293 HD
ENDBRANCH  37  50
ENDBRANCH  26  27
ENDBRANCH   5  26
BRANCH   4  52
ATOM     52  O   UNL     1       2.759  -6.190  34.592  1.00  0.00    -0.384 OA
ATOM     53  H   UNL     1       2.256  -5.330  34.701  1.00  0.00     0.211 HD
ENDBRANCH   4  52
TORSDOF 16
ENDMDL
