MODEL 1
REMARK VINA RESULT:    -7.370      0.000      0.000
REMARK INTER + INTRA:          -8.761
REMARK INTER:                  -8.877
REMARK INTRA:                   0.116
REMARK UNBOUND:                 0.116
REMARK SMILES O=c1c(O)c(-c2ccc(O)c(O)c2)oc2cc(O)cc(O)c12
REMARK SMILES IDX 5 1 3 2 2 3 1 4 22 5 20 6 19 7 17 8 16 9 15 10 14 11 6 12
REMARK SMILES IDX 7 13 8 14 9 15 13 16 11 17 10 18 12 20 4 22 21 24 18 26
REMARK H PARENT 10 19 12 21 4 23 21 25 18 27
REMARK Flexibility Score: inf
ROOT
ATOM      1  C   UNL     1     101.128 116.101 123.130  1.00  0.00     0.180 A 
ATOM      2  C   UNL     1     100.421 117.287 123.396  1.00  0.00     0.208 A 
ATOM      3  C   UNL     1      99.848 117.993 122.325  1.00  0.00     0.238 A 
ATOM      4  O   UNL     1      99.264 119.083 122.564  1.00  0.00    -0.285 OA
ATOM      5  C   UNL     1      99.975 117.497 121.006  1.00  0.00     0.111 A 
ATOM      6  C   UNL     1      99.400 118.109 119.851  1.00  0.00     0.134 A 
ATOM      7  C   UNL     1      99.700 117.603 118.581  1.00  0.00     0.093 A 
ATOM      8  C   UNL     1     100.500 116.468 118.428  1.00  0.00     0.123 A 
ATOM      9  C   UNL     1     101.016 115.828 119.552  1.00  0.00     0.094 A 
ATOM     10  C   UNL     1     100.765 116.332 120.831  1.00  0.00     0.146 A 
ATOM     11  O   UNL     1     101.285 115.698 121.875  1.00  0.00    -0.452 OA
ENDROOT
BRANCH   1  12
ATOM     12  C   UNL     1     101.738 115.290 124.208  1.00  0.00     0.025 A 
ATOM     13  C   UNL     1     101.566 113.896 124.204  1.00  0.00     0.016 A 
ATOM     14  C   UNL     1     102.116 113.113 125.223  1.00  0.00     0.051 A 
ATOM     15  C   UNL     1     102.831 113.713 126.267  1.00  0.00     0.157 A 
ATOM     16  C   UNL     1     102.439 115.891 125.270  1.00  0.00     0.062 A 
ATOM     17  C   UNL     1     102.989 115.105 126.293  1.00  0.00     0.158 A 
BRANCH  15  18
ATOM     18  O   UNL     1     103.382 112.936 127.284  1.00  0.00    -0.504 OA
ATOM     19  H   UNL     1     104.120 112.268 127.099  1.00  0.00     0.293 HD
ENDBRANCH  15  18
BRANCH  17  20
ATOM     20  O   UNL     1     103.689 115.700 127.341  1.00  0.00    -0.504 OA
ATOM     21  H   UNL     1     104.691 115.848 127.292  1.00  0.00     0.293 HD
ENDBRANCH  17  20
ENDBRANCH   1  12
BRANCH   2  22
ATOM     22  O   UNL     1     100.326 117.771 124.703  1.00  0.00    -0.502 OA
ATOM     23  H   UNL     1     100.775 117.314 125.487  1.00  0.00     0.293 HD
ENDBRANCH   2  22
BRANCH   6  24
ATOM     24  O   UNL     1      98.515 119.189 119.900  1.00  0.00    -0.507 OA
ATOM     25  H   UNL     1      97.608 119.210 119.458  1.00  0.00     0.293 HD
ENDBRANCH   6  24
BRANCH   8  26
ATOM     26  O   UNL     1     100.780 115.961 117.160  1.00  0.00    -0.508 OA
ATOM     27  H   UNL     1     100.285 116.286 116.339  1.00  0.00     0.293 HD
ENDBRANCH   8  26
TORSDOF 6
ENDMDL
MODEL 2
REMARK VINA RESULT:    -7.212      9.408     12.788
REMARK INTER + INTRA:          -8.571
REMARK INTER:                  -8.285
REMARK INTRA:                  -0.286
REMARK UNBOUND:                 0.116
REMARK SMILES O=c1c(O)c(-c2ccc(O)c(O)c2)oc2cc(O)cc(O)c12
REMARK SMILES IDX 5 1 3 2 2 3 1 4 22 5 20 6 19 7 17 8 16 9 15 10 14 11 6 12
REMARK SMILES IDX 7 13 8 14 9 15 13 16 11 17 10 18 12 20 4 22 21 24 18 26
REMARK H PARENT 10 19 12 21 4 23 21 25 18 27
REMARK Flexibility Score: inf
ROOT
ATOM      1  C   UNL     1     100.840 107.586 116.048  1.00  0.00     0.180 A 
ATOM      2  C   UNL     1     100.497 108.513 117.049  1.00  0.00     0.208 A 
ATOM      3  C   UNL     1     100.750 108.190 118.392  1.00  0.00     0.238 A 
ATOM      4  O   UNL     1     100.391 109.000 119.286  1.00  0.00    -0.285 OA
ATOM      5  C   UNL     1     101.356 106.952 118.716  1.00  0.00     0.111 A 
ATOM      6  C   UNL     1     101.695 106.539 120.040  1.00  0.00     0.134 A 
ATOM      7  C   UNL     1     102.171 105.240 120.257  1.00  0.00     0.093 A 
ATOM      8  C   UNL     1     102.382 104.363 119.191  1.00  0.00     0.123 A 
ATOM      9  C   UNL     1     102.112 104.779 117.889  1.00  0.00     0.094 A 
ATOM     10  C   UNL     1     101.600 106.056 117.645  1.00  0.00     0.146 A 
ATOM     11  O   UNL     1     101.346 106.407 116.391  1.00  0.00    -0.452 OA
ENDROOT
BRANCH   1  12
ATOM     12  C   UNL     1     100.627 107.865 114.610  1.00  0.00     0.025 A 
ATOM     13  C   UNL     1      99.591 107.210 113.925  1.00  0.00     0.016 A 
ATOM     14  C   UNL     1      99.385 107.443 112.562  1.00  0.00     0.051 A 
ATOM     15  C   UNL     1     100.222 108.321 111.863  1.00  0.00     0.157 A 
ATOM     16  C   UNL     1     101.478 108.730 113.898  1.00  0.00     0.062 A 
ATOM     17  C   UNL     1     101.273 108.962 112.530  1.00  0.00     0.158 A 
BRANCH  15  18
ATOM     18  O   UNL     1     100.020 108.557 110.504  1.00  0.00    -0.504 OA
ATOM     19  H   UNL     1     100.574 108.087 109.797  1.00  0.00     0.293 HD
ENDBRANCH  15  18
BRANCH  17  20
ATOM     20  O   UNL     1     102.113 109.825 111.827  1.00  0.00    -0.504 OA
ATOM     21  H   UNL     1     102.413 109.618 110.882  1.00  0.00     0.293 HD
ENDBRANCH  17  20
ENDBRANCH   1  12
BRANCH   2  22
ATOM     22  O   UNL     1      99.880 109.719 116.708  1.00  0.00    -0.502 OA
ATOM     23  H   UNL     1     100.400 110.576 116.568  1.00  0.00     0.293 HD
ENDBRANCH   2  22
BRANCH   6  24
ATOM     24  O   UNL     1     101.608 107.367 121.163  1.00  0.00    -0.507 OA
ATOM     25  H   UNL     1     102.203 108.163 121.337  1.00  0.00     0.293 HD
ENDBRANCH   6  24
BRANCH   8  26
ATOM     26  O   UNL     1     102.872 103.077 119.414  1.00  0.00    -0.508 OA
ATOM     27  H   UNL     1     103.856 102.908 119.581  1.00  0.00     0.293 HD
ENDBRANCH   8  26
TORSDOF 6
ENDMDL
MODEL 3
REMARK VINA RESULT:    -6.938      8.942     12.417
REMARK INTER + INTRA:          -8.241
REMARK INTER:                  -7.921
REMARK INTRA:                  -0.319
REMARK UNBOUND:                 0.116
REMARK SMILES O=c1c(O)c(-c2ccc(O)c(O)c2)oc2cc(O)cc(O)c12
REMARK SMILES IDX 5 1 3 2 2 3 1 4 22 5 20 6 19 7 17 8 16 9 15 10 14 11 6 12
REMARK SMILES IDX 7 13 8 14 9 15 13 16 11 17 10 18 12 20 4 22 21 24 18 26
REMARK H PARENT 10 19 12 21 4 23 21 25 18 27
REMARK Flexibility Score: inf
ROOT
ATOM      1  C   UNL     1     100.474 108.188 116.304  1.00  0.00     0.180 A 
ATOM      2  C   UNL     1     100.271 109.009 117.427  1.00  0.00     0.208 A 
ATOM      3  C   UNL     1     100.663 108.542 118.693  1.00  0.00     0.238 A 
ATOM      4  O   UNL     1     100.429 109.258 119.701  1.00  0.00    -0.285 OA
ATOM      5  C   UNL     1     101.266 107.267 118.816  1.00  0.00     0.111 A 
ATOM      6  C   UNL     1     101.739 106.711 120.043  1.00  0.00     0.134 A 
ATOM      7  C   UNL     1     102.199 105.388 120.069  1.00  0.00     0.093 A 
ATOM      8  C   UNL     1     102.266 104.626 118.901  1.00  0.00     0.123 A 
ATOM      9  C   UNL     1     101.864 105.182 117.688  1.00  0.00     0.094 A 
ATOM     10  C   UNL     1     101.365 106.486 117.637  1.00  0.00     0.146 A 
ATOM     11  O   UNL     1     100.982 106.972 116.463  1.00  0.00    -0.452 OA
ENDROOT
BRANCH   1  12
ATOM     12  C   UNL     1     100.111 108.622 114.936  1.00  0.00     0.025 A 
ATOM     13  C   UNL     1     101.064 109.281 114.144  1.00  0.00     0.016 A 
ATOM     14  C   UNL     1     100.736 109.717 112.857  1.00  0.00     0.051 A 
ATOM     15  C   UNL     1      99.446 109.514 112.351  1.00  0.00     0.157 A 
ATOM     16  C   UNL     1      98.810 108.438 114.431  1.00  0.00     0.062 A 
ATOM     17  C   UNL     1      98.480 108.877 113.141  1.00  0.00     0.158 A 
BRANCH  15  18
ATOM     18  O   UNL     1      99.114 109.946 111.068  1.00  0.00    -0.504 OA
ATOM     19  H   UNL     1      99.549 110.763 110.656  1.00  0.00     0.293 HD
ENDBRANCH  15  18
BRANCH  17  20
ATOM     20  O   UNL     1      97.193 108.689 112.639  1.00  0.00    -0.504 OA
ATOM     21  H   UNL     1      97.026 108.145 111.800  1.00  0.00     0.293 HD
ENDBRANCH  17  20
ENDBRANCH   1  12
BRANCH   2  22
ATOM     22  O   UNL     1      99.654 110.255 117.286  1.00  0.00    -0.502 OA
ATOM     23  H   UNL     1      98.678 110.353 117.034  1.00  0.00     0.293 HD
ENDBRANCH   2  22
BRANCH   6  24
ATOM     24  O   UNL     1     101.801 107.417 121.248  1.00  0.00    -0.507 OA
ATOM     25  H   UNL     1     102.633 107.852 121.617  1.00  0.00     0.293 HD
ENDBRANCH   6  24
BRANCH   8  26
ATOM     26  O   UNL     1     102.741 103.316 118.932  1.00  0.00    -0.508 OA
ATOM     27  H   UNL     1     102.129 102.527 118.770  1.00  0.00     0.293 HD
ENDBRANCH   8  26
TORSDOF 6
ENDMDL
MODEL 4
REMARK VINA RESULT:    -6.894      1.536      6.636
REMARK INTER + INTRA:          -8.188
REMARK INTER:                  -8.216
REMARK INTRA:                   0.028
REMARK UNBOUND:                 0.116
REMARK SMILES O=c1c(O)c(-c2ccc(O)c(O)c2)oc2cc(O)cc(O)c12
REMARK SMILES IDX 5 1 3 2 2 3 1 4 22 5 20 6 19 7 17 8 16 9 15 10 14 11 6 12
REMARK SMILES IDX 7 13 8 14 9 15 13 16 11 17 10 18 12 20 4 22 21 24 18 26
REMARK H PARENT 10 19 12 21 4 23 21 25 18 27
REMARK Flexibility Score: inf
ROOT
ATOM      1  C   UNL     1     100.702 117.556 121.671  1.00  0.00     0.180 A 
ATOM      2  C   UNL     1      99.914 118.525 122.316  1.00  0.00     0.208 A 
ATOM      3  C   UNL     1     100.017 118.669 123.710  1.00  0.00     0.238 A 
ATOM      4  O   UNL     1      99.268 119.500 124.288  1.00  0.00    -0.285 OA
ATOM      5  C   UNL     1     100.917 117.853 124.437  1.00  0.00     0.111 A 
ATOM      6  C   UNL     1     101.131 117.941 125.846  1.00  0.00     0.134 A 
ATOM      7  C   UNL     1     101.948 116.997 126.480  1.00  0.00     0.093 A 
ATOM      8  C   UNL     1     102.610 116.010 125.747  1.00  0.00     0.123 A 
ATOM      9  C   UNL     1     102.455 115.954 124.363  1.00  0.00     0.094 A 
ATOM     10  C   UNL     1     101.616 116.859 123.708  1.00  0.00     0.146 A 
ATOM     11  O   UNL     1     101.488 116.763 122.390  1.00  0.00    -0.452 OA
ENDROOT
BRANCH   1  12
ATOM     12  C   UNL     1     100.668 117.363 120.204  1.00  0.00     0.025 A 
ATOM     13  C   UNL     1      99.434 117.177 119.560  1.00  0.00     0.016 A 
ATOM     14  C   UNL     1      99.380 116.972 118.178  1.00  0.00     0.051 A 
ATOM     15  C   UNL     1     100.560 116.934 117.425  1.00  0.00     0.157 A 
ATOM     16  C   UNL     1     101.852 117.303 119.445  1.00  0.00     0.062 A 
ATOM     17  C   UNL     1     101.798 117.095 118.059  1.00  0.00     0.158 A 
BRANCH  15  18
ATOM     18  O   UNL     1     100.511 116.731 116.046  1.00  0.00    -0.504 OA
ATOM     19  H   UNL     1     100.056 115.918 115.647  1.00  0.00     0.293 HD
ENDBRANCH  15  18
BRANCH  17  20
ATOM     20  O   UNL     1     102.971 117.043 117.307  1.00  0.00    -0.504 OA
ATOM     21  H   UNL     1     103.377 116.160 117.021  1.00  0.00     0.293 HD
ENDBRANCH  17  20
ENDBRANCH   1  12
BRANCH   2  22
ATOM     22  O   UNL     1      99.016 119.304 121.582  1.00  0.00    -0.502 OA
ATOM     23  H   UNL     1      98.098 118.970 121.314  1.00  0.00     0.293 HD
ENDBRANCH   2  22
BRANCH   6  24
ATOM     24  O   UNL     1     100.591 118.944 126.657  1.00  0.00    -0.507 OA
ATOM     25  H   UNL     1      99.651 118.944 127.023  1.00  0.00     0.293 HD
ENDBRANCH   6  24
BRANCH   8  26
ATOM     26  O   UNL     1     103.435 115.084 126.384  1.00  0.00    -0.508 OA
ATOM     27  H   UNL     1     103.434 114.979 127.391  1.00  0.00     0.293 HD
ENDBRANCH   8  26
TORSDOF 6
ENDMDL
MODEL 5
REMARK VINA RESULT:    -6.853      3.746      7.363
REMARK INTER + INTRA:          -8.139
REMARK INTER:                  -7.892
REMARK INTRA:                  -0.248
REMARK UNBOUND:                 0.116
REMARK SMILES O=c1c(O)c(-c2ccc(O)c(O)c2)oc2cc(O)cc(O)c12
REMARK SMILES IDX 5 1 3 2 2 3 1 4 22 5 20 6 19 7 17 8 16 9 15 10 14 11 6 12
REMARK SMILES IDX 7 13 8 14 9 15 13 16 11 17 10 18 12 20 4 22 21 24 18 26
REMARK H PARENT 10 19 12 21 4 23 21 25 18 27
REMARK Flexibility Score: inf
ROOT
ATOM      1  C   UNL     1     102.068 112.143 122.152  1.00  0.00     0.180 A 
ATOM      2  C   UNL     1     102.782 111.505 123.182  1.00  0.00     0.208 A 
ATOM      3  C   UNL     1     103.052 112.213 124.364  1.00  0.00     0.238 A 
ATOM      4  O   UNL     1     103.738 111.655 125.260  1.00  0.00    -0.285 OA
ATOM      5  C   UNL     1     102.592 113.544 124.508  1.00  0.00     0.111 A 
ATOM      6  C   UNL     1     102.774 114.342 125.678  1.00  0.00     0.134 A 
ATOM      7  C   UNL     1     102.392 115.689 125.661  1.00  0.00     0.093 A 
ATOM      8  C   UNL     1     101.776 116.249 124.540  1.00  0.00     0.123 A 
ATOM      9  C   UNL     1     101.539 115.462 123.415  1.00  0.00     0.094 A 
ATOM     10  C   UNL     1     101.943 114.125 123.388  1.00  0.00     0.146 A 
ATOM     11  O   UNL     1     101.709 113.414 122.292  1.00  0.00    -0.452 OA
ENDROOT
BRANCH   1  12
ATOM     12  C   UNL     1     101.724 111.454 120.888  1.00  0.00     0.025 A 
ATOM     13  C   UNL     1     102.327 111.868 119.690  1.00  0.00     0.016 A 
ATOM     14  C   UNL     1     102.001 111.245 118.481  1.00  0.00     0.051 A 
ATOM     15  C   UNL     1     101.056 110.211 118.453  1.00  0.00     0.157 A 
ATOM     16  C   UNL     1     100.760 110.429 120.851  1.00  0.00     0.062 A 
ATOM     17  C   UNL     1     100.431 109.805 119.639  1.00  0.00     0.158 A 
BRANCH  15  18
ATOM     18  O   UNL     1     100.729 109.586 117.251  1.00  0.00    -0.504 OA
ATOM     19  H   UNL     1     100.800 110.073 116.365  1.00  0.00     0.293 HD
ENDBRANCH  15  18
BRANCH  17  20
ATOM     20  O   UNL     1      99.481 108.786 119.605  1.00  0.00    -0.504 OA
ATOM     21  H   UNL     1      99.543 107.984 120.221  1.00  0.00     0.293 HD
ENDBRANCH  17  20
ENDBRANCH   1  12
BRANCH   2  22
ATOM     22  O   UNL     1     103.245 110.198 123.011  1.00  0.00    -0.502 OA
ATOM     23  H   UNL     1     103.830 109.734 123.694  1.00  0.00     0.293 HD
ENDBRANCH   2  22
BRANCH   6  24
ATOM     24  O   UNL     1     103.295 113.856 126.881  1.00  0.00    -0.507 OA
ATOM     25  H   UNL     1     104.269 113.886 127.139  1.00  0.00     0.293 HD
ENDBRANCH   6  24
BRANCH   8  26
ATOM     26  O   UNL     1     101.384 117.587 124.537  1.00  0.00    -0.508 OA
ATOM     27  H   UNL     1     101.244 118.099 125.399  1.00  0.00     0.293 HD
ENDBRANCH   8  26
TORSDOF 6
ENDMDL
MODEL 6
REMARK VINA RESULT:    -6.671     10.351     13.253
REMARK INTER + INTRA:          -7.919
REMARK INTER:                  -7.641
REMARK INTRA:                  -0.278
REMARK UNBOUND:                 0.116
REMARK SMILES O=c1c(O)c(-c2ccc(O)c(O)c2)oc2cc(O)cc(O)c12
REMARK SMILES IDX 5 1 3 2 2 3 1 4 22 5 20 6 19 7 17 8 16 9 15 10 14 11 6 12
REMARK SMILES IDX 7 13 8 14 9 15 13 16 11 17 10 18 12 20 4 22 21 24 18 26
REMARK H PARENT 10 19 12 21 4 23 21 25 18 27
REMARK Flexibility Score: inf
ROOT
ATOM      1  C   UNL     1     100.366 107.779 114.978  1.00  0.00     0.180 A 
ATOM      2  C   UNL     1     101.319 108.763 115.292  1.00  0.00     0.208 A 
ATOM      3  C   UNL     1     102.263 108.500 116.300  1.00  0.00     0.238 A 
ATOM      4  O   UNL     1     103.079 109.405 116.615  1.00  0.00    -0.285 OA
ATOM      5  C   UNL     1     102.249 107.252 116.968  1.00  0.00     0.111 A 
ATOM      6  C   UNL     1     103.182 106.863 117.976  1.00  0.00     0.134 A 
ATOM      7  C   UNL     1     102.995 105.656 118.661  1.00  0.00     0.093 A 
ATOM      8  C   UNL     1     101.947 104.795 118.329  1.00  0.00     0.123 A 
ATOM      9  C   UNL     1     101.067 105.138 117.305  1.00  0.00     0.094 A 
ATOM     10  C   UNL     1     101.206 106.353 116.629  1.00  0.00     0.146 A 
ATOM     11  O   UNL     1     100.339 106.646 115.668  1.00  0.00    -0.452 OA
ENDROOT
BRANCH   1  12
ATOM     12  C   UNL     1      99.356 107.974 113.912  1.00  0.00     0.025 A 
ATOM     13  C   UNL     1      99.566 107.396 112.649  1.00  0.00     0.016 A 
ATOM     14  C   UNL     1      98.636 107.584 111.622  1.00  0.00     0.051 A 
ATOM     15  C   UNL     1      97.494 108.364 111.839  1.00  0.00     0.157 A 
ATOM     16  C   UNL     1      98.217 108.774 114.118  1.00  0.00     0.062 A 
ATOM     17  C   UNL     1      97.286 108.964 113.088  1.00  0.00     0.158 A 
BRANCH  15  18
ATOM     18  O   UNL     1      96.563 108.553 110.818  1.00  0.00    -0.504 OA
ATOM     19  H   UNL     1      96.421 107.857 110.096  1.00  0.00     0.293 HD
ENDBRANCH  15  18
BRANCH  17  20
ATOM     20  O   UNL     1      96.154 109.751 113.296  1.00  0.00    -0.504 OA
ATOM     21  H   UNL     1      96.070 110.354 114.106  1.00  0.00     0.293 HD
ENDBRANCH  17  20
ENDBRANCH   1  12
BRANCH   2  22
ATOM     22  O   UNL     1     101.301 109.996 114.636  1.00  0.00    -0.502 OA
ATOM     23  H   UNL     1     101.327 110.878 115.133  1.00  0.00     0.293 HD
ENDBRANCH   2  22
BRANCH   6  24
ATOM     24  O   UNL     1     104.315 107.607 118.320  1.00  0.00    -0.507 OA
ATOM     25  H   UNL     1     104.296 108.498 118.791  1.00  0.00     0.293 HD
ENDBRANCH   6  24
BRANCH   8  26
ATOM     26  O   UNL     1     101.778 103.588 119.005  1.00  0.00    -0.508 OA
ATOM     27  H   UNL     1     101.128 103.500 119.777  1.00  0.00     0.293 HD
ENDBRANCH   8  26
TORSDOF 6
ENDMDL
MODEL 7
REMARK VINA RESULT:    -6.653      3.878      7.036
REMARK INTER + INTRA:          -7.898
REMARK INTER:                  -7.647
REMARK INTRA:                  -0.251
REMARK UNBOUND:                 0.116
REMARK SMILES O=c1c(O)c(-c2ccc(O)c(O)c2)oc2cc(O)cc(O)c12
REMARK SMILES IDX 5 1 3 2 2 3 1 4 22 5 20 6 19 7 17 8 16 9 15 10 14 11 6 12
REMARK SMILES IDX 7 13 8 14 9 15 13 16 11 17 10 18 12 20 4 22 21 24 18 26
REMARK H PARENT 10 19 12 21 4 23 21 25 18 27
REMARK Flexibility Score: inf
ROOT
ATOM      1  C   UNL     1     101.837 112.677 121.447  1.00  0.00     0.180 A 
ATOM      2  C   UNL     1     101.482 114.009 121.171  1.00  0.00     0.208 A 
ATOM      3  C   UNL     1     101.616 114.973 122.184  1.00  0.00     0.238 A 
ATOM      4  O   UNL     1     101.246 116.153 121.948  1.00  0.00    -0.285 OA
ATOM      5  C   UNL     1     102.117 114.595 123.453  1.00  0.00     0.111 A 
ATOM      6  C   UNL     1     102.332 115.496 124.539  1.00  0.00     0.134 A 
ATOM      7  C   UNL     1     102.707 114.992 125.791  1.00  0.00     0.093 A 
ATOM      8  C   UNL     1     102.939 113.628 125.977  1.00  0.00     0.123 A 
ATOM      9  C   UNL     1     102.791 112.748 124.907  1.00  0.00     0.094 A 
ATOM     10  C   UNL     1     102.381 113.217 123.656  1.00  0.00     0.146 A 
ATOM     11  O   UNL     1     102.241 112.343 122.667  1.00  0.00    -0.452 OA
ENDROOT
BRANCH   1  12
ATOM     12  C   UNL     1     101.748 111.610 120.423  1.00  0.00     0.025 A 
ATOM     13  C   UNL     1     102.680 111.580 119.374  1.00  0.00     0.016 A 
ATOM     14  C   UNL     1     102.601 110.594 118.386  1.00  0.00     0.051 A 
ATOM     15  C   UNL     1     101.581 109.636 118.425  1.00  0.00     0.157 A 
ATOM     16  C   UNL     1     100.712 110.657 120.447  1.00  0.00     0.062 A 
ATOM     17  C   UNL     1     100.632 109.670 119.455  1.00  0.00     0.158 A 
BRANCH  15  18
ATOM     18  O   UNL     1     101.500 108.650 117.443  1.00  0.00    -0.504 OA
ATOM     19  H   UNL     1     101.564 108.878 116.458  1.00  0.00     0.293 HD
ENDBRANCH  15  18
BRANCH  17  20
ATOM     20  O   UNL     1      99.610 108.722 119.483  1.00  0.00    -0.504 OA
ATOM     21  H   UNL     1      99.538 108.000 118.776  1.00  0.00     0.293 HD
ENDBRANCH  17  20
ENDBRANCH   1  12
BRANCH   2  22
ATOM     22  O   UNL     1     100.970 114.356 119.918  1.00  0.00    -0.502 OA
ATOM     23  H   UNL     1     100.132 113.933 119.537  1.00  0.00     0.293 HD
ENDBRANCH   2  22
BRANCH   6  24
ATOM     24  O   UNL     1     102.217 116.886 124.436  1.00  0.00    -0.507 OA
ATOM     25  H   UNL     1     102.994 117.529 124.448  1.00  0.00     0.293 HD
ENDBRANCH   6  24
BRANCH   8  26
ATOM     26  O   UNL     1     103.328 113.136 127.221  1.00  0.00    -0.508 OA
ATOM     27  H   UNL     1     102.741 112.499 127.747  1.00  0.00     0.293 HD
ENDBRANCH   8  26
TORSDOF 6
ENDMDL
MODEL 8
REMARK VINA RESULT:    -6.603      2.605      4.739
REMARK INTER + INTRA:          -7.837
REMARK INTER:                  -7.531
REMARK INTRA:                  -0.306
REMARK UNBOUND:                 0.116
REMARK SMILES O=c1c(O)c(-c2ccc(O)c(O)c2)oc2cc(O)cc(O)c12
REMARK SMILES IDX 5 1 3 2 2 3 1 4 22 5 20 6 19 7 17 8 16 9 15 10 14 11 6 12
REMARK SMILES IDX 7 13 8 14 9 15 13 16 11 17 10 18 12 20 4 22 21 24 18 26
REMARK H PARENT 10 19 12 21 4 23 21 25 18 27
REMARK Flexibility Score: inf
ROOT
ATOM      1  C   UNL     1     101.874 115.137 123.415  1.00  0.00     0.180 A 
ATOM      2  C   UNL     1     102.303 115.450 124.717  1.00  0.00     0.208 A 
ATOM      3  C   UNL     1     101.855 116.640 125.314  1.00  0.00     0.238 A 
ATOM      4  O   UNL     1     102.286 116.942 126.458  1.00  0.00    -0.285 OA
ATOM      5  C   UNL     1     100.972 117.492 124.608  1.00  0.00     0.111 A 
ATOM      6  C   UNL     1     100.423 118.702 125.132  1.00  0.00     0.134 A 
ATOM      7  C   UNL     1      99.665 119.533 124.299  1.00  0.00     0.093 A 
ATOM      8  C   UNL     1      99.380 119.166 122.981  1.00  0.00     0.123 A 
ATOM      9  C   UNL     1      99.861 117.958 122.480  1.00  0.00     0.094 A 
ATOM     10  C   UNL     1     100.652 117.126 123.276  1.00  0.00     0.146 A 
ATOM     11  O   UNL     1     101.099 115.990 122.756  1.00  0.00    -0.452 OA
ENDROOT
BRANCH   1  12
ATOM     12  C   UNL     1     102.283 113.890 122.730  1.00  0.00     0.025 A 
ATOM     13  C   UNL     1     101.447 112.763 122.789  1.00  0.00     0.016 A 
ATOM     14  C   UNL     1     101.823 111.569 122.166  1.00  0.00     0.051 A 
ATOM     15  C   UNL     1     103.047 111.481 121.491  1.00  0.00     0.157 A 
ATOM     16  C   UNL     1     103.521 113.790 122.068  1.00  0.00     0.062 A 
ATOM     17  C   UNL     1     103.900 112.592 121.446  1.00  0.00     0.158 A 
BRANCH  15  18
ATOM     18  O   UNL     1     103.426 110.293 120.868  1.00  0.00    -0.504 OA
ATOM     19  H   UNL     1     104.244 109.775 121.168  1.00  0.00     0.293 HD
ENDBRANCH  15  18
BRANCH  17  20
ATOM     20  O   UNL     1     105.123 112.496 120.785  1.00  0.00    -0.504 OA
ATOM     21  H   UNL     1     105.232 112.802 119.825  1.00  0.00     0.293 HD
ENDBRANCH  17  20
ENDBRANCH   1  12
BRANCH   2  22
ATOM     22  O   UNL     1     103.192 114.605 125.387  1.00  0.00    -0.502 OA
ATOM     23  H   UNL     1     103.413 113.675 125.055  1.00  0.00     0.293 HD
ENDBRANCH   2  22
BRANCH   6  24
ATOM     24  O   UNL     1     100.570 119.116 126.459  1.00  0.00    -0.507 OA
ATOM     25  H   UNL     1      99.816 119.431 127.050  1.00  0.00     0.293 HD
ENDBRANCH   6  24
BRANCH   8  26
ATOM     26  O   UNL     1      98.610 119.991 122.164  1.00  0.00    -0.508 OA
ATOM     27  H   UNL     1      98.322 120.914 122.464  1.00  0.00     0.293 HD
ENDBRANCH   8  26
TORSDOF 6
ENDMDL
MODEL 9
REMARK VINA RESULT:    -6.525      7.510      9.309
REMARK INTER + INTRA:          -7.744
REMARK INTER:                  -7.420
REMARK INTRA:                  -0.323
REMARK UNBOUND:                 0.116
REMARK SMILES O=c1c(O)c(-c2ccc(O)c(O)c2)oc2cc(O)cc(O)c12
REMARK SMILES IDX 5 1 3 2 2 3 1 4 22 5 20 6 19 7 17 8 16 9 15 10 14 11 6 12
REMARK SMILES IDX 7 13 8 14 9 15 13 16 11 17 10 18 12 20 4 22 21 24 18 26
REMARK H PARENT 10 19 12 21 4 23 21 25 18 27
REMARK Flexibility Score: inf
ROOT
ATOM      1  C   UNL     1     101.860 109.414 119.446  1.00  0.00     0.180 A 
ATOM      2  C   UNL     1     101.115 109.646 118.277  1.00  0.00     0.208 A 
ATOM      3  C   UNL     1     100.756 108.552 117.471  1.00  0.00     0.238 A 
ATOM      4  O   UNL     1     100.136 108.771 116.397  1.00  0.00    -0.285 OA
ATOM      5  C   UNL     1     101.134 107.243 117.852  1.00  0.00     0.111 A 
ATOM      6  C   UNL     1     100.790 106.059 117.132  1.00  0.00     0.134 A 
ATOM      7  C   UNL     1     101.328 104.828 117.529  1.00  0.00     0.093 A 
ATOM      8  C   UNL     1     102.143 104.730 118.659  1.00  0.00     0.123 A 
ATOM      9  C   UNL     1     102.434 105.871 119.404  1.00  0.00     0.094 A 
ATOM     10  C   UNL     1     101.943 107.118 119.010  1.00  0.00     0.146 A 
ATOM     11  O   UNL     1     102.255 108.181 119.741  1.00  0.00    -0.452 OA
ENDROOT
BRANCH   1  12
ATOM     12  C   UNL     1     102.254 110.512 120.359  1.00  0.00     0.025 A 
ATOM     13  C   UNL     1     103.552 111.040 120.284  1.00  0.00     0.016 A 
ATOM     14  C   UNL     1     103.952 112.063 121.150  1.00  0.00     0.051 A 
ATOM     15  C   UNL     1     103.063 112.558 122.113  1.00  0.00     0.157 A 
ATOM     16  C   UNL     1     101.372 110.999 121.342  1.00  0.00     0.062 A 
ATOM     17  C   UNL     1     101.773 112.023 122.212  1.00  0.00     0.158 A 
BRANCH  15  18
ATOM     18  O   UNL     1     103.457 113.578 122.978  1.00  0.00    -0.504 OA
ATOM     19  H   UNL     1     102.796 114.029 123.600  1.00  0.00     0.293 HD
ENDBRANCH  15  18
BRANCH  17  20
ATOM     20  O   UNL     1     100.896 112.510 123.180  1.00  0.00    -0.504 OA
ATOM     21  H   UNL     1     101.146 113.289 123.777  1.00  0.00     0.293 HD
ENDBRANCH  17  20
ENDBRANCH   1  12
BRANCH   2  22
ATOM     22  O   UNL     1     100.771 110.949 117.908  1.00  0.00    -0.502 OA
ATOM     23  H   UNL     1     101.453 111.695 117.849  1.00  0.00     0.293 HD
ENDBRANCH   2  22
BRANCH   6  24
ATOM     24  O   UNL     1      99.911 106.034 116.045  1.00  0.00    -0.507 OA
ATOM     25  H   UNL     1     100.182 106.169 115.083  1.00  0.00     0.293 HD
ENDBRANCH   6  24
BRANCH   8  26
ATOM     26  O   UNL     1     102.660 103.499 119.058  1.00  0.00    -0.508 OA
ATOM     27  H   UNL     1     103.162 102.901 118.412  1.00  0.00     0.293 HD
ENDBRANCH   8  26
TORSDOF 6
ENDMDL
