MODEL 1
REMARK VINA RESULT:    -4.999      0.000      0.000
REMARK INTER + INTRA:         -10.067
REMARK INTER:                  -9.090
REMARK INTRA:                  -0.978
REMARK UNBOUND:                -0.978
REMARK SMILES CCCCCCCCCCCCCCCC(=O)[O-]
REMARK SMILES IDX 9 1 10 2 11 3 12 4 13 5 14 6 15 7 16 8 17 9 18 10 8 11 7 12
REMARK SMILES IDX 6 13 5 14 4 15 3 16 2 17 1 18
REMARK H PARENT
REMARK Flexibility Score: inf
ROOT
ATOM      1  C   UNL     1      39.997 118.771  12.677  1.00  0.00     0.000 C 
ENDROOT
BRANCH   1   2
ATOM      2  C   UNL     1      40.167 117.552  11.758  1.00  0.00     0.000 C 
BRANCH   2   3
ATOM      3  C   UNL     1      41.121 117.870  10.597  1.00  0.00     0.000 C 
BRANCH   3   4
ATOM      4  C   UNL     1      42.423 117.056  10.662  1.00  0.00     0.000 C 
BRANCH   4   5
ATOM      5  C   UNL     1      43.111 116.931   9.291  1.00  0.00     0.000 C 
BRANCH   5   6
ATOM      6  C   UNL     1      43.355 115.469   8.884  1.00  0.00     0.006 C 
BRANCH   6   7
ATOM      7  C   UNL     1      44.839 115.162   8.648  1.00  0.00     0.053 C 
BRANCH   7   8
ATOM      8  C   UNL     1      45.183 113.808   9.181  1.00  0.00     0.041 C 
ATOM      9  O   UNL     1      45.707 112.945   8.429  1.00  0.00    -0.550 OA
ATOM     10  O   UNL     1      44.872 113.477  10.495  1.00  0.00    -0.550 OA
ENDBRANCH   7   8
ENDBRANCH   6   7
ENDBRANCH   5   6
ENDBRANCH   4   5
ENDBRANCH   3   4
ENDBRANCH   2   3
ENDBRANCH   1   2
BRANCH   1  11
ATOM     11  C   UNL     1      39.557 118.390  14.099  1.00  0.00     0.000 C 
BRANCH  11  12
ATOM     12  C   UNL     1      38.665 117.136  14.128  1.00  0.00    -0.000 C 
BRANCH  12  13
ATOM     13  C   UNL     1      37.202 117.447  13.769  1.00  0.00    -0.000 C 
BRANCH  13  14
ATOM     14  C   UNL     1      36.328 117.699  15.010  1.00  0.00    -0.000 C 
BRANCH  14  15
ATOM     15  C   UNL     1      35.935 119.179  15.173  1.00  0.00    -0.000 C 
BRANCH  15  16
ATOM     16  C   UNL     1      36.372 120.096  14.017  1.00  0.00    -0.000 C 
BRANCH  16  17
ATOM     17  C   UNL     1      37.138 121.338  14.495  1.00  0.00    -0.003 C 
ATOM     18  C   UNL     1      36.755 121.705  15.926  1.00  0.00     0.004 C 
ENDBRANCH  16  17
ENDBRANCH  15  16
ENDBRANCH  14  15
ENDBRANCH  13  14
ENDBRANCH  12  13
ENDBRANCH  11  12
ENDBRANCH   1  11
TORSDOF 14
ENDMDL
MODEL 2
REMARK VINA RESULT:    -4.931      4.015      8.785
REMARK INTER + INTRA:          -9.944
REMARK INTER:                  -8.755
REMARK INTRA:                  -1.189
REMARK UNBOUND:                -0.978
REMARK SMILES CCCCCCCCCCCCCCCC(=O)[O-]
REMARK SMILES IDX 9 1 10 2 11 3 12 4 13 5 14 6 15 7 16 8 17 9 18 10 8 11 7 12
REMARK SMILES IDX 6 13 5 14 4 15 3 16 2 17 1 18
REMARK H PARENT
REMARK Flexibility Score: inf
ROOT
ATOM      1  C   UNL     1      41.410 116.709  12.230  1.00  0.00     0.000 C 
ENDROOT
BRANCH   1   2
ATOM      2  C   UNL     1      40.718 116.981  13.574  1.00  0.00     0.000 C 
BRANCH   2   3
ATOM      3  C   UNL     1      39.291 117.508  13.358  1.00  0.00     0.000 C 
BRANCH   3   4
ATOM      4  C   UNL     1      39.015 118.804  14.137  1.00  0.00     0.000 C 
BRANCH   4   5
ATOM      5  C   UNL     1      38.287 119.861  13.288  1.00  0.00     0.000 C 
BRANCH   5   6
ATOM      6  C   UNL     1      36.983 120.346  13.940  1.00  0.00     0.006 C 
BRANCH   6   7
ATOM      7  C   UNL     1      36.009 119.199  14.236  1.00  0.00     0.053 C 
BRANCH   7   8
ATOM      8  C   UNL     1      35.416 118.676  12.966  1.00  0.00     0.041 C 
ATOM      9  O   UNL     1      35.964 117.719  12.358  1.00  0.00    -0.550 OA
ATOM     10  O   UNL     1      34.292 119.284  12.421  1.00  0.00    -0.550 OA
ENDBRANCH   7   8
ENDBRANCH   6   7
ENDBRANCH   5   6
ENDBRANCH   4   5
ENDBRANCH   3   4
ENDBRANCH   2   3
ENDBRANCH   1   2
BRANCH   1  11
ATOM     11  C   UNL     1      40.823 117.539  11.077  1.00  0.00     0.000 C 
BRANCH  11  12
ATOM     12  C   UNL     1      41.878 117.919  10.023  1.00  0.00    -0.000 C 
BRANCH  12  13
ATOM     13  C   UNL     1      43.110 117.001  10.067  1.00  0.00    -0.000 C 
BRANCH  13  14
ATOM     14  C   UNL     1      43.361 116.282   8.730  1.00  0.00    -0.000 C 
BRANCH  14  15
ATOM     15  C   UNL     1      44.102 114.943   8.902  1.00  0.00    -0.000 C 
BRANCH  15  16
ATOM     16  C   UNL     1      44.723 114.722  10.292  1.00  0.00    -0.000 C 
BRANCH  16  17
ATOM     17  C   UNL     1      44.176 113.474  11.000  1.00  0.00    -0.003 C 
ATOM     18  C   UNL     1      43.669 113.812  12.399  1.00  0.00     0.004 C 
ENDBRANCH  16  17
ENDBRANCH  15  16
ENDBRANCH  14  15
ENDBRANCH  13  14
ENDBRANCH  12  13
ENDBRANCH  11  12
ENDBRANCH   1  11
TORSDOF 14
ENDMDL
MODEL 3
REMARK VINA RESULT:    -4.909      4.337      8.745
REMARK INTER + INTRA:          -9.904
REMARK INTER:                  -8.513
REMARK INTRA:                  -1.392
REMARK UNBOUND:                -0.978
REMARK SMILES CCCCCCCCCCCCCCCC(=O)[O-]
REMARK SMILES IDX 9 1 10 2 11 3 12 4 13 5 14 6 15 7 16 8 17 9 18 10 8 11 7 12
REMARK SMILES IDX 6 13 5 14 4 15 3 16 2 17 1 18
REMARK H PARENT
REMARK Flexibility Score: inf
ROOT
ATOM      1  C   UNL     1      40.751 116.784  14.126  1.00  0.00     0.000 C 
ENDROOT
BRANCH   1   2
ATOM      2  C   UNL     1      39.588 117.769  14.320  1.00  0.00     0.000 C 
BRANCH   2   3
ATOM      3  C   UNL     1      38.600 117.248  15.375  1.00  0.00     0.000 C 
BRANCH   3   4
ATOM      4  C   UNL     1      37.341 116.627  14.749  1.00  0.00     0.000 C 
BRANCH   4   5
ATOM      5  C   UNL     1      37.032 117.196  13.353  1.00  0.00     0.000 C 
BRANCH   5   6
ATOM      6  C   UNL     1      35.886 118.220  13.374  1.00  0.00     0.006 C 
BRANCH   6   7
ATOM      7  C   UNL     1      36.368 119.651  13.108  1.00  0.00     0.053 C 
BRANCH   7   8
ATOM      8  C   UNL     1      36.599 120.374  14.397  1.00  0.00     0.041 C 
ATOM      9  O   UNL     1      36.120 119.922  15.470  1.00  0.00    -0.550 OA
ATOM     10  O   UNL     1      37.293 121.577  14.406  1.00  0.00    -0.550 OA
ENDBRANCH   7   8
ENDBRANCH   6   7
ENDBRANCH   5   6
ENDBRANCH   4   5
ENDBRANCH   3   4
ENDBRANCH   2   3
ENDBRANCH   1   2
BRANCH   1  11
ATOM     11  C   UNL     1      41.131 116.593  12.648  1.00  0.00     0.000 C 
BRANCH  11  12
ATOM     12  C   UNL     1      40.427 117.599  11.720  1.00  0.00    -0.000 C 
BRANCH  12  13
ATOM     13  C   UNL     1      41.196 117.827  10.409  1.00  0.00    -0.000 C 
BRANCH  13  14
ATOM     14  C   UNL     1      42.561 117.116  10.390  1.00  0.00    -0.000 C 
BRANCH  14  15
ATOM     15  C   UNL     1      43.029 116.758   8.968  1.00  0.00    -0.000 C 
BRANCH  15  16
ATOM     16  C   UNL     1      44.163 115.720   8.902  1.00  0.00    -0.000 C 
BRANCH  16  17
ATOM     17  C   UNL     1      43.891 114.481   9.768  1.00  0.00    -0.003 C 
ATOM     18  C   UNL     1      44.984 114.291  10.816  1.00  0.00     0.004 C 
ENDBRANCH  16  17
ENDBRANCH  15  16
ENDBRANCH  14  15
ENDBRANCH  13  14
ENDBRANCH  12  13
ENDBRANCH  11  12
ENDBRANCH   1  11
TORSDOF 14
ENDMDL
MODEL 4
REMARK VINA RESULT:    -4.842      4.430      8.790
REMARK INTER + INTRA:          -9.783
REMARK INTER:                  -8.611
REMARK INTRA:                  -1.172
REMARK UNBOUND:                -0.978
REMARK SMILES CCCCCCCCCCCCCCCC(=O)[O-]
REMARK SMILES IDX 9 1 10 2 11 3 12 4 13 5 14 6 15 7 16 8 17 9 18 10 8 11 7 12
REMARK SMILES IDX 6 13 5 14 4 15 3 16 2 17 1 18
REMARK H PARENT
REMARK Flexibility Score: inf
ROOT
ATOM      1  C   UNL     1      42.446 117.469  10.415  1.00  0.00     0.000 C 
ENDROOT
BRANCH   1   2
ATOM      2  C   UNL     1      41.025 117.683  10.955  1.00  0.00     0.000 C 
BRANCH   2   3
ATOM      3  C   UNL     1      40.857 117.023  12.332  1.00  0.00     0.000 C 
BRANCH   3   4
ATOM      4  C   UNL     1      39.517 117.376  12.998  1.00  0.00     0.000 C 
BRANCH   4   5
ATOM      5  C   UNL     1      39.435 118.855  13.413  1.00  0.00     0.000 C 
BRANCH   5   6
ATOM      6  C   UNL     1      37.992 119.385  13.425  1.00  0.00     0.006 C 
BRANCH   6   7
ATOM      7  C   UNL     1      36.962 118.298  13.095  1.00  0.00     0.053 C 
BRANCH   7   8
ATOM      8  C   UNL     1      35.592 118.734  13.508  1.00  0.00     0.041 C 
ATOM      9  O   UNL     1      35.326 118.919  14.725  1.00  0.00    -0.550 OA
ATOM     10  O   UNL     1      34.591 118.879  12.556  1.00  0.00    -0.550 OA
ENDBRANCH   7   8
ENDBRANCH   6   7
ENDBRANCH   5   6
ENDBRANCH   4   5
ENDBRANCH   3   4
ENDBRANCH   2   3
ENDBRANCH   1   2
BRANCH   1  11
ATOM     11  C   UNL     1      42.478 117.225   8.897  1.00  0.00     0.000 C 
BRANCH  11  12
ATOM     12  C   UNL     1      43.262 115.957   8.517  1.00  0.00    -0.000 C 
BRANCH  12  13
ATOM     13  C   UNL     1      44.747 116.045   8.906  1.00  0.00    -0.000 C 
BRANCH  13  14
ATOM     14  C   UNL     1      45.145 115.002   9.965  1.00  0.00    -0.000 C 
BRANCH  14  15
ATOM     15  C   UNL     1      44.058 113.936  10.192  1.00  0.00    -0.000 C 
BRANCH  15  16
ATOM     16  C   UNL     1      43.983 113.382  11.625  1.00  0.00    -0.000 C 
BRANCH  16  17
ATOM     17  C   UNL     1      43.269 114.333  12.597  1.00  0.00    -0.003 C 
ATOM     18  C   UNL     1      43.527 113.934  14.048  1.00  0.00     0.004 C 
ENDBRANCH  16  17
ENDBRANCH  15  16
ENDBRANCH  14  15
ENDBRANCH  13  14
ENDBRANCH  12  13
ENDBRANCH  11  12
ENDBRANCH   1  11
TORSDOF 14
ENDMDL
MODEL 5
REMARK VINA RESULT:    -4.823      1.678      3.249
REMARK INTER + INTRA:          -9.748
REMARK INTER:                  -9.048
REMARK INTRA:                  -0.700
REMARK UNBOUND:                -0.978
REMARK SMILES CCCCCCCCCCCCCCCC(=O)[O-]
REMARK SMILES IDX 9 1 10 2 11 3 12 4 13 5 14 6 15 7 16 8 17 9 18 10 8 11 7 12
REMARK SMILES IDX 6 13 5 14 4 15 3 16 2 17 1 18
REMARK H PARENT
REMARK Flexibility Score: inf
ROOT
ATOM      1  C   UNL     1      42.297 116.740  11.459  1.00  0.00     0.000 C 
ENDROOT
BRANCH   1   2
ATOM      2  C   UNL     1      43.616 116.805  10.674  1.00  0.00     0.000 C 
BRANCH   2   3
ATOM      3  C   UNL     1      43.376 116.542   9.179  1.00  0.00     0.000 C 
BRANCH   3   4
ATOM      4  C   UNL     1      44.492 115.700   8.541  1.00  0.00     0.000 C 
BRANCH   4   5
ATOM      5  C   UNL     1      44.348 114.198   8.844  1.00  0.00     0.000 C 
BRANCH   5   6
ATOM      6  C   UNL     1      45.691 113.533   9.182  1.00  0.00     0.006 C 
BRANCH   6   7
ATOM      7  C   UNL     1      46.027 112.369   8.240  1.00  0.00     0.053 C 
BRANCH   7   8
ATOM      8  C   UNL     1      45.711 112.735   6.824  1.00  0.00     0.041 C 
ATOM      9  O   UNL     1      44.797 112.133   6.202  1.00  0.00    -0.550 OA
ATOM     10  O   UNL     1      46.465 113.702   6.171  1.00  0.00    -0.550 OA
ENDBRANCH   7   8
ENDBRANCH   6   7
ENDBRANCH   5   6
ENDBRANCH   4   5
ENDBRANCH   3   4
ENDBRANCH   2   3
ENDBRANCH   1   2
BRANCH   1  11
ATOM     11  C   UNL     1      41.176 117.570  10.813  1.00  0.00     0.000 C 
BRANCH  11  12
ATOM     12  C   UNL     1      39.924 117.667  11.701  1.00  0.00    -0.000 C 
BRANCH  12  13
ATOM     13  C   UNL     1      39.943 118.906  12.612  1.00  0.00    -0.000 C 
BRANCH  13  14
ATOM     14  C   UNL     1      38.802 118.899  13.646  1.00  0.00    -0.000 C 
BRANCH  14  15
ATOM     15  C   UNL     1      37.991 120.208  13.648  1.00  0.00    -0.000 C 
BRANCH  15  16
ATOM     16  C   UNL     1      36.504 120.046  14.006  1.00  0.00    -0.000 C 
BRANCH  16  17
ATOM     17  C   UNL     1      35.980 118.624  13.760  1.00  0.00    -0.003 C 
ATOM     18  C   UNL     1      35.114 118.565  12.504  1.00  0.00     0.004 C 
ENDBRANCH  16  17
ENDBRANCH  15  16
ENDBRANCH  14  15
ENDBRANCH  13  14
ENDBRANCH  12  13
ENDBRANCH  11  12
ENDBRANCH   1  11
TORSDOF 14
ENDMDL
MODEL 6
REMARK VINA RESULT:    -4.818      3.892      8.105
REMARK INTER + INTRA:          -9.738
REMARK INTER:                  -7.937
REMARK INTRA:                  -1.802
REMARK UNBOUND:                -0.978
REMARK SMILES CCCCCCCCCCCCCCCC(=O)[O-]
REMARK SMILES IDX 9 1 10 2 11 3 12 4 13 5 14 6 15 7 16 8 17 9 18 10 8 11 7 12
REMARK SMILES IDX 6 13 5 14 4 15 3 16 2 17 1 18
REMARK H PARENT
REMARK Flexibility Score: inf
ROOT
ATOM      1  C   UNL     1      43.529 115.044   9.402  1.00  0.00     0.000 C 
ENDROOT
BRANCH   1   2
ATOM      2  C   UNL     1      43.720 116.454   8.824  1.00  0.00     0.000 C 
BRANCH   2   3
ATOM      3  C   UNL     1      42.599 117.394   9.292  1.00  0.00     0.000 C 
BRANCH   3   4
ATOM      4  C   UNL     1      42.121 117.080  10.719  1.00  0.00     0.000 C 
BRANCH   4   5
ATOM      5  C   UNL     1      40.814 117.808  11.078  1.00  0.00     0.000 C 
BRANCH   5   6
ATOM      6  C   UNL     1      40.458 117.681  12.568  1.00  0.00     0.006 C 
BRANCH   6   7
ATOM      7  C   UNL     1      39.768 118.935  13.119  1.00  0.00     0.053 C 
BRANCH   7   8
ATOM      8  C   UNL     1      38.332 118.650  13.425  1.00  0.00     0.041 C 
ATOM      9  O   UNL     1      37.958 117.473  13.669  1.00  0.00    -0.550 OA
ATOM     10  O   UNL     1      37.395 119.675  13.383  1.00  0.00    -0.550 OA
ENDBRANCH   7   8
ENDBRANCH   6   7
ENDBRANCH   5   6
ENDBRANCH   4   5
ENDBRANCH   3   4
ENDBRANCH   2   3
ENDBRANCH   1   2
BRANCH   1  11
ATOM     11  C   UNL     1      44.797 114.181   9.302  1.00  0.00     0.000 C 
BRANCH  11  12
ATOM     12  C   UNL     1      45.159 113.500  10.634  1.00  0.00    -0.000 C 
BRANCH  12  13
ATOM     13  C   UNL     1      43.935 113.296  11.541  1.00  0.00    -0.000 C 
BRANCH  13  14
ATOM     14  C   UNL     1      44.136 113.886  12.948  1.00  0.00    -0.000 C 
BRANCH  14  15
ATOM     15  C   UNL     1      45.613 114.172  13.271  1.00  0.00    -0.000 C 
BRANCH  15  16
ATOM     16  C   UNL     1      45.906 115.605  13.750  1.00  0.00    -0.000 C 
BRANCH  16  17
ATOM     17  C   UNL     1      45.074 116.664  13.012  1.00  0.00    -0.003 C 
ATOM     18  C   UNL     1      45.754 117.095  11.715  1.00  0.00     0.004 C 
ENDBRANCH  16  17
ENDBRANCH  15  16
ENDBRANCH  14  15
ENDBRANCH  13  14
ENDBRANCH  12  13
ENDBRANCH  11  12
ENDBRANCH   1  11
TORSDOF 14
ENDMDL
MODEL 7
REMARK VINA RESULT:    -4.800      1.654      2.327
REMARK INTER + INTRA:          -9.707
REMARK INTER:                  -7.841
REMARK INTRA:                  -1.866
REMARK UNBOUND:                -0.978
REMARK SMILES CCCCCCCCCCCCCCCC(=O)[O-]
REMARK SMILES IDX 9 1 10 2 11 3 12 4 13 5 14 6 15 7 16 8 17 9 18 10 8 11 7 12
REMARK SMILES IDX 6 13 5 14 4 15 3 16 2 17 1 18
REMARK H PARENT
REMARK Flexibility Score: inf
ROOT
ATOM      1  C   UNL     1      40.235 118.476  14.417  1.00  0.00     0.000 C 
ENDROOT
BRANCH   1   2
ATOM      2  C   UNL     1      39.937 118.807  12.947  1.00  0.00     0.000 C 
BRANCH   2   3
ATOM      3  C   UNL     1      39.999 117.542  12.077  1.00  0.00     0.000 C 
BRANCH   3   4
ATOM      4  C   UNL     1      41.320 117.423  11.301  1.00  0.00     0.000 C 
BRANCH   4   5
ATOM      5  C   UNL     1      42.348 116.530  12.018  1.00  0.00     0.000 C 
BRANCH   5   6
ATOM      6  C   UNL     1      43.242 115.755  11.036  1.00  0.00     0.006 C 
BRANCH   6   7
ATOM      7  C   UNL     1      44.114 116.679  10.177  1.00  0.00     0.053 C 
BRANCH   7   8
ATOM      8  C   UNL     1      43.929 116.371   8.725  1.00  0.00     0.041 C 
ATOM      9  O   UNL     1      42.881 116.734   8.129  1.00  0.00    -0.550 OA
ATOM     10  O   UNL     1      44.887 115.631   8.043  1.00  0.00    -0.550 OA
ENDBRANCH   7   8
ENDBRANCH   6   7
ENDBRANCH   5   6
ENDBRANCH   4   5
ENDBRANCH   3   4
ENDBRANCH   2   3
ENDBRANCH   1   2
BRANCH   1  11
ATOM     11  C   UNL     1      39.762 117.070  14.820  1.00  0.00     0.000 C 
BRANCH  11  12
ATOM     12  C   UNL     1      38.844 117.085  16.055  1.00  0.00    -0.000 C 
BRANCH  12  13
ATOM     13  C   UNL     1      37.363 117.267  15.685  1.00  0.00    -0.000 C 
BRANCH  13  14
ATOM     14  C   UNL     1      36.983 116.538  14.384  1.00  0.00    -0.000 C 
BRANCH  14  15
ATOM     15  C   UNL     1      36.524 117.500  13.273  1.00  0.00    -0.000 C 
BRANCH  15  16
ATOM     16  C   UNL     1      35.845 118.788  13.772  1.00  0.00    -0.000 C 
BRANCH  16  17
ATOM     17  C   UNL     1      36.611 120.059  13.378  1.00  0.00    -0.003 C 
ATOM     18  C   UNL     1      37.003 120.870  14.609  1.00  0.00     0.004 C 
ENDBRANCH  16  17
ENDBRANCH  15  16
ENDBRANCH  14  15
ENDBRANCH  13  14
ENDBRANCH  12  13
ENDBRANCH  11  12
ENDBRANCH   1  11
TORSDOF 14
ENDMDL
MODEL 8
REMARK VINA RESULT:    -4.701      4.303      8.690
REMARK INTER + INTRA:          -9.526
REMARK INTER:                  -8.316
REMARK INTRA:                  -1.210
REMARK UNBOUND:                -0.978
REMARK SMILES CCCCCCCCCCCCCCCC(=O)[O-]
REMARK SMILES IDX 9 1 10 2 11 3 12 4 13 5 14 6 15 7 16 8 17 9 18 10 8 11 7 12
REMARK SMILES IDX 6 13 5 14 4 15 3 16 2 17 1 18
REMARK H PARENT
REMARK Flexibility Score: inf
ROOT
ATOM      1  C   UNL     1      42.230 114.502  13.346  1.00  0.00     0.000 C 
ENDROOT
BRANCH   1   2
ATOM      2  C   UNL     1      41.482 115.823  13.582  1.00  0.00     0.000 C 
BRANCH   2   3
ATOM      3  C   UNL     1      41.343 116.614  12.272  1.00  0.00     0.000 C 
BRANCH   3   4
ATOM      4  C   UNL     1      39.969 117.288  12.132  1.00  0.00     0.000 C 
BRANCH   4   5
ATOM      5  C   UNL     1      39.989 118.767  12.557  1.00  0.00     0.000 C 
BRANCH   5   6
ATOM      6  C   UNL     1      38.941 119.085  13.636  1.00  0.00     0.006 C 
BRANCH   6   7
ATOM      7  C   UNL     1      37.582 118.434  13.349  1.00  0.00     0.053 C 
BRANCH   7   8
ATOM      8  C   UNL     1      36.508 119.473  13.287  1.00  0.00     0.041 C 
ATOM      9  O   UNL     1      35.428 119.233  12.686  1.00  0.00    -0.550 OA
ATOM     10  O   UNL     1      36.721 120.729  13.842  1.00  0.00    -0.550 OA
ENDBRANCH   7   8
ENDBRANCH   6   7
ENDBRANCH   5   6
ENDBRANCH   4   5
ENDBRANCH   3   4
ENDBRANCH   2   3
ENDBRANCH   1   2
BRANCH   1  11
ATOM     11  C   UNL     1      43.553 114.692  12.587  1.00  0.00     0.000 C 
BRANCH  11  12
ATOM     12  C   UNL     1      43.817 113.570  11.568  1.00  0.00    -0.000 C 
BRANCH  12  13
ATOM     13  C   UNL     1      45.242 113.621  10.993  1.00  0.00    -0.000 C 
BRANCH  13  14
ATOM     14  C   UNL     1      45.266 113.529   9.457  1.00  0.00    -0.000 C 
BRANCH  14  15
ATOM     15  C   UNL     1      44.237 114.458   8.787  1.00  0.00    -0.000 C 
BRANCH  15  16
ATOM     16  C   UNL     1      44.597 115.954   8.820  1.00  0.00    -0.000 C 
BRANCH  16  17
ATOM     17  C   UNL     1      43.482 116.825   9.416  1.00  0.00    -0.003 C 
ATOM     18  C   UNL     1      42.377 117.081   8.394  1.00  0.00     0.004 C 
ENDBRANCH  16  17
ENDBRANCH  15  16
ENDBRANCH  14  15
ENDBRANCH  13  14
ENDBRANCH  12  13
ENDBRANCH  11  12
ENDBRANCH   1  11
TORSDOF 14
ENDMDL
MODEL 9
REMARK VINA RESULT:    -4.656      2.011      3.666
REMARK INTER + INTRA:          -9.445
REMARK INTER:                  -8.178
REMARK INTRA:                  -1.267
REMARK UNBOUND:                -0.978
REMARK SMILES CCCCCCCCCCCCCCCC(=O)[O-]
REMARK SMILES IDX 9 1 10 2 11 3 12 4 13 5 14 6 15 7 16 8 17 9 18 10 8 11 7 12
REMARK SMILES IDX 6 13 5 14 4 15 3 16 2 17 1 18
REMARK H PARENT
REMARK Flexibility Score: inf
ROOT
ATOM      1  C   UNL     1      41.699 117.515   9.826  1.00  0.00     0.000 C 
ENDROOT
BRANCH   1   2
ATOM      2  C   UNL     1      42.599 117.125   8.644  1.00  0.00     0.000 C 
BRANCH   2   3
ATOM      3  C   UNL     1      43.847 116.374   9.129  1.00  0.00     0.000 C 
BRANCH   3   4
ATOM      4  C   UNL     1      43.883 114.914   8.650  1.00  0.00     0.000 C 
BRANCH   4   5
ATOM      5  C   UNL     1      44.875 114.052   9.451  1.00  0.00     0.000 C 
BRANCH   5   6
ATOM      6  C   UNL     1      44.881 114.398  10.949  1.00  0.00     0.006 C 
BRANCH   6   7
ATOM      7  C   UNL     1      43.789 113.657  11.731  1.00  0.00     0.053 C 
BRANCH   7   8
ATOM      8  C   UNL     1      43.676 114.206  13.117  1.00  0.00     0.041 C 
ATOM      9  O   UNL     1      42.647 113.978  13.807  1.00  0.00    -0.550 OA
ATOM     10  O   UNL     1      44.680 115.020  13.628  1.00  0.00    -0.550 OA
ENDBRANCH   7   8
ENDBRANCH   6   7
ENDBRANCH   5   6
ENDBRANCH   4   5
ENDBRANCH   3   4
ENDBRANCH   2   3
ENDBRANCH   1   2
BRANCH   1  11
ATOM     11  C   UNL     1      42.276 117.080  11.183  1.00  0.00     0.000 C 
BRANCH  11  12
ATOM     12  C   UNL     1      41.183 116.788  12.226  1.00  0.00    -0.000 C 
BRANCH  12  13
ATOM     13  C   UNL     1      39.841 117.449  11.872  1.00  0.00    -0.000 C 
BRANCH  13  14
ATOM     14  C   UNL     1      39.276 118.298  13.025  1.00  0.00    -0.000 C 
BRANCH  14  15
ATOM     15  C   UNL     1      38.121 117.603  13.769  1.00  0.00    -0.000 C 
BRANCH  15  16
ATOM     16  C   UNL     1      37.129 118.556  14.459  1.00  0.00    -0.000 C 
BRANCH  16  17
ATOM     17  C   UNL     1      36.431 119.506  13.476  1.00  0.00    -0.003 C 
ATOM     18  C   UNL     1      35.315 118.793  12.718  1.00  0.00     0.004 C 
ENDBRANCH  16  17
ENDBRANCH  15  16
ENDBRANCH  14  15
ENDBRANCH  13  14
ENDBRANCH  12  13
ENDBRANCH  11  12
ENDBRANCH   1  11
TORSDOF 14
ENDMDL
