MODEL 1
REMARK VINA RESULT:    23.407      0.000      0.000
REMARK INTER + INTRA:          52.520
REMARK INTER:                  53.512
REMARK INTRA:                  -0.992
REMARK UNBOUND:                -0.992
REMARK SMILES CCCCCCCCCCCCCCCCCCCCCCCC(=O)[O-]
REMARK SMILES IDX 13 1 14 2 15 3 16 4 17 5 18 6 19 7 20 8 21 9 22 10 23 11
REMARK SMILES IDX 24 12 25 13 26 14 12 15 11 16 10 17 9 18 8 19 7 20 6 21 5 22
REMARK SMILES IDX 4 23 3 24 2 25 1 26
REMARK H PARENT
REMARK Flexibility Score: inf
ROOT
ATOM      1  C   UNL     1      -9.182  13.484 -20.956  1.00  0.00     0.000 C 
ENDROOT
BRANCH   1   2
ATOM      2  C   UNL     1      -8.407  12.398 -21.723  1.00  0.00     0.000 C 
BRANCH   2   3
ATOM      3  C   UNL     1      -7.079  12.908 -22.311  1.00  0.00     0.000 C 
BRANCH   3   4
ATOM      4  C   UNL     1      -6.750  12.392 -23.726  1.00  0.00     0.000 C 
BRANCH   4   5
ATOM      5  C   UNL     1      -5.933  11.086 -23.779  1.00  0.00     0.000 C 
BRANCH   5   6
ATOM      6  C   UNL     1      -5.963  10.383 -25.153  1.00  0.00     0.000 C 
BRANCH   6   7
ATOM      7  C   UNL     1      -5.361   8.967 -25.114  1.00  0.00     0.000 C 
BRANCH   7   8
ATOM      8  C   UNL     1      -4.093   8.887 -24.236  1.00  0.00     0.000 C 
BRANCH   8   9
ATOM      9  C   UNL     1      -2.776   8.879 -25.038  1.00  0.00     0.000 C 
BRANCH   9  10
ATOM     10  C   UNL     1      -1.493   8.885 -24.187  1.00  0.00     0.006 C 
BRANCH  10  11
ATOM     11  C   UNL     1      -0.293   9.578 -24.852  1.00  0.00     0.053 C 
BRANCH  11  12
ATOM     12  C   UNL     1       0.391   8.685 -25.842  1.00  0.00     0.041 C 
ATOM     13  O   UNL     1       0.608   7.476 -25.559  1.00  0.00    -0.550 OA
ATOM     14  O   UNL     1       0.764   9.178 -27.086  1.00  0.00    -0.550 OA
ENDBRANCH  11  12
ENDBRANCH  10  11
ENDBRANCH   9  10
ENDBRANCH   8   9
ENDBRANCH   7   8
ENDBRANCH   6   7
ENDBRANCH   5   6
ENDBRANCH   4   5
ENDBRANCH   3   4
ENDBRANCH   2   3
ENDBRANCH   1   2
BRANCH   1  15
ATOM     15  C   UNL     1      -8.330  14.155 -19.866  1.00  0.00     0.000 C 
BRANCH  15  16
ATOM     16  C   UNL     1      -8.547  13.527 -18.478  1.00  0.00     0.000 C 
BRANCH  16  17
ATOM     17  C   UNL     1      -9.566  14.320 -17.630  1.00  0.00     0.000 C 
BRANCH  17  18
ATOM     18  C   UNL     1     -10.048  15.615 -18.304  1.00  0.00    -0.000 C 
BRANCH  18  19
ATOM     19  C   UNL     1      -9.391  16.875 -17.716  1.00  0.00    -0.000 C 
BRANCH  19  20
ATOM     20  C   UNL     1     -10.345  18.080 -17.694  1.00  0.00    -0.000 C 
BRANCH  20  21
ATOM     21  C   UNL     1      -9.741  19.291 -16.964  1.00  0.00    -0.000 C 
BRANCH  21  22
ATOM     22  C   UNL     1      -8.215  19.188 -16.790  1.00  0.00    -0.000 C 
BRANCH  22  23
ATOM     23  C   UNL     1      -7.719  19.256 -15.333  1.00  0.00    -0.000 C 
BRANCH  23  24
ATOM     24  C   UNL     1      -6.571  20.258 -15.135  1.00  0.00    -0.000 C 
BRANCH  24  25
ATOM     25  C   UNL     1      -5.858  20.019 -13.798  1.00  0.00    -0.003 C 
ATOM     26  C   UNL     1      -6.524  18.898 -13.008  1.00  0.00     0.004 C 
ENDBRANCH  24  25
ENDBRANCH  23  24
ENDBRANCH  22  23
ENDBRANCH  21  22
ENDBRANCH  20  21
ENDBRANCH  19  20
ENDBRANCH  18  19
ENDBRANCH  17  18
ENDBRANCH  16  17
ENDBRANCH  15  16
ENDBRANCH   1  15
TORSDOF 22
ENDMDL
MODEL 2
REMARK VINA RESULT:    23.475      4.410      5.337
REMARK INTER + INTRA:          52.675
REMARK INTER:                  53.730
REMARK INTRA:                  -1.055
REMARK UNBOUND:                -0.992
REMARK SMILES CCCCCCCCCCCCCCCCCCCCCCCC(=O)[O-]
REMARK SMILES IDX 13 1 14 2 15 3 16 4 17 5 18 6 19 7 20 8 21 9 22 10 23 11
REMARK SMILES IDX 24 12 25 13 26 14 12 15 11 16 10 17 9 18 8 19 7 20 6 21 5 22
REMARK SMILES IDX 4 23 3 24 2 25 1 26
REMARK H PARENT
REMARK Flexibility Score: inf
ROOT
ATOM      1  C   UNL     1      -8.766  14.031 -20.690  1.00  0.00     0.000 C 
ENDROOT
BRANCH   1   2
ATOM      2  C   UNL     1      -8.852  12.762 -21.557  1.00  0.00     0.000 C 
BRANCH   2   3
ATOM      3  C   UNL     1      -7.472  12.161 -21.883  1.00  0.00     0.000 C 
BRANCH   3   4
ATOM      4  C   UNL     1      -6.738  12.817 -23.068  1.00  0.00     0.000 C 
BRANCH   4   5
ATOM      5  C   UNL     1      -6.927  12.120 -24.430  1.00  0.00     0.000 C 
BRANCH   5   6
ATOM      6  C   UNL     1      -6.404  12.938 -25.631  1.00  0.00     0.000 C 
BRANCH   6   7
ATOM      7  C   UNL     1      -5.451  14.072 -25.212  1.00  0.00     0.000 C 
BRANCH   7   8
ATOM      8  C   UNL     1      -4.757  14.737 -26.421  1.00  0.00     0.000 C 
BRANCH   8   9
ATOM      9  C   UNL     1      -5.540  15.923 -27.018  1.00  0.00     0.000 C 
BRANCH   9  10
ATOM     10  C   UNL     1      -5.292  17.281 -26.335  1.00  0.00     0.006 C 
BRANCH  10  11
ATOM     11  C   UNL     1      -4.622  17.186 -24.955  1.00  0.00     0.053 C 
BRANCH  11  12
ATOM     12  C   UNL     1      -5.285  18.076 -23.949  1.00  0.00     0.041 C 
ATOM     13  O   UNL     1      -5.117  17.874 -22.717  1.00  0.00    -0.550 OA
ATOM     14  O   UNL     1      -6.066  19.147 -24.370  1.00  0.00    -0.550 OA
ENDBRANCH  11  12
ENDBRANCH  10  11
ENDBRANCH   9  10
ENDBRANCH   8   9
ENDBRANCH   7   8
ENDBRANCH   6   7
ENDBRANCH   5   6
ENDBRANCH   4   5
ENDBRANCH   3   4
ENDBRANCH   2   3
ENDBRANCH   1   2
BRANCH   1  15
ATOM     15  C   UNL     1      -8.334  13.728 -19.246  1.00  0.00     0.000 C 
BRANCH  15  16
ATOM     16  C   UNL     1      -9.506  13.251 -18.369  1.00  0.00     0.000 C 
BRANCH  16  17
ATOM     17  C   UNL     1      -9.847  14.259 -17.249  1.00  0.00     0.000 C 
BRANCH  17  18
ATOM     18  C   UNL     1      -9.100  15.596 -17.381  1.00  0.00    -0.000 C 
BRANCH  18  19
ATOM     19  C   UNL     1      -9.862  16.626 -18.232  1.00  0.00    -0.000 C 
BRANCH  19  20
ATOM     20  C   UNL     1     -10.336  17.834 -17.409  1.00  0.00    -0.000 C 
BRANCH  20  21
ATOM     21  C   UNL     1      -9.366  19.024 -17.505  1.00  0.00    -0.000 C 
BRANCH  21  22
ATOM     22  C   UNL     1      -8.569  19.254 -16.208  1.00  0.00    -0.000 C 
BRANCH  22  23
ATOM     23  C   UNL     1      -7.089  19.627 -16.412  1.00  0.00    -0.000 C 
BRANCH  23  24
ATOM     24  C   UNL     1      -6.296  19.683 -15.097  1.00  0.00    -0.000 C 
BRANCH  24  25
ATOM     25  C   UNL     1      -7.238  19.663 -13.887  1.00  0.00    -0.003 C 
ATOM     26  C   UNL     1      -6.785  18.641 -12.850  1.00  0.00     0.004 C 
ENDBRANCH  24  25
ENDBRANCH  23  24
ENDBRANCH  22  23
ENDBRANCH  21  22
ENDBRANCH  20  21
ENDBRANCH  19  20
ENDBRANCH  18  19
ENDBRANCH  17  18
ENDBRANCH  16  17
ENDBRANCH  15  16
ENDBRANCH   1  15
TORSDOF 22
ENDMDL
MODEL 3
REMARK VINA RESULT:    23.817      5.204     12.943
REMARK INTER + INTRA:          53.458
REMARK INTER:                  54.280
REMARK INTRA:                  -0.823
REMARK UNBOUND:                -0.992
REMARK SMILES CCCCCCCCCCCCCCCCCCCCCCCC(=O)[O-]
REMARK SMILES IDX 13 1 14 2 15 3 16 4 17 5 18 6 19 7 20 8 21 9 22 10 23 11
REMARK SMILES IDX 24 12 25 13 26 14 12 15 11 16 10 17 9 18 8 19 7 20 6 21 5 22
REMARK SMILES IDX 4 23 3 24 2 25 1 26
REMARK H PARENT
REMARK Flexibility Score: inf
ROOT
ATOM      1  C   UNL     1      -8.723  13.122 -21.446  1.00  0.00     0.000 C 
ENDROOT
BRANCH   1   2
ATOM      2  C   UNL     1      -8.513  14.021 -20.214  1.00  0.00     0.000 C 
BRANCH   2   3
ATOM      3  C   UNL     1      -9.217  13.487 -18.953  1.00  0.00     0.000 C 
BRANCH   3   4
ATOM      4  C   UNL     1      -8.872  14.232 -17.648  1.00  0.00     0.000 C 
BRANCH   4   5
ATOM      5  C   UNL     1      -9.729  15.478 -17.352  1.00  0.00     0.000 C 
BRANCH   5   6
ATOM      6  C   UNL     1      -9.485  16.653 -18.323  1.00  0.00     0.000 C 
BRANCH   6   7
ATOM      7  C   UNL     1     -10.507  17.791 -18.155  1.00  0.00     0.000 C 
BRANCH   7   8
ATOM      8  C   UNL     1     -10.052  18.848 -17.126  1.00  0.00     0.000 C 
BRANCH   8   9
ATOM      9  C   UNL     1      -8.530  18.870 -16.883  1.00  0.00     0.000 C 
BRANCH   9  10
ATOM     10  C   UNL     1      -8.099  19.314 -15.472  1.00  0.00     0.006 C 
BRANCH  10  11
ATOM     11  C   UNL     1      -6.680  19.901 -15.396  1.00  0.00     0.053 C 
BRANCH  11  12
ATOM     12  C   UNL     1      -6.136  19.870 -14.001  1.00  0.00     0.041 C 
ATOM     13  O   UNL     1      -5.469  20.844 -13.560  1.00  0.00    -0.550 OA
ATOM     14  O   UNL     1      -6.388  18.779 -13.177  1.00  0.00    -0.550 OA
ENDBRANCH  11  12
ENDBRANCH  10  11
ENDBRANCH   9  10
ENDBRANCH   8   9
ENDBRANCH   7   8
ENDBRANCH   6   7
ENDBRANCH   5   6
ENDBRANCH   4   5
ENDBRANCH   3   4
ENDBRANCH   2   3
ENDBRANCH   1   2
BRANCH   1  15
ATOM     15  C   UNL     1      -7.396  12.638 -22.053  1.00  0.00     0.000 C 
BRANCH  15  16
ATOM     16  C   UNL     1      -7.577  12.036 -23.458  1.00  0.00     0.000 C 
BRANCH  16  17
ATOM     17  C   UNL     1      -6.261  12.035 -24.267  1.00  0.00     0.000 C 
BRANCH  17  18
ATOM     18  C   UNL     1      -5.263  10.958 -23.812  1.00  0.00    -0.000 C 
BRANCH  18  19
ATOM     19  C   UNL     1      -5.273   9.712 -24.714  1.00  0.00    -0.000 C 
BRANCH  19  20
ATOM     20  C   UNL     1      -3.861   9.172 -24.987  1.00  0.00    -0.000 C 
BRANCH  20  21
ATOM     21  C   UNL     1      -3.298   8.378 -23.795  1.00  0.00    -0.000 C 
BRANCH  21  22
ATOM     22  C   UNL     1      -1.842   7.926 -24.010  1.00  0.00    -0.000 C 
BRANCH  22  23
ATOM     23  C   UNL     1      -1.037   8.776 -25.011  1.00  0.00    -0.000 C 
BRANCH  23  24
ATOM     24  C   UNL     1       0.359   8.203 -25.300  1.00  0.00    -0.000 C 
BRANCH  24  25
ATOM     25  C   UNL     1       0.781   8.486 -26.747  1.00  0.00    -0.003 C 
ATOM     26  C   UNL     1       0.616   9.962 -27.093  1.00  0.00     0.004 C 
ENDBRANCH  24  25
ENDBRANCH  23  24
ENDBRANCH  22  23
ENDBRANCH  21  22
ENDBRANCH  20  21
ENDBRANCH  19  20
ENDBRANCH  18  19
ENDBRANCH  17  18
ENDBRANCH  16  17
ENDBRANCH  15  16
ENDBRANCH   1  15
TORSDOF 22
ENDMDL
MODEL 4
REMARK VINA RESULT:    23.939      5.846     11.192
REMARK INTER + INTRA:          53.736
REMARK INTER:                  54.736
REMARK INTRA:                  -1.000
REMARK UNBOUND:                -0.992
REMARK SMILES CCCCCCCCCCCCCCCCCCCCCCCC(=O)[O-]
REMARK SMILES IDX 13 1 14 2 15 3 16 4 17 5 18 6 19 7 20 8 21 9 22 10 23 11
REMARK SMILES IDX 24 12 25 13 26 14 12 15 11 16 10 17 9 18 8 19 7 20 6 21 5 22
REMARK SMILES IDX 4 23 3 24 2 25 1 26
REMARK H PARENT
REMARK Flexibility Score: inf
ROOT
ATOM      1  C   UNL     1      -8.810  12.568 -20.874  1.00  0.00     0.000 C 
ENDROOT
BRANCH   1   2
ATOM      2  C   UNL     1      -8.606  13.991 -20.324  1.00  0.00     0.000 C 
BRANCH   2   3
ATOM      3  C   UNL     1      -8.280  14.013 -18.819  1.00  0.00     0.000 C 
BRANCH   3   4
ATOM      4  C   UNL     1      -9.496  13.850 -17.885  1.00  0.00     0.000 C 
BRANCH   4   5
ATOM      5  C   UNL     1      -9.921  15.123 -17.126  1.00  0.00     0.000 C 
BRANCH   5   6
ATOM      6  C   UNL     1      -9.200  16.404 -17.596  1.00  0.00     0.000 C 
BRANCH   6   7
ATOM      7  C   UNL     1     -10.174  17.502 -18.060  1.00  0.00     0.000 C 
BRANCH   7   8
ATOM      8  C   UNL     1      -9.831  18.886 -17.468  1.00  0.00     0.000 C 
BRANCH   8   9
ATOM      9  C   UNL     1      -9.013  18.824 -16.163  1.00  0.00     0.000 C 
BRANCH   9  10
ATOM     10  C   UNL     1      -7.510  19.122 -16.319  1.00  0.00     0.006 C 
BRANCH  10  11
ATOM     11  C   UNL     1      -7.004  20.300 -15.470  1.00  0.00     0.053 C 
BRANCH  11  12
ATOM     12  C   UNL     1      -6.485  19.848 -14.140  1.00  0.00     0.041 C 
ATOM     13  O   UNL     1      -6.970  18.826 -13.585  1.00  0.00    -0.550 OA
ATOM     14  O   UNL     1      -5.446  20.537 -13.525  1.00  0.00    -0.550 OA
ENDBRANCH  11  12
ENDBRANCH  10  11
ENDBRANCH   9  10
ENDBRANCH   8   9
ENDBRANCH   7   8
ENDBRANCH   6   7
ENDBRANCH   5   6
ENDBRANCH   4   5
ENDBRANCH   3   4
ENDBRANCH   2   3
ENDBRANCH   1   2
BRANCH   1  15
ATOM     15  C   UNL     1      -8.403  12.445 -22.351  1.00  0.00     0.000 C 
BRANCH  15  16
ATOM     16  C   UNL     1      -6.967  12.935 -22.608  1.00  0.00     0.000 C 
BRANCH  16  17
ATOM     17  C   UNL     1      -6.221  12.049 -23.631  1.00  0.00     0.000 C 
BRANCH  17  18
ATOM     18  C   UNL     1      -6.883  12.025 -25.018  1.00  0.00    -0.000 C 
BRANCH  18  19
ATOM     19  C   UNL     1      -6.417  13.177 -25.923  1.00  0.00    -0.000 C 
BRANCH  19  20
ATOM     20  C   UNL     1      -5.458  14.139 -25.205  1.00  0.00    -0.000 C 
BRANCH  20  21
ATOM     21  C   UNL     1      -4.693  15.044 -26.186  1.00  0.00    -0.000 C 
BRANCH  21  22
ATOM     22  C   UNL     1      -5.470  16.320 -26.555  1.00  0.00    -0.000 C 
BRANCH  22  23
ATOM     23  C   UNL     1      -4.851  17.632 -26.039  1.00  0.00    -0.000 C 
BRANCH  23  24
ATOM     24  C   UNL     1      -5.900  18.642 -25.549  1.00  0.00    -0.000 C 
BRANCH  24  25
ATOM     25  C   UNL     1      -6.154  18.484 -24.045  1.00  0.00    -0.003 C 
ATOM     26  C   UNL     1      -5.027  17.709 -23.371  1.00  0.00     0.004 C 
ENDBRANCH  24  25
ENDBRANCH  23  24
ENDBRANCH  22  23
ENDBRANCH  21  22
ENDBRANCH  20  21
ENDBRANCH  19  20
ENDBRANCH  18  19
ENDBRANCH  17  18
ENDBRANCH  16  17
ENDBRANCH  15  16
ENDBRANCH   1  15
TORSDOF 22
ENDMDL
MODEL 5
REMARK VINA RESULT:    24.173      6.552     10.673
REMARK INTER + INTRA:          54.270
REMARK INTER:                  52.197
REMARK INTRA:                   2.072
REMARK UNBOUND:                -0.992
REMARK SMILES CCCCCCCCCCCCCCCCCCCCCCCC(=O)[O-]
REMARK SMILES IDX 13 1 14 2 15 3 16 4 17 5 18 6 19 7 20 8 21 9 22 10 23 11
REMARK SMILES IDX 24 12 25 13 26 14 12 15 11 16 10 17 9 18 8 19 7 20 6 21 5 22
REMARK SMILES IDX 4 23 3 24 2 25 1 26
REMARK H PARENT
REMARK Flexibility Score: inf
ROOT
ATOM      1  C   UNL     1      -3.640   9.235 -24.324  1.00  0.00     0.000 C 
ENDROOT
BRANCH   1   2
ATOM      2  C   UNL     1      -4.958   8.998 -25.083  1.00  0.00     0.000 C 
BRANCH   2   3
ATOM      3  C   UNL     1      -5.969  10.146 -24.909  1.00  0.00     0.000 C 
BRANCH   3   4
ATOM      4  C   UNL     1      -5.707  11.069 -23.703  1.00  0.00     0.000 C 
BRANCH   4   5
ATOM      5  C   UNL     1      -6.381  12.454 -23.772  1.00  0.00     0.000 C 
BRANCH   5   6
ATOM      6  C   UNL     1      -6.994  12.785 -25.149  1.00  0.00     0.000 C 
BRANCH   6   7
ATOM      7  C   UNL     1      -5.954  13.308 -26.156  1.00  0.00     0.000 C 
BRANCH   7   8
ATOM      8  C   UNL     1      -5.230  14.577 -25.655  1.00  0.00     0.000 C 
BRANCH   8   9
ATOM      9  C   UNL     1      -5.193  15.724 -26.684  1.00  0.00     0.000 C 
BRANCH   9  10
ATOM     10  C   UNL     1      -4.717  17.081 -26.134  1.00  0.00     0.006 C 
BRANCH  10  11
ATOM     11  C   UNL     1      -5.845  17.993 -25.628  1.00  0.00     0.053 C 
BRANCH  11  12
ATOM     12  C   UNL     1      -5.618  18.433 -24.214  1.00  0.00     0.041 C 
ATOM     13  O   UNL     1      -4.905  17.737 -23.442  1.00  0.00    -0.550 OA
ATOM     14  O   UNL     1      -6.167  19.624 -23.756  1.00  0.00    -0.550 OA
ENDBRANCH  11  12
ENDBRANCH  10  11
ENDBRANCH   9  10
ENDBRANCH   8   9
ENDBRANCH   7   8
ENDBRANCH   6   7
ENDBRANCH   5   6
ENDBRANCH   4   5
ENDBRANCH   3   4
ENDBRANCH   2   3
ENDBRANCH   1   2
BRANCH   1  15
ATOM     15  C   UNL     1      -2.884   7.928 -24.037  1.00  0.00     0.000 C 
BRANCH  15  16
ATOM     16  C   UNL     1      -3.390   7.223 -22.766  1.00  0.00     0.000 C 
BRANCH  16  17
ATOM     17  C   UNL     1      -2.331   7.215 -21.641  1.00  0.00     0.000 C 
BRANCH  17  18
ATOM     18  C   UNL     1      -2.937   7.149 -20.230  1.00  0.00    -0.000 C 
BRANCH  18  19
ATOM     19  C   UNL     1      -2.474   8.302 -19.324  1.00  0.00    -0.000 C 
BRANCH  19  20
ATOM     20  C   UNL     1      -1.177   8.958 -19.824  1.00  0.00    -0.000 C 
BRANCH  20  21
ATOM     21  C   UNL     1      -1.135   9.077 -21.357  1.00  0.00    -0.000 C 
BRANCH  21  22
ATOM     22  C   UNL     1      -0.705  10.475 -21.839  1.00  0.00    -0.000 C 
BRANCH  22  23
ATOM     23  C   UNL     1      -0.613  10.636 -23.368  1.00  0.00    -0.000 C 
BRANCH  23  24
ATOM     24  C   UNL     1      -0.578   9.293 -24.114  1.00  0.00    -0.000 C 
BRANCH  24  25
ATOM     25  C   UNL     1      -0.496   9.508 -25.630  1.00  0.00    -0.003 C 
ATOM     26  C   UNL     1       0.637   8.693 -26.244  1.00  0.00     0.004 C 
ENDBRANCH  24  25
ENDBRANCH  23  24
ENDBRANCH  22  23
ENDBRANCH  21  22
ENDBRANCH  20  21
ENDBRANCH  19  20
ENDBRANCH  18  19
ENDBRANCH  17  18
ENDBRANCH  16  17
ENDBRANCH  15  16
ENDBRANCH   1  15
TORSDOF 22
ENDMDL
MODEL 6
REMARK VINA RESULT:    24.248      5.464     12.291
REMARK INTER + INTRA:          54.443
REMARK INTER:                  55.433
REMARK INTRA:                  -0.990
REMARK UNBOUND:                -0.992
REMARK SMILES CCCCCCCCCCCCCCCCCCCCCCCC(=O)[O-]
REMARK SMILES IDX 13 1 14 2 15 3 16 4 17 5 18 6 19 7 20 8 21 9 22 10 23 11
REMARK SMILES IDX 24 12 25 13 26 14 12 15 11 16 10 17 9 18 8 19 7 20 6 21 5 22
REMARK SMILES IDX 4 23 3 24 2 25 1 26
REMARK H PARENT
REMARK Flexibility Score: inf
ROOT
ATOM      1  C   UNL     1      -8.019  13.539 -21.468  1.00  0.00     0.000 C 
ENDROOT
BRANCH   1   2
ATOM      2  C   UNL     1      -8.713  13.025 -20.194  1.00  0.00     0.000 C 
BRANCH   2   3
ATOM      3  C   UNL     1      -8.357  13.845 -18.941  1.00  0.00     0.000 C 
BRANCH   3   4
ATOM      4  C   UNL     1      -9.365  13.735 -17.780  1.00  0.00     0.000 C 
BRANCH   4   5
ATOM      5  C   UNL     1      -9.891  15.077 -17.232  1.00  0.00     0.000 C 
BRANCH   5   6
ATOM      6  C   UNL     1      -9.341  16.315 -17.972  1.00  0.00     0.000 C 
BRANCH   6   7
ATOM      7  C   UNL     1     -10.399  17.417 -18.160  1.00  0.00     0.000 C 
BRANCH   7   8
ATOM      8  C   UNL     1     -10.139  18.646 -17.262  1.00  0.00     0.000 C 
BRANCH   8   9
ATOM      9  C   UNL     1      -8.649  19.015 -17.122  1.00  0.00     0.000 C 
BRANCH   9  10
ATOM     10  C   UNL     1      -8.179  19.305 -15.684  1.00  0.00     0.006 C 
BRANCH  10  11
ATOM     11  C   UNL     1      -6.654  19.260 -15.492  1.00  0.00     0.053 C 
BRANCH  11  12
ATOM     12  C   UNL     1      -6.216  20.061 -14.305  1.00  0.00     0.041 C 
ATOM     13  O   UNL     1      -6.356  21.313 -14.300  1.00  0.00    -0.550 OA
ATOM     14  O   UNL     1      -5.680  19.424 -13.192  1.00  0.00    -0.550 OA
ENDBRANCH  11  12
ENDBRANCH  10  11
ENDBRANCH   9  10
ENDBRANCH   8   9
ENDBRANCH   7   8
ENDBRANCH   6   7
ENDBRANCH   5   6
ENDBRANCH   4   5
ENDBRANCH   3   4
ENDBRANCH   2   3
ENDBRANCH   1   2
BRANCH   1  15
ATOM     15  C   UNL     1      -7.743  12.416 -22.481  1.00  0.00     0.000 C 
BRANCH  15  16
ATOM     16  C   UNL     1      -6.541  12.727 -23.391  1.00  0.00     0.000 C 
BRANCH  16  17
ATOM     17  C   UNL     1      -6.363  11.672 -24.506  1.00  0.00     0.000 C 
BRANCH  17  18
ATOM     18  C   UNL     1      -5.779  10.342 -24.003  1.00  0.00    -0.000 C 
BRANCH  18  19
ATOM     19  C   UNL     1      -4.972   9.598 -25.081  1.00  0.00    -0.000 C 
BRANCH  19  20
ATOM     20  C   UNL     1      -4.051   8.521 -24.487  1.00  0.00    -0.000 C 
BRANCH  20  21
ATOM     21  C   UNL     1      -2.631   9.047 -24.219  1.00  0.00    -0.000 C 
BRANCH  21  22
ATOM     22  C   UNL     1      -1.719   8.003 -23.551  1.00  0.00    -0.000 C 
BRANCH  22  23
ATOM     23  C   UNL     1      -1.397   8.273 -22.070  1.00  0.00    -0.000 C 
BRANCH  23  24
ATOM     24  C   UNL     1      -2.077   7.280 -21.115  1.00  0.00    -0.000 C 
BRANCH  24  25
ATOM     25  C   UNL     1      -2.320   7.917 -19.741  1.00  0.00    -0.003 C 
ATOM     26  C   UNL     1      -3.675   7.510 -19.173  1.00  0.00     0.004 C 
ENDBRANCH  24  25
ENDBRANCH  23  24
ENDBRANCH  22  23
ENDBRANCH  21  22
ENDBRANCH  20  21
ENDBRANCH  19  20
ENDBRANCH  18  19
ENDBRANCH  17  18
ENDBRANCH  16  17
ENDBRANCH  15  16
ENDBRANCH   1  15
TORSDOF 22
ENDMDL
MODEL 7
REMARK VINA RESULT:    24.626      2.592      3.276
REMARK INTER + INTRA:          55.307
REMARK INTER:                  55.565
REMARK INTRA:                  -0.258
REMARK UNBOUND:                -0.992
REMARK SMILES CCCCCCCCCCCCCCCCCCCCCCCC(=O)[O-]
REMARK SMILES IDX 13 1 14 2 15 3 16 4 17 5 18 6 19 7 20 8 21 9 22 10 23 11
REMARK SMILES IDX 24 12 25 13 26 14 12 15 11 16 10 17 9 18 8 19 7 20 6 21 5 22
REMARK SMILES IDX 4 23 3 24 2 25 1 26
REMARK H PARENT
REMARK Flexibility Score: inf
ROOT
ATOM      1  C   UNL     1      -7.646  13.527 -21.878  1.00  0.00     0.000 C 
ENDROOT
BRANCH   1   2
ATOM      2  C   UNL     1      -7.486  12.131 -22.505  1.00  0.00     0.000 C 
BRANCH   2   3
ATOM      3  C   UNL     1      -6.571  12.128 -23.743  1.00  0.00     0.000 C 
BRANCH   3   4
ATOM      4  C   UNL     1      -5.546  10.978 -23.795  1.00  0.00     0.000 C 
BRANCH   4   5
ATOM      5  C   UNL     1      -5.595  10.106 -25.065  1.00  0.00     0.000 C 
BRANCH   5   6
ATOM      6  C   UNL     1      -4.726   8.832 -24.985  1.00  0.00     0.000 C 
BRANCH   6   7
ATOM      7  C   UNL     1      -3.266   9.127 -24.600  1.00  0.00     0.000 C 
BRANCH   7   8
ATOM      8  C   UNL     1      -2.617   7.970 -23.810  1.00  0.00     0.000 C 
BRANCH   8   9
ATOM      9  C   UNL     1      -1.351   8.377 -23.029  1.00  0.00     0.000 C 
BRANCH   9  10
ATOM     10  C   UNL     1      -1.294   7.885 -21.571  1.00  0.00     0.006 C 
BRANCH  10  11
ATOM     11  C   UNL     1      -2.617   7.306 -21.045  1.00  0.00     0.053 C 
BRANCH  11  12
ATOM     12  C   UNL     1      -2.945   7.816 -19.675  1.00  0.00     0.041 C 
ATOM     13  O   UNL     1      -3.969   7.397 -19.072  1.00  0.00    -0.550 OA
ATOM     14  O   UNL     1      -2.106   8.731 -19.050  1.00  0.00    -0.550 OA
ENDBRANCH  11  12
ENDBRANCH  10  11
ENDBRANCH   9  10
ENDBRANCH   8   9
ENDBRANCH   7   8
ENDBRANCH   6   7
ENDBRANCH   5   6
ENDBRANCH   4   5
ENDBRANCH   3   4
ENDBRANCH   2   3
ENDBRANCH   1   2
BRANCH   1  15
ATOM     15  C   UNL     1      -8.912  13.642 -21.012  1.00  0.00     0.000 C 
BRANCH  15  16
ATOM     16  C   UNL     1      -8.646  14.354 -19.674  1.00  0.00     0.000 C 
BRANCH  16  17
ATOM     17  C   UNL     1      -9.313  13.629 -18.483  1.00  0.00     0.000 C 
BRANCH  17  18
ATOM     18  C   UNL     1      -8.894  14.187 -17.114  1.00  0.00    -0.000 C 
BRANCH  18  19
ATOM     19  C   UNL     1      -8.968  15.722 -17.045  1.00  0.00    -0.000 C 
BRANCH  19  20
ATOM     20  C   UNL     1      -9.908  16.313 -18.107  1.00  0.00    -0.000 C 
BRANCH  20  21
ATOM     21  C   UNL     1     -10.258  17.784 -17.824  1.00  0.00    -0.000 C 
BRANCH  21  22
ATOM     22  C   UNL     1      -9.022  18.647 -17.515  1.00  0.00    -0.000 C 
BRANCH  22  23
ATOM     23  C   UNL     1      -8.932  19.161 -16.065  1.00  0.00    -0.000 C 
BRANCH  23  24
ATOM     24  C   UNL     1      -7.533  19.677 -15.696  1.00  0.00    -0.000 C 
BRANCH  24  25
ATOM     25  C   UNL     1      -7.371  19.786 -14.175  1.00  0.00    -0.003 C 
ATOM     26  C   UNL     1      -5.900  19.811 -13.774  1.00  0.00     0.004 C 
ENDBRANCH  24  25
ENDBRANCH  23  24
ENDBRANCH  22  23
ENDBRANCH  21  22
ENDBRANCH  20  21
ENDBRANCH  19  20
ENDBRANCH  18  19
ENDBRANCH  17  18
ENDBRANCH  16  17
ENDBRANCH  15  16
ENDBRANCH   1  15
TORSDOF 22
ENDMDL
MODEL 8
REMARK VINA RESULT:    24.672      4.189      5.308
REMARK INTER + INTRA:          55.412
REMARK INTER:                  56.506
REMARK INTRA:                  -1.094
REMARK UNBOUND:                -0.992
REMARK SMILES CCCCCCCCCCCCCCCCCCCCCCCC(=O)[O-]
REMARK SMILES IDX 13 1 14 2 15 3 16 4 17 5 18 6 19 7 20 8 21 9 22 10 23 11
REMARK SMILES IDX 24 12 25 13 26 14 12 15 11 16 10 17 9 18 8 19 7 20 6 21 5 22
REMARK SMILES IDX 4 23 3 24 2 25 1 26
REMARK H PARENT
REMARK Flexibility Score: inf
ROOT
ATOM      1  C   UNL     1      -8.437  13.982 -19.497  1.00  0.00     0.000 C 
ENDROOT
BRANCH   1   2
ATOM      2  C   UNL     1      -9.085  13.366 -20.749  1.00  0.00     0.000 C 
BRANCH   2   3
ATOM      3  C   UNL     1      -8.135  12.434 -21.522  1.00  0.00     0.000 C 
BRANCH   3   4
ATOM      4  C   UNL     1      -7.447  13.071 -22.746  1.00  0.00     0.000 C 
BRANCH   4   5
ATOM      5  C   UNL     1      -6.348  12.215 -23.406  1.00  0.00     0.000 C 
BRANCH   5   6
ATOM      6  C   UNL     1      -6.679  11.773 -24.848  1.00  0.00     0.000 C 
BRANCH   6   7
ATOM      7  C   UNL     1      -6.489  12.900 -25.878  1.00  0.00     0.000 C 
BRANCH   7   8
ATOM      8  C   UNL     1      -5.582  14.034 -25.354  1.00  0.00     0.000 C 
BRANCH   8   9
ATOM      9  C   UNL     1      -5.424  15.214 -26.335  1.00  0.00     0.000 C 
BRANCH   9  10
ATOM     10  C   UNL     1      -4.494  16.343 -25.855  1.00  0.00     0.006 C 
BRANCH  10  11
ATOM     11  C   UNL     1      -5.163  17.724 -25.770  1.00  0.00     0.053 C 
BRANCH  11  12
ATOM     12  C   UNL     1      -5.387  18.152 -24.352  1.00  0.00     0.041 C 
ATOM     13  O   UNL     1      -4.655  17.698 -23.431  1.00  0.00    -0.550 OA
ATOM     14  O   UNL     1      -6.383  19.072 -24.048  1.00  0.00    -0.550 OA
ENDBRANCH  11  12
ENDBRANCH  10  11
ENDBRANCH   9  10
ENDBRANCH   8   9
ENDBRANCH   7   8
ENDBRANCH   6   7
ENDBRANCH   5   6
ENDBRANCH   4   5
ENDBRANCH   3   4
ENDBRANCH   2   3
ENDBRANCH   1   2
BRANCH   1  15
ATOM     15  C   UNL     1      -9.126  13.533 -18.197  1.00  0.00     0.000 C 
BRANCH  15  16
ATOM     16  C   UNL     1      -9.782  14.705 -17.445  1.00  0.00     0.000 C 
BRANCH  16  17
ATOM     17  C   UNL     1      -9.282  16.077 -17.948  1.00  0.00     0.000 C 
BRANCH  17  18
ATOM     18  C   UNL     1     -10.398  17.126 -18.076  1.00  0.00    -0.000 C 
BRANCH  18  19
ATOM     19  C   UNL     1     -10.016  18.484 -17.463  1.00  0.00    -0.000 C 
BRANCH  19  20
ATOM     20  C   UNL     1      -8.544  18.539 -17.026  1.00  0.00    -0.000 C 
BRANCH  20  21
ATOM     21  C   UNL     1      -8.266  19.693 -16.048  1.00  0.00    -0.000 C 
BRANCH  21  22
ATOM     22  C   UNL     1      -9.099  19.598 -14.757  1.00  0.00    -0.000 C 
BRANCH  22  23
ATOM     23  C   UNL     1      -8.311  19.840 -13.455  1.00  0.00    -0.000 C 
BRANCH  23  24
ATOM     24  C   UNL     1      -7.245  18.767 -13.189  1.00  0.00    -0.000 C 
BRANCH  24  25
ATOM     25  C   UNL     1      -5.834  19.336 -13.376  1.00  0.00    -0.003 C 
ATOM     26  C   UNL     1      -5.878  20.807 -13.775  1.00  0.00     0.004 C 
ENDBRANCH  24  25
ENDBRANCH  23  24
ENDBRANCH  22  23
ENDBRANCH  21  22
ENDBRANCH  20  21
ENDBRANCH  19  20
ENDBRANCH  18  19
ENDBRANCH  17  18
ENDBRANCH  16  17
ENDBRANCH  15  16
ENDBRANCH   1  15
TORSDOF 22
ENDMDL
MODEL 9
REMARK VINA RESULT:    25.075      5.589      7.294
REMARK INTER + INTRA:          56.333
REMARK INTER:                  56.413
REMARK INTRA:                  -0.080
REMARK UNBOUND:                -0.992
REMARK SMILES CCCCCCCCCCCCCCCCCCCCCCCC(=O)[O-]
REMARK SMILES IDX 13 1 14 2 15 3 16 4 17 5 18 6 19 7 20 8 21 9 22 10 23 11
REMARK SMILES IDX 24 12 25 13 26 14 12 15 11 16 10 17 9 18 8 19 7 20 6 21 5 22
REMARK SMILES IDX 4 23 3 24 2 25 1 26
REMARK H PARENT
REMARK Flexibility Score: inf
ROOT
ATOM      1  C   UNL     1      -8.937  13.565 -20.098  1.00  0.00     0.000 C 
ENDROOT
BRANCH   1   2
ATOM      2  C   UNL     1      -8.013  13.840 -21.298  1.00  0.00     0.000 C 
BRANCH   2   3
ATOM      3  C   UNL     1      -7.915  12.648 -22.268  1.00  0.00     0.000 C 
BRANCH   3   4
ATOM      4  C   UNL     1      -6.553  12.490 -22.972  1.00  0.00     0.000 C 
BRANCH   4   5
ATOM      5  C   UNL     1      -6.614  11.946 -24.413  1.00  0.00     0.000 C 
BRANCH   5   6
ATOM      6  C   UNL     1      -6.545  13.041 -25.500  1.00  0.00     0.000 C 
BRANCH   6   7
ATOM      7  C   UNL     1      -5.224  13.830 -25.470  1.00  0.00     0.000 C 
BRANCH   7   8
ATOM      8  C   UNL     1      -5.289  15.124 -26.312  1.00  0.00     0.000 C 
BRANCH   8   9
ATOM      9  C   UNL     1      -4.846  16.389 -25.550  1.00  0.00     0.000 C 
BRANCH   9  10
ATOM     10  C   UNL     1      -5.156  17.721 -26.258  1.00  0.00     0.006 C 
BRANCH  10  11
ATOM     11  C   UNL     1      -5.786  18.791 -25.353  1.00  0.00     0.053 C 
BRANCH  11  12
ATOM     12  C   UNL     1      -5.783  18.378 -23.913  1.00  0.00     0.041 C 
ATOM     13  O   UNL     1      -4.766  17.823 -23.416  1.00  0.00    -0.550 OA
ATOM     14  O   UNL     1      -6.889  18.632 -23.111  1.00  0.00    -0.550 OA
ENDBRANCH  11  12
ENDBRANCH  10  11
ENDBRANCH   9  10
ENDBRANCH   8   9
ENDBRANCH   7   8
ENDBRANCH   6   7
ENDBRANCH   5   6
ENDBRANCH   4   5
ENDBRANCH   3   4
ENDBRANCH   2   3
ENDBRANCH   1   2
BRANCH   1  15
ATOM     15  C   UNL     1      -8.372  14.124 -18.782  1.00  0.00     0.000 C 
BRANCH  15  16
ATOM     16  C   UNL     1      -9.430  14.885 -17.963  1.00  0.00     0.000 C 
BRANCH  16  17
ATOM     17  C   UNL     1     -10.150  13.972 -16.946  1.00  0.00     0.000 C 
BRANCH  17  18
ATOM     18  C   UNL     1      -9.265  13.563 -15.757  1.00  0.00    -0.000 C 
BRANCH  18  19
ATOM     19  C   UNL     1     -10.021  12.730 -14.707  1.00  0.00    -0.000 C 
BRANCH  19  20
ATOM     20  C   UNL     1      -9.100  12.218 -13.588  1.00  0.00    -0.000 C 
BRANCH  20  21
ATOM     21  C   UNL     1      -8.890  13.263 -12.479  1.00  0.00    -0.000 C 
BRANCH  21  22
ATOM     22  C   UNL     1     -10.164  13.530 -11.657  1.00  0.00    -0.000 C 
BRANCH  22  23
ATOM     23  C   UNL     1     -11.049  12.294 -11.408  1.00  0.00    -0.000 C 
BRANCH  23  24
ATOM     24  C   UNL     1     -11.960  12.444 -10.180  1.00  0.00    -0.000 C 
BRANCH  24  25
ATOM     25  C   UNL     1     -12.926  13.623 -10.353  1.00  0.00    -0.003 C 
ATOM     26  C   UNL     1     -13.202  14.313  -9.022  1.00  0.00     0.004 C 
ENDBRANCH  24  25
ENDBRANCH  23  24
ENDBRANCH  22  23
ENDBRANCH  21  22
ENDBRANCH  20  21
ENDBRANCH  19  20
ENDBRANCH  18  19
ENDBRANCH  17  18
ENDBRANCH  16  17
ENDBRANCH  15  16
ENDBRANCH   1  15
TORSDOF 22
ENDMDL
