MODEL 1
REMARK VINA RESULT:     2.907      0.000      0.000
REMARK INTER + INTRA:           3.568
REMARK INTER:                   3.162
REMARK INTRA:                   0.407
REMARK UNBOUND:                 0.407
REMARK SMILES C[C@@H]1[C@H](C)CC[C@@]2(C(=O)[O-])CC[C@]3(C)C(=CC[C@H]4[C@@]5(C)CC[C@@H](O)C(C)(C)[C@H]5CC[C@]43C)[C@@H]12
REMARK SMILES IDX 7 1 6 2 11 3 33 4 5 5 12 6 15 7 2 8 3 9 13 10 16 11 1 12
REMARK SMILES IDX 4 13 14 14 31 15 17 16 18 17 30 18 32 19 19 20 29 21 28 22
REMARK SMILES IDX 21 23 20 24 25 25 22 26 23 27 26 28 27 29 8 30 9 31 10 32
REMARK SMILES IDX 24 33
REMARK H PARENT 24 34
REMARK Flexibility Score: inf
ROOT
ATOM      1  C   UNL     1       3.636  -5.988 -30.622  1.00  0.00     0.017 C 
ATOM      2  C   UNL     1       3.350  -7.125 -31.653  1.00  0.00     0.014 C 
ATOM      3  C   UNL     1       4.537  -6.626 -29.499  1.00  0.00     0.014 C 
ATOM      4  C   UNL     1       4.359  -4.752 -31.291  1.00  0.00     0.030 C 
ATOM      5  C   UNL     1       2.730  -6.642 -32.964  1.00  0.00     0.004 C 
ATOM      6  C   UNL     1       5.389  -5.631 -28.668  1.00  0.00     0.013 C 
ATOM      7  C   UNL     1       5.863  -4.794 -30.978  1.00  0.00    -0.063 C 
ATOM      8  C   UNL     1       3.958  -4.412 -32.779  1.00  0.00    -0.003 C 
ATOM      9  C   UNL     1       3.685  -5.672 -33.658  1.00  0.00    -0.011 C 
ATOM     10  C   UNL     1       6.244  -4.582 -29.501  1.00  0.00    -0.006 C 
ATOM     11  C   UNL     1       6.689  -5.421 -31.826  1.00  0.00    -0.027 C 
ATOM     12  C   UNL     1       2.768  -3.421 -32.810  1.00  0.00     0.008 C 
ATOM     13  C   UNL     1       3.193  -5.336 -35.076  1.00  0.00     0.008 C 
ATOM     14  C   UNL     1       5.779  -3.137 -29.091  1.00  0.00     0.017 C 
ATOM     15  C   UNL     1       7.838  -4.707 -29.236  1.00  0.00    -0.020 C 
ATOM     16  C   UNL     1       8.078  -5.852 -31.502  1.00  0.00     0.032 C 
ATOM     17  C   UNL     1       8.434  -5.950 -29.989  1.00  0.00     0.006 C 
ATOM     18  C   UNL     1       8.595  -3.443 -29.770  1.00  0.00     0.008 C 
ATOM     19  C   UNL     1       8.067  -4.817 -27.685  1.00  0.00     0.012 C 
ATOM     20  C   UNL     1      10.016  -6.203 -29.733  1.00  0.00    -0.025 C 
ATOM     21  C   UNL     1      10.088  -3.633 -30.159  1.00  0.00     0.005 C 
ATOM     22  C   UNL     1      10.809  -4.833 -29.485  1.00  0.00     0.003 C 
ATOM     23  C   UNL     1      10.639  -7.012 -30.931  1.00  0.00     0.010 C 
ATOM     24  C   UNL     1      10.152  -7.125 -28.474  1.00  0.00     0.012 C 
ATOM     25  C   UNL     1      12.391  -4.865 -29.738  1.00  0.00    -0.006 C 
ATOM     26  C   UNL     1      12.163  -7.104 -30.937  1.00  0.00     0.033 C 
ATOM     27  C   UNL     1      12.781  -5.709 -30.985  1.00  0.00     0.120 C 
ATOM     28  C   UNL     1      13.123  -5.432 -28.487  1.00  0.00     0.014 C 
ATOM     29  C   UNL     1      12.996  -3.441 -29.924  1.00  0.00     0.014 C 
ENDROOT
BRANCH   1  30
ATOM     30  C   UNL     1       2.332  -5.525 -29.972  1.00  0.00     0.048 C 
ATOM     31  O   UNL     1       1.329  -5.264 -30.689  1.00  0.00    -0.550 OA
ATOM     32  O   UNL     1       2.221  -5.376 -28.592  1.00  0.00    -0.550 OA
ENDBRANCH   1  30
BRANCH  27  33
ATOM     33  O   UNL     1      12.371  -5.069 -32.171  1.00  0.00    -0.393 OA
ATOM     34  H   UNL     1      13.182  -4.909 -32.721  1.00  0.00     0.210 HD
ENDBRANCH  27  33
TORSDOF 2
ENDMDL
