MODEL 1
REMARK VINA RESULT:    -6.338      0.000      0.000
REMARK INTER + INTRA:          -9.556
REMARK INTER:                  -8.376
REMARK INTRA:                  -1.180
REMARK UNBOUND:                -1.180
REMARK SMILES CC[C@H](C=C[C@H](C)[C@@H]1CC[C@@H]2C3=CC[C@@H]4C[C@@H](O)CC[C@]4(C)[C@@H]3CC[C@]21C)C(C)C
REMARK SMILES IDX 6 1 7 2 5 3 4 4 3 5 2 6 1 7 28 8 29 9 30 10 8 11 9 12 26 13
REMARK SMILES IDX 10 14 11 15 25 16 27 17 12 18 24 19 23 20 13 21 21 22 14 23
REMARK SMILES IDX 15 24 20 25 22 26 16 27 19 28 17 29 18 30
REMARK H PARENT 18 31
REMARK Flexibility Score: inf
ROOT
ATOM      1  C   UNL     1     138.508 133.823 141.098  1.00  0.00     0.012 C 
ATOM      2  C   UNL     1     138.925 132.827 142.193  1.00  0.00     0.012 C 
ENDROOT
BRANCH   1   3
ATOM      3  C   UNL     1     138.750 135.240 141.581  1.00  0.00    -0.028 C 
ATOM      4  C   UNL     1     139.066 135.524 142.859  1.00  0.00    -0.027 C 
BRANCH   4   5
ATOM      5  C   UNL     1     139.283 136.934 143.376  1.00  0.00     0.014 C 
BRANCH   5   6
ATOM      6  C   UNL     1     139.745 137.877 142.235  1.00  0.00     0.004 C 
ATOM      7  C   UNL     1     141.224 138.255 142.332  1.00  0.00     0.004 C 
ENDBRANCH   5   6
BRANCH   5   8
ATOM      8  C   UNL     1     138.085 137.469 144.228  1.00  0.00    -0.011 C 
ATOM      9  C   UNL     1     136.989 138.177 143.414  1.00  0.00     0.008 C 
ATOM     10  C   UNL     1     137.464 136.350 145.079  1.00  0.00     0.008 C 
ENDBRANCH   5   8
ENDBRANCH   4   5
ENDBRANCH   1   3
BRANCH   1  11
ATOM     11  C   UNL     1     139.225 133.577 139.731  1.00  0.00     0.002 C 
ATOM     12  C   UNL     1     139.753 134.898 139.103  1.00  0.00     0.005 C 
ATOM     13  C   UNL     1     138.401 132.914 138.585  1.00  0.00    -0.023 C 
ATOM     14  C   UNL     1     139.577 134.786 137.581  1.00  0.00     0.009 C 
ATOM     15  C   UNL     1     139.246 133.316 137.369  1.00  0.00     0.021 C 
ATOM     16  C   UNL     1     138.355 131.360 138.616  1.00  0.00     0.008 C 
ATOM     17  C   UNL     1     136.958 133.505 138.512  1.00  0.00     0.012 C 
ATOM     18  C   UNL     1     138.630 132.805 136.084  1.00  0.00    -0.067 C 
ATOM     19  C   UNL     1     137.786 130.769 137.298  1.00  0.00     0.009 C 
ATOM     20  C   UNL     1     138.524 131.280 136.024  1.00  0.00     0.021 C 
ATOM     21  C   UNL     1     138.086 133.623 135.161  1.00  0.00    -0.027 C 
ATOM     22  C   UNL     1     138.031 130.728 134.620  1.00  0.00    -0.023 C 
ATOM     23  C   UNL     1     137.490 133.135 133.874  1.00  0.00     0.031 C 
ATOM     24  C   UNL     1     136.995 131.678 133.935  1.00  0.00     0.002 C 
ATOM     25  C   UNL     1     137.451 129.273 134.674  1.00  0.00     0.010 C 
ATOM     26  C   UNL     1     139.287 130.648 133.702  1.00  0.00     0.012 C 
ATOM     27  C   UNL     1     135.592 131.594 134.565  1.00  0.00     0.036 C 
ATOM     28  C   UNL     1     135.993 129.137 135.160  1.00  0.00     0.032 C 
ATOM     29  C   UNL     1     135.028 130.164 134.540  1.00  0.00     0.114 C 
BRANCH  29  30
ATOM     30  O   UNL     1     134.635 129.794 133.241  1.00  0.00    -0.393 OA
ATOM     31  H   UNL     1     134.204 128.902 133.285  1.00  0.00     0.210 HD
ENDBRANCH  29  30
ENDBRANCH   1  11
TORSDOF 6
ENDMDL
MODEL 2
REMARK VINA RESULT:    -6.321      0.546      1.711
REMARK INTER + INTRA:          -9.534
REMARK INTER:                  -8.426
REMARK INTRA:                  -1.108
REMARK UNBOUND:                -1.180
REMARK SMILES CC[C@H](C=C[C@H](C)[C@@H]1CC[C@@H]2C3=CC[C@@H]4C[C@@H](O)CC[C@]4(C)[C@@H]3CC[C@]21C)C(C)C
REMARK SMILES IDX 6 1 7 2 5 3 4 4 3 5 2 6 1 7 28 8 29 9 30 10 8 11 9 12 26 13
REMARK SMILES IDX 10 14 11 15 25 16 27 17 12 18 24 19 23 20 13 21 21 22 14 23
REMARK SMILES IDX 15 24 20 25 22 26 16 27 19 28 17 29 18 30
REMARK H PARENT 18 31
REMARK Flexibility Score: inf
ROOT
ATOM      1  C   UNL     1     138.317 133.813 140.849  1.00  0.00     0.012 C 
ATOM      2  C   UNL     1     138.823 132.932 142.004  1.00  0.00     0.012 C 
ENDROOT
BRANCH   1   3
ATOM      3  C   UNL     1     138.455 135.275 141.227  1.00  0.00    -0.028 C 
ATOM      4  C   UNL     1     138.906 135.671 142.433  1.00  0.00    -0.027 C 
BRANCH   4   5
ATOM      5  C   UNL     1     139.024 137.126 142.847  1.00  0.00     0.014 C 
BRANCH   5   6
ATOM      6  C   UNL     1     138.070 137.445 144.027  1.00  0.00     0.004 C 
ATOM      7  C   UNL     1     136.845 138.258 143.605  1.00  0.00     0.004 C 
ENDBRANCH   5   6
BRANCH   5   8
ATOM      8  C   UNL     1     140.504 137.589 143.051  1.00  0.00    -0.011 C 
ATOM      9  C   UNL     1     141.521 136.441 143.176  1.00  0.00     0.008 C 
ATOM     10  C   UNL     1     140.943 138.558 141.942  1.00  0.00     0.008 C 
ENDBRANCH   5   8
ENDBRANCH   4   5
ENDBRANCH   1   3
BRANCH   1  11
ATOM     11  C   UNL     1     139.034 133.525 139.490  1.00  0.00     0.002 C 
ATOM     12  C   UNL     1     139.559 134.827 138.820  1.00  0.00     0.005 C 
ATOM     13  C   UNL     1     138.212 132.824 138.366  1.00  0.00    -0.023 C 
ATOM     14  C   UNL     1     139.383 134.666 137.302  1.00  0.00     0.009 C 
ATOM     15  C   UNL     1     139.056 133.188 137.138  1.00  0.00     0.021 C 
ATOM     16  C   UNL     1     138.170 131.272 138.447  1.00  0.00     0.008 C 
ATOM     17  C   UNL     1     136.767 133.408 138.275  1.00  0.00     0.012 C 
ATOM     18  C   UNL     1     138.440 132.635 135.870  1.00  0.00    -0.067 C 
ATOM     19  C   UNL     1     137.603 130.637 137.149  1.00  0.00     0.009 C 
ATOM     20  C   UNL     1     138.339 131.109 135.859  1.00  0.00     0.021 C 
ATOM     21  C   UNL     1     137.895 133.422 134.921  1.00  0.00    -0.027 C 
ATOM     22  C   UNL     1     137.847 130.510 134.473  1.00  0.00    -0.023 C 
ATOM     23  C   UNL     1     137.299 132.891 133.651  1.00  0.00     0.031 C 
ATOM     24  C   UNL     1     136.808 131.435 133.759  1.00  0.00     0.002 C 
ATOM     25  C   UNL     1     137.270 129.056 134.575  1.00  0.00     0.010 C 
ATOM     26  C   UNL     1     139.102 130.405 133.558  1.00  0.00     0.012 C 
ATOM     27  C   UNL     1     135.405 131.368 134.392  1.00  0.00     0.036 C 
ATOM     28  C   UNL     1     135.812 128.932 135.065  1.00  0.00     0.032 C 
ATOM     29  C   UNL     1     134.845 129.937 134.413  1.00  0.00     0.114 C 
BRANCH  29  30
ATOM     30  O   UNL     1     134.453 129.524 133.126  1.00  0.00    -0.393 OA
ATOM     31  H   UNL     1     134.049 130.300 132.658  1.00  0.00     0.210 HD
ENDBRANCH  29  30
ENDBRANCH   1  11
TORSDOF 6
ENDMDL
MODEL 3
REMARK VINA RESULT:    -6.146      3.289      9.350
REMARK INTER + INTRA:          -9.303
REMARK INTER:                  -8.350
REMARK INTRA:                  -0.953
REMARK UNBOUND:                -1.180
REMARK SMILES CC[C@H](C=C[C@H](C)[C@@H]1CC[C@@H]2C3=CC[C@@H]4C[C@@H](O)CC[C@]4(C)[C@@H]3CC[C@]21C)C(C)C
REMARK SMILES IDX 6 1 7 2 5 3 4 4 3 5 2 6 1 7 28 8 29 9 30 10 8 11 9 12 26 13
REMARK SMILES IDX 10 14 11 15 25 16 27 17 12 18 24 19 23 20 13 21 21 22 14 23
REMARK SMILES IDX 15 24 20 25 22 26 16 27 19 28 17 29 18 30
REMARK H PARENT 18 31
REMARK Flexibility Score: inf
ROOT
ATOM      1  C   UNL     1     137.852 131.356 139.312  1.00  0.00     0.012 C 
ATOM      2  C   UNL     1     136.828 130.542 140.122  1.00  0.00     0.012 C 
ENDROOT
BRANCH   1   3
ATOM      3  C   UNL     1     137.865 130.871 137.876  1.00  0.00    -0.028 C 
ATOM      4  C   UNL     1     136.748 130.800 137.127  1.00  0.00    -0.027 C 
BRANCH   4   5
ATOM      5  C   UNL     1     136.728 130.289 135.698  1.00  0.00     0.014 C 
BRANCH   5   6
ATOM      6  C   UNL     1     138.093 129.661 135.315  1.00  0.00     0.004 C 
ATOM      7  C   UNL     1     138.635 130.173 133.979  1.00  0.00     0.004 C 
ENDBRANCH   5   6
BRANCH   5   8
ATOM      8  C   UNL     1     135.480 129.402 135.378  1.00  0.00    -0.011 C 
ATOM      9  C   UNL     1     134.465 129.289 136.529  1.00  0.00     0.008 C 
ATOM     10  C   UNL     1     134.771 129.877 134.100  1.00  0.00     0.008 C 
ENDBRANCH   5   8
ENDBRANCH   4   5
ENDBRANCH   1   3
BRANCH   1  11
ATOM     11  C   UNL     1     137.604 132.899 139.372  1.00  0.00     0.002 C 
ATOM     12  C   UNL     1     138.516 133.674 138.378  1.00  0.00     0.005 C 
ATOM     13  C   UNL     1     137.827 133.620 140.735  1.00  0.00    -0.023 C 
ATOM     14  C   UNL     1     138.910 134.997 139.054  1.00  0.00     0.009 C 
ATOM     15  C   UNL     1     137.983 135.070 140.259  1.00  0.00     0.021 C 
ATOM     16  C   UNL     1     136.614 133.587 141.708  1.00  0.00     0.008 C 
ATOM     17  C   UNL     1     139.115 133.099 141.447  1.00  0.00     0.012 C 
ATOM     18  C   UNL     1     138.246 136.002 141.423  1.00  0.00    -0.067 C 
ATOM     19  C   UNL     1     136.795 134.568 142.897  1.00  0.00     0.009 C 
ATOM     20  C   UNL     1     137.112 136.027 142.450  1.00  0.00     0.021 C 
ATOM     21  C   UNL     1     139.429 136.620 141.609  1.00  0.00    -0.027 C 
ATOM     22  C   UNL     1     137.303 137.118 143.587  1.00  0.00    -0.023 C 
ATOM     23  C   UNL     1     139.699 137.561 142.746  1.00  0.00     0.031 C 
ATOM     24  C   UNL     1     138.805 137.318 143.976  1.00  0.00     0.002 C 
ATOM     25  C   UNL     1     136.460 136.847 144.880  1.00  0.00     0.010 C 
ATOM     26  C   UNL     1     136.775 138.465 143.012  1.00  0.00     0.012 C 
ATOM     27  C   UNL     1     139.359 136.176 144.849  1.00  0.00     0.036 C 
ATOM     28  C   UNL     1     137.039 135.815 145.870  1.00  0.00     0.032 C 
ATOM     29  C   UNL     1     138.546 135.984 146.139  1.00  0.00     0.114 C 
BRANCH  29  30
ATOM     30  O   UNL     1     138.800 137.017 147.060  1.00  0.00    -0.393 OA
ATOM     31  H   UNL     1     139.782 137.141 147.130  1.00  0.00     0.210 HD
ENDBRANCH  29  30
ENDBRANCH   1  11
TORSDOF 6
ENDMDL
MODEL 4
REMARK VINA RESULT:    -6.013      3.247      9.259
REMARK INTER + INTRA:          -9.126
REMARK INTER:                  -7.997
REMARK INTRA:                  -1.129
REMARK UNBOUND:                -1.180
REMARK SMILES CC[C@H](C=C[C@H](C)[C@@H]1CC[C@@H]2C3=CC[C@@H]4C[C@@H](O)CC[C@]4(C)[C@@H]3CC[C@]21C)C(C)C
REMARK SMILES IDX 6 1 7 2 5 3 4 4 3 5 2 6 1 7 28 8 29 9 30 10 8 11 9 12 26 13
REMARK SMILES IDX 10 14 11 15 25 16 27 17 12 18 24 19 23 20 13 21 21 22 14 23
REMARK SMILES IDX 15 24 20 25 22 26 16 27 19 28 17 29 18 30
REMARK H PARENT 18 31
REMARK Flexibility Score: inf
ROOT
ATOM      1  C   UNL     1     137.967 132.226 137.691  1.00  0.00     0.012 C 
ATOM      2  C   UNL     1     139.058 131.149 137.571  1.00  0.00     0.012 C 
ENDROOT
BRANCH   1   3
ATOM      3  C   UNL     1     136.736 131.792 136.919  1.00  0.00    -0.028 C 
ATOM      4  C   UNL     1     136.522 130.511 136.561  1.00  0.00    -0.027 C 
BRANCH   4   5
ATOM      5  C   UNL     1     135.315 130.054 135.763  1.00  0.00     0.014 C 
BRANCH   5   6
ATOM      6  C   UNL     1     135.722 129.665 134.318  1.00  0.00     0.004 C 
ATOM      7  C   UNL     1     137.188 129.247 134.200  1.00  0.00     0.004 C 
ENDBRANCH   5   6
BRANCH   5   8
ATOM      8  C   UNL     1     134.447 128.991 136.512  1.00  0.00    -0.011 C 
ATOM      9  C   UNL     1     133.893 129.461 137.869  1.00  0.00     0.008 C 
ATOM     10  C   UNL     1     133.299 128.483 135.626  1.00  0.00     0.008 C 
ENDBRANCH   5   8
ENDBRANCH   4   5
ENDBRANCH   1   3
BRANCH   1  11
ATOM     11  C   UNL     1     137.597 132.571 139.170  1.00  0.00     0.002 C 
ATOM     12  C   UNL     1     136.123 133.050 139.305  1.00  0.00     0.005 C 
ATOM     13  C   UNL     1     138.425 133.678 139.889  1.00  0.00    -0.023 C 
ATOM     14  C   UNL     1     136.094 134.145 140.383  1.00  0.00     0.009 C 
ATOM     15  C   UNL     1     137.468 134.042 141.032  1.00  0.00     0.021 C 
ATOM     16  C   UNL     1     139.751 133.194 140.542  1.00  0.00     0.008 C 
ATOM     17  C   UNL     1     138.690 134.891 138.942  1.00  0.00     0.012 C 
ATOM     18  C   UNL     1     138.039 135.150 141.890  1.00  0.00    -0.067 C 
ATOM     19  C   UNL     1     140.360 134.266 141.485  1.00  0.00     0.009 C 
ATOM     20  C   UNL     1     139.360 134.776 142.566  1.00  0.00     0.021 C 
ATOM     21  C   UNL     1     137.514 136.391 141.924  1.00  0.00    -0.027 C 
ATOM     22  C   UNL     1     139.883 135.866 143.594  1.00  0.00    -0.023 C 
ATOM     23  C   UNL     1     138.056 137.494 142.784  1.00  0.00     0.031 C 
ATOM     24  C   UNL     1     139.545 137.324 143.142  1.00  0.00     0.002 C 
ATOM     25  C   UNL     1     141.415 135.759 143.913  1.00  0.00     0.010 C 
ATOM     26  C   UNL     1     139.151 135.601 144.943  1.00  0.00     0.012 C 
ATOM     27  C   UNL     1     140.451 137.828 142.003  1.00  0.00     0.036 C 
ATOM     28  C   UNL     1     142.373 136.380 142.875  1.00  0.00     0.032 C 
ATOM     29  C   UNL     1     141.941 137.771 142.377  1.00  0.00     0.114 C 
BRANCH  29  30
ATOM     30  O   UNL     1     142.274 138.783 143.297  1.00  0.00    -0.393 OA
ATOM     31  H   UNL     1     141.848 139.628 143.002  1.00  0.00     0.210 HD
ENDBRANCH  29  30
ENDBRANCH   1  11
TORSDOF 6
ENDMDL
MODEL 5
REMARK VINA RESULT:    -5.935      4.473      9.720
REMARK INTER + INTRA:          -9.024
REMARK INTER:                  -8.093
REMARK INTRA:                  -0.931
REMARK UNBOUND:                -1.180
REMARK SMILES CC[C@H](C=C[C@H](C)[C@@H]1CC[C@@H]2C3=CC[C@@H]4C[C@@H](O)CC[C@]4(C)[C@@H]3CC[C@]21C)C(C)C
REMARK SMILES IDX 6 1 7 2 5 3 4 4 3 5 2 6 1 7 28 8 29 9 30 10 8 11 9 12 26 13
REMARK SMILES IDX 10 14 11 15 25 16 27 17 12 18 24 19 23 20 13 21 21 22 14 23
REMARK SMILES IDX 15 24 20 25 22 26 16 27 19 28 17 29 18 30
REMARK H PARENT 18 31
REMARK Flexibility Score: inf
ROOT
ATOM      1  C   UNL     1     135.396 129.496 141.178  1.00  0.00     0.012 C 
ATOM      2  C   UNL     1     134.736 129.213 142.538  1.00  0.00     0.012 C 
ENDROOT
BRANCH   1   3
ATOM      3  C   UNL     1     134.812 128.571 140.127  1.00  0.00    -0.028 C 
ATOM      4  C   UNL     1     133.492 128.521 139.861  1.00  0.00    -0.027 C 
BRANCH   4   5
ATOM      5  C   UNL     1     132.879 127.583 138.838  1.00  0.00     0.014 C 
BRANCH   5   6
ATOM      6  C   UNL     1     131.522 127.026 139.340  1.00  0.00     0.004 C 
ATOM      7  C   UNL     1     131.219 127.403 140.791  1.00  0.00     0.004 C 
ENDBRANCH   5   6
BRANCH   5   8
ATOM      8  C   UNL     1     132.853 128.181 137.393  1.00  0.00    -0.011 C 
ATOM      9  C   UNL     1     133.664 127.384 136.357  1.00  0.00     0.008 C 
ATOM     10  C   UNL     1     131.411 128.371 136.894  1.00  0.00     0.008 C 
ENDBRANCH   5   8
ENDBRANCH   4   5
ENDBRANCH   1   3
BRANCH   1  11
ATOM     11  C   UNL     1     135.273 130.988 140.728  1.00  0.00     0.002 C 
ATOM     12  C   UNL     1     135.887 131.224 139.319  1.00  0.00     0.005 C 
ATOM     13  C   UNL     1     135.943 132.075 141.622  1.00  0.00    -0.023 C 
ATOM     14  C   UNL     1     136.548 132.611 139.333  1.00  0.00     0.009 C 
ATOM     15  C   UNL     1     136.036 133.236 140.623  1.00  0.00     0.021 C 
ATOM     16  C   UNL     1     135.082 132.571 142.818  1.00  0.00     0.008 C 
ATOM     17  C   UNL     1     137.351 131.615 142.113  1.00  0.00     0.012 C 
ATOM     18  C   UNL     1     136.697 134.445 141.251  1.00  0.00    -0.067 C 
ATOM     19  C   UNL     1     135.675 133.848 143.472  1.00  0.00     0.009 C 
ATOM     20  C   UNL     1     135.931 135.000 142.453  1.00  0.00     0.021 C 
ATOM     21  C   UNL     1     137.916 134.883 140.881  1.00  0.00    -0.027 C 
ATOM     22  C   UNL     1     136.525 136.360 143.018  1.00  0.00    -0.023 C 
ATOM     23  C   UNL     1     138.576 136.091 141.480  1.00  0.00     0.031 C 
ATOM     24  C   UNL     1     138.083 136.425 142.900  1.00  0.00     0.002 C 
ATOM     25  C   UNL     1     136.098 136.680 144.491  1.00  0.00     0.010 C 
ATOM     26  C   UNL     1     135.931 137.506 142.146  1.00  0.00     0.012 C 
ATOM     27  C   UNL     1     138.804 135.564 143.955  1.00  0.00     0.036 C 
ATOM     28  C   UNL     1     136.886 135.956 145.604  1.00  0.00     0.032 C 
ATOM     29  C   UNL     1     138.410 135.952 145.389  1.00  0.00     0.114 C 
BRANCH  29  30
ATOM     30  O   UNL     1     138.995 137.176 145.764  1.00  0.00    -0.393 OA
ATOM     31  H   UNL     1     138.982 137.239 146.754  1.00  0.00     0.210 HD
ENDBRANCH  29  30
ENDBRANCH   1  11
TORSDOF 6
ENDMDL
MODEL 6
REMARK VINA RESULT:    -5.916     10.984     13.943
REMARK INTER + INTRA:          -8.998
REMARK INTER:                  -7.865
REMARK INTRA:                  -1.132
REMARK UNBOUND:                -1.180
REMARK SMILES CC[C@H](C=C[C@H](C)[C@@H]1CC[C@@H]2C3=CC[C@@H]4C[C@@H](O)CC[C@]4(C)[C@@H]3CC[C@]21C)C(C)C
REMARK SMILES IDX 6 1 7 2 5 3 4 4 3 5 2 6 1 7 28 8 29 9 30 10 8 11 9 12 26 13
REMARK SMILES IDX 10 14 11 15 25 16 27 17 12 18 24 19 23 20 13 21 21 22 14 23
REMARK SMILES IDX 15 24 20 25 22 26 16 27 19 28 17 29 18 30
REMARK H PARENT 18 31
REMARK Flexibility Score: inf
ROOT
ATOM      1  C   UNL     1     130.177 126.671 139.677  1.00  0.00     0.012 C 
ATOM      2  C   UNL     1     129.285 127.356 138.628  1.00  0.00     0.012 C 
ENDROOT
BRANCH   1   3
ATOM      3  C   UNL     1     131.634 126.953 139.368  1.00  0.00    -0.028 C 
ATOM      4  C   UNL     1     132.019 127.679 138.301  1.00  0.00    -0.027 C 
BRANCH   4   5
ATOM      5  C   UNL     1     133.471 127.951 137.952  1.00  0.00     0.014 C 
BRANCH   5   6
ATOM      6  C   UNL     1     133.669 128.013 136.416  1.00  0.00     0.004 C 
ATOM      7  C   UNL     1     132.724 127.084 135.652  1.00  0.00     0.004 C 
ENDBRANCH   5   6
BRANCH   5   8
ATOM      8  C   UNL     1     134.080 129.154 138.745  1.00  0.00    -0.011 C 
ATOM      9  C   UNL     1     134.756 128.768 140.072  1.00  0.00     0.008 C 
ATOM     10  C   UNL     1     135.058 129.957 137.874  1.00  0.00     0.008 C 
ENDBRANCH   5   8
ENDBRANCH   4   5
ENDBRANCH   1   3
BRANCH   1  11
ATOM     11  C   UNL     1     129.834 127.084 141.146  1.00  0.00     0.002 C 
ATOM     12  C   UNL     1     131.034 127.779 141.850  1.00  0.00     0.005 C 
ATOM     13  C   UNL     1     129.409 125.959 142.138  1.00  0.00    -0.023 C 
ATOM     14  C   UNL     1     131.021 127.336 143.322  1.00  0.00     0.009 C 
ATOM     15  C   UNL     1     129.665 126.662 143.478  1.00  0.00     0.021 C 
ATOM     16  C   UNL     1     127.902 125.580 142.103  1.00  0.00     0.008 C 
ATOM     17  C   UNL     1     130.300 124.688 141.968  1.00  0.00     0.012 C 
ATOM     18  C   UNL     1     129.350 125.747 144.643  1.00  0.00    -0.067 C 
ATOM     19  C   UNL     1     127.498 124.688 143.308  1.00  0.00     0.009 C 
ATOM     20  C   UNL     1     127.887 125.302 144.687  1.00  0.00     0.021 C 
ATOM     21  C   UNL     1     130.301 125.253 145.460  1.00  0.00    -0.027 C 
ATOM     22  C   UNL     1     127.508 124.478 145.990  1.00  0.00    -0.023 C 
ATOM     23  C   UNL     1     130.002 124.362 146.630  1.00  0.00     0.031 C 
ATOM     24  C   UNL     1     128.685 123.577 146.489  1.00  0.00     0.002 C 
ATOM     25  C   UNL     1     126.211 123.610 145.841  1.00  0.00     0.010 C 
ATOM     26  C   UNL     1     127.195 125.518 147.105  1.00  0.00     0.012 C 
ATOM     27  C   UNL     1     128.881 122.311 145.633  1.00  0.00     0.036 C 
ATOM     28  C   UNL     1     126.374 122.256 145.118  1.00  0.00     0.032 C 
ATOM     29  C   UNL     1     127.608 121.452 145.566  1.00  0.00     0.114 C 
BRANCH  29  30
ATOM     30  O   UNL     1     127.382 120.781 146.782  1.00  0.00    -0.393 OA
ATOM     31  H   UNL     1     128.097 120.104 146.904  1.00  0.00     0.210 HD
ENDBRANCH  29  30
ENDBRANCH   1  11
TORSDOF 6
ENDMDL
MODEL 7
REMARK VINA RESULT:    -5.892      1.717      2.912
REMARK INTER + INTRA:          -8.966
REMARK INTER:                  -7.848
REMARK INTRA:                  -1.118
REMARK UNBOUND:                -1.180
REMARK SMILES CC[C@H](C=C[C@H](C)[C@@H]1CC[C@@H]2C3=CC[C@@H]4C[C@@H](O)CC[C@]4(C)[C@@H]3CC[C@]21C)C(C)C
REMARK SMILES IDX 6 1 7 2 5 3 4 4 3 5 2 6 1 7 28 8 29 9 30 10 8 11 9 12 26 13
REMARK SMILES IDX 10 14 11 15 25 16 27 17 12 18 24 19 23 20 13 21 21 22 14 23
REMARK SMILES IDX 15 24 20 25 22 26 16 27 19 28 17 29 18 30
REMARK H PARENT 18 31
REMARK Flexibility Score: inf
ROOT
ATOM      1  C   UNL     1     136.706 134.946 140.387  1.00  0.00     0.012 C 
ATOM      2  C   UNL     1     135.276 135.426 140.686  1.00  0.00     0.012 C 
ENDROOT
BRANCH   1   3
ATOM      3  C   UNL     1     137.569 135.119 141.622  1.00  0.00    -0.028 C 
ATOM      4  C   UNL     1     138.121 136.300 141.958  1.00  0.00    -0.027 C 
BRANCH   4   5
ATOM      5  C   UNL     1     139.013 136.494 143.171  1.00  0.00     0.014 C 
BRANCH   5   6
ATOM      6  C   UNL     1     140.460 136.851 142.744  1.00  0.00     0.004 C 
ATOM      7  C   UNL     1     140.594 138.281 142.219  1.00  0.00     0.004 C 
ENDBRANCH   5   6
BRANCH   5   8
ATOM      8  C   UNL     1     138.390 137.443 144.247  1.00  0.00    -0.011 C 
ATOM      9  C   UNL     1     137.063 138.099 143.829  1.00  0.00     0.008 C 
ATOM     10  C   UNL     1     138.214 136.721 145.593  1.00  0.00     0.008 C 
ENDBRANCH   5   8
ENDBRANCH   4   5
ENDBRANCH   1   3
BRANCH   1  11
ATOM     11  C   UNL     1     136.769 133.471 139.873  1.00  0.00     0.002 C 
ATOM     12  C   UNL     1     137.664 132.576 140.777  1.00  0.00     0.005 C 
ATOM     13  C   UNL     1     137.316 133.224 138.434  1.00  0.00    -0.023 C 
ATOM     14  C   UNL     1     138.396 131.583 139.860  1.00  0.00     0.009 C 
ATOM     15  C   UNL     1     137.678 131.736 138.527  1.00  0.00     0.021 C 
ATOM     16  C   UNL     1     136.268 133.368 137.294  1.00  0.00     0.008 C 
ATOM     17  C   UNL     1     138.567 134.112 138.144  1.00  0.00     0.012 C 
ATOM     18  C   UNL     1     138.276 131.238 137.228  1.00  0.00    -0.067 C 
ATOM     19  C   UNL     1     136.799 132.819 135.943  1.00  0.00     0.009 C 
ATOM     20  C   UNL     1     137.324 131.354 136.036  1.00  0.00     0.021 C 
ATOM     21  C   UNL     1     139.570 130.879 137.111  1.00  0.00    -0.027 C 
ATOM     22  C   UNL     1     137.878 130.687 134.707  1.00  0.00    -0.023 C 
ATOM     23  C   UNL     1     140.173 130.365 135.837  1.00  0.00     0.031 C 
ATOM     24  C   UNL     1     139.430 130.829 134.570  1.00  0.00     0.002 C 
ATOM     25  C   UNL     1     137.188 131.204 133.398  1.00  0.00     0.010 C 
ATOM     26  C   UNL     1     137.543 129.169 134.792  1.00  0.00     0.012 C 
ATOM     27  C   UNL     1     139.872 132.246 134.155  1.00  0.00     0.036 C 
ATOM     28  C   UNL     1     137.693 132.554 132.847  1.00  0.00     0.032 C 
ATOM     29  C   UNL     1     139.226 132.691 132.833  1.00  0.00     0.114 C 
BRANCH  29  30
ATOM     30  O   UNL     1     139.801 132.023 131.735  1.00  0.00    -0.393 OA
ATOM     31  H   UNL     1     140.664 132.460 131.519  1.00  0.00     0.210 HD
ENDBRANCH  29  30
ENDBRANCH   1  11
TORSDOF 6
ENDMDL
MODEL 8
REMARK VINA RESULT:    -5.842      4.830      9.973
REMARK INTER + INTRA:          -8.901
REMARK INTER:                  -7.773
REMARK INTRA:                  -1.128
REMARK UNBOUND:                -1.180
REMARK SMILES CC[C@H](C=C[C@H](C)[C@@H]1CC[C@@H]2C3=CC[C@@H]4C[C@@H](O)CC[C@]4(C)[C@@H]3CC[C@]21C)C(C)C
REMARK SMILES IDX 6 1 7 2 5 3 4 4 3 5 2 6 1 7 28 8 29 9 30 10 8 11 9 12 26 13
REMARK SMILES IDX 10 14 11 15 25 16 27 17 12 18 24 19 23 20 13 21 21 22 14 23
REMARK SMILES IDX 15 24 20 25 22 26 16 27 19 28 17 29 18 30
REMARK H PARENT 18 31
REMARK Flexibility Score: inf
ROOT
ATOM      1  C   UNL     1     133.758 127.612 136.274  1.00  0.00     0.012 C 
ATOM      2  C   UNL     1     133.378 127.656 137.764  1.00  0.00     0.012 C 
ENDROOT
BRANCH   1   3
ATOM      3  C   UNL     1     132.807 126.691 135.535  1.00  0.00    -0.028 C 
ATOM      4  C   UNL     1     132.121 125.711 136.155  1.00  0.00    -0.027 C 
BRANCH   4   5
ATOM      5  C   UNL     1     131.187 124.756 135.435  1.00  0.00     0.014 C 
BRANCH   5   6
ATOM      6  C   UNL     1     130.832 125.289 134.023  1.00  0.00     0.004 C 
ATOM      7  C   UNL     1     129.350 125.636 133.869  1.00  0.00     0.004 C 
ENDBRANCH   5   6
BRANCH   5   8
ATOM      8  C   UNL     1     131.674 123.270 135.476  1.00  0.00    -0.011 C 
ATOM      9  C   UNL     1     131.895 122.632 134.093  1.00  0.00     0.008 C 
ATOM     10  C   UNL     1     132.945 123.123 136.328  1.00  0.00     0.008 C 
ENDBRANCH   5   8
ENDBRANCH   4   5
ENDBRANCH   1   3
BRANCH   1  11
ATOM     11  C   UNL     1     133.793 129.023 135.602  1.00  0.00     0.002 C 
ATOM     12  C   UNL     1     133.240 128.989 134.148  1.00  0.00     0.005 C 
ATOM     13  C   UNL     1     135.175 129.730 135.466  1.00  0.00    -0.023 C 
ATOM     14  C   UNL     1     134.073 129.977 133.317  1.00  0.00     0.009 C 
ATOM     15  C   UNL     1     134.857 130.752 134.367  1.00  0.00     0.021 C 
ATOM     16  C   UNL     1     135.633 130.533 136.717  1.00  0.00     0.008 C 
ATOM     17  C   UNL     1     136.284 128.725 135.022  1.00  0.00     0.012 C 
ATOM     18  C   UNL     1     136.078 131.575 134.016  1.00  0.00    -0.067 C 
ATOM     19  C   UNL     1     136.850 131.446 136.408  1.00  0.00     0.009 C 
ATOM     20  C   UNL     1     136.618 132.393 135.191  1.00  0.00     0.021 C 
ATOM     21  C   UNL     1     136.713 131.470 132.832  1.00  0.00    -0.027 C 
ATOM     22  C   UNL     1     137.795 133.381 134.796  1.00  0.00    -0.023 C 
ATOM     23  C   UNL     1     137.911 132.293 132.462  1.00  0.00     0.031 C 
ATOM     24  C   UNL     1     138.716 132.795 133.675  1.00  0.00     0.002 C 
ATOM     25  C   UNL     1     138.675 133.843 136.008  1.00  0.00     0.010 C 
ATOM     26  C   UNL     1     137.129 134.674 134.239  1.00  0.00     0.012 C 
ATOM     27  C   UNL     1     139.677 131.708 134.193  1.00  0.00     0.036 C 
ATOM     28  C   UNL     1     139.760 132.853 136.481  1.00  0.00     0.032 C 
ATOM     29  C   UNL     1     140.570 132.218 135.335  1.00  0.00     0.114 C 
BRANCH  29  30
ATOM     30  O   UNL     1     141.566 133.087 134.854  1.00  0.00    -0.393 OA
ATOM     31  H   UNL     1     141.768 132.844 133.914  1.00  0.00     0.210 HD
ENDBRANCH  29  30
ENDBRANCH   1  11
TORSDOF 6
ENDMDL
MODEL 9
REMARK VINA RESULT:    -5.743      4.555      7.067
REMARK INTER + INTRA:          -8.770
REMARK INTER:                  -7.978
REMARK INTRA:                  -0.792
REMARK UNBOUND:                -1.180
REMARK SMILES CC[C@H](C=C[C@H](C)[C@@H]1CC[C@@H]2C3=CC[C@@H]4C[C@@H](O)CC[C@]4(C)[C@@H]3CC[C@]21C)C(C)C
REMARK SMILES IDX 6 1 7 2 5 3 4 4 3 5 2 6 1 7 28 8 29 9 30 10 8 11 9 12 26 13
REMARK SMILES IDX 10 14 11 15 25 16 27 17 12 18 24 19 23 20 13 21 21 22 14 23
REMARK SMILES IDX 15 24 20 25 22 26 16 27 19 28 17 29 18 30
REMARK H PARENT 18 31
REMARK Flexibility Score: inf
ROOT
ATOM      1  C   UNL     1     136.620 137.004 144.192  1.00  0.00     0.012 C 
ATOM      2  C   UNL     1     137.473 136.660 145.426  1.00  0.00     0.012 C 
ENDROOT
BRANCH   1   3
ATOM      3  C   UNL     1     137.508 137.079 142.966  1.00  0.00    -0.028 C 
ATOM      4  C   UNL     1     138.851 137.010 143.040  1.00  0.00    -0.027 C 
BRANCH   4   5
ATOM      5  C   UNL     1     139.764 137.113 141.832  1.00  0.00     0.014 C 
BRANCH   5   6
ATOM      6  C   UNL     1     140.944 138.079 142.110  1.00  0.00     0.004 C 
ATOM      7  C   UNL     1     142.162 137.808 141.225  1.00  0.00     0.004 C 
ENDBRANCH   5   6
BRANCH   5   8
ATOM      8  C   UNL     1     140.175 135.721 141.251  1.00  0.00    -0.011 C 
ATOM      9  C   UNL     1     140.294 134.601 142.299  1.00  0.00     0.008 C 
ATOM     10  C   UNL     1     139.223 135.283 140.125  1.00  0.00     0.008 C 
ENDBRANCH   5   8
ENDBRANCH   4   5
ENDBRANCH   1   3
BRANCH   1  11
ATOM     11  C   UNL     1     135.439 136.008 143.959  1.00  0.00     0.002 C 
ATOM     12  C   UNL     1     134.485 135.938 145.185  1.00  0.00     0.005 C 
ATOM     13  C   UNL     1     135.790 134.518 143.665  1.00  0.00    -0.023 C 
ATOM     14  C   UNL     1     134.009 134.483 145.314  1.00  0.00     0.009 C 
ATOM     15  C   UNL     1     134.453 133.846 144.005  1.00  0.00     0.021 C 
ATOM     16  C   UNL     1     136.098 134.192 142.176  1.00  0.00     0.008 C 
ATOM     17  C   UNL     1     136.945 134.016 144.587  1.00  0.00     0.012 C 
ATOM     18  C   UNL     1     134.535 132.345 143.825  1.00  0.00    -0.067 C 
ATOM     19  C   UNL     1     136.137 132.663 141.911  1.00  0.00     0.009 C 
ATOM     20  C   UNL     1     134.853 131.921 142.390  1.00  0.00     0.021 C 
ATOM     21  C   UNL     1     134.489 131.483 144.861  1.00  0.00    -0.027 C 
ATOM     22  C   UNL     1     134.781 130.353 142.155  1.00  0.00    -0.023 C 
ATOM     23  C   UNL     1     134.550 129.993 144.697  1.00  0.00     0.031 C 
ATOM     24  C   UNL     1     135.254 129.540 143.405  1.00  0.00     0.002 C 
ATOM     25  C   UNL     1     135.558 129.861 140.886  1.00  0.00     0.010 C 
ATOM     26  C   UNL     1     133.285 130.005 141.897  1.00  0.00     0.012 C 
ATOM     27  C   UNL     1     136.785 129.538 143.579  1.00  0.00     0.036 C 
ATOM     28  C   UNL     1     137.085 129.697 141.041  1.00  0.00     0.032 C 
ATOM     29  C   UNL     1     137.509 128.987 142.340  1.00  0.00     0.114 C 
BRANCH  29  30
ATOM     30  O   UNL     1     137.364 127.590 142.244  1.00  0.00    -0.393 OA
ATOM     31  H   UNL     1     137.906 127.169 142.959  1.00  0.00     0.210 HD
ENDBRANCH  29  30
ENDBRANCH   1  11
TORSDOF 6
ENDMDL
