MODEL 1
REMARK VINA RESULT:    -2.213      0.000      0.000
REMARK INTER + INTRA:          -3.037
REMARK INTER:                  -2.730
REMARK INTRA:                  -0.307
REMARK UNBOUND:                -0.307
REMARK SMILES Oc1cc(O)c2cc(O)c(-c3cc(O)c(O)c(O)c3)[o+]c2c1.[Cl-]
REMARK SMILES IDX 10 1 20 2 21 3 22 4 2 5 3 6 4 7 6 8 7 9 8 10 11 11 12 12
REMARK SMILES IDX 13 13 19 14 15 15 17 16 14 17 16 19 18 21 9 23 1 25 5 27
REMARK H PARENT 14 18 16 20 18 22 9 24 1 26 5 28
REMARK Flexibility Score: inf
ROOT
ATOM      1  C   UNL     1      28.504  -9.723  16.531  1.00  0.00     0.402 A 
ATOM      2  O   UNL     1      29.345  -9.886  15.513  1.00  0.00    -0.202 OA
ATOM      3  C   UNL     1      28.949 -10.168  14.276  1.00  0.00     0.368 A 
ATOM      4  C   UNL     1      29.910 -10.324  13.273  1.00  0.00     0.162 A 
ATOM      5  C   UNL     1      29.523 -10.623  11.966  1.00  0.00     0.128 A 
ATOM      6  C   UNL     1      28.166 -10.769  11.657  1.00  0.00     0.093 A 
ATOM      7  C   UNL     1      27.184 -10.618  12.644  1.00  0.00     0.136 A 
ATOM      8  C   UNL     1      27.574 -10.312  13.975  1.00  0.00     0.125 A 
ATOM      9  C   UNL     1      26.658 -10.129  15.024  1.00  0.00     0.078 A 
ATOM     10  C   UNL     1      27.118  -9.824  16.309  1.00  0.00     0.223 A 
ENDROOT
BRANCH   1  11
ATOM     11  C   UNL     1      29.069  -9.421  17.865  1.00  0.00     0.091 A 
ATOM     12  C   UNL     1      29.588  -8.150  18.168  1.00  0.00     0.068 A 
ATOM     13  C   UNL     1      30.099  -7.876  19.445  1.00  0.00     0.162 A 
ATOM     14  C   UNL     1      29.038 -10.402  18.866  1.00  0.00     0.068 A 
ATOM     15  C   UNL     1      30.083  -8.872  20.435  1.00  0.00     0.200 A 
ATOM     16  C   UNL     1      29.549 -10.135  20.144  1.00  0.00     0.162 A 
BRANCH  13  17
ATOM     17  O   UNL     1      30.617  -6.613  19.735  1.00  0.00    -0.504 OA
ATOM     18  H   UNL     1      31.559  -6.352  19.470  1.00  0.00     0.293 HD
ENDBRANCH  13  17
BRANCH  15  19
ATOM     19  O   UNL     1      30.590  -8.625  21.710  1.00  0.00    -0.502 OA
ATOM     20  H   UNL     1      31.518  -8.920  21.989  1.00  0.00     0.293 HD
ENDBRANCH  15  19
BRANCH  16  21
ATOM     21  O   UNL     1      29.529 -11.119  21.131  1.00  0.00    -0.504 OA
ATOM     22  H   UNL     1      30.192 -11.884  21.130  1.00  0.00     0.293 HD
ENDBRANCH  16  21
ENDBRANCH   1  11
BRANCH  10  23
ATOM     23  O   UNL     1      26.208  -9.594  17.341  1.00  0.00    -0.500 OA
ATOM     24  H   UNL     1      25.565  -8.811  17.320  1.00  0.00     0.294 HD
ENDBRANCH  10  23
BRANCH   5  25
ATOM     25  O   UNL     1      30.496 -10.774  10.981  1.00  0.00    -0.507 OA
ATOM     26  H   UNL     1      31.424 -11.114  11.201  1.00  0.00     0.293 HD
ENDBRANCH   5  25
BRANCH   7  27
ATOM     27  O   UNL     1      25.852 -10.784  12.257  1.00  0.00    -0.507 OA
ATOM     28  H   UNL     1      25.115 -11.103  12.869  1.00  0.00     0.293 HD
ENDBRANCH   7  27
TORSDOF 7
ENDMDL
MODEL 2
REMARK VINA RESULT:    -2.203      0.531      1.850
REMARK INTER + INTRA:          -3.025
REMARK INTER:                  -2.645
REMARK INTRA:                  -0.380
REMARK UNBOUND:                -0.307
REMARK SMILES Oc1cc(O)c2cc(O)c(-c3cc(O)c(O)c(O)c3)[o+]c2c1.[Cl-]
REMARK SMILES IDX 10 1 20 2 21 3 22 4 2 5 3 6 4 7 6 8 7 9 8 10 11 11 12 12
REMARK SMILES IDX 13 13 19 14 15 15 17 16 14 17 16 19 18 21 9 23 1 25 5 27
REMARK H PARENT 14 18 16 20 18 22 9 24 1 26 5 28
REMARK Flexibility Score: inf
ROOT
ATOM      1  C   UNL     1      28.634  -9.494  16.842  1.00  0.00     0.402 A 
ATOM      2  O   UNL     1      29.428  -9.686  15.792  1.00  0.00    -0.202 OA
ATOM      3  C   UNL     1      28.979 -10.036  14.591  1.00  0.00     0.368 A 
ATOM      4  C   UNL     1      29.893 -10.218  13.549  1.00  0.00     0.162 A 
ATOM      5  C   UNL     1      29.450 -10.588  12.279  1.00  0.00     0.128 A 
ATOM      6  C   UNL     1      28.083 -10.781  12.047  1.00  0.00     0.093 A 
ATOM      7  C   UNL     1      27.148 -10.606  13.073  1.00  0.00     0.136 A 
ATOM      8  C   UNL     1      27.594 -10.226  14.367  1.00  0.00     0.125 A 
ATOM      9  C   UNL     1      26.728 -10.015  15.452  1.00  0.00     0.078 A 
ATOM     10  C   UNL     1      27.242  -9.638  16.696  1.00  0.00     0.223 A 
ENDROOT
BRANCH   1  11
ATOM     11  C   UNL     1      29.256  -9.115  18.131  1.00  0.00     0.091 A 
ATOM     12  C   UNL     1      29.533 -10.074  19.120  1.00  0.00     0.068 A 
ATOM     13  C   UNL     1      30.144  -9.699  20.325  1.00  0.00     0.162 A 
ATOM     14  C   UNL     1      29.631  -7.780  18.350  1.00  0.00     0.068 A 
ATOM     15  C   UNL     1      30.495  -8.357  20.545  1.00  0.00     0.200 A 
ATOM     16  C   UNL     1      30.240  -7.399  19.554  1.00  0.00     0.162 A 
BRANCH  13  17
ATOM     17  O   UNL     1      30.409 -10.658  21.303  1.00  0.00    -0.504 OA
ATOM     18  H   UNL     1      30.879 -11.527  21.081  1.00  0.00     0.293 HD
ENDBRANCH  13  17
BRANCH  15  19
ATOM     19  O   UNL     1      31.099  -7.959  21.737  1.00  0.00    -0.502 OA
ATOM     20  H   UNL     1      31.468  -8.626  22.403  1.00  0.00     0.293 HD
ENDBRANCH  15  19
BRANCH  16  21
ATOM     21  O   UNL     1      30.596  -6.069  19.773  1.00  0.00    -0.504 OA
ATOM     22  H   UNL     1      30.335  -5.337  19.124  1.00  0.00     0.293 HD
ENDBRANCH  16  21
ENDBRANCH   1  11
BRANCH  10  23
ATOM     23  O   UNL     1      26.378  -9.380  17.760  1.00  0.00    -0.500 OA
ATOM     24  H   UNL     1      25.771 -10.097  18.140  1.00  0.00     0.294 HD
ENDBRANCH  10  23
BRANCH   5  25
ATOM     25  O   UNL     1      30.376 -10.764  11.254  1.00  0.00    -0.507 OA
ATOM     26  H   UNL     1      30.253 -10.328  10.348  1.00  0.00     0.293 HD
ENDBRANCH   5  25
BRANCH   7  27
ATOM     27  O   UNL     1      25.803 -10.821  12.762  1.00  0.00    -0.507 OA
ATOM     28  H   UNL     1      25.348 -11.722  12.784  1.00  0.00     0.293 HD
ENDBRANCH   7  27
TORSDOF 7
ENDMDL
MODEL 3
REMARK VINA RESULT:    -2.026      2.061      7.353
REMARK INTER + INTRA:          -2.807
REMARK INTER:                  -2.444
REMARK INTRA:                  -0.363
REMARK UNBOUND:                -0.307
REMARK SMILES Oc1cc(O)c2cc(O)c(-c3cc(O)c(O)c(O)c3)[o+]c2c1.[Cl-]
REMARK SMILES IDX 10 1 20 2 21 3 22 4 2 5 3 6 4 7 6 8 7 9 8 10 11 11 12 12
REMARK SMILES IDX 13 13 19 14 15 15 17 16 14 17 16 19 18 21 9 23 1 25 5 27
REMARK H PARENT 14 18 16 20 18 22 9 24 1 26 5 28
REMARK Flexibility Score: inf
ROOT
ATOM      1  C   UNL     1      28.722  -9.708  14.974  1.00  0.00     0.402 A 
ATOM      2  O   UNL     1      27.593  -9.994  15.617  1.00  0.00    -0.202 OA
ATOM      3  C   UNL     1      27.540 -10.259  16.918  1.00  0.00     0.368 A 
ATOM      4  C   UNL     1      26.305 -10.552  17.504  1.00  0.00     0.162 A 
ATOM      5  C   UNL     1      26.221 -10.836  18.867  1.00  0.00     0.128 A 
ATOM      6  C   UNL     1      27.380 -10.831  19.653  1.00  0.00     0.093 A 
ATOM      7  C   UNL     1      28.628 -10.542  19.090  1.00  0.00     0.136 A 
ATOM      8  C   UNL     1      28.718 -10.249  17.704  1.00  0.00     0.125 A 
ATOM      9  C   UNL     1      29.925  -9.934  17.058  1.00  0.00     0.078 A 
ATOM     10  C   UNL     1      29.933  -9.652  15.688  1.00  0.00     0.223 A 
ENDROOT
BRANCH   1  11
ATOM     11  C   UNL     1      28.651  -9.441  13.520  1.00  0.00     0.091 A 
ATOM     12  C   UNL     1      29.021 -10.416  12.578  1.00  0.00     0.068 A 
ATOM     13  C   UNL     1      28.925 -10.151  11.204  1.00  0.00     0.162 A 
ATOM     14  C   UNL     1      28.151  -8.210  13.068  1.00  0.00     0.068 A 
ATOM     15  C   UNL     1      28.445  -8.907  10.761  1.00  0.00     0.200 A 
ATOM     16  C   UNL     1      28.055  -7.939  11.696  1.00  0.00     0.162 A 
BRANCH  13  17
ATOM     17  O   UNL     1      29.301 -11.124  10.277  1.00  0.00    -0.504 OA
ATOM     18  H   UNL     1      29.595 -12.049  10.567  1.00  0.00     0.293 HD
ENDBRANCH  13  17
BRANCH  15  19
ATOM     19  O   UNL     1      28.345  -8.620   9.400  1.00  0.00    -0.502 OA
ATOM     20  H   UNL     1      27.878  -7.790   9.058  1.00  0.00     0.293 HD
ENDBRANCH  15  19
BRANCH  16  21
ATOM     21  O   UNL     1      27.571  -6.709  11.253  1.00  0.00    -0.504 OA
ATOM     22  H   UNL     1      27.438  -5.932  11.889  1.00  0.00     0.293 HD
ENDBRANCH  16  21
ENDBRANCH   1  11
BRANCH  10  23
ATOM     23  O   UNL     1      31.123  -9.291  15.056  1.00  0.00    -0.500 OA
ATOM     24  H   UNL     1      31.543  -9.871  14.339  1.00  0.00     0.294 HD
ENDBRANCH  10  23
BRANCH   5  25
ATOM     25  O   UNL     1      24.982 -11.125  19.432  1.00  0.00    -0.507 OA
ATOM     26  H   UNL     1      24.443 -11.932  19.142  1.00  0.00     0.293 HD
ENDBRANCH   5  25
BRANCH   7  27
ATOM     27  O   UNL     1      29.738 -10.560  19.940  1.00  0.00    -0.507 OA
ATOM     28  H   UNL     1      29.698 -10.772  20.927  1.00  0.00     0.293 HD
ENDBRANCH   7  27
TORSDOF 7
ENDMDL
MODEL 4
REMARK VINA RESULT:    -2.020      1.958      6.747
REMARK INTER + INTRA:          -2.799
REMARK INTER:                  -2.419
REMARK INTRA:                  -0.380
REMARK UNBOUND:                -0.307
REMARK SMILES Oc1cc(O)c2cc(O)c(-c3cc(O)c(O)c(O)c3)[o+]c2c1.[Cl-]
REMARK SMILES IDX 10 1 20 2 21 3 22 4 2 5 3 6 4 7 6 8 7 9 8 10 11 11 12 12
REMARK SMILES IDX 13 13 19 14 15 15 17 16 14 17 16 19 18 21 9 23 1 25 5 27
REMARK H PARENT 14 18 16 20 18 22 9 24 1 26 5 28
REMARK Flexibility Score: inf
ROOT
ATOM      1  C   UNL     1      28.311  -9.549  15.160  1.00  0.00     0.402 A 
ATOM      2  O   UNL     1      29.275  -9.524  16.077  1.00  0.00    -0.202 OA
ATOM      3  C   UNL     1      29.074  -9.820  17.356  1.00  0.00     0.368 A 
ATOM      4  C   UNL     1      30.151  -9.762  18.245  1.00  0.00     0.162 A 
ATOM      5  C   UNL     1      29.969 -10.065  19.595  1.00  0.00     0.128 A 
ATOM      6  C   UNL     1      28.700 -10.428  20.062  1.00  0.00     0.093 A 
ATOM      7  C   UNL     1      27.605 -10.493  19.192  1.00  0.00     0.136 A 
ATOM      8  C   UNL     1      27.787 -10.188  17.818  1.00  0.00     0.125 A 
ATOM      9  C   UNL     1      26.751 -10.240  16.871  1.00  0.00     0.078 A 
ATOM     10  C   UNL     1      27.008  -9.930  15.532  1.00  0.00     0.223 A 
ENDROOT
BRANCH   1  11
ATOM     11  C   UNL     1      28.659  -9.189  13.767  1.00  0.00     0.091 A 
ATOM     12  C   UNL     1      28.439  -7.893  13.270  1.00  0.00     0.068 A 
ATOM     13  C   UNL     1      28.796  -7.564  11.954  1.00  0.00     0.162 A 
ATOM     14  C   UNL     1      29.273 -10.142  12.940  1.00  0.00     0.068 A 
ATOM     15  C   UNL     1      29.391  -8.532  11.127  1.00  0.00     0.200 A 
ATOM     16  C   UNL     1      29.632  -9.819  11.624  1.00  0.00     0.162 A 
BRANCH  13  17
ATOM     17  O   UNL     1      28.568  -6.276  11.469  1.00  0.00    -0.504 OA
ATOM     18  H   UNL     1      27.644  -5.860  11.481  1.00  0.00     0.293 HD
ENDBRANCH  13  17
BRANCH  15  19
ATOM     19  O   UNL     1      29.750  -8.230   9.814  1.00  0.00    -0.502 OA
ATOM     20  H   UNL     1      29.131  -7.733   9.186  1.00  0.00     0.293 HD
ENDBRANCH  15  19
BRANCH  16  21
ATOM     21  O   UNL     1      30.228 -10.774  10.802  1.00  0.00    -0.504 OA
ATOM     22  H   UNL     1      30.251 -10.668   9.795  1.00  0.00     0.293 HD
ENDBRANCH  16  21
ENDBRANCH   1  11
BRANCH  10  23
ATOM     23  O   UNL     1      25.991 -10.029  14.583  1.00  0.00    -0.500 OA
ATOM     24  H   UNL     1      25.691 -10.924  14.215  1.00  0.00     0.294 HD
ENDBRANCH  10  23
BRANCH   5  25
ATOM     25  O   UNL     1      31.054 -10.001  20.465  1.00  0.00    -0.507 OA
ATOM     26  H   UNL     1      31.115 -10.598  21.281  1.00  0.00     0.293 HD
ENDBRANCH   5  25
BRANCH   7  27
ATOM     27  O   UNL     1      26.371 -10.859  19.736  1.00  0.00    -0.507 OA
ATOM     28  H   UNL     1      26.257 -11.387  20.589  1.00  0.00     0.293 HD
ENDBRANCH   7  27
TORSDOF 7
ENDMDL
MODEL 5
REMARK VINA RESULT:    -1.934      3.052      6.728
REMARK INTER + INTRA:          -2.693
REMARK INTER:                  -2.312
REMARK INTRA:                  -0.381
REMARK UNBOUND:                -0.307
REMARK SMILES Oc1cc(O)c2cc(O)c(-c3cc(O)c(O)c(O)c3)[o+]c2c1.[Cl-]
REMARK SMILES IDX 10 1 20 2 21 3 22 4 2 5 3 6 4 7 6 8 7 9 8 10 11 11 12 12
REMARK SMILES IDX 13 13 19 14 15 15 17 16 14 17 16 19 18 21 9 23 1 25 5 27
REMARK H PARENT 14 18 16 20 18 22 9 24 1 26 5 28
REMARK Flexibility Score: inf
ROOT
ATOM      1  C   UNL     1      26.182  -9.744  15.238  1.00  0.00     0.402 A 
ATOM      2  O   UNL     1      26.814  -9.776  16.408  1.00  0.00    -0.202 OA
ATOM      3  C   UNL     1      28.108 -10.054  16.532  1.00  0.00     0.368 A 
ATOM      4  C   UNL     1      28.683 -10.066  17.806  1.00  0.00     0.162 A 
ATOM      5  C   UNL     1      30.037 -10.359  17.965  1.00  0.00     0.128 A 
ATOM      6  C   UNL     1      30.826 -10.644  16.844  1.00  0.00     0.093 A 
ATOM      7  C   UNL     1      30.274 -10.639  15.558  1.00  0.00     0.136 A 
ATOM      8  C   UNL     1      28.896 -10.339  15.391  1.00  0.00     0.125 A 
ATOM      9  C   UNL     1      28.261 -10.298  14.139  1.00  0.00     0.078 A 
ATOM     10  C   UNL     1      26.899  -9.990  14.053  1.00  0.00     0.223 A 
ENDROOT
BRANCH   1  11
ATOM     11  C   UNL     1      24.735  -9.429  15.232  1.00  0.00     0.091 A 
ATOM     12  C   UNL     1      23.767 -10.437  15.384  1.00  0.00     0.068 A 
ATOM     13  C   UNL     1      22.402 -10.116  15.399  1.00  0.00     0.162 A 
ATOM     14  C   UNL     1      24.320  -8.093  15.130  1.00  0.00     0.068 A 
ATOM     15  C   UNL     1      21.995  -8.777  15.274  1.00  0.00     0.200 A 
ATOM     16  C   UNL     1      22.957  -7.766  15.143  1.00  0.00     0.162 A 
BRANCH  13  17
ATOM     17  O   UNL     1      21.448 -11.124  15.544  1.00  0.00    -0.504 OA
ATOM     18  H   UNL     1      20.851 -11.177  16.360  1.00  0.00     0.293 HD
ENDBRANCH  13  17
BRANCH  15  19
ATOM     19  O   UNL     1      20.643  -8.435  15.281  1.00  0.00    -0.502 OA
ATOM     20  H   UNL     1      19.984  -8.856  15.924  1.00  0.00     0.293 HD
ENDBRANCH  15  19
BRANCH  16  21
ATOM     21  O   UNL     1      22.549  -6.438  15.027  1.00  0.00    -0.504 OA
ATOM     22  H   UNL     1      21.771  -6.173  14.435  1.00  0.00     0.293 HD
ENDBRANCH  16  21
ENDBRANCH   1  11
BRANCH  10  23
ATOM     23  O   UNL     1      26.280  -9.900  12.806  1.00  0.00    -0.500 OA
ATOM     24  H   UNL     1      26.681  -9.359  12.050  1.00  0.00     0.294 HD
ENDBRANCH  10  23
BRANCH   5  25
ATOM     25  O   UNL     1      30.591 -10.365  19.243  1.00  0.00    -0.507 OA
ATOM     26  H   UNL     1      31.025  -9.539  19.637  1.00  0.00     0.293 HD
ENDBRANCH   5  25
BRANCH   7  27
ATOM     27  O   UNL     1      31.125 -10.938  14.491  1.00  0.00    -0.507 OA
ATOM     28  H   UNL     1      30.828 -11.364  13.625  1.00  0.00     0.293 HD
ENDBRANCH   7  27
TORSDOF 7
ENDMDL
MODEL 6
REMARK VINA RESULT:    -1.905      3.052      6.622
REMARK INTER + INTRA:          -2.657
REMARK INTER:                  -2.281
REMARK INTRA:                  -0.376
REMARK UNBOUND:                -0.307
REMARK SMILES Oc1cc(O)c2cc(O)c(-c3cc(O)c(O)c(O)c3)[o+]c2c1.[Cl-]
REMARK SMILES IDX 10 1 20 2 21 3 22 4 2 5 3 6 4 7 6 8 7 9 8 10 11 11 12 12
REMARK SMILES IDX 13 13 19 14 15 15 17 16 14 17 16 19 18 21 9 23 1 25 5 27
REMARK H PARENT 14 18 16 20 18 22 9 24 1 26 5 28
REMARK Flexibility Score: inf
ROOT
ATOM      1  C   UNL     1      26.186  -9.696  15.163  1.00  0.00     0.402 A 
ATOM      2  O   UNL     1      26.761  -9.725  16.363  1.00  0.00    -0.202 OA
ATOM      3  C   UNL     1      28.039 -10.035  16.553  1.00  0.00     0.368 A 
ATOM      4  C   UNL     1      28.552 -10.041  17.853  1.00  0.00     0.162 A 
ATOM      5  C   UNL     1      29.889 -10.367  18.082  1.00  0.00     0.128 A 
ATOM      6  C   UNL     1      30.722 -10.692  17.005  1.00  0.00     0.093 A 
ATOM      7  C   UNL     1      30.232 -10.694  15.694  1.00  0.00     0.136 A 
ATOM      8  C   UNL     1      28.873 -10.360  15.456  1.00  0.00     0.125 A 
ATOM      9  C   UNL     1      28.300 -10.323  14.174  1.00  0.00     0.078 A 
ATOM     10  C   UNL     1      26.953  -9.981  14.018  1.00  0.00     0.223 A 
ENDROOT
BRANCH   1  11
ATOM     11  C   UNL     1      24.751  -9.343  15.083  1.00  0.00     0.091 A 
ATOM     12  C   UNL     1      24.330  -8.004  15.000  1.00  0.00     0.068 A 
ATOM     13  C   UNL     1      22.967  -7.690  14.902  1.00  0.00     0.162 A 
ATOM     14  C   UNL     1      23.790 -10.364  15.032  1.00  0.00     0.068 A 
ATOM     15  C   UNL     1      22.011  -8.720  14.874  1.00  0.00     0.200 A 
ATOM     16  C   UNL     1      22.426 -10.057  14.936  1.00  0.00     0.162 A 
BRANCH  13  17
ATOM     17  O   UNL     1      22.560  -6.358  14.827  1.00  0.00    -0.504 OA
ATOM     18  H   UNL     1      23.010  -5.633  15.373  1.00  0.00     0.293 HD
ENDBRANCH  13  17
BRANCH  15  19
ATOM     19  O   UNL     1      20.650  -8.432  14.782  1.00  0.00    -0.502 OA
ATOM     20  H   UNL     1      20.275  -7.520  15.010  1.00  0.00     0.293 HD
ENDBRANCH  15  19
BRANCH  16  21
ATOM     21  O   UNL     1      21.475 -11.076  14.901  1.00  0.00    -0.504 OA
ATOM     22  H   UNL     1      21.381 -11.739  15.660  1.00  0.00     0.293 HD
ENDBRANCH  16  21
ENDBRANCH   1  11
BRANCH  10  23
ATOM     23  O   UNL     1      26.396  -9.896  12.742  1.00  0.00    -0.500 OA
ATOM     24  H   UNL     1      26.312  -9.011  12.255  1.00  0.00     0.294 HD
ENDBRANCH  10  23
BRANCH   5  25
ATOM     25  O   UNL     1      30.381 -10.366  19.385  1.00  0.00    -0.507 OA
ATOM     26  H   UNL     1      29.760 -10.380  20.186  1.00  0.00     0.293 HD
ENDBRANCH   5  25
BRANCH   7  27
ATOM     27  O   UNL     1      31.125 -11.032  14.674  1.00  0.00    -0.507 OA
ATOM     28  H   UNL     1      31.290 -10.472  13.850  1.00  0.00     0.293 HD
ENDBRANCH   7  27
TORSDOF 7
ENDMDL
MODEL 7
REMARK VINA RESULT:    -1.842      1.925      7.132
REMARK INTER + INTRA:          -2.580
REMARK INTER:                  -2.227
REMARK INTRA:                  -0.353
REMARK UNBOUND:                -0.307
REMARK SMILES Oc1cc(O)c2cc(O)c(-c3cc(O)c(O)c(O)c3)[o+]c2c1.[Cl-]
REMARK SMILES IDX 10 1 20 2 21 3 22 4 2 5 3 6 4 7 6 8 7 9 8 10 11 11 12 12
REMARK SMILES IDX 13 13 19 14 15 15 17 16 14 17 16 19 18 21 9 23 1 25 5 27
REMARK H PARENT 14 18 16 20 18 22 9 24 1 26 5 28
REMARK Flexibility Score: inf
ROOT
ATOM      1  C   UNL     1      27.756  -9.742  14.014  1.00  0.00     0.402 A 
ATOM      2  O   UNL     1      28.577  -9.892  15.051  1.00  0.00    -0.202 OA
ATOM      3  C   UNL     1      28.157 -10.167  16.281  1.00  0.00     0.368 A 
ATOM      4  C   UNL     1      29.097 -10.304  17.306  1.00  0.00     0.162 A 
ATOM      5  C   UNL     1      28.684 -10.589  18.608  1.00  0.00     0.128 A 
ATOM      6  C   UNL     1      27.321 -10.738  18.890  1.00  0.00     0.093 A 
ATOM      7  C   UNL     1      26.360 -10.605  17.881  1.00  0.00     0.136 A 
ATOM      8  C   UNL     1      26.776 -10.318  16.554  1.00  0.00     0.125 A 
ATOM      9  C   UNL     1      25.884 -10.181  15.478  1.00  0.00     0.078 A 
ATOM     10  C   UNL     1      26.370  -9.902  14.197  1.00  0.00     0.223 A 
ENDROOT
BRANCH   1  11
ATOM     11  C   UNL     1      28.346  -9.428  12.693  1.00  0.00     0.091 A 
ATOM     12  C   UNL     1      28.896 -10.434  11.880  1.00  0.00     0.068 A 
ATOM     13  C   UNL     1      29.430 -10.120  10.622  1.00  0.00     0.162 A 
ATOM     14  C   UNL     1      28.308  -8.109  12.216  1.00  0.00     0.068 A 
ATOM     15  C   UNL     1      29.407  -8.793  10.162  1.00  0.00     0.200 A 
ATOM     16  C   UNL     1      28.842  -7.789  10.960  1.00  0.00     0.162 A 
BRANCH  13  17
ATOM     17  O   UNL     1      29.979 -11.125   9.825  1.00  0.00    -0.504 OA
ATOM     18  H   UNL     1      30.910 -11.488   9.993  1.00  0.00     0.293 HD
ENDBRANCH  13  17
BRANCH  15  19
ATOM     19  O   UNL     1      29.937  -8.456   8.917  1.00  0.00    -0.502 OA
ATOM     20  H   UNL     1      30.560  -9.073   8.411  1.00  0.00     0.293 HD
ENDBRANCH  15  19
BRANCH  16  21
ATOM     21  O   UNL     1      28.815  -6.475  10.497  1.00  0.00    -0.504 OA
ATOM     22  H   UNL     1      27.982  -5.902  10.575  1.00  0.00     0.293 HD
ENDBRANCH  16  21
ENDBRANCH   1  11
BRANCH  10  23
ATOM     23  O   UNL     1      25.489  -9.815  13.118  1.00  0.00    -0.500 OA
ATOM     24  H   UNL     1      24.874  -9.019  12.995  1.00  0.00     0.294 HD
ENDBRANCH  10  23
BRANCH   5  25
ATOM     25  O   UNL     1      29.636 -10.722  19.616  1.00  0.00    -0.507 OA
ATOM     26  H   UNL     1      29.685 -11.554  20.192  1.00  0.00     0.293 HD
ENDBRANCH   5  25
BRANCH   7  27
ATOM     27  O   UNL     1      25.020 -10.764  18.243  1.00  0.00    -0.507 OA
ATOM     28  H   UNL     1      24.603 -11.642  18.519  1.00  0.00     0.293 HD
ENDBRANCH   7  27
TORSDOF 7
ENDMDL
MODEL 8
REMARK VINA RESULT:    -1.801      3.237      6.386
REMARK INTER + INTRA:          -2.529
REMARK INTER:                  -2.156
REMARK INTRA:                  -0.373
REMARK UNBOUND:                -0.307
REMARK SMILES Oc1cc(O)c2cc(O)c(-c3cc(O)c(O)c(O)c3)[o+]c2c1.[Cl-]
REMARK SMILES IDX 10 1 20 2 21 3 22 4 2 5 3 6 4 7 6 8 7 9 8 10 11 11 12 12
REMARK SMILES IDX 13 13 19 14 15 15 17 16 14 17 16 19 18 21 9 23 1 25 5 27
REMARK H PARENT 14 18 16 20 18 22 9 24 1 26 5 28
REMARK Flexibility Score: inf
ROOT
ATOM      1  C   UNL     1      26.022  -9.555  17.321  1.00  0.00     0.402 A 
ATOM      2  O   UNL     1      26.868  -9.787  16.320  1.00  0.00    -0.202 OA
ATOM      3  C   UNL     1      28.162 -10.026  16.498  1.00  0.00     0.368 A 
ATOM      4  C   UNL     1      28.972 -10.255  15.382  1.00  0.00     0.162 A 
ATOM      5  C   UNL     1      30.335 -10.506  15.540  1.00  0.00     0.128 A 
ATOM      6  C   UNL     1      30.897 -10.526  16.822  1.00  0.00     0.093 A 
ATOM      7  C   UNL     1      30.108 -10.299  17.955  1.00  0.00     0.136 A 
ATOM      8  C   UNL     1      28.719 -10.046  17.800  1.00  0.00     0.125 A 
ATOM      9  C   UNL     1      27.850  -9.821  18.880  1.00  0.00     0.078 A 
ATOM     10  C   UNL     1      26.491  -9.584  18.648  1.00  0.00     0.223 A 
ENDROOT
BRANCH   1  11
ATOM     11  C   UNL     1      24.603  -9.292  16.993  1.00  0.00     0.091 A 
ATOM     12  C   UNL     1      23.685 -10.343  16.823  1.00  0.00     0.068 A 
ATOM     13  C   UNL     1      22.339 -10.074  16.534  1.00  0.00     0.162 A 
ATOM     14  C   UNL     1      24.149  -7.968  16.903  1.00  0.00     0.068 A 
ATOM     15  C   UNL     1      21.899  -8.744  16.424  1.00  0.00     0.200 A 
ATOM     16  C   UNL     1      22.805  -7.693  16.613  1.00  0.00     0.162 A 
BRANCH  13  17
ATOM     17  O   UNL     1      21.437 -11.124  16.361  1.00  0.00    -0.504 OA
ATOM     18  H   UNL     1      21.466 -11.720  15.543  1.00  0.00     0.293 HD
ENDBRANCH  13  17
BRANCH  15  19
ATOM     19  O   UNL     1      20.567  -8.452  16.133  1.00  0.00    -0.502 OA
ATOM     20  H   UNL     1      20.148  -8.679  15.239  1.00  0.00     0.293 HD
ENDBRANCH  15  19
BRANCH  16  21
ATOM     21  O   UNL     1      22.362  -6.375  16.510  1.00  0.00    -0.504 OA
ATOM     22  H   UNL     1      21.745  -6.080  15.764  1.00  0.00     0.293 HD
ENDBRANCH  16  21
ENDBRANCH   1  11
BRANCH  10  23
ATOM     23  O   UNL     1      25.619  -9.409  19.722  1.00  0.00    -0.500 OA
ATOM     24  H   UNL     1      24.881  -8.715  19.702  1.00  0.00     0.294 HD
ENDBRANCH  10  23
BRANCH   5  25
ATOM     25  O   UNL     1      31.125 -10.732  14.415  1.00  0.00    -0.507 OA
ATOM     26  H   UNL     1      30.752 -11.181  13.587  1.00  0.00     0.293 HD
ENDBRANCH   5  25
BRANCH   7  27
ATOM     27  O   UNL     1      30.743 -10.332  19.199  1.00  0.00    -0.507 OA
ATOM     28  H   UNL     1      31.185  -9.536  19.637  1.00  0.00     0.293 HD
ENDBRANCH   7  27
TORSDOF 7
ENDMDL
MODEL 9
REMARK VINA RESULT:    -1.767      1.324      2.543
REMARK INTER + INTRA:          -2.487
REMARK INTER:                  -2.206
REMARK INTRA:                  -0.281
REMARK UNBOUND:                -0.307
REMARK SMILES Oc1cc(O)c2cc(O)c(-c3cc(O)c(O)c(O)c3)[o+]c2c1.[Cl-]
REMARK SMILES IDX 10 1 20 2 21 3 22 4 2 5 3 6 4 7 6 8 7 9 8 10 11 11 12 12
REMARK SMILES IDX 13 13 19 14 15 15 17 16 14 17 16 19 18 21 9 23 1 25 5 27
REMARK H PARENT 14 18 16 20 18 22 9 24 1 26 5 28
REMARK Flexibility Score: inf
ROOT
ATOM      1  C   UNL     1      28.867  -9.530  16.870  1.00  0.00     0.402 A 
ATOM      2  O   UNL     1      27.756  -9.310  16.171  1.00  0.00    -0.202 OA
ATOM      3  C   UNL     1      27.628  -9.623  14.886  1.00  0.00     0.368 A 
ATOM      4  C   UNL     1      26.421  -9.350  14.237  1.00  0.00     0.162 A 
ATOM      5  C   UNL     1      26.260  -9.665  12.887  1.00  0.00     0.128 A 
ATOM      6  C   UNL     1      27.312 -10.256  12.179  1.00  0.00     0.093 A 
ATOM      7  C   UNL     1      28.531 -10.538  12.806  1.00  0.00     0.136 A 
ATOM      8  C   UNL     1      28.699 -10.222  14.180  1.00  0.00     0.125 A 
ATOM      9  C   UNL     1      29.880 -10.482  14.894  1.00  0.00     0.078 A 
ATOM     10  C   UNL     1      29.969 -10.146  16.248  1.00  0.00     0.223 A 
ENDROOT
BRANCH   1  11
ATOM     11  C   UNL     1      28.889  -9.128  18.295  1.00  0.00     0.091 A 
ATOM     12  C   UNL     1      28.903  -7.774  18.672  1.00  0.00     0.068 A 
ATOM     13  C   UNL     1      28.901  -7.412  20.027  1.00  0.00     0.162 A 
ATOM     14  C   UNL     1      28.839 -10.114  19.291  1.00  0.00     0.068 A 
ATOM     15  C   UNL     1      28.873  -8.408  21.018  1.00  0.00     0.200 A 
ATOM     16  C   UNL     1      28.838  -9.759  20.647  1.00  0.00     0.162 A 
BRANCH  13  17
ATOM     17  O   UNL     1      28.921  -6.066  20.392  1.00  0.00    -0.504 OA
ATOM     18  H   UNL     1      29.184  -5.342  19.734  1.00  0.00     0.293 HD
ENDBRANCH  13  17
BRANCH  15  19
ATOM     19  O   UNL     1      28.875  -8.073  22.372  1.00  0.00    -0.502 OA
ATOM     20  H   UNL     1      28.124  -7.543  22.797  1.00  0.00     0.293 HD
ENDBRANCH  15  19
BRANCH  16  21
ATOM     21  O   UNL     1      28.802 -10.744  21.634  1.00  0.00    -0.504 OA
ATOM     22  H   UNL     1      27.939 -11.210  21.886  1.00  0.00     0.293 HD
ENDBRANCH  16  21
ENDBRANCH   1  11
BRANCH  10  23
ATOM     23  O   UNL     1      31.124 -10.449  16.970  1.00  0.00    -0.500 OA
ATOM     24  H   UNL     1      31.899 -10.947  16.549  1.00  0.00     0.294 HD
ENDBRANCH  10  23
BRANCH   5  25
ATOM     25  O   UNL     1      25.049  -9.385  12.258  1.00  0.00    -0.507 OA
ATOM     26  H   UNL     1      24.248  -9.046  12.777  1.00  0.00     0.293 HD
ENDBRANCH   5  25
BRANCH   7  27
ATOM     27  O   UNL     1      29.534 -11.125  12.030  1.00  0.00    -0.507 OA
ATOM     28  H   UNL     1      29.737 -12.114  12.012  1.00  0.00     0.293 HD
ENDBRANCH   7  27
TORSDOF 7
ENDMDL
