MODEL 1
REMARK VINA RESULT:    -5.768      0.000      0.000
REMARK INTER + INTRA:          -6.774
REMARK INTER:                  -6.948
REMARK INTRA:                   0.174
REMARK UNBOUND:                 0.174
REMARK SMILES O=c1c(O)c(-c2ccc(O)c(O)c2)oc2cc(O)cc(O)c12
REMARK SMILES IDX 5 1 3 2 2 3 1 4 22 5 20 6 19 7 17 8 16 9 15 10 14 11 6 12
REMARK SMILES IDX 7 13 8 14 9 15 13 16 11 17 10 18 12 20 4 22 21 24 18 26
REMARK H PARENT 10 19 12 21 4 23 21 25 18 27
REMARK Flexibility Score: inf
ROOT
ATOM      1  C   UNL     1      24.780   0.078  62.111  1.00  0.00     0.180 A 
ATOM      2  C   UNL     1      25.813   0.765  62.770  1.00  0.00     0.208 A 
ATOM      3  C   UNL     1      25.496   1.895  63.542  1.00  0.00     0.238 A 
ATOM      4  O   UNL     1      26.418   2.472  64.174  1.00  0.00    -0.285 OA
ATOM      5  C   UNL     1      24.152   2.334  63.630  1.00  0.00     0.111 A 
ATOM      6  C   UNL     1      23.724   3.489  64.350  1.00  0.00     0.134 A 
ATOM      7  C   UNL     1      22.354   3.754  64.476  1.00  0.00     0.093 A 
ATOM      8  C   UNL     1      21.403   2.942  63.854  1.00  0.00     0.123 A 
ATOM      9  C   UNL     1      21.815   1.846  63.100  1.00  0.00     0.094 A 
ATOM     10  C   UNL     1      23.173   1.535  62.985  1.00  0.00     0.146 A 
ATOM     11  O   UNL     1      23.522   0.476  62.267  1.00  0.00    -0.452 OA
ENDROOT
BRANCH   1  12
ATOM     12  C   UNL     1      25.038  -1.106  61.260  1.00  0.00     0.025 A 
ATOM     13  C   UNL     1      26.202  -1.205  60.478  1.00  0.00     0.016 A 
ATOM     14  C   UNL     1      26.413  -2.321  59.664  1.00  0.00     0.051 A 
ATOM     15  C   UNL     1      25.463  -3.345  59.608  1.00  0.00     0.157 A 
ATOM     16  C   UNL     1      24.076  -2.126  61.184  1.00  0.00     0.062 A 
ATOM     17  C   UNL     1      24.287  -3.248  60.368  1.00  0.00     0.158 A 
BRANCH  15  18
ATOM     18  O   UNL     1      25.703  -4.447  58.788  1.00  0.00    -0.504 OA
ATOM     19  H   UNL     1      25.134  -5.284  58.831  1.00  0.00     0.293 HD
ENDBRANCH  15  18
BRANCH  17  20
ATOM     20  O   UNL     1      23.332  -4.262  60.311  1.00  0.00    -0.504 OA
ATOM     21  H   UNL     1      23.415  -5.101  60.872  1.00  0.00     0.293 HD
ENDBRANCH  17  20
ENDBRANCH   1  12
BRANCH   2  22
ATOM     22  O   UNL     1      27.129   0.302  62.688  1.00  0.00    -0.502 OA
ATOM     23  H   UNL     1      27.927   0.926  62.702  1.00  0.00     0.293 HD
ENDBRANCH   2  22
BRANCH   6  24
ATOM     24  O   UNL     1      24.595   4.416  64.930  1.00  0.00    -0.507 OA
ATOM     25  H   UNL     1      25.598   4.324  64.954  1.00  0.00     0.293 HD
ENDBRANCH   6  24
BRANCH   8  26
ATOM     26  O   UNL     1      20.043   3.221  63.972  1.00  0.00    -0.508 OA
ATOM     27  H   UNL     1      19.502   3.560  63.185  1.00  0.00     0.293 HD
ENDBRANCH   8  26
TORSDOF 6
ENDMDL
MODEL 2
REMARK VINA RESULT:    -5.716      1.609      6.448
REMARK INTER + INTRA:          -6.712
REMARK INTER:                  -6.880
REMARK INTRA:                   0.168
REMARK UNBOUND:                 0.174
REMARK SMILES O=c1c(O)c(-c2ccc(O)c(O)c2)oc2cc(O)cc(O)c12
REMARK SMILES IDX 5 1 3 2 2 3 1 4 22 5 20 6 19 7 17 8 16 9 15 10 14 11 6 12
REMARK SMILES IDX 7 13 8 14 9 15 13 16 11 17 10 18 12 20 4 22 21 24 18 26
REMARK H PARENT 10 19 12 21 4 23 21 25 18 27
REMARK Flexibility Score: inf
ROOT
ATOM      1  C   UNL     1      24.805  -0.064  62.177  1.00  0.00     0.180 A 
ATOM      2  C   UNL     1      25.841  -0.760  61.531  1.00  0.00     0.208 A 
ATOM      3  C   UNL     1      25.525  -1.891  60.759  1.00  0.00     0.238 A 
ATOM      4  O   UNL     1      26.450  -2.476  60.139  1.00  0.00    -0.285 OA
ATOM      5  C   UNL     1      24.180  -2.321  60.657  1.00  0.00     0.111 A 
ATOM      6  C   UNL     1      23.751  -3.474  59.936  1.00  0.00     0.134 A 
ATOM      7  C   UNL     1      22.381  -3.730  59.795  1.00  0.00     0.093 A 
ATOM      8  C   UNL     1      21.429  -2.911  60.404  1.00  0.00     0.123 A 
ATOM      9  C   UNL     1      21.840  -1.816  61.160  1.00  0.00     0.094 A 
ATOM     10  C   UNL     1      23.198  -1.513  61.289  1.00  0.00     0.146 A 
ATOM     11  O   UNL     1      23.547  -0.454  62.008  1.00  0.00    -0.452 OA
ENDROOT
BRANCH   1  12
ATOM     12  C   UNL     1      25.062   1.120  63.027  1.00  0.00     0.025 A 
ATOM     13  C   UNL     1      26.212   1.208  63.832  1.00  0.00     0.016 A 
ATOM     14  C   UNL     1      26.421   2.326  64.645  1.00  0.00     0.051 A 
ATOM     15  C   UNL     1      25.483   3.362  64.677  1.00  0.00     0.157 A 
ATOM     16  C   UNL     1      24.112   2.154  63.079  1.00  0.00     0.062 A 
ATOM     17  C   UNL     1      24.321   3.276  63.894  1.00  0.00     0.158 A 
BRANCH  15  18
ATOM     18  O   UNL     1      25.721   4.465  65.496  1.00  0.00    -0.504 OA
ATOM     19  H   UNL     1      25.932   5.381  65.118  1.00  0.00     0.293 HD
ENDBRANCH  15  18
BRANCH  17  20
ATOM     20  O   UNL     1      23.379   4.302  63.927  1.00  0.00    -0.504 OA
ATOM     21  H   UNL     1      23.031   4.732  63.078  1.00  0.00     0.293 HD
ENDBRANCH  17  20
ENDBRANCH   1  12
BRANCH   2  22
ATOM     22  O   UNL     1      27.159  -0.306  61.627  1.00  0.00    -0.502 OA
ATOM     23  H   UNL     1      27.532   0.414  61.019  1.00  0.00     0.293 HD
ENDBRANCH   2  22
BRANCH   6  24
ATOM     24  O   UNL     1      24.623  -4.409  59.369  1.00  0.00    -0.507 OA
ATOM     25  H   UNL     1      24.574  -4.735  58.416  1.00  0.00     0.293 HD
ENDBRANCH   6  24
BRANCH   8  26
ATOM     26  O   UNL     1      20.068  -3.181  60.271  1.00  0.00    -0.508 OA
ATOM     27  H   UNL     1      19.551  -2.901  59.445  1.00  0.00     0.293 HD
ENDBRANCH   8  26
TORSDOF 6
ENDMDL
MODEL 3
REMARK VINA RESULT:    -5.373      0.639      1.478
REMARK INTER + INTRA:          -6.299
REMARK INTER:                  -6.558
REMARK INTRA:                   0.259
REMARK UNBOUND:                 0.174
REMARK SMILES O=c1c(O)c(-c2ccc(O)c(O)c2)oc2cc(O)cc(O)c12
REMARK SMILES IDX 5 1 3 2 2 3 1 4 22 5 20 6 19 7 17 8 16 9 15 10 14 11 6 12
REMARK SMILES IDX 7 13 8 14 9 15 13 16 11 17 10 18 12 20 4 22 21 24 18 26
REMARK H PARENT 10 19 12 21 4 23 21 25 18 27
REMARK Flexibility Score: inf
ROOT
ATOM      1  C   UNL     1      24.706   0.167  62.155  1.00  0.00     0.180 A 
ATOM      2  C   UNL     1      25.740   0.839  62.829  1.00  0.00     0.208 A 
ATOM      3  C   UNL     1      25.424   1.958  63.618  1.00  0.00     0.238 A 
ATOM      4  O   UNL     1      26.347   2.521  64.263  1.00  0.00    -0.285 OA
ATOM      5  C   UNL     1      24.082   2.399  63.711  1.00  0.00     0.111 A 
ATOM      6  C   UNL     1      23.655   3.543  64.449  1.00  0.00     0.134 A 
ATOM      7  C   UNL     1      22.286   3.810  64.576  1.00  0.00     0.093 A 
ATOM      8  C   UNL     1      21.334   3.013  63.938  1.00  0.00     0.123 A 
ATOM      9  C   UNL     1      21.745   1.928  63.167  1.00  0.00     0.094 A 
ATOM     10  C   UNL     1      23.102   1.614  63.050  1.00  0.00     0.146 A 
ATOM     11  O   UNL     1      23.449   0.566  62.315  1.00  0.00    -0.452 OA
ENDROOT
BRANCH   1  12
ATOM     12  C   UNL     1      24.963  -1.003  61.286  1.00  0.00     0.025 A 
ATOM     13  C   UNL     1      24.057  -2.076  61.215  1.00  0.00     0.016 A 
ATOM     14  C   UNL     1      24.333  -3.182  60.406  1.00  0.00     0.051 A 
ATOM     15  C   UNL     1      25.517  -3.239  59.666  1.00  0.00     0.157 A 
ATOM     16  C   UNL     1      26.162  -1.074  60.558  1.00  0.00     0.062 A 
ATOM     17  C   UNL     1      26.440  -2.183  59.744  1.00  0.00     0.158 A 
BRANCH  15  18
ATOM     18  O   UNL     1      25.763  -4.354  58.866  1.00  0.00    -0.504 OA
ATOM     19  H   UNL     1      26.089  -4.269  57.911  1.00  0.00     0.293 HD
ENDBRANCH  15  18
BRANCH  17  20
ATOM     20  O   UNL     1      27.626  -2.236  59.015  1.00  0.00    -0.504 OA
ATOM     21  H   UNL     1      28.426  -2.765  59.341  1.00  0.00     0.293 HD
ENDBRANCH  17  20
ENDBRANCH   1  12
BRANCH   2  22
ATOM     22  O   UNL     1      27.054   0.373  62.742  1.00  0.00    -0.502 OA
ATOM     23  H   UNL     1      27.853   0.998  62.721  1.00  0.00     0.293 HD
ENDBRANCH   2  22
BRANCH   6  24
ATOM     24  O   UNL     1      24.528   4.457  65.047  1.00  0.00    -0.507 OA
ATOM     25  H   UNL     1      24.239   5.258  65.587  1.00  0.00     0.293 HD
ENDBRANCH   6  24
BRANCH   8  26
ATOM     26  O   UNL     1      19.975   3.294  64.058  1.00  0.00    -0.508 OA
ATOM     27  H   UNL     1      19.450   3.026  64.882  1.00  0.00     0.293 HD
ENDBRANCH   8  26
TORSDOF 6
ENDMDL
MODEL 4
REMARK VINA RESULT:    -5.214      1.291      3.219
REMARK INTER + INTRA:          -6.107
REMARK INTER:                  -6.229
REMARK INTRA:                   0.122
REMARK UNBOUND:                 0.174
REMARK SMILES O=c1c(O)c(-c2ccc(O)c(O)c2)oc2cc(O)cc(O)c12
REMARK SMILES IDX 5 1 3 2 2 3 1 4 22 5 20 6 19 7 17 8 16 9 15 10 14 11 6 12
REMARK SMILES IDX 7 13 8 14 9 15 13 16 11 17 10 18 12 20 4 22 21 24 18 26
REMARK H PARENT 10 19 12 21 4 23 21 25 18 27
REMARK Flexibility Score: inf
ROOT
ATOM      1  C   UNL     1      23.790  -0.226  61.902  1.00  0.00     0.180 A 
ATOM      2  C   UNL     1      22.411   0.046  61.923  1.00  0.00     0.208 A 
ATOM      3  C   UNL     1      21.941   1.127  62.688  1.00  0.00     0.238 A 
ATOM      4  O   UNL     1      20.713   1.399  62.658  1.00  0.00    -0.285 OA
ATOM      5  C   UNL     1      22.854   1.909  63.436  1.00  0.00     0.111 A 
ATOM      6  C   UNL     1      22.484   3.001  64.277  1.00  0.00     0.134 A 
ATOM      7  C   UNL     1      23.482   3.786  64.868  1.00  0.00     0.093 A 
ATOM      8  C   UNL     1      24.834   3.479  64.700  1.00  0.00     0.123 A 
ATOM      9  C   UNL     1      25.203   2.379  63.928  1.00  0.00     0.094 A 
ATOM     10  C   UNL     1      24.231   1.598  63.297  1.00  0.00     0.146 A 
ATOM     11  O   UNL     1      24.626   0.566  62.562  1.00  0.00    -0.452 OA
ENDROOT
BRANCH   1  12
ATOM     12  C   UNL     1      24.357  -1.361  61.140  1.00  0.00     0.025 A 
ATOM     13  C   UNL     1      23.706  -2.607  61.088  1.00  0.00     0.016 A 
ATOM     14  C   UNL     1      24.273  -3.671  60.382  1.00  0.00     0.051 A 
ATOM     15  C   UNL     1      25.500  -3.514  59.730  1.00  0.00     0.157 A 
ATOM     16  C   UNL     1      25.600  -1.214  60.502  1.00  0.00     0.062 A 
ATOM     17  C   UNL     1      26.170  -2.281  59.792  1.00  0.00     0.158 A 
BRANCH  15  18
ATOM     18  O   UNL     1      26.039  -4.593  59.031  1.00  0.00    -0.504 OA
ATOM     19  H   UNL     1      25.600  -5.506  59.029  1.00  0.00     0.293 HD
ENDBRANCH  15  18
BRANCH  17  20
ATOM     20  O   UNL     1      27.396  -2.120  59.150  1.00  0.00    -0.504 OA
ATOM     21  H   UNL     1      28.265  -2.403  59.587  1.00  0.00     0.293 HD
ENDBRANCH  17  20
ENDBRANCH   1  12
BRANCH   2  22
ATOM     22  O   UNL     1      21.531  -0.725  61.159  1.00  0.00    -0.502 OA
ATOM     23  H   UNL     1      21.775  -1.646  60.811  1.00  0.00     0.293 HD
ENDBRANCH   2  22
BRANCH   6  24
ATOM     24  O   UNL     1      21.162   3.336  64.586  1.00  0.00    -0.507 OA
ATOM     25  H   UNL     1      20.804   3.460  65.520  1.00  0.00     0.293 HD
ENDBRANCH   6  24
BRANCH   8  26
ATOM     26  O   UNL     1      25.820   4.256  65.303  1.00  0.00    -0.508 OA
ATOM     27  H   UNL     1      25.968   4.240  66.305  1.00  0.00     0.293 HD
ENDBRANCH   8  26
TORSDOF 6
ENDMDL
MODEL 5
REMARK VINA RESULT:    -5.085      1.601      7.021
REMARK INTER + INTRA:          -5.952
REMARK INTER:                  -6.133
REMARK INTRA:                   0.181
REMARK UNBOUND:                 0.174
REMARK SMILES O=c1c(O)c(-c2ccc(O)c(O)c2)oc2cc(O)cc(O)c12
REMARK SMILES IDX 5 1 3 2 2 3 1 4 22 5 20 6 19 7 17 8 16 9 15 10 14 11 6 12
REMARK SMILES IDX 7 13 8 14 9 15 13 16 11 17 10 18 12 20 4 22 21 24 18 26
REMARK H PARENT 10 19 12 21 4 23 21 25 18 27
REMARK Flexibility Score: inf
ROOT
ATOM      1  C   UNL     1      23.740   0.227  62.428  1.00  0.00     0.180 A 
ATOM      2  C   UNL     1      22.364  -0.053  62.394  1.00  0.00     0.208 A 
ATOM      3  C   UNL     1      21.905  -1.126  61.612  1.00  0.00     0.238 A 
ATOM      4  O   UNL     1      20.678  -1.405  61.630  1.00  0.00    -0.285 OA
ATOM      5  C   UNL     1      22.827  -1.894  60.860  1.00  0.00     0.111 A 
ATOM      6  C   UNL     1      22.468  -2.977  60.003  1.00  0.00     0.134 A 
ATOM      7  C   UNL     1      23.475  -3.750  59.409  1.00  0.00     0.093 A 
ATOM      8  C   UNL     1      24.824  -3.437  59.590  1.00  0.00     0.123 A 
ATOM      9  C   UNL     1      25.181  -2.345  60.378  1.00  0.00     0.094 A 
ATOM     10  C   UNL     1      24.201  -1.578  61.013  1.00  0.00     0.146 A 
ATOM     11  O   UNL     1      24.585  -0.553  61.763  1.00  0.00    -0.452 OA
ENDROOT
BRANCH   1  12
ATOM     12  C   UNL     1      24.296   1.355  63.208  1.00  0.00     0.025 A 
ATOM     13  C   UNL     1      23.591   2.563  63.353  1.00  0.00     0.016 A 
ATOM     14  C   UNL     1      24.147   3.623  64.074  1.00  0.00     0.051 A 
ATOM     15  C   UNL     1      25.415   3.500  64.649  1.00  0.00     0.157 A 
ATOM     16  C   UNL     1      25.579   1.243  63.769  1.00  0.00     0.062 A 
ATOM     17  C   UNL     1      26.138   2.306  64.494  1.00  0.00     0.158 A 
BRANCH  15  18
ATOM     18  O   UNL     1      25.942   4.574  65.364  1.00  0.00    -0.504 OA
ATOM     19  H   UNL     1      26.588   4.444  66.133  1.00  0.00     0.293 HD
ENDBRANCH  15  18
BRANCH  17  20
ATOM     20  O   UNL     1      27.406   2.179  65.058  1.00  0.00    -0.504 OA
ATOM     21  H   UNL     1      28.205   2.679  64.687  1.00  0.00     0.293 HD
ENDBRANCH  17  20
ENDBRANCH   1  12
BRANCH   2  22
ATOM     22  O   UNL     1      21.474   0.704  63.161  1.00  0.00    -0.502 OA
ATOM     23  H   UNL     1      21.364   0.567  64.160  1.00  0.00     0.293 HD
ENDBRANCH   2  22
BRANCH   6  24
ATOM     24  O   UNL     1      21.150  -3.315  59.681  1.00  0.00    -0.507 OA
ATOM     25  H   UNL     1      20.873  -3.823  58.855  1.00  0.00     0.293 HD
ENDBRANCH   6  24
BRANCH   8  26
ATOM     26  O   UNL     1      25.819  -4.201  58.985  1.00  0.00    -0.508 OA
ATOM     27  H   UNL     1      26.623  -4.531  59.505  1.00  0.00     0.293 HD
ENDBRANCH   8  26
TORSDOF 6
ENDMDL
MODEL 6
REMARK VINA RESULT:    -4.248      2.129      3.638
REMARK INTER + INTRA:          -4.943
REMARK INTER:                  -4.804
REMARK INTRA:                  -0.139
REMARK UNBOUND:                 0.174
REMARK SMILES O=c1c(O)c(-c2ccc(O)c(O)c2)oc2cc(O)cc(O)c12
REMARK SMILES IDX 5 1 3 2 2 3 1 4 22 5 20 6 19 7 17 8 16 9 15 10 14 11 6 12
REMARK SMILES IDX 7 13 8 14 9 15 13 16 11 17 10 18 12 20 4 22 21 24 18 26
REMARK H PARENT 10 19 12 21 4 23 21 25 18 27
REMARK Flexibility Score: inf
ROOT
ATOM      1  C   UNL     1      22.549   0.028  62.067  1.00  0.00     0.180 A 
ATOM      2  C   UNL     1      21.438   0.591  62.717  1.00  0.00     0.208 A 
ATOM      3  C   UNL     1      21.570   1.852  63.323  1.00  0.00     0.238 A 
ATOM      4  O   UNL     1      20.557   2.375  63.855  1.00  0.00    -0.285 OA
ATOM      5  C   UNL     1      22.815   2.525  63.285  1.00  0.00     0.111 A 
ATOM      6  C   UNL     1      23.072   3.786  63.900  1.00  0.00     0.134 A 
ATOM      7  C   UNL     1      24.304   4.419  63.687  1.00  0.00     0.093 A 
ATOM      8  C   UNL     1      25.310   3.805  62.938  1.00  0.00     0.123 A 
ATOM      9  C   UNL     1      25.088   2.546  62.383  1.00  0.00     0.094 A 
ATOM     10  C   UNL     1      23.857   1.906  62.547  1.00  0.00     0.146 A 
ATOM     11  O   UNL     1      23.684   0.713  61.993  1.00  0.00    -0.452 OA
ENDROOT
BRANCH   1  12
ATOM     12  C   UNL     1      22.494  -1.306  61.428  1.00  0.00     0.025 A 
ATOM     13  C   UNL     1      21.637  -1.565  60.345  1.00  0.00     0.016 A 
ATOM     14  C   UNL     1      21.584  -2.839  59.773  1.00  0.00     0.051 A 
ATOM     15  C   UNL     1      22.375  -3.875  60.280  1.00  0.00     0.157 A 
ATOM     16  C   UNL     1      23.271  -2.355  61.949  1.00  0.00     0.062 A 
ATOM     17  C   UNL     1      23.220  -3.634  61.376  1.00  0.00     0.158 A 
BRANCH  15  18
ATOM     18  O   UNL     1      22.303  -5.135  59.687  1.00  0.00    -0.504 OA
ATOM     19  H   UNL     1      21.502  -5.427  59.140  1.00  0.00     0.293 HD
ENDBRANCH  15  18
BRANCH  17  20
ATOM     20  O   UNL     1      24.006  -4.664  61.891  1.00  0.00    -0.504 OA
ATOM     21  H   UNL     1      24.991  -4.743  61.668  1.00  0.00     0.293 HD
ENDBRANCH  17  20
ENDBRANCH   1  12
BRANCH   2  22
ATOM     22  O   UNL     1      20.212  -0.080  62.724  1.00  0.00    -0.502 OA
ATOM     23  H   UNL     1      19.768  -0.394  63.579  1.00  0.00     0.293 HD
ENDBRANCH   2  22
BRANCH   6  24
ATOM     24  O   UNL     1      22.172   4.443  64.744  1.00  0.00    -0.507 OA
ATOM     25  H   UNL     1      21.856   4.089  65.633  1.00  0.00     0.293 HD
ENDBRANCH   6  24
BRANCH   8  26
ATOM     26  O   UNL     1      26.538   4.434  62.743  1.00  0.00    -0.508 OA
ATOM     27  H   UNL     1      26.652   5.170  62.056  1.00  0.00     0.293 HD
ENDBRANCH   8  26
TORSDOF 6
ENDMDL
MODEL 7
REMARK VINA RESULT:    -4.238      2.114      7.428
REMARK INTER + INTRA:          -4.931
REMARK INTER:                  -4.803
REMARK INTRA:                  -0.127
REMARK UNBOUND:                 0.174
REMARK SMILES O=c1c(O)c(-c2ccc(O)c(O)c2)oc2cc(O)cc(O)c12
REMARK SMILES IDX 5 1 3 2 2 3 1 4 22 5 20 6 19 7 17 8 16 9 15 10 14 11 6 12
REMARK SMILES IDX 7 13 8 14 9 15 13 16 11 17 10 18 12 20 4 22 21 24 18 26
REMARK H PARENT 10 19 12 21 4 23 21 25 18 27
REMARK Flexibility Score: inf
ROOT
ATOM      1  C   UNL     1      22.568  -0.040  62.184  1.00  0.00     0.180 A 
ATOM      2  C   UNL     1      21.477  -0.595  61.494  1.00  0.00     0.208 A 
ATOM      3  C   UNL     1      21.626  -1.850  60.881  1.00  0.00     0.238 A 
ATOM      4  O   UNL     1      20.629  -2.366  60.312  1.00  0.00    -0.285 OA
ATOM      5  C   UNL     1      22.868  -2.526  60.952  1.00  0.00     0.111 A 
ATOM      6  C   UNL     1      23.142  -3.782  60.334  1.00  0.00     0.134 A 
ATOM      7  C   UNL     1      24.366  -4.420  60.579  1.00  0.00     0.093 A 
ATOM      8  C   UNL     1      25.347  -3.815  61.366  1.00  0.00     0.123 A 
ATOM      9  C   UNL     1      25.111  -2.561  61.925  1.00  0.00     0.094 A 
ATOM     10  C   UNL     1      23.887  -1.917  61.729  1.00  0.00     0.146 A 
ATOM     11  O   UNL     1      23.699  -0.728  62.288  1.00  0.00    -0.452 OA
ENDROOT
BRANCH   1  12
ATOM     12  C   UNL     1      22.496   1.288  62.834  1.00  0.00     0.025 A 
ATOM     13  C   UNL     1      21.591   1.545  63.878  1.00  0.00     0.016 A 
ATOM     14  C   UNL     1      21.523   2.814  64.460  1.00  0.00     0.051 A 
ATOM     15  C   UNL     1      22.346   3.846  64.001  1.00  0.00     0.157 A 
ATOM     16  C   UNL     1      23.306   2.335  62.361  1.00  0.00     0.062 A 
ATOM     17  C   UNL     1      23.240   3.609  62.944  1.00  0.00     0.158 A 
BRANCH  15  18
ATOM     18  O   UNL     1      22.258   5.101  64.603  1.00  0.00    -0.504 OA
ATOM     19  H   UNL     1      21.578   5.792  64.309  1.00  0.00     0.293 HD
ENDBRANCH  15  18
BRANCH  17  20
ATOM     20  O   UNL     1      24.058   4.635  62.477  1.00  0.00    -0.504 OA
ATOM     21  H   UNL     1      25.033   4.703  62.747  1.00  0.00     0.293 HD
ENDBRANCH  17  20
ENDBRANCH   1  12
BRANCH   2  22
ATOM     22  O   UNL     1      20.254   0.079  61.455  1.00  0.00    -0.502 OA
ATOM     23  H   UNL     1      19.749   0.339  62.295  1.00  0.00     0.293 HD
ENDBRANCH   2  22
BRANCH   6  24
ATOM     24  O   UNL     1      22.267  -4.429  59.455  1.00  0.00    -0.507 OA
ATOM     25  H   UNL     1      21.981  -4.066  58.560  1.00  0.00     0.293 HD
ENDBRANCH   6  24
BRANCH   8  26
ATOM     26  O   UNL     1      26.567  -4.449  61.593  1.00  0.00    -0.508 OA
ATOM     27  H   UNL     1      26.659  -5.191  62.277  1.00  0.00     0.293 HD
ENDBRANCH   8  26
TORSDOF 6
ENDMDL
MODEL 8
REMARK VINA RESULT:    -4.117      1.512      7.347
REMARK INTER + INTRA:          -4.786
REMARK INTER:                  -5.257
REMARK INTRA:                   0.471
REMARK UNBOUND:                 0.174
REMARK SMILES O=c1c(O)c(-c2ccc(O)c(O)c2)oc2cc(O)cc(O)c12
REMARK SMILES IDX 5 1 3 2 2 3 1 4 22 5 20 6 19 7 17 8 16 9 15 10 14 11 6 12
REMARK SMILES IDX 7 13 8 14 9 15 13 16 11 17 10 18 12 20 4 22 21 24 18 26
REMARK H PARENT 10 19 12 21 4 23 21 25 18 27
REMARK Flexibility Score: inf
ROOT
ATOM      1  C   UNL     1      23.187  -0.102  62.038  1.00  0.00     0.180 A 
ATOM      2  C   UNL     1      22.304  -1.191  61.953  1.00  0.00     0.208 A 
ATOM      3  C   UNL     1      22.711  -2.347  61.266  1.00  0.00     0.238 A 
ATOM      4  O   UNL     1      21.937  -3.338  61.242  1.00  0.00    -0.285 OA
ATOM      5  C   UNL     1      23.989  -2.391  60.658  1.00  0.00     0.111 A 
ATOM      6  C   UNL     1      24.488  -3.495  59.903  1.00  0.00     0.134 A 
ATOM      7  C   UNL     1      25.816  -3.481  59.458  1.00  0.00     0.093 A 
ATOM      8  C   UNL     1      26.640  -2.378  59.684  1.00  0.00     0.123 A 
ATOM      9  C   UNL     1      26.143  -1.271  60.368  1.00  0.00     0.094 A 
ATOM     10  C   UNL     1      24.834  -1.269  60.857  1.00  0.00     0.146 A 
ATOM     11  O   UNL     1      24.403  -0.199  61.513  1.00  0.00    -0.452 OA
ENDROOT
BRANCH   1  12
ATOM     12  C   UNL     1      22.821   1.158  62.723  1.00  0.00     0.025 A 
ATOM     13  C   UNL     1      21.545   1.342  63.285  1.00  0.00     0.016 A 
ATOM     14  C   UNL     1      21.214   2.550  63.905  1.00  0.00     0.051 A 
ATOM     15  C   UNL     1      22.142   3.593  63.963  1.00  0.00     0.157 A 
ATOM     16  C   UNL     1      23.743   2.217  62.764  1.00  0.00     0.062 A 
ATOM     17  C   UNL     1      23.413   3.430  63.387  1.00  0.00     0.158 A 
BRANCH  15  18
ATOM     18  O   UNL     1      21.783   4.785  64.591  1.00  0.00    -0.504 OA
ATOM     19  H   UNL     1      21.044   4.828  65.283  1.00  0.00     0.293 HD
ENDBRANCH  15  18
BRANCH  17  20
ATOM     20  O   UNL     1      24.340   4.468  63.435  1.00  0.00    -0.504 OA
ATOM     21  H   UNL     1      24.119   5.395  63.090  1.00  0.00     0.293 HD
ENDBRANCH  17  20
ENDBRANCH   1  12
BRANCH   2  22
ATOM     22  O   UNL     1      21.056  -1.134  62.580  1.00  0.00    -0.502 OA
ATOM     23  H   UNL     1      20.877  -0.543  63.384  1.00  0.00     0.293 HD
ENDBRANCH   2  22
BRANCH   6  24
ATOM     24  O   UNL     1      23.719  -4.606  59.542  1.00  0.00    -0.507 OA
ATOM     25  H   UNL     1      22.864  -4.885  59.997  1.00  0.00     0.293 HD
ENDBRANCH   6  24
BRANCH   8  26
ATOM     26  O   UNL     1      27.956  -2.366  59.224  1.00  0.00    -0.508 OA
ATOM     27  H   UNL     1      28.378  -1.524  58.850  1.00  0.00     0.293 HD
ENDBRANCH   8  26
TORSDOF 6
ENDMDL
