MODEL 1
REMARK VINA RESULT:    -2.988      0.000      0.000
REMARK INTER + INTRA:          -7.355
REMARK INTER:                  -5.433
REMARK INTRA:                  -1.922
REMARK UNBOUND:                -1.922
REMARK SMILES CCCCCCCCCCCCCCCC(=O)[O-]
REMARK SMILES IDX 9 1 10 2 11 3 12 4 13 5 14 6 15 7 16 8 17 9 18 10 8 11 7 12
REMARK SMILES IDX 6 13 5 14 4 15 3 16 2 17 1 18
REMARK H PARENT
REMARK Flexibility Score: inf
ROOT
ATOM      1  C   UNL     1      -3.138  11.952  11.156  1.00  0.00     0.000 C 
ENDROOT
BRANCH   1   2
ATOM      2  C   UNL     1      -2.834  10.449  11.089  1.00  0.00     0.000 C 
BRANCH   2   3
ATOM      3  C   UNL     1      -1.929  10.019  12.250  1.00  0.00     0.000 C 
BRANCH   3   4
ATOM      4  C   UNL     1      -0.606   9.435  11.730  1.00  0.00     0.000 C 
BRANCH   4   5
ATOM      5  C   UNL     1       0.443  10.518  11.431  1.00  0.00     0.000 C 
BRANCH   5   6
ATOM      6  C   UNL     1       0.984  10.437   9.993  1.00  0.00     0.006 C 
BRANCH   6   7
ATOM      7  C   UNL     1       0.487  11.598   9.121  1.00  0.00     0.053 C 
BRANCH   7   8
ATOM      8  C   UNL     1      -0.552  11.152   8.139  1.00  0.00     0.041 C 
ATOM      9  O   UNL     1      -1.068  11.979   7.341  1.00  0.00    -0.550 OA
ATOM     10  O   UNL     1      -0.930   9.816   8.086  1.00  0.00    -0.550 OA
ENDBRANCH   7   8
ENDBRANCH   6   7
ENDBRANCH   5   6
ENDBRANCH   4   5
ENDBRANCH   3   4
ENDBRANCH   2   3
ENDBRANCH   1   2
BRANCH   1  11
ATOM     11  C   UNL     1      -2.618  12.604  12.447  1.00  0.00     0.000 C 
BRANCH  11  12
ATOM     12  C   UNL     1      -1.473  13.599  12.188  1.00  0.00    -0.000 C 
BRANCH  12  13
ATOM     13  C   UNL     1      -1.500  14.168  10.760  1.00  0.00    -0.000 C 
BRANCH  13  14
ATOM     14  C   UNL     1      -1.121  15.658  10.711  1.00  0.00    -0.000 C 
BRANCH  14  15
ATOM     15  C   UNL     1       0.056  16.001  11.637  1.00  0.00    -0.000 C 
BRANCH  15  16
ATOM     16  C   UNL     1      -0.279  17.126  12.628  1.00  0.00    -0.000 C 
BRANCH  16  17
ATOM     17  C   UNL     1      -1.501  17.925  12.157  1.00  0.00    -0.003 C 
ATOM     18  C   UNL     1      -2.577  17.974  13.237  1.00  0.00     0.004 C 
ENDBRANCH  16  17
ENDBRANCH  15  16
ENDBRANCH  14  15
ENDBRANCH  13  14
ENDBRANCH  12  13
ENDBRANCH  11  12
ENDBRANCH   1  11
TORSDOF 14
ENDMDL
MODEL 2
REMARK VINA RESULT:    -2.934     13.491     15.373
REMARK INTER + INTRA:          -7.257
REMARK INTER:                  -5.740
REMARK INTRA:                  -1.517
REMARK UNBOUND:                -1.922
REMARK SMILES CCCCCCCCCCCCCCCC(=O)[O-]
REMARK SMILES IDX 9 1 10 2 11 3 12 4 13 5 14 6 15 7 16 8 17 9 18 10 8 11 7 12
REMARK SMILES IDX 6 13 5 14 4 15 3 16 2 17 1 18
REMARK H PARENT
REMARK Flexibility Score: inf
ROOT
ATOM      1  C   UNL     1     -15.418   9.052   9.364  1.00  0.00     0.000 C 
ENDROOT
BRANCH   1   2
ATOM      2  C   UNL     1     -13.965   9.255   9.815  1.00  0.00     0.000 C 
BRANCH   2   3
ATOM      3  C   UNL     1     -13.822   9.031  11.326  1.00  0.00     0.000 C 
BRANCH   3   4
ATOM      4  C   UNL     1     -13.513  10.350  12.050  1.00  0.00     0.000 C 
BRANCH   4   5
ATOM      5  C   UNL     1     -14.276  10.491  13.377  1.00  0.00     0.000 C 
BRANCH   5   6
ATOM      6  C   UNL     1     -15.323  11.618  13.341  1.00  0.00     0.006 C 
BRANCH   6   7
ATOM      7  C   UNL     1     -16.649  11.157  12.722  1.00  0.00     0.053 C 
BRANCH   7   8
ATOM      8  C   UNL     1     -17.465  12.312  12.231  1.00  0.00     0.041 C 
ATOM      9  O   UNL     1     -17.173  13.488  12.574  1.00  0.00    -0.550 OA
ATOM     10  O   UNL     1     -18.533  12.092  11.368  1.00  0.00    -0.550 OA
ENDBRANCH   7   8
ENDBRANCH   6   7
ENDBRANCH   5   6
ENDBRANCH   4   5
ENDBRANCH   3   4
ENDBRANCH   2   3
ENDBRANCH   1   2
BRANCH   1  11
ATOM     11  C   UNL     1     -16.158  10.380   9.139  1.00  0.00     0.000 C 
BRANCH  11  12
ATOM     12  C   UNL     1     -16.621  10.559   7.682  1.00  0.00    -0.000 C 
BRANCH  12  13
ATOM     13  C   UNL     1     -15.883   9.625   6.711  1.00  0.00    -0.000 C 
BRANCH  13  14
ATOM     14  C   UNL     1     -15.330  10.369   5.483  1.00  0.00    -0.000 C 
BRANCH  14  15
ATOM     15  C   UNL     1     -14.024  11.120   5.784  1.00  0.00    -0.000 C 
BRANCH  15  16
ATOM     16  C   UNL     1     -13.034  10.279   6.605  1.00  0.00    -0.000 C 
BRANCH  16  17
ATOM     17  C   UNL     1     -12.331   9.242   5.721  1.00  0.00    -0.003 C 
ATOM     18  C   UNL     1     -11.977   9.829   4.358  1.00  0.00     0.004 C 
ENDBRANCH  16  17
ENDBRANCH  15  16
ENDBRANCH  14  15
ENDBRANCH  13  14
ENDBRANCH  12  13
ENDBRANCH  11  12
ENDBRANCH   1  11
TORSDOF 14
ENDMDL
MODEL 3
REMARK VINA RESULT:    -2.839     19.168     21.073
REMARK INTER + INTRA:          -7.085
REMARK INTER:                  -5.389
REMARK INTRA:                  -1.696
REMARK UNBOUND:                -1.922
REMARK SMILES CCCCCCCCCCCCCCCC(=O)[O-]
REMARK SMILES IDX 9 1 10 2 11 3 12 4 13 5 14 6 15 7 16 8 17 9 18 10 8 11 7 12
REMARK SMILES IDX 6 13 5 14 4 15 3 16 2 17 1 18
REMARK H PARENT
REMARK Flexibility Score: inf
ROOT
ATOM      1  C   UNL     1     -13.714  10.462  -2.427  1.00  0.00     0.000 C 
ENDROOT
BRANCH   1   2
ATOM      2  C   UNL     1     -14.872   9.500  -2.730  1.00  0.00     0.000 C 
BRANCH   2   3
ATOM      3  C   UNL     1     -16.226  10.166  -2.452  1.00  0.00     0.000 C 
BRANCH   3   4
ATOM      4  C   UNL     1     -16.451  10.344  -0.942  1.00  0.00     0.000 C 
BRANCH   4   5
ATOM      5  C   UNL     1     -17.630  11.278  -0.625  1.00  0.00     0.000 C 
BRANCH   5   6
ATOM      6  C   UNL     1     -17.428  12.698  -1.182  1.00  0.00     0.006 C 
BRANCH   6   7
ATOM      7  C   UNL     1     -18.695  13.555  -1.058  1.00  0.00     0.053 C 
BRANCH   7   8
ATOM      8  C   UNL     1     -18.502  14.701  -0.114  1.00  0.00     0.041 C 
ATOM      9  O   UNL     1     -18.383  14.492   1.122  1.00  0.00    -0.550 OA
ATOM     10  O   UNL     1     -18.425  15.999  -0.603  1.00  0.00    -0.550 OA
ENDBRANCH   7   8
ENDBRANCH   6   7
ENDBRANCH   5   6
ENDBRANCH   4   5
ENDBRANCH   3   4
ENDBRANCH   2   3
ENDBRANCH   1   2
BRANCH   1  11
ATOM     11  C   UNL     1     -12.840  10.741  -3.661  1.00  0.00     0.000 C 
BRANCH  11  12
ATOM     12  C   UNL     1     -13.320   9.979  -4.909  1.00  0.00    -0.000 C 
BRANCH  12  13
ATOM     13  C   UNL     1     -13.605  10.914  -6.095  1.00  0.00    -0.000 C 
BRANCH  13  14
ATOM     14  C   UNL     1     -13.796  12.378  -5.660  1.00  0.00    -0.000 C 
BRANCH  14  15
ATOM     15  C   UNL     1     -15.239  12.869  -5.850  1.00  0.00    -0.000 C 
BRANCH  15  16
ATOM     16  C   UNL     1     -15.972  13.080  -4.516  1.00  0.00    -0.000 C 
BRANCH  16  17
ATOM     17  C   UNL     1     -17.269  13.870  -4.722  1.00  0.00    -0.003 C 
ATOM     18  C   UNL     1     -17.164  14.799  -5.929  1.00  0.00     0.004 C 
ENDBRANCH  16  17
ENDBRANCH  15  16
ENDBRANCH  14  15
ENDBRANCH  13  14
ENDBRANCH  12  13
ENDBRANCH  11  12
ENDBRANCH   1  11
TORSDOF 14
ENDMDL
MODEL 4
REMARK VINA RESULT:    -2.799      2.210      3.334
REMARK INTER + INTRA:          -7.011
REMARK INTER:                  -5.254
REMARK INTRA:                  -1.757
REMARK UNBOUND:                -1.922
REMARK SMILES CCCCCCCCCCCCCCCC(=O)[O-]
REMARK SMILES IDX 9 1 10 2 11 3 12 4 13 5 14 6 15 7 16 8 17 9 18 10 8 11 7 12
REMARK SMILES IDX 6 13 5 14 4 15 3 16 2 17 1 18
REMARK H PARENT
REMARK Flexibility Score: inf
ROOT
ATOM      1  C   UNL     1      -0.719  12.265   9.274  1.00  0.00     0.000 C 
ENDROOT
BRANCH   1   2
ATOM      2  C   UNL     1      -1.106  11.262   8.178  1.00  0.00     0.000 C 
BRANCH   2   3
ATOM      3  C   UNL     1      -0.545   9.868   8.486  1.00  0.00     0.000 C 
BRANCH   3   4
ATOM      4  C   UNL     1      -0.068   9.778   9.944  1.00  0.00     0.000 C 
BRANCH   4   5
ATOM      5  C   UNL     1      -0.966   8.875  10.806  1.00  0.00     0.000 C 
BRANCH   5   6
ATOM      6  C   UNL     1      -1.911   9.676  11.717  1.00  0.00     0.006 C 
BRANCH   6   7
ATOM      7  C   UNL     1      -3.377   9.557  11.278  1.00  0.00     0.053 C 
BRANCH   7   8
ATOM      8  C   UNL     1      -4.225  10.639  11.872  1.00  0.00     0.041 C 
ATOM      9  O   UNL     1      -5.324  10.949  11.341  1.00  0.00    -0.550 OA
ATOM     10  O   UNL     1      -3.815  11.286  13.032  1.00  0.00    -0.550 OA
ENDBRANCH   7   8
ENDBRANCH   6   7
ENDBRANCH   5   6
ENDBRANCH   4   5
ENDBRANCH   3   4
ENDBRANCH   2   3
ENDBRANCH   1   2
BRANCH   1  11
ATOM     11  C   UNL     1      -1.942  12.874   9.977  1.00  0.00     0.000 C 
BRANCH  11  12
ATOM     12  C   UNL     1      -1.564  13.664  11.243  1.00  0.00    -0.000 C 
BRANCH  12  13
ATOM     13  C   UNL     1      -0.078  14.050  11.273  1.00  0.00    -0.000 C 
BRANCH  13  14
ATOM     14  C   UNL     1       0.137  15.574  11.243  1.00  0.00    -0.000 C 
BRANCH  14  15
ATOM     15  C   UNL     1      -1.182  16.359  11.311  1.00  0.00    -0.000 C 
BRANCH  15  16
ATOM     16  C   UNL     1      -1.096  17.575  12.246  1.00  0.00    -0.000 C 
BRANCH  16  17
ATOM     17  C   UNL     1      -2.235  17.559  13.273  1.00  0.00    -0.003 C 
ATOM     18  C   UNL     1      -2.269  16.238  14.037  1.00  0.00     0.004 C 
ENDBRANCH  16  17
ENDBRANCH  15  16
ENDBRANCH  14  15
ENDBRANCH  13  14
ENDBRANCH  12  13
ENDBRANCH  11  12
ENDBRANCH   1  11
TORSDOF 14
ENDMDL
MODEL 5
REMARK VINA RESULT:    -2.787     13.306     15.631
REMARK INTER + INTRA:          -6.990
REMARK INTER:                  -5.722
REMARK INTRA:                  -1.268
REMARK UNBOUND:                -1.922
REMARK SMILES CCCCCCCCCCCCCCCC(=O)[O-]
REMARK SMILES IDX 9 1 10 2 11 3 12 4 13 5 14 6 15 7 16 8 17 9 18 10 8 11 7 12
REMARK SMILES IDX 6 13 5 14 4 15 3 16 2 17 1 18
REMARK H PARENT
REMARK Flexibility Score: inf
ROOT
ATOM      1  C   UNL     1     -12.669  10.793   4.549  1.00  0.00     0.000 C 
ENDROOT
BRANCH   1   2
ATOM      2  C   UNL     1     -11.987  10.577   5.908  1.00  0.00     0.000 C 
BRANCH   2   3
ATOM      3  C   UNL     1     -12.510   9.307   6.589  1.00  0.00     0.000 C 
BRANCH   3   4
ATOM      4  C   UNL     1     -13.670   9.633   7.542  1.00  0.00     0.000 C 
BRANCH   4   5
ATOM      5  C   UNL     1     -13.472   9.035   8.944  1.00  0.00     0.000 C 
BRANCH   5   6
ATOM      6  C   UNL     1     -14.507   9.547   9.960  1.00  0.00     0.006 C 
BRANCH   6   7
ATOM      7  C   UNL     1     -13.858   9.978  11.282  1.00  0.00     0.053 C 
BRANCH   7   8
ATOM      8  C   UNL     1     -14.807  10.756  12.140  1.00  0.00     0.041 C 
ATOM      9  O   UNL     1     -15.948  11.065  11.707  1.00  0.00    -0.550 OA
ATOM     10  O   UNL     1     -14.441  11.114  13.433  1.00  0.00    -0.550 OA
ENDBRANCH   7   8
ENDBRANCH   6   7
ENDBRANCH   5   6
ENDBRANCH   4   5
ENDBRANCH   3   4
ENDBRANCH   2   3
ENDBRANCH   1   2
BRANCH   1  11
ATOM     11  C   UNL     1     -12.553   9.568   3.628  1.00  0.00     0.000 C 
BRANCH  11  12
ATOM     12  C   UNL     1     -13.922   8.955   3.284  1.00  0.00    -0.000 C 
BRANCH  12  13
ATOM     13  C   UNL     1     -15.093   9.802   3.806  1.00  0.00    -0.000 C 
BRANCH  13  14
ATOM     14  C   UNL     1     -16.407   9.006   3.887  1.00  0.00    -0.000 C 
BRANCH  14  15
ATOM     15  C   UNL     1     -17.435   9.654   4.828  1.00  0.00    -0.000 C 
BRANCH  15  16
ATOM     16  C   UNL     1     -17.418   9.039   6.235  1.00  0.00    -0.000 C 
BRANCH  16  17
ATOM     17  C   UNL     1     -18.341   9.813   7.184  1.00  0.00    -0.003 C 
ATOM     18  C   UNL     1     -17.542  10.517   8.277  1.00  0.00     0.004 C 
ENDBRANCH  16  17
ENDBRANCH  15  16
ENDBRANCH  14  15
ENDBRANCH  13  14
ENDBRANCH  12  13
ENDBRANCH  11  12
ENDBRANCH   1  11
TORSDOF 14
ENDMDL
MODEL 6
REMARK VINA RESULT:    -2.777     15.476     17.378
REMARK INTER + INTRA:          -6.972
REMARK INTER:                  -5.941
REMARK INTRA:                  -1.031
REMARK UNBOUND:                -1.922
REMARK SMILES CCCCCCCCCCCCCCCC(=O)[O-]
REMARK SMILES IDX 9 1 10 2 11 3 12 4 13 5 14 6 15 7 16 8 17 9 18 10 8 11 7 12
REMARK SMILES IDX 6 13 5 14 4 15 3 16 2 17 1 18
REMARK H PARENT
REMARK Flexibility Score: inf
ROOT
ATOM      1  C   UNL     1     -17.154  10.431   3.087  1.00  0.00     0.000 C 
ENDROOT
BRANCH   1   2
ATOM      2  C   UNL     1     -17.002  10.019   1.616  1.00  0.00     0.000 C 
BRANCH   2   3
ATOM      3  C   UNL     1     -17.922  10.852   0.715  1.00  0.00     0.000 C 
BRANCH   3   4
ATOM      4  C   UNL     1     -17.635  10.575  -0.769  1.00  0.00     0.000 C 
BRANCH   4   5
ATOM      5  C   UNL     1     -16.795  11.682  -1.427  1.00  0.00     0.000 C 
BRANCH   5   6
ATOM      6  C   UNL     1     -16.104  11.213  -2.719  1.00  0.00     0.006 C 
BRANCH   6   7
ATOM      7  C   UNL     1     -14.688  11.787  -2.859  1.00  0.00     0.053 C 
BRANCH   7   8
ATOM      8  C   UNL     1     -13.641  10.722  -2.747  1.00  0.00     0.041 C 
ATOM      9  O   UNL     1     -13.699   9.869  -1.822  1.00  0.00    -0.550 OA
ATOM     10  O   UNL     1     -12.617  10.652  -3.684  1.00  0.00    -0.550 OA
ENDBRANCH   7   8
ENDBRANCH   6   7
ENDBRANCH   5   6
ENDBRANCH   4   5
ENDBRANCH   3   4
ENDBRANCH   2   3
ENDBRANCH   1   2
BRANCH   1  11
ATOM     11  C   UNL     1     -15.893  10.137   3.916  1.00  0.00     0.000 C 
BRANCH  11  12
ATOM     12  C   UNL     1     -15.380  11.377   4.670  1.00  0.00    -0.000 C 
BRANCH  12  13
ATOM     13  C   UNL     1     -15.473  11.218   6.196  1.00  0.00    -0.000 C 
BRANCH  13  14
ATOM     14  C   UNL     1     -14.743   9.962   6.704  1.00  0.00    -0.000 C 
BRANCH  14  15
ATOM     15  C   UNL     1     -13.234  10.187   6.886  1.00  0.00    -0.000 C 
BRANCH  15  16
ATOM     16  C   UNL     1     -12.388   9.255   6.005  1.00  0.00    -0.000 C 
BRANCH  16  17
ATOM     17  C   UNL     1     -11.786  10.018   4.819  1.00  0.00    -0.003 C 
ATOM     18  C   UNL     1     -12.387   9.546   3.498  1.00  0.00     0.004 C 
ENDBRANCH  16  17
ENDBRANCH  15  16
ENDBRANCH  14  15
ENDBRANCH  13  14
ENDBRANCH  12  13
ENDBRANCH  11  12
ENDBRANCH   1  11
TORSDOF 14
ENDMDL
MODEL 7
REMARK VINA RESULT:    -2.769     14.964     17.109
REMARK INTER + INTRA:          -6.957
REMARK INTER:                  -5.846
REMARK INTRA:                  -1.111
REMARK UNBOUND:                -1.922
REMARK SMILES CCCCCCCCCCCCCCCC(=O)[O-]
REMARK SMILES IDX 9 1 10 2 11 3 12 4 13 5 14 6 15 7 16 8 17 9 18 10 8 11 7 12
REMARK SMILES IDX 6 13 5 14 4 15 3 16 2 17 1 18
REMARK H PARENT
REMARK Flexibility Score: inf
ROOT
ATOM      1  C   UNL     1     -14.766   9.151   2.397  1.00  0.00     0.000 C 
ENDROOT
BRANCH   1   2
ATOM      2  C   UNL     1     -13.789   8.875   3.549  1.00  0.00     0.000 C 
BRANCH   2   3
ATOM      3  C   UNL     1     -12.481   9.653   3.357  1.00  0.00     0.000 C 
BRANCH   3   4
ATOM      4  C   UNL     1     -11.919  10.124   4.708  1.00  0.00     0.000 C 
BRANCH   4   5
ATOM      5  C   UNL     1     -12.268   9.170   5.861  1.00  0.00     0.000 C 
BRANCH   5   6
ATOM      6  C   UNL     1     -13.033   9.869   6.998  1.00  0.00     0.006 C 
BRANCH   6   7
ATOM      7  C   UNL     1     -14.543   9.604   6.930  1.00  0.00     0.053 C 
BRANCH   7   8
ATOM      8  C   UNL     1     -15.309  10.838   6.569  1.00  0.00     0.041 C 
ATOM      9  O   UNL     1     -14.897  11.597   5.652  1.00  0.00    -0.550 OA
ATOM     10  O   UNL     1     -16.497  11.135   7.226  1.00  0.00    -0.550 OA
ENDBRANCH   7   8
ENDBRANCH   6   7
ENDBRANCH   5   6
ENDBRANCH   4   5
ENDBRANCH   3   4
ENDBRANCH   2   3
ENDBRANCH   1   2
BRANCH   1  11
ATOM     11  C   UNL     1     -16.143   9.624   2.891  1.00  0.00     0.000 C 
BRANCH  11  12
ATOM     12  C   UNL     1     -17.090   9.994   1.736  1.00  0.00    -0.000 C 
BRANCH  12  13
ATOM     13  C   UNL     1     -16.940   9.055   0.529  1.00  0.00    -0.000 C 
BRANCH  13  14
ATOM     14  C   UNL     1     -16.630   9.813  -0.774  1.00  0.00    -0.000 C 
BRANCH  14  15
ATOM     15  C   UNL     1     -15.247   9.465  -1.347  1.00  0.00    -0.000 C 
BRANCH  15  16
ATOM     16  C   UNL     1     -14.713  10.547  -2.298  1.00  0.00    -0.000 C 
BRANCH  16  17
ATOM     17  C   UNL     1     -13.215  10.355  -2.561  1.00  0.00    -0.003 C 
ATOM     18  C   UNL     1     -12.830  10.858  -3.950  1.00  0.00     0.004 C 
ENDBRANCH  16  17
ENDBRANCH  15  16
ENDBRANCH  14  15
ENDBRANCH  13  14
ENDBRANCH  12  13
ENDBRANCH  11  12
ENDBRANCH   1  11
TORSDOF 14
ENDMDL
MODEL 8
REMARK VINA RESULT:    -2.682     13.586     15.826
REMARK INTER + INTRA:          -6.799
REMARK INTER:                  -5.477
REMARK INTRA:                  -1.322
REMARK UNBOUND:                -1.922
REMARK SMILES CCCCCCCCCCCCCCCC(=O)[O-]
REMARK SMILES IDX 9 1 10 2 11 3 12 4 13 5 14 6 15 7 16 8 17 9 18 10 8 11 7 12
REMARK SMILES IDX 6 13 5 14 4 15 3 16 2 17 1 18
REMARK H PARENT
REMARK Flexibility Score: inf
ROOT
ATOM      1  C   UNL     1     -15.652  10.594   6.742  1.00  0.00     0.000 C 
ENDROOT
BRANCH   1   2
ATOM      2  C   UNL     1     -15.099   9.584   7.758  1.00  0.00     0.000 C 
BRANCH   2   3
ATOM      3  C   UNL     1     -15.698   9.820   9.150  1.00  0.00     0.000 C 
BRANCH   3   4
ATOM      4  C   UNL     1     -17.127   9.262   9.235  1.00  0.00     0.000 C 
BRANCH   4   5
ATOM      5  C   UNL     1     -17.827   9.624  10.555  1.00  0.00     0.000 C 
BRANCH   5   6
ATOM      6  C   UNL     1     -18.217  11.110  10.630  1.00  0.00     0.006 C 
BRANCH   6   7
ATOM      7  C   UNL     1     -18.495  11.564  12.069  1.00  0.00     0.053 C 
BRANCH   7   8
ATOM      8  C   UNL     1     -17.398  12.435  12.599  1.00  0.00     0.041 C 
ATOM      9  O   UNL     1     -17.642  13.619  12.953  1.00  0.00    -0.550 OA
ATOM     10  O   UNL     1     -16.110  11.929  12.731  1.00  0.00    -0.550 OA
ENDBRANCH   7   8
ENDBRANCH   6   7
ENDBRANCH   5   6
ENDBRANCH   4   5
ENDBRANCH   3   4
ENDBRANCH   2   3
ENDBRANCH   1   2
BRANCH   1  11
ATOM     11  C   UNL     1     -16.092   9.929   5.428  1.00  0.00     0.000 C 
BRANCH  11  12
ATOM     12  C   UNL     1     -15.169  10.285   4.248  1.00  0.00    -0.000 C 
BRANCH  12  13
ATOM     13  C   UNL     1     -14.134   9.188   3.959  1.00  0.00    -0.000 C 
BRANCH  13  14
ATOM     14  C   UNL     1     -12.722   9.754   3.727  1.00  0.00    -0.000 C 
BRANCH  14  15
ATOM     15  C   UNL     1     -11.751   9.409   4.866  1.00  0.00    -0.000 C 
BRANCH  15  16
ATOM     16  C   UNL     1     -11.907  10.341   6.077  1.00  0.00    -0.000 C 
BRANCH  16  17
ATOM     17  C   UNL     1     -12.081  11.798   5.630  1.00  0.00    -0.003 C 
ATOM     18  C   UNL     1     -10.790  12.589   5.817  1.00  0.00     0.004 C 
ENDBRANCH  16  17
ENDBRANCH  15  16
ENDBRANCH  14  15
ENDBRANCH  13  14
ENDBRANCH  12  13
ENDBRANCH  11  12
ENDBRANCH   1  11
TORSDOF 14
ENDMDL
MODEL 9
REMARK VINA RESULT:    -2.682     13.149     15.402
REMARK INTER + INTRA:          -6.798
REMARK INTER:                  -5.271
REMARK INTRA:                  -1.527
REMARK UNBOUND:                -1.922
REMARK SMILES CCCCCCCCCCCCCCCC(=O)[O-]
REMARK SMILES IDX 9 1 10 2 11 3 12 4 13 5 14 6 15 7 16 8 17 9 18 10 8 11 7 12
REMARK SMILES IDX 6 13 5 14 4 15 3 16 2 17 1 18
REMARK H PARENT
REMARK Flexibility Score: inf
ROOT
ATOM      1  C   UNL     1     -16.702   9.321   7.359  1.00  0.00     0.000 C 
ENDROOT
BRANCH   1   2
ATOM      2  C   UNL     1     -16.076  10.341   8.321  1.00  0.00     0.000 C 
BRANCH   2   3
ATOM      3  C   UNL     1     -16.471  10.041   9.773  1.00  0.00     0.000 C 
BRANCH   3   4
ATOM      4  C   UNL     1     -15.555   8.968  10.381  1.00  0.00     0.000 C 
BRANCH   4   5
ATOM      5  C   UNL     1     -14.068   9.351  10.314  1.00  0.00     0.000 C 
BRANCH   5   6
ATOM      6  C   UNL     1     -13.396   9.361  11.698  1.00  0.00     0.006 C 
BRANCH   6   7
ATOM      7  C   UNL     1     -13.505  10.729  12.385  1.00  0.00     0.053 C 
BRANCH   7   8
ATOM      8  C   UNL     1     -14.700  10.806  13.285  1.00  0.00     0.041 C 
ATOM      9  O   UNL     1     -14.923   9.894  14.124  1.00  0.00    -0.550 OA
ATOM     10  O   UNL     1     -15.551  11.903  13.218  1.00  0.00    -0.550 OA
ENDBRANCH   7   8
ENDBRANCH   6   7
ENDBRANCH   5   6
ENDBRANCH   4   5
ENDBRANCH   3   4
ENDBRANCH   2   3
ENDBRANCH   1   2
BRANCH   1  11
ATOM     11  C   UNL     1     -17.473   9.990   6.209  1.00  0.00     0.000 C 
BRANCH  11  12
ATOM     12  C   UNL     1     -17.204   9.320   4.850  1.00  0.00    -0.000 C 
BRANCH  12  13
ATOM     13  C   UNL     1     -15.760   9.526   4.368  1.00  0.00    -0.000 C 
BRANCH  13  14
ATOM     14  C   UNL     1     -15.311  10.995   4.457  1.00  0.00    -0.000 C 
BRANCH  14  15
ATOM     15  C   UNL     1     -13.944  11.156   5.139  1.00  0.00    -0.000 C 
BRANCH  15  16
ATOM     16  C   UNL     1     -12.838  10.350   4.442  1.00  0.00    -0.000 C 
BRANCH  16  17
ATOM     17  C   UNL     1     -12.088   9.466   5.445  1.00  0.00    -0.003 C 
ATOM     18  C   UNL     1     -12.801   9.436   6.794  1.00  0.00     0.004 C 
ENDBRANCH  16  17
ENDBRANCH  15  16
ENDBRANCH  14  15
ENDBRANCH  13  14
ENDBRANCH  12  13
ENDBRANCH  11  12
ENDBRANCH   1  11
TORSDOF 14
ENDMDL
