MODEL 1
REMARK VINA RESULT:    -8.070      0.000      0.000
REMARK INTER + INTRA:          -8.181
REMARK INTER:                  -8.777
REMARK INTRA:                   0.597
REMARK UNBOUND:                 0.597
REMARK SMILES C[C@H]1[C@H]2C3=CC[C@@H]4[C@@]5(C)CC[C@H](O)C(C)(C)[C@@H]5CC[C@@]4(C)[C@]3(C)CC[C@]2(C(=O)[O-])CC[C@@H]1C
REMARK SMILES IDX 26 1 30 2 25 3 3 4 31 5 24 6 4 7 2 8 32 9 22 10 5 11 1 12
REMARK SMILES IDX 33 13 23 14 20 15 6 16 7 17 19 18 21 19 8 20 18 21 17 22
REMARK SMILES IDX 10 23 9 24 14 25 11 26 12 27 15 28 16 29 27 30 28 31 29 32
REMARK SMILES IDX 13 33
REMARK H PARENT 13 34
REMARK Flexibility Score: inf
ROOT
ATOM      1  C   UNL     1      17.821  56.155  -1.219  1.00  0.00     0.017 C 
ATOM      2  C   UNL     1      17.147  57.483  -0.763  1.00  0.00     0.014 C 
ATOM      3  C   UNL     1      17.448  55.034  -0.182  1.00  0.00     0.014 C 
ATOM      4  C   UNL     1      17.281  55.817  -2.656  1.00  0.00     0.030 C 
ATOM      5  C   UNL     1      17.372  58.648  -1.738  1.00  0.00     0.004 C 
ATOM      6  C   UNL     1      16.779  53.780  -0.779  1.00  0.00     0.013 C 
ATOM      7  C   UNL     1      17.632  54.384  -3.102  1.00  0.00    -0.063 C 
ATOM      8  C   UNL     1      17.491  56.981  -3.694  1.00  0.00    -0.003 C 
ATOM      9  C   UNL     1      16.903  58.327  -3.173  1.00  0.00    -0.011 C 
ATOM     10  C   UNL     1      17.446  53.242  -2.090  1.00  0.00    -0.006 C 
ATOM     11  C   UNL     1      17.837  54.070  -4.410  1.00  0.00    -0.027 C 
ATOM     12  C   UNL     1      18.949  57.190  -4.164  1.00  0.00     0.008 C 
ATOM     13  C   UNL     1      15.369  58.379  -3.288  1.00  0.00     0.008 C 
ATOM     14  C   UNL     1      18.878  52.733  -1.706  1.00  0.00     0.017 C 
ATOM     15  C   UNL     1      16.544  52.105  -2.793  1.00  0.00    -0.020 C 
ATOM     16  C   UNL     1      17.886  52.660  -4.965  1.00  0.00     0.032 C 
ATOM     17  C   UNL     1      17.378  51.536  -4.006  1.00  0.00     0.006 C 
ATOM     18  C   UNL     1      16.201  50.939  -1.808  1.00  0.00     0.008 C 
ATOM     19  C   UNL     1      15.183  52.715  -3.279  1.00  0.00     0.012 C 
ATOM     20  C   UNL     1      16.806  50.242  -4.725  1.00  0.00    -0.025 C 
ATOM     21  C   UNL     1      15.628  49.682  -2.491  1.00  0.00     0.005 C 
ATOM     22  C   UNL     1      16.573  49.157  -3.603  1.00  0.00     0.003 C 
ATOM     23  C   UNL     1      17.902  49.696  -5.696  1.00  0.00     0.010 C 
ATOM     24  C   UNL     1      15.519  50.564  -5.558  1.00  0.00     0.012 C 
ATOM     25  C   UNL     1      16.273  47.689  -4.111  1.00  0.00    -0.006 C 
ATOM     26  C   UNL     1      17.606  48.293  -6.244  1.00  0.00     0.033 C 
ATOM     27  C   UNL     1      17.392  47.268  -5.119  1.00  0.00     0.120 C 
ATOM     28  C   UNL     1      14.870  47.536  -4.751  1.00  0.00     0.014 C 
ATOM     29  C   UNL     1      16.339  46.697  -2.917  1.00  0.00     0.014 C 
ENDROOT
BRANCH   1  30
ATOM     30  C   UNL     1      19.340  56.319  -1.193  1.00  0.00     0.048 C 
ATOM     31  O   UNL     1      20.094  55.479  -1.750  1.00  0.00    -0.550 OA
ATOM     32  O   UNL     1      19.923  57.348  -0.463  1.00  0.00    -0.550 OA
ENDBRANCH   1  30
BRANCH  27  33
ATOM     33  O   UNL     1      17.100  46.010  -5.678  1.00  0.00    -0.393 OA
ATOM     34  H   UNL     1      17.640  45.338  -5.187  1.00  0.00     0.210 HD
ENDBRANCH  27  33
TORSDOF 2
ENDMDL
MODEL 2
REMARK VINA RESULT:    -8.033      8.992     10.389
REMARK INTER + INTRA:          -8.141
REMARK INTER:                  -8.738
REMARK INTRA:                   0.597
REMARK UNBOUND:                 0.597
REMARK SMILES C[C@H]1[C@H]2C3=CC[C@@H]4[C@@]5(C)CC[C@H](O)C(C)(C)[C@@H]5CC[C@@]4(C)[C@]3(C)CC[C@]2(C(=O)[O-])CC[C@@H]1C
REMARK SMILES IDX 26 1 30 2 25 3 3 4 31 5 24 6 4 7 2 8 32 9 22 10 5 11 1 12
REMARK SMILES IDX 33 13 23 14 20 15 6 16 7 17 19 18 21 19 8 20 18 21 17 22
REMARK SMILES IDX 10 23 9 24 14 25 11 26 12 27 15 28 16 29 27 30 28 31 29 32
REMARK SMILES IDX 13 33
REMARK H PARENT 13 34
REMARK Flexibility Score: inf
ROOT
ATOM      1  C   UNL     1      27.008  52.269  -1.199  1.00  0.00     0.017 C 
ATOM      2  C   UNL     1      26.125  53.069  -0.195  1.00  0.00     0.014 C 
ATOM      3  C   UNL     1      27.332  50.870  -0.560  1.00  0.00     0.014 C 
ATOM      4  C   UNL     1      26.193  52.120  -2.535  1.00  0.00     0.030 C 
ATOM      5  C   UNL     1      25.673  54.434  -0.733  1.00  0.00     0.004 C 
ATOM      6  C   UNL     1      26.939  49.648  -1.413  1.00  0.00     0.013 C 
ATOM      7  C   UNL     1      26.820  51.099  -3.504  1.00  0.00    -0.063 C 
ATOM      8  C   UNL     1      25.708  53.495  -3.128  1.00  0.00    -0.003 C 
ATOM      9  C   UNL     1      24.918  54.327  -2.075  1.00  0.00    -0.011 C 
ATOM     10  C   UNL     1      27.312  49.760  -2.931  1.00  0.00    -0.006 C 
ATOM     11  C   UNL     1      26.708  51.230  -4.853  1.00  0.00    -0.027 C 
ATOM     12  C   UNL     1      26.815  54.365  -3.765  1.00  0.00     0.008 C 
ATOM     13  C   UNL     1      23.483  53.805  -1.873  1.00  0.00     0.008 C 
ATOM     14  C   UNL     1      28.877  49.770  -3.024  1.00  0.00     0.017 C 
ATOM     15  C   UNL     1      26.640  48.578  -3.798  1.00  0.00    -0.020 C 
ATOM     16  C   UNL     1      27.023  50.138  -5.858  1.00  0.00     0.032 C 
ATOM     17  C   UNL     1      27.203  48.704  -5.267  1.00  0.00     0.006 C 
ATOM     18  C   UNL     1      26.989  47.164  -3.228  1.00  0.00     0.008 C 
ATOM     19  C   UNL     1      25.077  48.712  -3.778  1.00  0.00     0.012 C 
ATOM     20  C   UNL     1      26.871  47.515  -6.265  1.00  0.00    -0.025 C 
ATOM     21  C   UNL     1      26.657  45.998  -4.180  1.00  0.00     0.005 C 
ATOM     22  C   UNL     1      27.337  46.181  -5.562  1.00  0.00     0.003 C 
ATOM     23  C   UNL     1      27.736  47.702  -7.553  1.00  0.00     0.010 C 
ATOM     24  C   UNL     1      25.360  47.509  -6.677  1.00  0.00     0.012 C 
ATOM     25  C   UNL     1      27.369  44.891  -6.478  1.00  0.00    -0.006 C 
ATOM     26  C   UNL     1      27.739  46.481  -8.484  1.00  0.00     0.033 C 
ATOM     27  C   UNL     1      28.204  45.207  -7.761  1.00  0.00     0.120 C 
ATOM     28  C   UNL     1      25.959  44.370  -6.854  1.00  0.00     0.014 C 
ATOM     29  C   UNL     1      28.097  43.737  -5.733  1.00  0.00     0.014 C 
ENDROOT
BRANCH   1  30
ATOM     30  C   UNL     1      28.334  52.999  -1.405  1.00  0.00     0.048 C 
ATOM     31  O   UNL     1      29.112  52.680  -2.341  1.00  0.00    -0.550 OA
ATOM     32  O   UNL     1      28.754  53.964  -0.498  1.00  0.00    -0.550 OA
ENDBRANCH   1  30
BRANCH  27  33
ATOM     33  O   UNL     1      28.164  44.118  -8.653  1.00  0.00    -0.393 OA
ATOM     34  H   UNL     1      28.957  44.194  -9.243  1.00  0.00     0.210 HD
ENDBRANCH  27  33
TORSDOF 2
ENDMDL
MODEL 3
REMARK VINA RESULT:    -7.843      8.845     12.857
REMARK INTER + INTRA:          -7.934
REMARK INTER:                  -8.532
REMARK INTRA:                   0.598
REMARK UNBOUND:                 0.597
REMARK SMILES C[C@H]1[C@H]2C3=CC[C@@H]4[C@@]5(C)CC[C@H](O)C(C)(C)[C@@H]5CC[C@@]4(C)[C@]3(C)CC[C@]2(C(=O)[O-])CC[C@@H]1C
REMARK SMILES IDX 26 1 30 2 25 3 3 4 31 5 24 6 4 7 2 8 32 9 22 10 5 11 1 12
REMARK SMILES IDX 33 13 23 14 20 15 6 16 7 17 19 18 21 19 8 20 18 21 17 22
REMARK SMILES IDX 10 23 9 24 14 25 11 26 12 27 15 28 16 29 27 30 28 31 29 32
REMARK SMILES IDX 13 33
REMARK H PARENT 13 34
REMARK Flexibility Score: inf
ROOT
ATOM      1  C   UNL     1      27.361  47.926  -6.637  1.00  0.00     0.017 C 
ATOM      2  C   UNL     1      26.637  47.202  -7.811  1.00  0.00     0.014 C 
ATOM      3  C   UNL     1      27.907  49.300  -7.171  1.00  0.00     0.014 C 
ATOM      4  C   UNL     1      26.311  48.129  -5.484  1.00  0.00     0.030 C 
ATOM      5  C   UNL     1      25.989  45.872  -7.400  1.00  0.00     0.004 C 
ATOM      6  C   UNL     1      27.443  50.543  -6.386  1.00  0.00     0.013 C 
ATOM      7  C   UNL     1      26.807  49.094  -4.390  1.00  0.00    -0.063 C 
ATOM      8  C   UNL     1      25.619  46.792  -5.026  1.00  0.00    -0.003 C 
ATOM      9  C   UNL     1      24.993  46.027  -6.231  1.00  0.00    -0.011 C 
ATOM     10  C   UNL     1      27.499  50.394  -4.827  1.00  0.00    -0.006 C 
ATOM     11  C   UNL     1      26.422  48.964  -3.092  1.00  0.00    -0.027 C 
ATOM     12  C   UNL     1      26.512  45.836  -4.203  1.00  0.00     0.008 C 
ATOM     13  C   UNL     1      23.669  46.658  -6.700  1.00  0.00     0.008 C 
ATOM     14  C   UNL     1      29.010  50.265  -4.429  1.00  0.00     0.017 C 
ATOM     15  C   UNL     1      26.759  51.619  -4.085  1.00  0.00    -0.020 C 
ATOM     16  C   UNL     1      26.611  50.023  -2.022  1.00  0.00     0.032 C 
ATOM     17  C   UNL     1      27.009  51.443  -2.537  1.00  0.00     0.006 C 
ATOM     18  C   UNL     1      27.316  53.006  -4.547  1.00  0.00     0.008 C 
ATOM     19  C   UNL     1      25.225  51.605  -4.415  1.00  0.00     0.012 C 
ATOM     20  C   UNL     1      26.575  52.647  -1.599  1.00  0.00    -0.025 C 
ATOM     21  C   UNL     1      26.889  54.188  -3.655  1.00  0.00     0.005 C 
ATOM     22  C   UNL     1      27.267  53.946  -2.169  1.00  0.00     0.003 C 
ATOM     23  C   UNL     1      27.153  52.388  -0.171  1.00  0.00     0.010 C 
ATOM     24  C   UNL     1      25.017  52.766  -1.492  1.00  0.00     0.012 C 
ATOM     25  C   UNL     1      27.213  55.225  -1.239  1.00  0.00    -0.006 C 
ATOM     26  C   UNL     1      27.062  53.600   0.767  1.00  0.00     0.033 C 
ATOM     27  C   UNL     1      27.753  54.839   0.177  1.00  0.00     0.120 C 
ATOM     28  C   UNL     1      25.798  55.850  -1.137  1.00  0.00     0.014 C 
ATOM     29  C   UNL     1      28.156  56.324  -1.803  1.00  0.00     0.014 C 
ENDROOT
BRANCH   1  30
ATOM     30  C   UNL     1      28.563  47.096  -6.189  1.00  0.00     0.048 C 
ATOM     31  O   UNL     1      29.125  47.312  -5.084  1.00  0.00    -0.550 OA
ATOM     32  O   UNL     1      29.123  46.153  -7.042  1.00  0.00    -0.550 OA
ENDBRANCH   1  30
BRANCH  27  33
ATOM     33  O   UNL     1      27.617  55.922   1.065  1.00  0.00    -0.393 OA
ATOM     34  H   UNL     1      26.660  55.970   1.324  1.00  0.00     0.210 HD
ENDBRANCH  27  33
TORSDOF 2
ENDMDL
MODEL 4
REMARK VINA RESULT:    -7.733      1.978      8.108
REMARK INTER + INTRA:          -7.815
REMARK INTER:                  -8.410
REMARK INTRA:                   0.595
REMARK UNBOUND:                 0.597
REMARK SMILES C[C@H]1[C@H]2C3=CC[C@@H]4[C@@]5(C)CC[C@H](O)C(C)(C)[C@@H]5CC[C@@]4(C)[C@]3(C)CC[C@]2(C(=O)[O-])CC[C@@H]1C
REMARK SMILES IDX 26 1 30 2 25 3 3 4 31 5 24 6 4 7 2 8 32 9 22 10 5 11 1 12
REMARK SMILES IDX 33 13 23 14 20 15 6 16 7 17 19 18 21 19 8 20 18 21 17 22
REMARK SMILES IDX 10 23 9 24 14 25 11 26 12 27 15 28 16 29 27 30 28 31 29 32
REMARK SMILES IDX 13 33
REMARK H PARENT 13 34
REMARK Flexibility Score: inf
ROOT
ATOM      1  C   UNL     1      15.801  49.944  -3.528  1.00  0.00     0.017 C 
ATOM      2  C   UNL     1      15.923  48.397  -3.669  1.00  0.00     0.014 C 
ATOM      3  C   UNL     1      15.679  50.288  -1.999  1.00  0.00     0.014 C 
ATOM      4  C   UNL     1      17.088  50.582  -4.165  1.00  0.00     0.030 C 
ATOM      5  C   UNL     1      16.124  47.931  -5.118  1.00  0.00     0.004 C 
ATOM      6  C   UNL     1      16.726  51.283  -1.462  1.00  0.00     0.013 C 
ATOM      7  C   UNL     1      17.239  52.079  -3.827  1.00  0.00    -0.063 C 
ATOM      8  C   UNL     1      17.338  50.136  -5.653  1.00  0.00    -0.003 C 
ATOM      9  C   UNL     1      17.350  48.584  -5.792  1.00  0.00    -0.011 C 
ATOM     10  C   UNL     1      16.981  52.527  -2.380  1.00  0.00    -0.006 C 
ATOM     11  C   UNL     1      17.840  52.949  -4.683  1.00  0.00    -0.027 C 
ATOM     12  C   UNL     1      16.376  50.750  -6.695  1.00  0.00     0.008 C 
ATOM     13  C   UNL     1      18.666  47.962  -5.289  1.00  0.00     0.008 C 
ATOM     14  C   UNL     1      15.660  53.372  -2.391  1.00  0.00     0.017 C 
ATOM     15  C   UNL     1      18.263  53.375  -1.892  1.00  0.00    -0.020 C 
ATOM     16  C   UNL     1      18.297  54.348  -4.316  1.00  0.00     0.032 C 
ATOM     17  C   UNL     1      18.330  54.672  -2.789  1.00  0.00     0.006 C 
ATOM     18  C   UNL     1      18.152  53.789  -0.388  1.00  0.00     0.008 C 
ATOM     19  C   UNL     1      19.568  52.517  -2.040  1.00  0.00     0.012 C 
ATOM     20  C   UNL     1      19.372  55.788  -2.357  1.00  0.00    -0.025 C 
ATOM     21  C   UNL     1      19.169  54.860   0.050  1.00  0.00     0.005 C 
ATOM     22  C   UNL     1      19.083  56.126  -0.843  1.00  0.00     0.003 C 
ATOM     23  C   UNL     1      19.085  57.075  -3.195  1.00  0.00     0.010 C 
ATOM     24  C   UNL     1      20.847  55.337  -2.625  1.00  0.00     0.012 C 
ATOM     25  C   UNL     1      19.807  57.411  -0.270  1.00  0.00    -0.006 C 
ATOM     26  C   UNL     1      19.820  58.325  -2.690  1.00  0.00     0.033 C 
ATOM     27  C   UNL     1      19.506  58.620  -1.215  1.00  0.00     0.120 C 
ATOM     28  C   UNL     1      21.335  57.224  -0.086  1.00  0.00     0.014 C 
ATOM     29  C   UNL     1      19.221  57.766   1.125  1.00  0.00     0.014 C 
ENDROOT
BRANCH   1  30
ATOM     30  C   UNL     1      14.518  50.418  -4.210  1.00  0.00     0.048 C 
ATOM     31  O   UNL     1      14.324  51.638  -4.451  1.00  0.00    -0.550 OA
ATOM     32  O   UNL     1      13.494  49.519  -4.485  1.00  0.00    -0.550 OA
ENDBRANCH   1  30
BRANCH  27  33
ATOM     33  O   UNL     1      20.224  59.757  -0.800  1.00  0.00    -0.393 OA
ATOM     34  H   UNL     1      20.861  59.462  -0.099  1.00  0.00     0.210 HD
ENDBRANCH  27  33
TORSDOF 2
ENDMDL
MODEL 5
REMARK VINA RESULT:    -7.699      9.418     13.511
REMARK INTER + INTRA:          -7.777
REMARK INTER:                  -8.378
REMARK INTRA:                   0.601
REMARK UNBOUND:                 0.597
REMARK SMILES C[C@H]1[C@H]2C3=CC[C@@H]4[C@@]5(C)CC[C@H](O)C(C)(C)[C@@H]5CC[C@@]4(C)[C@]3(C)CC[C@]2(C(=O)[O-])CC[C@@H]1C
REMARK SMILES IDX 26 1 30 2 25 3 3 4 31 5 24 6 4 7 2 8 32 9 22 10 5 11 1 12
REMARK SMILES IDX 33 13 23 14 20 15 6 16 7 17 19 18 21 19 8 20 18 21 17 22
REMARK SMILES IDX 10 23 9 24 14 25 11 26 12 27 15 28 16 29 27 30 28 31 29 32
REMARK SMILES IDX 13 33
REMARK H PARENT 13 34
REMARK Flexibility Score: inf
ROOT
ATOM      1  C   UNL     1      26.803  46.393  -7.138  1.00  0.00     0.017 C 
ATOM      2  C   UNL     1      25.962  45.137  -7.511  1.00  0.00     0.014 C 
ATOM      3  C   UNL     1      26.027  47.667  -7.631  1.00  0.00     0.014 C 
ATOM      4  C   UNL     1      26.988  46.394  -5.577  1.00  0.00     0.030 C 
ATOM      5  C   UNL     1      26.578  43.820  -7.016  1.00  0.00     0.004 C 
ATOM      6  C   UNL     1      25.737  48.723  -6.545  1.00  0.00     0.013 C 
ATOM      7  C   UNL     1      27.541  47.731  -5.045  1.00  0.00    -0.063 C 
ATOM      8  C   UNL     1      27.619  45.065  -5.019  1.00  0.00    -0.003 C 
ATOM      9  C   UNL     1      26.824  43.811  -5.492  1.00  0.00    -0.011 C 
ATOM     10  C   UNL     1      26.942  49.036  -5.595  1.00  0.00    -0.006 C 
ATOM     11  C   UNL     1      28.328  47.791  -3.937  1.00  0.00    -0.027 C 
ATOM     12  C   UNL     1      29.125  44.876  -5.314  1.00  0.00     0.008 C 
ATOM     13  C   UNL     1      25.511  43.622  -4.711  1.00  0.00     0.008 C 
ATOM     14  C   UNL     1      28.054  49.717  -6.466  1.00  0.00     0.017 C 
ATOM     15  C   UNL     1      26.490  49.938  -4.338  1.00  0.00    -0.020 C 
ATOM     16  C   UNL     1      28.661  49.061  -3.178  1.00  0.00     0.032 C 
ATOM     17  C   UNL     1      27.801  50.313  -3.541  1.00  0.00     0.006 C 
ATOM     18  C   UNL     1      25.765  51.248  -4.789  1.00  0.00     0.008 C 
ATOM     19  C   UNL     1      25.487  49.143  -3.432  1.00  0.00     0.012 C 
ATOM     20  C   UNL     1      27.653  51.390  -2.385  1.00  0.00    -0.025 C 
ATOM     21  C   UNL     1      25.599  52.297  -3.671  1.00  0.00     0.005 C 
ATOM     22  C   UNL     1      26.962  52.657  -3.022  1.00  0.00     0.003 C 
ATOM     23  C   UNL     1      29.085  51.811  -1.922  1.00  0.00     0.010 C 
ATOM     24  C   UNL     1      26.881  50.812  -1.151  1.00  0.00     0.012 C 
ATOM     25  C   UNL     1      26.964  53.967  -2.135  1.00  0.00    -0.006 C 
ATOM     26  C   UNL     1      29.108  53.049  -1.015  1.00  0.00     0.033 C 
ATOM     27  C   UNL     1      28.430  54.260  -1.676  1.00  0.00     0.120 C 
ATOM     28  C   UNL     1      26.012  53.884  -0.914  1.00  0.00     0.014 C 
ATOM     29  C   UNL     1      26.503  55.181  -2.989  1.00  0.00     0.014 C 
ENDROOT
BRANCH   1  30
ATOM     30  C   UNL     1      28.138  46.351  -7.881  1.00  0.00     0.048 C 
ATOM     31  O   UNL     1      29.092  47.100  -7.545  1.00  0.00    -0.550 OA
ATOM     32  O   UNL     1      28.289  45.556  -9.011  1.00  0.00    -0.550 OA
ENDBRANCH   1  30
BRANCH  27  33
ATOM     33  O   UNL     1      28.458  55.356  -0.793  1.00  0.00    -0.393 OA
ATOM     34  H   UNL     1      28.860  56.118  -1.284  1.00  0.00     0.210 HD
ENDBRANCH  27  33
TORSDOF 2
ENDMDL
MODEL 6
REMARK VINA RESULT:    -7.377      9.046     12.967
REMARK INTER + INTRA:          -7.428
REMARK INTER:                  -8.028
REMARK INTRA:                   0.600
REMARK UNBOUND:                 0.597
REMARK SMILES C[C@H]1[C@H]2C3=CC[C@@H]4[C@@]5(C)CC[C@H](O)C(C)(C)[C@@H]5CC[C@@]4(C)[C@]3(C)CC[C@]2(C(=O)[O-])CC[C@@H]1C
REMARK SMILES IDX 26 1 30 2 25 3 3 4 31 5 24 6 4 7 2 8 32 9 22 10 5 11 1 12
REMARK SMILES IDX 33 13 23 14 20 15 6 16 7 17 19 18 21 19 8 20 18 21 17 22
REMARK SMILES IDX 10 23 9 24 14 25 11 26 12 27 15 28 16 29 27 30 28 31 29 32
REMARK SMILES IDX 13 33
REMARK H PARENT 13 34
REMARK Flexibility Score: inf
ROOT
ATOM      1  C   UNL     1      27.889  47.287  -5.251  1.00  0.00     0.017 C 
ATOM      2  C   UNL     1      28.571  46.552  -6.443  1.00  0.00     0.014 C 
ATOM      3  C   UNL     1      28.984  47.579  -4.163  1.00  0.00     0.014 C 
ATOM      4  C   UNL     1      27.257  48.614  -5.809  1.00  0.00     0.030 C 
ATOM      5  C   UNL     1      27.618  46.273  -7.615  1.00  0.00     0.004 C 
ATOM      6  C   UNL     1      29.122  49.057  -3.748  1.00  0.00     0.013 C 
ATOM      7  C   UNL     1      26.814  49.578  -4.691  1.00  0.00    -0.063 C 
ATOM      8  C   UNL     1      26.270  48.380  -7.012  1.00  0.00    -0.003 C 
ATOM      9  C   UNL     1      26.938  47.551  -8.150  1.00  0.00    -0.011 C 
ATOM     10  C   UNL     1      27.764  49.800  -3.504  1.00  0.00    -0.006 C 
ATOM     11  C   UNL     1      25.759  50.422  -4.850  1.00  0.00    -0.027 C 
ATOM     12  C   UNL     1      24.908  47.754  -6.634  1.00  0.00     0.008 C 
ATOM     13  C   UNL     1      27.910  48.394  -8.995  1.00  0.00     0.008 C 
ATOM     14  C   UNL     1      27.094  49.139  -2.251  1.00  0.00     0.017 C 
ATOM     15  C   UNL     1      27.978  51.390  -3.336  1.00  0.00    -0.020 C 
ATOM     16  C   UNL     1      25.444  51.595  -3.941  1.00  0.00     0.032 C 
ATOM     17  C   UNL     1      26.577  52.006  -2.948  1.00  0.00     0.006 C 
ATOM     18  C   UNL     1      29.019  51.725  -2.219  1.00  0.00     0.008 C 
ATOM     19  C   UNL     1      28.517  52.009  -4.672  1.00  0.00     0.012 C 
ATOM     20  C   UNL     1      26.564  53.529  -2.501  1.00  0.00    -0.025 C 
ATOM     21  C   UNL     1      29.030  53.204  -1.787  1.00  0.00     0.005 C 
ATOM     22  C   UNL     1      27.621  53.676  -1.339  1.00  0.00     0.003 C 
ATOM     23  C   UNL     1      25.156  53.853  -1.908  1.00  0.00     0.010 C 
ATOM     24  C   UNL     1      26.828  54.489  -3.710  1.00  0.00     0.012 C 
ATOM     25  C   UNL     1      27.586  55.042  -0.540  1.00  0.00    -0.006 C 
ATOM     26  C   UNL     1      25.083  55.199  -1.173  1.00  0.00     0.033 C 
ATOM     27  C   UNL     1      26.124  55.298  -0.047  1.00  0.00     0.120 C 
ATOM     28  C   UNL     1      28.108  56.248  -1.362  1.00  0.00     0.014 C 
ATOM     29  C   UNL     1      28.481  54.932   0.726  1.00  0.00     0.014 C 
ENDROOT
BRANCH   1  30
ATOM     30  C   UNL     1      26.845  46.368  -4.617  1.00  0.00     0.048 C 
ATOM     31  O   UNL     1      25.993  46.816  -3.806  1.00  0.00    -0.550 OA
ATOM     32  O   UNL     1      26.881  44.998  -4.847  1.00  0.00    -0.550 OA
ENDBRANCH   1  30
BRANCH  27  33
ATOM     33  O   UNL     1      26.029  56.557   0.573  1.00  0.00    -0.393 OA
ATOM     34  H   UNL     1      26.918  56.760   0.962  1.00  0.00     0.210 HD
ENDBRANCH  27  33
TORSDOF 2
ENDMDL
MODEL 7
REMARK VINA RESULT:    -7.308      9.062     13.107
REMARK INTER + INTRA:          -7.352
REMARK INTER:                  -7.943
REMARK INTRA:                   0.591
REMARK UNBOUND:                 0.597
REMARK SMILES C[C@H]1[C@H]2C3=CC[C@@H]4[C@@]5(C)CC[C@H](O)C(C)(C)[C@@H]5CC[C@@]4(C)[C@]3(C)CC[C@]2(C(=O)[O-])CC[C@@H]1C
REMARK SMILES IDX 26 1 30 2 25 3 3 4 31 5 24 6 4 7 2 8 32 9 22 10 5 11 1 12
REMARK SMILES IDX 33 13 23 14 20 15 6 16 7 17 19 18 21 19 8 20 18 21 17 22
REMARK SMILES IDX 10 23 9 24 14 25 11 26 12 27 15 28 16 29 27 30 28 31 29 32
REMARK SMILES IDX 13 33
REMARK H PARENT 13 34
REMARK Flexibility Score: inf
ROOT
ATOM      1  C   UNL     1      27.377  45.712  -5.681  1.00  0.00     0.017 C 
ATOM      2  C   UNL     1      28.298  44.788  -6.532  1.00  0.00     0.014 C 
ATOM      3  C   UNL     1      27.986  45.815  -4.235  1.00  0.00     0.014 C 
ATOM      4  C   UNL     1      27.326  47.115  -6.389  1.00  0.00     0.030 C 
ATOM      5  C   UNL     1      27.852  44.664  -7.996  1.00  0.00     0.004 C 
ATOM      6  C   UNL     1      28.267  47.247  -3.739  1.00  0.00     0.013 C 
ATOM      7  C   UNL     1      26.698  48.207  -5.501  1.00  0.00    -0.063 C 
ATOM      8  C   UNL     1      26.872  47.040  -7.894  1.00  0.00    -0.003 C 
ATOM      9  C   UNL     1      27.738  46.030  -8.705  1.00  0.00    -0.011 C 
ATOM     10  C   UNL     1      27.123  48.278  -4.026  1.00  0.00    -0.006 C 
ATOM     11  C   UNL     1      26.005  49.251  -6.032  1.00  0.00    -0.027 C 
ATOM     12  C   UNL     1      25.371  46.745  -8.116  1.00  0.00     0.008 C 
ATOM     13  C   UNL     1      29.125  46.599  -9.057  1.00  0.00     0.008 C 
ATOM     14  C   UNL     1      25.882  47.842  -3.172  1.00  0.00     0.017 C 
ATOM     15  C   UNL     1      27.593  49.790  -3.721  1.00  0.00    -0.020 C 
ATOM     16  C   UNL     1      25.621  50.509  -5.276  1.00  0.00     0.032 C 
ATOM     17  C   UNL     1      26.326  50.714  -3.898  1.00  0.00     0.006 C 
ATOM     18  C   UNL     1      28.152  49.947  -2.269  1.00  0.00     0.008 C 
ATOM     19  C   UNL     1      28.740  50.209  -4.706  1.00  0.00     0.012 C 
ATOM     20  C   UNL     1      26.470  52.224  -3.431  1.00  0.00    -0.025 C 
ATOM     21  C   UNL     1      28.313  51.409  -1.808  1.00  0.00     0.005 C 
ATOM     22  C   UNL     1      26.983  52.197  -1.939  1.00  0.00     0.003 C 
ATOM     23  C   UNL     1      25.050  52.875  -3.435  1.00  0.00     0.010 C 
ATOM     24  C   UNL     1      27.395  53.042  -4.394  1.00  0.00     0.012 C 
ATOM     25  C   UNL     1      26.933  53.576  -1.165  1.00  0.00    -0.006 C 
ATOM     26  C   UNL     1      24.988  54.240  -2.735  1.00  0.00     0.033 C 
ATOM     27  C   UNL     1      25.490  54.167  -1.284  1.00  0.00     0.120 C 
ATOM     28  C   UNL     1      27.989  54.597  -1.660  1.00  0.00     0.014 C 
ATOM     29  C   UNL     1      27.205  53.339   0.347  1.00  0.00     0.014 C 
ENDROOT
BRANCH   1  30
ATOM     30  C   UNL     1      25.994  45.075  -5.553  1.00  0.00     0.048 C 
ATOM     31  O   UNL     1      25.003  45.746  -5.163  1.00  0.00    -0.550 OA
ATOM     32  O   UNL     1      25.824  43.713  -5.769  1.00  0.00    -0.550 OA
ENDBRANCH   1  30
BRANCH  27  33
ATOM     33  O   UNL     1      25.435  55.447  -0.702  1.00  0.00    -0.393 OA
ATOM     34  H   UNL     1      24.789  55.400   0.049  1.00  0.00     0.210 HD
ENDBRANCH  27  33
TORSDOF 2
ENDMDL
MODEL 8
REMARK VINA RESULT:    -6.915      2.085      8.046
REMARK INTER + INTRA:          -6.925
REMARK INTER:                  -7.683
REMARK INTRA:                   0.758
REMARK UNBOUND:                 0.597
REMARK SMILES C[C@H]1[C@H]2C3=CC[C@@H]4[C@@]5(C)CC[C@H](O)C(C)(C)[C@@H]5CC[C@@]4(C)[C@]3(C)CC[C@]2(C(=O)[O-])CC[C@@H]1C
REMARK SMILES IDX 26 1 30 2 25 3 3 4 31 5 24 6 4 7 2 8 32 9 22 10 5 11 1 12
REMARK SMILES IDX 33 13 23 14 20 15 6 16 7 17 19 18 21 19 8 20 18 21 17 22
REMARK SMILES IDX 10 23 9 24 14 25 11 26 12 27 15 28 16 29 27 30 28 31 29 32
REMARK SMILES IDX 13 33
REMARK H PARENT 13 34
REMARK Flexibility Score: inf
ROOT
ATOM      1  C   UNL     1      14.497  50.322  -3.952  1.00  0.00     0.017 C 
ATOM      2  C   UNL     1      13.845  48.927  -3.714  1.00  0.00     0.014 C 
ATOM      3  C   UNL     1      13.774  51.365  -3.025  1.00  0.00     0.014 C 
ATOM      4  C   UNL     1      16.025  50.198  -3.604  1.00  0.00     0.030 C 
ATOM      5  C   UNL     1      14.514  47.797  -4.510  1.00  0.00     0.004 C 
ATOM      6  C   UNL     1      14.698  52.160  -2.082  1.00  0.00     0.013 C 
ATOM      7  C   UNL     1      16.725  51.567  -3.506  1.00  0.00    -0.063 C 
ATOM      8  C   UNL     1      16.757  49.053  -4.397  1.00  0.00    -0.003 C 
ATOM      9  C   UNL     1      16.028  47.685  -4.232  1.00  0.00    -0.011 C 
ATOM     10  C   UNL     1      16.011  52.697  -2.748  1.00  0.00    -0.006 C 
ATOM     11  C   UNL     1      18.038  51.725  -3.827  1.00  0.00    -0.027 C 
ATOM     12  C   UNL     1      17.003  49.342  -5.895  1.00  0.00     0.008 C 
ATOM     13  C   UNL     1      16.303  47.036  -2.863  1.00  0.00     0.008 C 
ATOM     14  C   UNL     1      15.585  53.765  -3.813  1.00  0.00     0.017 C 
ATOM     15  C   UNL     1      17.039  53.280  -1.651  1.00  0.00    -0.020 C 
ATOM     16  C   UNL     1      18.874  52.941  -3.480  1.00  0.00     0.032 C 
ATOM     17  C   UNL     1      18.244  53.924  -2.442  1.00  0.00     0.006 C 
ATOM     18  C   UNL     1      16.373  54.367  -0.745  1.00  0.00     0.008 C 
ATOM     19  C   UNL     1      17.534  52.130  -0.706  1.00  0.00     0.012 C 
ATOM     20  C   UNL     1      19.285  54.772  -1.596  1.00  0.00    -0.025 C 
ATOM     21  C   UNL     1      17.371  55.188   0.095  1.00  0.00     0.005 C 
ATOM     22  C   UNL     1      18.456  55.850  -0.795  1.00  0.00     0.003 C 
ATOM     23  C   UNL     1      20.219  55.533  -2.590  1.00  0.00     0.010 C 
ATOM     24  C   UNL     1      20.169  53.859  -0.682  1.00  0.00     0.012 C 
ATOM     25  C   UNL     1      19.299  56.994  -0.099  1.00  0.00    -0.006 C 
ATOM     26  C   UNL     1      21.086  56.613  -1.928  1.00  0.00     0.033 C 
ATOM     27  C   UNL     1      20.240  57.644  -1.165  1.00  0.00     0.120 C 
ATOM     28  C   UNL     1      20.112  56.500   1.125  1.00  0.00     0.014 C 
ATOM     29  C   UNL     1      18.346  58.112   0.410  1.00  0.00     0.014 C 
ENDROOT
BRANCH   1  30
ATOM     30  C   UNL     1      14.263  50.753  -5.399  1.00  0.00     0.048 C 
ATOM     31  O   UNL     1      15.141  51.392  -6.036  1.00  0.00    -0.550 OA
ATOM     32  O   UNL     1      13.033  50.536  -6.008  1.00  0.00    -0.550 OA
ENDBRANCH   1  30
BRANCH  27  33
ATOM     33  O   UNL     1      21.086  58.592  -0.560  1.00  0.00    -0.393 OA
ATOM     34  H   UNL     1      21.944  58.135  -0.362  1.00  0.00     0.210 HD
ENDBRANCH  27  33
TORSDOF 2
ENDMDL
MODEL 9
REMARK VINA RESULT:    -6.781      8.946     10.753
REMARK INTER + INTRA:          -6.779
REMARK INTER:                  -7.377
REMARK INTRA:                   0.599
REMARK UNBOUND:                 0.597
REMARK SMILES C[C@H]1[C@H]2C3=CC[C@@H]4[C@@]5(C)CC[C@H](O)C(C)(C)[C@@H]5CC[C@@]4(C)[C@]3(C)CC[C@]2(C(=O)[O-])CC[C@@H]1C
REMARK SMILES IDX 26 1 30 2 25 3 3 4 31 5 24 6 4 7 2 8 32 9 22 10 5 11 1 12
REMARK SMILES IDX 33 13 23 14 20 15 6 16 7 17 19 18 21 19 8 20 18 21 17 22
REMARK SMILES IDX 10 23 9 24 14 25 11 26 12 27 15 28 16 29 27 30 28 31 29 32
REMARK SMILES IDX 13 33
REMARK H PARENT 13 34
REMARK Flexibility Score: inf
ROOT
ATOM      1  C   UNL     1      26.731  53.247  -3.344  1.00  0.00     0.017 C 
ATOM      2  C   UNL     1      27.385  54.344  -2.453  1.00  0.00     0.014 C 
ATOM      3  C   UNL     1      27.642  53.035  -4.608  1.00  0.00     0.014 C 
ATOM      4  C   UNL     1      26.623  51.937  -2.482  1.00  0.00     0.030 C 
ATOM      5  C   UNL     1      26.628  54.595  -1.140  1.00  0.00     0.004 C 
ATOM      6  C   UNL     1      28.117  51.588  -4.842  1.00  0.00     0.013 C 
ATOM      7  C   UNL     1      26.274  50.696  -3.328  1.00  0.00    -0.063 C 
ATOM      8  C   UNL     1      25.852  52.142  -1.125  1.00  0.00    -0.003 C 
ATOM      9  C   UNL     1      26.455  53.315  -0.296  1.00  0.00    -0.011 C 
ATOM     10  C   UNL     1      27.009  50.496  -4.662  1.00  0.00    -0.006 C 
ATOM     11  C   UNL     1      25.554  49.661  -2.817  1.00  0.00    -0.027 C 
ATOM     12  C   UNL     1      24.323  52.321  -1.257  1.00  0.00     0.008 C 
ATOM     13  C   UNL     1      27.768  52.921   0.405  1.00  0.00     0.008 C 
ATOM     14  C   UNL     1      25.955  50.713  -5.802  1.00  0.00     0.017 C 
ATOM     15  C   UNL     1      27.633  49.009  -4.661  1.00  0.00    -0.020 C 
ATOM     16  C   UNL     1      25.425  48.294  -3.462  1.00  0.00     0.032 C 
ATOM     17  C   UNL     1      26.422  47.998  -4.627  1.00  0.00     0.006 C 
ATOM     18  C   UNL     1      28.500  48.738  -5.934  1.00  0.00     0.008 C 
ATOM     19  C   UNL     1      28.568  48.814  -3.416  1.00  0.00     0.012 C 
ATOM     20  C   UNL     1      26.762  46.464  -4.851  1.00  0.00    -0.025 C 
ATOM     21  C   UNL     1      28.853  47.254  -6.155  1.00  0.00     0.005 C 
ATOM     22  C   UNL     1      27.581  46.366  -6.196  1.00  0.00     0.003 C 
ATOM     23  C   UNL     1      25.421  45.689  -5.052  1.00  0.00     0.010 C 
ATOM     24  C   UNL     1      27.511  45.851  -3.619  1.00  0.00     0.012 C 
ATOM     25  C   UNL     1      27.790  44.908  -6.775  1.00  0.00    -0.006 C 
ATOM     26  C   UNL     1      25.602  44.252  -5.563  1.00  0.00     0.033 C 
ATOM     27  C   UNL     1      26.398  44.204  -6.877  1.00  0.00     0.120 C 
ATOM     28  C   UNL     1      28.780  44.053  -5.943  1.00  0.00     0.014 C 
ATOM     29  C   UNL     1      28.364  44.994  -8.217  1.00  0.00     0.014 C 
ENDROOT
BRANCH   1  30
ATOM     30  C   UNL     1      25.369  53.734  -3.835  1.00  0.00     0.048 C 
ATOM     31  O   UNL     1      24.527  52.931  -4.315  1.00  0.00    -0.550 OA
ATOM     32  O   UNL     1      25.073  55.092  -3.856  1.00  0.00    -0.550 OA
ENDBRANCH   1  30
BRANCH  27  33
ATOM     33  O   UNL     1      26.554  42.865  -7.283  1.00  0.00    -0.393 OA
ATOM     34  H   UNL     1      25.646  42.499  -7.439  1.00  0.00     0.210 HD
ENDBRANCH  27  33
TORSDOF 2
ENDMDL
