MODEL 1
REMARK VINA RESULT:    -3.629      0.000      0.000
REMARK INTER + INTRA:          -4.773
REMARK INTER:                  -4.371
REMARK INTRA:                  -0.402
REMARK UNBOUND:                -0.402
REMARK SMILES O=c1c(O)c(-c2ccc(O)cc2O)oc2cc(O)cc(O)c12
REMARK SMILES IDX 5 1 3 2 2 3 1 4 22 5 20 6 19 7 17 8 16 9 15 10 14 11 6 12
REMARK SMILES IDX 8 13 7 14 9 15 11 16 12 17 10 18 13 20 4 22 21 24 18 26
REMARK H PARENT 10 19 13 21 4 23 21 25 18 27
REMARK Flexibility Score: inf
ROOT
ATOM      1  C   UNL     1       8.649   2.409   5.194  1.00  0.00     0.184 A 
ATOM      2  C   UNL     1       8.835   3.406   6.164  1.00  0.00     0.208 A 
ATOM      3  C   UNL     1       9.274   3.036   7.444  1.00  0.00     0.238 A 
ATOM      4  O   UNL     1       9.491   3.940   8.294  1.00  0.00    -0.285 OA
ATOM      5  C   UNL     1       9.505   1.670   7.742  1.00  0.00     0.111 A 
ATOM      6  C   UNL     1       9.912   1.177   9.018  1.00  0.00     0.134 A 
ATOM      7  C   UNL     1      10.236  -0.177   9.163  1.00  0.00     0.093 A 
ATOM      8  C   UNL     1      10.106  -1.067   8.097  1.00  0.00     0.123 A 
ATOM      9  C   UNL     1       9.652  -0.607   6.861  1.00  0.00     0.094 A 
ATOM     10  C   UNL     1       9.355   0.745   6.675  1.00  0.00     0.146 A 
ATOM     11  O   UNL     1       8.936   1.145   5.481  1.00  0.00    -0.451 OA
ENDROOT
BRANCH   1  12
ATOM     12  C   UNL     1       8.173   2.729   3.832  1.00  0.00     0.063 A 
ATOM     13  C   UNL     1       8.694   3.137   1.492  1.00  0.00     0.047 A 
ATOM     14  C   UNL     1       9.110   2.841   2.792  1.00  0.00     0.020 A 
ATOM     15  C   UNL     1       7.333   3.311   1.212  1.00  0.00     0.119 A 
ATOM     16  C   UNL     1       6.390   3.178   2.235  1.00  0.00     0.093 A 
ATOM     17  C   UNL     1       6.800   2.875   3.543  1.00  0.00     0.130 A 
BRANCH  15  18
ATOM     18  O   UNL     1       6.906   3.611  -0.080  1.00  0.00    -0.508 OA
ATOM     19  H   UNL     1       6.376   4.451  -0.281  1.00  0.00     0.293 HD
ENDBRANCH  15  18
BRANCH  17  20
ATOM     20  O   UNL     1       5.845   2.696   4.545  1.00  0.00    -0.507 OA
ATOM     21  H   UNL     1       4.854   2.774   4.355  1.00  0.00     0.293 HD
ENDBRANCH  17  20
ENDBRANCH   1  12
BRANCH   2  22
ATOM     22  O   UNL     1       8.617   4.748   5.838  1.00  0.00    -0.502 OA
ATOM     23  H   UNL     1       9.150   5.228   5.123  1.00  0.00     0.293 HD
ENDBRANCH   2  22
BRANCH   6  24
ATOM     24  O   UNL     1       9.988   1.964  10.172  1.00  0.00    -0.507 OA
ATOM     25  H   UNL     1       9.214   2.151  10.791  1.00  0.00     0.293 HD
ENDBRANCH   6  24
BRANCH   8  26
ATOM     26  O   UNL     1      10.423  -2.411   8.282  1.00  0.00    -0.508 OA
ATOM     27  H   UNL     1       9.907  -2.993   8.931  1.00  0.00     0.293 HD
ENDBRANCH   8  26
TORSDOF 6
ENDMDL
MODEL 2
REMARK VINA RESULT:    -3.564      1.632      6.654
REMARK INTER + INTRA:          -4.695
REMARK INTER:                  -4.271
REMARK INTRA:                  -0.424
REMARK UNBOUND:                -0.402
REMARK SMILES O=c1c(O)c(-c2ccc(O)cc2O)oc2cc(O)cc(O)c12
REMARK SMILES IDX 5 1 3 2 2 3 1 4 22 5 20 6 19 7 17 8 16 9 15 10 14 11 6 12
REMARK SMILES IDX 8 13 7 14 9 15 11 16 12 17 10 18 13 20 4 22 21 24 18 26
REMARK H PARENT 10 19 13 21 4 23 21 25 18 27
REMARK Flexibility Score: inf
ROOT
ATOM      1  C   UNL     1       8.445   2.987   5.743  1.00  0.00     0.184 A 
ATOM      2  C   UNL     1       7.082   3.284   5.591  1.00  0.00     0.208 A 
ATOM      3  C   UNL     1       6.563   3.452   4.298  1.00  0.00     0.238 A 
ATOM      4  O   UNL     1       5.329   3.665   4.164  1.00  0.00    -0.285 OA
ATOM      5  C   UNL     1       7.419   3.336   3.175  1.00  0.00     0.111 A 
ATOM      6  C   UNL     1       7.010   3.526   1.821  1.00  0.00     0.134 A 
ATOM      7  C   UNL     1       7.911   3.259   0.784  1.00  0.00     0.093 A 
ATOM      8  C   UNL     1       9.224   2.873   1.051  1.00  0.00     0.123 A 
ATOM      9  C   UNL     1       9.652   2.741   2.373  1.00  0.00     0.094 A 
ATOM     10  C   UNL     1       8.766   2.966   3.429  1.00  0.00     0.146 A 
ATOM     11  O   UNL     1       9.210   2.819   4.672  1.00  0.00    -0.451 OA
ENDROOT
BRANCH   1  12
ATOM     12  C   UNL     1       9.058   2.815   7.078  1.00  0.00     0.063 A 
ATOM     13  C   UNL     1       9.922   3.825   9.113  1.00  0.00     0.047 A 
ATOM     14  C   UNL     1       9.347   3.953   7.846  1.00  0.00     0.020 A 
ATOM     15  C   UNL     1      10.199   2.556   9.634  1.00  0.00     0.119 A 
ATOM     16  C   UNL     1       9.893   1.415   8.886  1.00  0.00     0.093 A 
ATOM     17  C   UNL     1       9.311   1.535   7.615  1.00  0.00     0.130 A 
BRANCH  15  18
ATOM     18  O   UNL     1      10.776   2.416  10.895  1.00  0.00    -0.508 OA
ATOM     19  H   UNL     1      11.746   2.143  11.006  1.00  0.00     0.293 HD
ENDBRANCH  15  18
BRANCH  17  20
ATOM     20  O   UNL     1       8.964   0.388   6.900  1.00  0.00    -0.507 OA
ATOM     21  H   UNL     1       9.141  -0.540   7.265  1.00  0.00     0.293 HD
ENDBRANCH  17  20
ENDBRANCH   1  12
BRANCH   2  22
ATOM     22  O   UNL     1       6.256   3.376   6.715  1.00  0.00    -0.502 OA
ATOM     23  H   UNL     1       6.291   2.703   7.472  1.00  0.00     0.293 HD
ENDBRANCH   2  22
BRANCH   6  24
ATOM     24  O   UNL     1       5.747   3.997   1.446  1.00  0.00    -0.507 OA
ATOM     25  H   UNL     1       5.058   4.365   2.084  1.00  0.00     0.293 HD
ENDBRANCH   6  24
BRANCH   8  26
ATOM     26  O   UNL     1      10.098   2.630  -0.006  1.00  0.00    -0.508 OA
ATOM     27  H   UNL     1       9.777   2.621  -0.967  1.00  0.00     0.293 HD
ENDBRANCH   8  26
TORSDOF 6
ENDMDL
MODEL 3
REMARK VINA RESULT:    -3.500      1.222      2.865
REMARK INTER + INTRA:          -4.618
REMARK INTER:                  -4.197
REMARK INTRA:                  -0.421
REMARK UNBOUND:                -0.402
REMARK SMILES O=c1c(O)c(-c2ccc(O)cc2O)oc2cc(O)cc(O)c12
REMARK SMILES IDX 5 1 3 2 2 3 1 4 22 5 20 6 19 7 17 8 16 9 15 10 14 11 6 12
REMARK SMILES IDX 8 13 7 14 9 15 11 16 12 17 10 18 13 20 4 22 21 24 18 26
REMARK H PARENT 10 19 13 21 4 23 21 25 18 27
REMARK Flexibility Score: inf
ROOT
ATOM      1  C   UNL     1       8.881   1.925   5.020  1.00  0.00     0.184 A 
ATOM      2  C   UNL     1       9.223   0.579   5.220  1.00  0.00     0.208 A 
ATOM      3  C   UNL     1       9.716   0.182   6.473  1.00  0.00     0.238 A 
ATOM      4  O   UNL     1       9.970  -1.036   6.664  1.00  0.00    -0.285 OA
ATOM      5  C   UNL     1       9.875   1.141   7.503  1.00  0.00     0.111 A 
ATOM      6  C   UNL     1      10.403   0.859   8.799  1.00  0.00     0.134 A 
ATOM      7  C   UNL     1      10.394   1.857   9.780  1.00  0.00     0.093 A 
ATOM      8  C   UNL     1       9.938   3.143   9.496  1.00  0.00     0.123 A 
ATOM      9  C   UNL     1       9.474   3.447   8.215  1.00  0.00     0.094 A 
ATOM     10  C   UNL     1       9.437   2.463   7.224  1.00  0.00     0.146 A 
ATOM     11  O   UNL     1       8.978   2.789   6.023  1.00  0.00    -0.451 OA
ENDROOT
BRANCH   1  12
ATOM     12  C   UNL     1       8.372   2.412   3.720  1.00  0.00     0.063 A 
ATOM     13  C   UNL     1       8.810   2.970   1.395  1.00  0.00     0.047 A 
ATOM     14  C   UNL     1       9.259   2.519   2.638  1.00  0.00     0.020 A 
ATOM     15  C   UNL     1       7.463   3.306   1.213  1.00  0.00     0.119 A 
ATOM     16  C   UNL     1       6.566   3.180   2.279  1.00  0.00     0.093 A 
ATOM     17  C   UNL     1       7.009   2.723   3.529  1.00  0.00     0.130 A 
BRANCH  15  18
ATOM     18  O   UNL     1       7.004   3.761  -0.021  1.00  0.00    -0.508 OA
ATOM     19  H   UNL     1       6.063   4.120  -0.136  1.00  0.00     0.293 HD
ENDBRANCH  15  18
BRANCH  17  20
ATOM     20  O   UNL     1       6.094   2.554   4.569  1.00  0.00    -0.507 OA
ATOM     21  H   UNL     1       6.366   2.146   5.455  1.00  0.00     0.293 HD
ENDBRANCH  17  20
ENDBRANCH   1  12
BRANCH   2  22
ATOM     22  O   UNL     1       9.039  -0.350   4.193  1.00  0.00    -0.502 OA
ATOM     23  H   UNL     1       8.311  -0.252   3.495  1.00  0.00     0.293 HD
ENDBRANCH   2  22
BRANCH   6  24
ATOM     24  O   UNL     1      10.969  -0.368   9.161  1.00  0.00    -0.507 OA
ATOM     25  H   UNL     1      11.193  -0.641  10.106  1.00  0.00     0.293 HD
ENDBRANCH   6  24
BRANCH   8  26
ATOM     26  O   UNL     1       9.958   4.116  10.493  1.00  0.00    -0.508 OA
ATOM     27  H   UNL     1       9.232   4.819  10.562  1.00  0.00     0.293 HD
ENDBRANCH   8  26
TORSDOF 6
ENDMDL
MODEL 4
REMARK VINA RESULT:    -3.481      6.734      7.677
REMARK INTER + INTRA:          -4.595
REMARK INTER:                  -4.320
REMARK INTRA:                  -0.276
REMARK UNBOUND:                -0.402
REMARK SMILES O=c1c(O)c(-c2ccc(O)cc2O)oc2cc(O)cc(O)c12
REMARK SMILES IDX 5 1 3 2 2 3 1 4 22 5 20 6 19 7 17 8 16 9 15 10 14 11 6 12
REMARK SMILES IDX 8 13 7 14 9 15 11 16 12 17 10 18 13 20 4 22 21 24 18 26
REMARK H PARENT 10 19 13 21 4 23 21 25 18 27
REMARK Flexibility Score: inf
ROOT
ATOM      1  C   UNL     1       6.687  -4.311   2.883  1.00  0.00     0.184 A 
ATOM      2  C   UNL     1       7.574  -3.638   3.736  1.00  0.00     0.208 A 
ATOM      3  C   UNL     1       7.328  -3.649   5.118  1.00  0.00     0.238 A 
ATOM      4  O   UNL     1       8.156  -3.089   5.884  1.00  0.00    -0.285 OA
ATOM      5  C   UNL     1       6.189  -4.321   5.625  1.00  0.00     0.111 A 
ATOM      6  C   UNL     1       5.820  -4.364   7.003  1.00  0.00     0.134 A 
ATOM      7  C   UNL     1       4.746  -5.166   7.406  1.00  0.00     0.093 A 
ATOM      8  C   UNL     1       3.988  -5.874   6.475  1.00  0.00     0.123 A 
ATOM      9  C   UNL     1       4.303  -5.794   5.118  1.00  0.00     0.094 A 
ATOM     10  C   UNL     1       5.391  -5.030   4.689  1.00  0.00     0.146 A 
ATOM     11  O   UNL     1       5.664  -4.988   3.391  1.00  0.00    -0.451 OA
ENDROOT
BRANCH   1  12
ATOM     12  C   UNL     1       6.879  -4.324   1.417  1.00  0.00     0.063 A 
ATOM     13  C   UNL     1       8.294  -4.853  -0.488  1.00  0.00     0.047 A 
ATOM     14  C   UNL     1       8.082  -4.821   0.892  1.00  0.00     0.020 A 
ATOM     15  C   UNL     1       7.297  -4.402  -1.363  1.00  0.00     0.119 A 
ATOM     16  C   UNL     1       6.086  -3.927  -0.851  1.00  0.00     0.093 A 
ATOM     17  C   UNL     1       5.864  -3.897   0.534  1.00  0.00     0.130 A 
BRANCH  15  18
ATOM     18  O   UNL     1       7.498  -4.424  -2.741  1.00  0.00    -0.508 OA
ATOM     19  H   UNL     1       6.760  -4.172  -3.388  1.00  0.00     0.293 HD
ENDBRANCH  15  18
BRANCH  17  20
ATOM     20  O   UNL     1       4.632  -3.468   1.030  1.00  0.00    -0.507 OA
ATOM     21  H   UNL     1       4.374  -3.600   2.001  1.00  0.00     0.293 HD
ENDBRANCH  17  20
ENDBRANCH   1  12
BRANCH   2  22
ATOM     22  O   UNL     1       8.700  -2.997   3.211  1.00  0.00    -0.502 OA
ATOM     23  H   UNL     1       9.545  -2.854   3.751  1.00  0.00     0.293 HD
ENDBRANCH   2  22
BRANCH   6  24
ATOM     24  O   UNL     1       6.455  -3.621   8.005  1.00  0.00    -0.507 OA
ATOM     25  H   UNL     1       6.219  -2.672   8.253  1.00  0.00     0.293 HD
ENDBRANCH   6  24
BRANCH   8  26
ATOM     26  O   UNL     1       2.916  -6.651   6.910  1.00  0.00    -0.508 OA
ATOM     27  H   UNL     1       1.959  -6.333   6.817  1.00  0.00     0.293 HD
ENDBRANCH   8  26
TORSDOF 6
ENDMDL
MODEL 5
REMARK VINA RESULT:    -3.462      3.543      7.205
REMARK INTER + INTRA:          -4.572
REMARK INTER:                  -4.182
REMARK INTRA:                  -0.390
REMARK UNBOUND:                -0.402
REMARK SMILES O=c1c(O)c(-c2ccc(O)cc2O)oc2cc(O)cc(O)c12
REMARK SMILES IDX 5 1 3 2 2 3 1 4 22 5 20 6 19 7 17 8 16 9 15 10 14 11 6 12
REMARK SMILES IDX 8 13 7 14 9 15 11 16 12 17 10 18 13 20 4 22 21 24 18 26
REMARK H PARENT 10 19 13 21 4 23 21 25 18 27
REMARK Flexibility Score: inf
ROOT
ATOM      1  C   UNL     1       6.273   3.753   4.650  1.00  0.00     0.184 A 
ATOM      2  C   UNL     1       5.471   3.262   3.609  1.00  0.00     0.208 A 
ATOM      3  C   UNL     1       4.188   3.802   3.426  1.00  0.00     0.238 A 
ATOM      4  O   UNL     1       3.493   3.396   2.457  1.00  0.00    -0.285 OA
ATOM      5  C   UNL     1       3.721   4.816   4.297  1.00  0.00     0.111 A 
ATOM      6  C   UNL     1       2.424   5.409   4.229  1.00  0.00     0.134 A 
ATOM      7  C   UNL     1       2.116   6.493   5.058  1.00  0.00     0.093 A 
ATOM      8  C   UNL     1       3.032   6.965   5.998  1.00  0.00     0.123 A 
ATOM      9  C   UNL     1       4.282   6.356   6.113  1.00  0.00     0.094 A 
ATOM     10  C   UNL     1       4.633   5.295   5.275  1.00  0.00     0.146 A 
ATOM     11  O   UNL     1       5.835   4.749   5.410  1.00  0.00    -0.451 OA
ENDROOT
BRANCH   1  12
ATOM     12  C   UNL     1       7.626   3.216   4.908  1.00  0.00     0.063 A 
ATOM     13  C   UNL     1       9.938   2.980   4.193  1.00  0.00     0.047 A 
ATOM     14  C   UNL     1       8.647   3.468   3.978  1.00  0.00     0.020 A 
ATOM     15  C   UNL     1      10.228   2.246   5.350  1.00  0.00     0.119 A 
ATOM     16  C   UNL     1       9.224   2.010   6.293  1.00  0.00     0.093 A 
ATOM     17  C   UNL     1       7.926   2.501   6.087  1.00  0.00     0.130 A 
BRANCH  15  18
ATOM     18  O   UNL     1      11.511   1.750   5.574  1.00  0.00    -0.508 OA
ATOM     19  H   UNL     1      12.222   1.778   4.852  1.00  0.00     0.293 HD
ENDBRANCH  15  18
BRANCH  17  20
ATOM     20  O   UNL     1       6.945   2.301   7.059  1.00  0.00    -0.507 OA
ATOM     21  H   UNL     1       7.158   1.859   7.945  1.00  0.00     0.293 HD
ENDBRANCH  17  20
ENDBRANCH   1  12
BRANCH   2  22
ATOM     22  O   UNL     1       5.963   2.273   2.753  1.00  0.00    -0.502 OA
ATOM     23  H   UNL     1       6.881   2.329   2.329  1.00  0.00     0.293 HD
ENDBRANCH   2  22
BRANCH   6  24
ATOM     24  O   UNL     1       1.401   4.955   3.389  1.00  0.00    -0.507 OA
ATOM     25  H   UNL     1       1.243   5.281   2.448  1.00  0.00     0.293 HD
ENDBRANCH   6  24
BRANCH   8  26
ATOM     26  O   UNL     1       2.686   8.037   6.817  1.00  0.00    -0.508 OA
ATOM     27  H   UNL     1       2.818   8.996   6.519  1.00  0.00     0.293 HD
ENDBRANCH   8  26
TORSDOF 6
ENDMDL
MODEL 6
REMARK VINA RESULT:    -3.459      2.887      5.257
REMARK INTER + INTRA:          -4.569
REMARK INTER:                  -4.162
REMARK INTRA:                  -0.407
REMARK UNBOUND:                -0.402
REMARK SMILES O=c1c(O)c(-c2ccc(O)cc2O)oc2cc(O)cc(O)c12
REMARK SMILES IDX 5 1 3 2 2 3 1 4 22 5 20 6 19 7 17 8 16 9 15 10 14 11 6 12
REMARK SMILES IDX 8 13 7 14 9 15 11 16 12 17 10 18 13 20 4 22 21 24 18 26
REMARK H PARENT 10 19 13 21 4 23 21 25 18 27
REMARK Flexibility Score: inf
ROOT
ATOM      1  C   UNL     1       6.688   3.782   4.456  1.00  0.00     0.184 A 
ATOM      2  C   UNL     1       7.212   3.006   5.501  1.00  0.00     0.208 A 
ATOM      3  C   UNL     1       8.310   2.172   5.244  1.00  0.00     0.238 A 
ATOM      4  O   UNL     1       8.811   1.519   6.197  1.00  0.00    -0.285 OA
ATOM      5  C   UNL     1       8.859   2.112   3.939  1.00  0.00     0.111 A 
ATOM      6  C   UNL     1       9.947   1.272   3.555  1.00  0.00     0.134 A 
ATOM      7  C   UNL     1      10.491   1.391   2.271  1.00  0.00     0.093 A 
ATOM      8  C   UNL     1       9.947   2.272   1.337  1.00  0.00     0.123 A 
ATOM      9  C   UNL     1       8.846   3.056   1.682  1.00  0.00     0.094 A 
ATOM     10  C   UNL     1       8.303   2.986   2.967  1.00  0.00     0.146 A 
ATOM     11  O   UNL     1       7.263   3.757   3.260  1.00  0.00    -0.451 OA
ENDROOT
BRANCH   1  12
ATOM     12  C   UNL     1       5.522   4.669   4.656  1.00  0.00     0.063 A 
ATOM     13  C   UNL     1       4.645   6.810   5.402  1.00  0.00     0.047 A 
ATOM     14  C   UNL     1       5.723   5.945   5.205  1.00  0.00     0.020 A 
ATOM     15  C   UNL     1       3.351   6.416   5.039  1.00  0.00     0.119 A 
ATOM     16  C   UNL     1       3.144   5.156   4.470  1.00  0.00     0.093 A 
ATOM     17  C   UNL     1       4.223   4.283   4.263  1.00  0.00     0.130 A 
BRANCH  15  18
ATOM     18  O   UNL     1       2.267   7.268   5.235  1.00  0.00    -0.508 OA
ATOM     19  H   UNL     1       1.933   7.878   4.497  1.00  0.00     0.293 HD
ENDBRANCH  15  18
BRANCH  17  20
ATOM     20  O   UNL     1       4.009   3.048   3.649  1.00  0.00    -0.507 OA
ATOM     21  H   UNL     1       3.082   2.743   3.377  1.00  0.00     0.293 HD
ENDBRANCH  17  20
ENDBRANCH   1  12
BRANCH   2  22
ATOM     22  O   UNL     1       6.662   3.097   6.783  1.00  0.00    -0.502 OA
ATOM     23  H   UNL     1       5.671   3.228   6.942  1.00  0.00     0.293 HD
ENDBRANCH   2  22
BRANCH   6  24
ATOM     24  O   UNL     1      10.507   0.293   4.382  1.00  0.00    -0.507 OA
ATOM     25  H   UNL     1      10.301  -0.693   4.326  1.00  0.00     0.293 HD
ENDBRANCH   6  24
BRANCH   8  26
ATOM     26  O   UNL     1      10.504   2.353   0.062  1.00  0.00    -0.508 OA
ATOM     27  H   UNL     1       9.933   2.522  -0.756  1.00  0.00     0.293 HD
ENDBRANCH   8  26
TORSDOF 6
ENDMDL
MODEL 7
REMARK VINA RESULT:    -3.457      8.242      9.534
REMARK INTER + INTRA:          -4.566
REMARK INTER:                  -4.287
REMARK INTRA:                  -0.278
REMARK UNBOUND:                -0.402
REMARK SMILES O=c1c(O)c(-c2ccc(O)cc2O)oc2cc(O)cc(O)c12
REMARK SMILES IDX 5 1 3 2 2 3 1 4 22 5 20 6 19 7 17 8 16 9 15 10 14 11 6 12
REMARK SMILES IDX 8 13 7 14 9 15 11 16 12 17 10 18 13 20 4 22 21 24 18 26
REMARK H PARENT 10 19 13 21 4 23 21 25 18 27
REMARK Flexibility Score: inf
ROOT
ATOM      1  C   UNL     1       2.293  -4.574   4.271  1.00  0.00     0.184 A 
ATOM      2  C   UNL     1       3.342  -5.493   4.119  1.00  0.00     0.208 A 
ATOM      3  C   UNL     1       4.329  -5.569   5.114  1.00  0.00     0.238 A 
ATOM      4  O   UNL     1       5.239  -6.432   4.998  1.00  0.00    -0.285 OA
ATOM      5  C   UNL     1       4.261  -4.712   6.240  1.00  0.00     0.111 A 
ATOM      6  C   UNL     1       5.228  -4.675   7.289  1.00  0.00     0.134 A 
ATOM      7  C   UNL     1       4.992  -3.881   8.417  1.00  0.00     0.093 A 
ATOM      8  C   UNL     1       3.858  -3.074   8.506  1.00  0.00     0.123 A 
ATOM      9  C   UNL     1       2.935  -3.058   7.460  1.00  0.00     0.094 A 
ATOM     10  C   UNL     1       3.125  -3.866   6.336  1.00  0.00     0.146 A 
ATOM     11  O   UNL     1       2.218  -3.830   5.368  1.00  0.00    -0.451 OA
ENDROOT
BRANCH   1  12
ATOM     12  C   UNL     1       1.231  -4.432   3.252  1.00  0.00     0.063 A 
ATOM     13  C   UNL     1      -1.124  -4.599   2.669  1.00  0.00     0.047 A 
ATOM     14  C   UNL     1      -0.095  -4.728   3.606  1.00  0.00     0.020 A 
ATOM     15  C   UNL     1      -0.841  -4.158   1.371  1.00  0.00     0.119 A 
ATOM     16  C   UNL     1       0.473  -3.838   1.016  1.00  0.00     0.093 A 
ATOM     17  C   UNL     1       1.511  -3.959   1.953  1.00  0.00     0.130 A 
BRANCH  15  18
ATOM     18  O   UNL     1      -1.858  -4.030   0.427  1.00  0.00    -0.508 OA
ATOM     19  H   UNL     1      -1.682  -4.164  -0.562  1.00  0.00     0.293 HD
ENDBRANCH  15  18
BRANCH  17  20
ATOM     20  O   UNL     1       2.809  -3.589   1.601  1.00  0.00    -0.507 OA
ATOM     21  H   UNL     1       3.182  -3.770   0.676  1.00  0.00     0.293 HD
ENDBRANCH  17  20
ENDBRANCH   1  12
BRANCH   2  22
ATOM     22  O   UNL     1       3.376  -6.338   3.006  1.00  0.00    -0.502 OA
ATOM     23  H   UNL     1       3.600  -6.005   2.076  1.00  0.00     0.293 HD
ENDBRANCH   2  22
BRANCH   6  24
ATOM     24  O   UNL     1       6.440  -5.373   7.259  1.00  0.00    -0.507 OA
ATOM     25  H   UNL     1       7.193  -5.190   6.613  1.00  0.00     0.293 HD
ENDBRANCH   6  24
BRANCH   8  26
ATOM     26  O   UNL     1       3.663  -2.285   9.637  1.00  0.00    -0.508 OA
ATOM     27  H   UNL     1       2.759  -2.223  10.090  1.00  0.00     0.293 HD
ENDBRANCH   8  26
TORSDOF 6
ENDMDL
MODEL 8
REMARK VINA RESULT:    -3.409      9.017     10.079
REMARK INTER + INTRA:          -4.509
REMARK INTER:                  -4.086
REMARK INTRA:                  -0.423
REMARK UNBOUND:                -0.402
REMARK SMILES O=c1c(O)c(-c2ccc(O)cc2O)oc2cc(O)cc(O)c12
REMARK SMILES IDX 5 1 3 2 2 3 1 4 22 5 20 6 19 7 17 8 16 9 15 10 14 11 6 12
REMARK SMILES IDX 8 13 7 14 9 15 11 16 12 17 10 18 13 20 4 22 21 24 18 26
REMARK H PARENT 10 19 13 21 4 23 21 25 18 27
REMARK Flexibility Score: inf
ROOT
ATOM      1  C   UNL     1       2.570  -5.409   4.382  1.00  0.00     0.184 A 
ATOM      2  C   UNL     1       1.554  -6.215   4.918  1.00  0.00     0.208 A 
ATOM      3  C   UNL     1       1.242  -6.096   6.281  1.00  0.00     0.238 A 
ATOM      4  O   UNL     1       0.293  -6.783   6.746  1.00  0.00    -0.285 OA
ATOM      5  C   UNL     1       1.961  -5.185   7.092  1.00  0.00     0.111 A 
ATOM      6  C   UNL     1       1.756  -5.010   8.494  1.00  0.00     0.134 A 
ATOM      7  C   UNL     1       2.433  -3.988   9.169  1.00  0.00     0.093 A 
ATOM      8  C   UNL     1       3.357  -3.178   8.509  1.00  0.00     0.123 A 
ATOM      9  C   UNL     1       3.609  -3.377   7.152  1.00  0.00     0.094 A 
ATOM     10  C   UNL     1       2.922  -4.365   6.442  1.00  0.00     0.146 A 
ATOM     11  O   UNL     1       3.182  -4.516   5.150  1.00  0.00    -0.451 OA
ENDROOT
BRANCH   1  12
ATOM     12  C   UNL     1       2.960  -5.496   2.958  1.00  0.00     0.063 A 
ATOM     13  C   UNL     1       4.100  -6.711   1.187  1.00  0.00     0.047 A 
ATOM     14  C   UNL     1       3.719  -6.595   2.526  1.00  0.00     0.020 A 
ATOM     15  C   UNL     1       3.712  -5.736   0.259  1.00  0.00     0.119 A 
ATOM     16  C   UNL     1       2.936  -4.651   0.675  1.00  0.00     0.093 A 
ATOM     17  C   UNL     1       2.545  -4.530   2.018  1.00  0.00     0.130 A 
BRANCH  15  18
ATOM     18  O   UNL     1       4.090  -5.839  -1.078  1.00  0.00    -0.508 OA
ATOM     19  H   UNL     1       4.558  -5.077  -1.556  1.00  0.00     0.293 HD
ENDBRANCH  15  18
BRANCH  17  20
ATOM     20  O   UNL     1       1.729  -3.468   2.409  1.00  0.00    -0.507 OA
ATOM     21  H   UNL     1       0.881  -3.235   1.906  1.00  0.00     0.293 HD
ENDBRANCH  17  20
ENDBRANCH   1  12
BRANCH   2  22
ATOM     22  O   UNL     1       0.849  -7.094   4.092  1.00  0.00    -0.502 OA
ATOM     23  H   UNL     1       0.037  -7.608   4.413  1.00  0.00     0.293 HD
ENDBRANCH   2  22
BRANCH   6  24
ATOM     24  O   UNL     1       0.924  -5.825   9.268  1.00  0.00    -0.507 OA
ATOM     25  H   UNL     1       0.414  -5.517  10.083  1.00  0.00     0.293 HD
ENDBRANCH   6  24
BRANCH   8  26
ATOM     26  O   UNL     1       4.024  -2.180   9.216  1.00  0.00    -0.508 OA
ATOM     27  H   UNL     1       4.117  -1.241   8.848  1.00  0.00     0.293 HD
ENDBRANCH   8  26
TORSDOF 6
ENDMDL
MODEL 9
REMARK VINA RESULT:    -3.334      2.262      3.351
REMARK INTER + INTRA:          -4.418
REMARK INTER:                  -4.019
REMARK INTRA:                  -0.400
REMARK UNBOUND:                -0.402
REMARK SMILES O=c1c(O)c(-c2ccc(O)cc2O)oc2cc(O)cc(O)c12
REMARK SMILES IDX 5 1 3 2 2 3 1 4 22 5 20 6 19 7 17 8 16 9 15 10 14 11 6 12
REMARK SMILES IDX 8 13 7 14 9 15 11 16 12 17 10 18 13 20 4 22 21 24 18 26
REMARK H PARENT 10 19 13 21 4 23 21 25 18 27
REMARK Flexibility Score: inf
ROOT
ATOM      1  C   UNL     1       6.168   3.748   3.837  1.00  0.00     0.184 A 
ATOM      2  C   UNL     1       6.249   4.512   5.011  1.00  0.00     0.208 A 
ATOM      3  C   UNL     1       7.142   4.118   6.019  1.00  0.00     0.238 A 
ATOM      4  O   UNL     1       7.249   4.837   7.048  1.00  0.00    -0.285 OA
ATOM      5  C   UNL     1       7.931   2.955   5.845  1.00  0.00     0.111 A 
ATOM      6  C   UNL     1       8.841   2.439   6.816  1.00  0.00     0.134 A 
ATOM      7  C   UNL     1       9.665   1.357   6.486  1.00  0.00     0.093 A 
ATOM      8  C   UNL     1       9.566   0.730   5.244  1.00  0.00     0.123 A 
ATOM      9  C   UNL     1       8.639   1.188   4.307  1.00  0.00     0.094 A 
ATOM     10  C   UNL     1       7.828   2.289   4.594  1.00  0.00     0.146 A 
ATOM     11  O   UNL     1       6.967   2.701   3.673  1.00  0.00    -0.451 OA
ENDROOT
BRANCH   1  12
ATOM     12  C   UNL     1       5.236   4.099   2.745  1.00  0.00     0.063 A 
ATOM     13  C   UNL     1       4.872   5.144   0.580  1.00  0.00     0.047 A 
ATOM     14  C   UNL     1       5.725   4.801   1.632  1.00  0.00     0.020 A 
ATOM     15  C   UNL     1       3.522   4.774   0.619  1.00  0.00     0.119 A 
ATOM     16  C   UNL     1       3.032   4.053   1.712  1.00  0.00     0.093 A 
ATOM     17  C   UNL     1       3.882   3.701   2.771  1.00  0.00     0.130 A 
BRANCH  15  18
ATOM     18  O   UNL     1       2.662   5.113  -0.422  1.00  0.00    -0.508 OA
ATOM     19  H   UNL     1       2.136   5.980  -0.413  1.00  0.00     0.293 HD
ENDBRANCH  15  18
BRANCH  17  20
ATOM     20  O   UNL     1       3.391   2.938   3.831  1.00  0.00    -0.507 OA
ATOM     21  H   UNL     1       3.167   1.957   3.721  1.00  0.00     0.293 HD
ENDBRANCH  17  20
ENDBRANCH   1  12
BRANCH   2  22
ATOM     22  O   UNL     1       5.471   5.665   5.150  1.00  0.00    -0.502 OA
ATOM     23  H   UNL     1       5.878   6.583   5.280  1.00  0.00     0.293 HD
ENDBRANCH   2  22
BRANCH   6  24
ATOM     24  O   UNL     1       8.954   2.934   8.120  1.00  0.00    -0.507 OA
ATOM     25  H   UNL     1       8.809   3.897   8.383  1.00  0.00     0.293 HD
ENDBRANCH   6  24
BRANCH   8  26
ATOM     26  O   UNL     1      10.391  -0.354   4.954  1.00  0.00    -0.508 OA
ATOM     27  H   UNL     1      11.376  -0.348   5.189  1.00  0.00     0.293 HD
ENDBRANCH   8  26
TORSDOF 6
ENDMDL
