MODEL 1
REMARK VINA RESULT:     7.286      0.000      0.000
REMARK INTER + INTRA:           9.320
REMARK INTER:                   8.777
REMARK INTRA:                   0.543
REMARK UNBOUND:                 0.543
REMARK SMILES O=c1c(O)c(-c2ccc(O)c(O)c2)oc2cc(O)cc(O)c12
REMARK SMILES IDX 5 1 3 2 2 3 1 4 22 5 20 6 19 7 17 8 16 9 15 10 14 11 6 12
REMARK SMILES IDX 7 13 8 14 9 15 13 16 11 17 10 18 12 20 4 22 21 24 18 26
REMARK H PARENT 10 19 12 21 4 23 21 25 18 27
REMARK Flexibility Score: inf
ROOT
ATOM      1  C   UNL     1      38.810 -14.952  19.272  1.00  0.00     0.180 A 
ATOM      2  C   UNL     1      37.455 -14.979  18.899  1.00  0.00     0.208 A 
ATOM      3  C   UNL     1      37.123 -14.946  17.535  1.00  0.00     0.238 A 
ATOM      4  O   UNL     1      35.911 -15.026  17.205  1.00  0.00    -0.285 OA
ATOM      5  C   UNL     1      38.149 -14.871  16.562  1.00  0.00     0.111 A 
ATOM      6  C   UNL     1      37.926 -14.792  15.155  1.00  0.00     0.134 A 
ATOM      7  C   UNL     1      39.017 -14.853  14.278  1.00  0.00     0.093 A 
ATOM      8  C   UNL     1      40.326 -14.924  14.761  1.00  0.00     0.123 A 
ATOM      9  C   UNL     1      40.556 -14.941  16.134  1.00  0.00     0.094 A 
ATOM     10  C   UNL     1      39.486 -14.917  17.033  1.00  0.00     0.146 A 
ATOM     11  O   UNL     1      39.751 -14.946  18.334  1.00  0.00    -0.452 OA
ENDROOT
BRANCH   1  12
ATOM     12  C   UNL     1      39.238 -14.958  20.689  1.00  0.00     0.025 A 
ATOM     13  C   UNL     1      40.600 -14.950  21.042  1.00  0.00     0.016 A 
ATOM     14  C   UNL     1      40.980 -14.980  22.386  1.00  0.00     0.051 A 
ATOM     15  C   UNL     1      40.010 -15.031  23.395  1.00  0.00     0.157 A 
ATOM     16  C   UNL     1      38.270 -15.030  21.704  1.00  0.00     0.062 A 
ATOM     17  C   UNL     1      38.648 -15.059  23.051  1.00  0.00     0.158 A 
BRANCH  15  18
ATOM     18  O   UNL     1      40.394 -15.059  24.736  1.00  0.00    -0.504 OA
ATOM     19  H   UNL     1      39.981 -14.433  25.419  1.00  0.00     0.293 HD
ENDBRANCH  15  18
BRANCH  17  20
ATOM     20  O   UNL     1      37.659 -15.118  24.031  1.00  0.00    -0.504 OA
ATOM     21  H   UNL     1      37.801 -14.748  24.963  1.00  0.00     0.293 HD
ENDBRANCH  17  20
ENDBRANCH   1  12
BRANCH   2  22
ATOM     22  O   UNL     1      36.460 -15.077  19.875  1.00  0.00    -0.502 OA
ATOM     23  H   UNL     1      35.629 -14.496  19.865  1.00  0.00     0.293 HD
ENDBRANCH   2  22
BRANCH   6  24
ATOM     24  O   UNL     1      36.666 -14.627  14.571  1.00  0.00    -0.507 OA
ATOM     25  H   UNL     1      36.076 -13.819  14.698  1.00  0.00     0.293 HD
ENDBRANCH   6  24
BRANCH   8  26
ATOM     26  O   UNL     1      41.406 -14.967  13.882  1.00  0.00    -0.508 OA
ATOM     27  H   UNL     1      41.909 -14.130  13.618  1.00  0.00     0.293 HD
ENDBRANCH   8  26
TORSDOF 6
ENDMDL
