MODEL 1
REMARK VINA RESULT:    -5.109      0.000      0.000
REMARK INTER + INTRA:         -12.707
REMARK INTER:                 -11.081
REMARK INTRA:                  -1.626
REMARK UNBOUND:                -1.626
REMARK SMILES CCCCCCCCCCCCCCCCCCCCCC(=O)[O-]
REMARK SMILES IDX 12 1 11 2 10 3 9 4 8 5 7 6 6 7 5 8 4 9 3 10 2 11 1 12 13 13
REMARK SMILES IDX 14 14 15 15 16 16 17 17 18 18 19 19 20 20 21 21 22 22 23 23
REMARK SMILES IDX 24 24
REMARK H PARENT
REMARK Flexibility Score: inf
ROOT
ATOM      1  C   UNL     1      -4.249  31.278  60.075  1.00  0.00     0.000 C 
ENDROOT
BRANCH   1   2
ATOM      2  C   UNL     1      -2.950  32.112  60.083  1.00  0.00     0.000 C 
BRANCH   2   3
ATOM      3  C   UNL     1      -2.872  33.067  61.288  1.00  0.00     0.000 C 
BRANCH   3   4
ATOM      4  C   UNL     1      -2.873  32.316  62.630  1.00  0.00    -0.000 C 
BRANCH   4   5
ATOM      5  C   UNL     1      -2.656  33.252  63.831  1.00  0.00    -0.000 C 
BRANCH   5   6
ATOM      6  C   UNL     1      -1.292  33.016  64.514  1.00  0.00    -0.000 C 
BRANCH   6   7
ATOM      7  C   UNL     1      -0.094  33.503  63.681  1.00  0.00    -0.000 C 
BRANCH   7   8
ATOM      8  C   UNL     1       1.024  32.454  63.567  1.00  0.00    -0.000 C 
BRANCH   8   9
ATOM      9  C   UNL     1       0.502  31.100  63.047  1.00  0.00    -0.000 C 
BRANCH   9  10
ATOM     10  C   UNL     1       0.674  29.939  64.045  1.00  0.00    -0.000 C 
BRANCH  10  11
ATOM     11  C   UNL     1       1.259  30.357  65.408  1.00  0.00    -0.003 C 
ATOM     12  C   UNL     1       1.745  29.167  66.236  1.00  0.00     0.004 C 
ENDBRANCH  10  11
ENDBRANCH   9  10
ENDBRANCH   8   9
ENDBRANCH   7   8
ENDBRANCH   6   7
ENDBRANCH   5   6
ENDBRANCH   4   5
ENDBRANCH   3   4
ENDBRANCH   2   3
ENDBRANCH   1   2
BRANCH   1  13
ATOM     13  C   UNL     1      -4.534  30.584  58.728  1.00  0.00     0.000 C 
BRANCH  13  14
ATOM     14  C   UNL     1      -3.295  30.012  58.014  1.00  0.00     0.000 C 
BRANCH  14  15
ATOM     15  C   UNL     1      -3.540  29.538  56.568  1.00  0.00     0.000 C 
BRANCH  15  16
ATOM     16  C   UNL     1      -4.711  28.548  56.452  1.00  0.00     0.000 C 
BRANCH  16  17
ATOM     17  C   UNL     1      -4.528  27.555  55.293  1.00  0.00     0.000 C 
BRANCH  17  18
ATOM     18  C   UNL     1      -3.429  26.516  55.579  1.00  0.00     0.000 C 
BRANCH  18  19
ATOM     19  C   UNL     1      -2.451  26.348  54.405  1.00  0.00     0.000 C 
BRANCH  19  20
ATOM     20  C   UNL     1      -1.008  26.089  54.870  1.00  0.00     0.006 C 
BRANCH  20  21
ATOM     21  C   UNL     1      -0.676  26.836  56.169  1.00  0.00     0.053 C 
BRANCH  21  22
ATOM     22  C   UNL     1       0.788  26.781  56.480  1.00  0.00     0.041 C 
ATOM     23  O   UNL     1       1.611  26.408  55.602  1.00  0.00    -0.550 OA
ATOM     24  O   UNL     1       1.249  27.177  57.730  1.00  0.00    -0.550 OA
ENDBRANCH  21  22
ENDBRANCH  20  21
ENDBRANCH  19  20
ENDBRANCH  18  19
ENDBRANCH  17  18
ENDBRANCH  16  17
ENDBRANCH  15  16
ENDBRANCH  14  15
ENDBRANCH  13  14
ENDBRANCH   1  13
TORSDOF 20
ENDMDL
MODEL 2
REMARK VINA RESULT:    -4.986      1.767      2.850
REMARK INTER + INTRA:         -12.441
REMARK INTER:                 -11.027
REMARK INTRA:                  -1.414
REMARK UNBOUND:                -1.626
REMARK SMILES CCCCCCCCCCCCCCCCCCCCCC(=O)[O-]
REMARK SMILES IDX 12 1 11 2 10 3 9 4 8 5 7 6 6 7 5 8 4 9 3 10 2 11 1 12 13 13
REMARK SMILES IDX 14 14 15 15 16 16 17 17 18 18 19 19 20 20 21 21 22 22 23 23
REMARK SMILES IDX 24 24
REMARK H PARENT
REMARK Flexibility Score: inf
ROOT
ATOM      1  C   UNL     1      -3.058  32.096  60.508  1.00  0.00     0.000 C 
ENDROOT
BRANCH   1   2
ATOM      2  C   UNL     1      -3.275  32.970  61.761  1.00  0.00     0.000 C 
BRANCH   2   3
ATOM      3  C   UNL     1      -2.802  32.276  63.051  1.00  0.00     0.000 C 
BRANCH   3   4
ATOM      4  C   UNL     1      -1.852  33.159  63.876  1.00  0.00    -0.000 C 
BRANCH   4   5
ATOM      5  C   UNL     1      -0.541  32.440  64.238  1.00  0.00    -0.000 C 
BRANCH   5   6
ATOM      6  C   UNL     1      -0.231  31.275  63.275  1.00  0.00    -0.000 C 
BRANCH   6   7
ATOM      7  C   UNL     1       0.050  29.942  63.991  1.00  0.00    -0.000 C 
BRANCH   7   8
ATOM      8  C   UNL     1       1.500  29.819  64.483  1.00  0.00    -0.000 C 
BRANCH   8   9
ATOM      9  C   UNL     1       1.601  29.873  66.020  1.00  0.00    -0.000 C 
BRANCH   9  10
ATOM     10  C   UNL     1       2.213  31.179  66.561  1.00  0.00    -0.000 C 
BRANCH  10  11
ATOM     11  C   UNL     1       1.609  31.655  67.897  1.00  0.00    -0.003 C 
ATOM     12  C   UNL     1       0.257  32.348  67.724  1.00  0.00     0.004 C 
ENDBRANCH  10  11
ENDBRANCH   9  10
ENDBRANCH   8   9
ENDBRANCH   7   8
ENDBRANCH   6   7
ENDBRANCH   5   6
ENDBRANCH   4   5
ENDBRANCH   3   4
ENDBRANCH   2   3
ENDBRANCH   1   2
BRANCH   1  13
ATOM     13  C   UNL     1      -4.308  31.300  60.079  1.00  0.00     0.000 C 
BRANCH  13  14
ATOM     14  C   UNL     1      -4.247  30.706  58.660  1.00  0.00     0.000 C 
BRANCH  14  15
ATOM     15  C   UNL     1      -2.827  30.418  58.135  1.00  0.00     0.000 C 
BRANCH  15  16
ATOM     16  C   UNL     1      -2.808  29.390  56.991  1.00  0.00     0.000 C 
BRANCH  16  17
ATOM     17  C   UNL     1      -4.221  29.028  56.504  1.00  0.00     0.000 C 
BRANCH  17  18
ATOM     18  C   UNL     1      -4.331  27.558  56.064  1.00  0.00     0.000 C 
BRANCH  18  19
ATOM     19  C   UNL     1      -3.698  27.301  54.687  1.00  0.00     0.000 C 
BRANCH  19  20
ATOM     20  C   UNL     1      -2.882  25.998  54.646  1.00  0.00     0.006 C 
BRANCH  20  21
ATOM     21  C   UNL     1      -1.414  26.246  54.272  1.00  0.00     0.053 C 
BRANCH  21  22
ATOM     22  C   UNL     1      -1.146  25.919  52.835  1.00  0.00     0.041 C 
ATOM     23  O   UNL     1      -1.937  26.312  51.936  1.00  0.00    -0.550 OA
ATOM     24  O   UNL     1      -0.004  25.210  52.484  1.00  0.00    -0.550 OA
ENDBRANCH  21  22
ENDBRANCH  20  21
ENDBRANCH  19  20
ENDBRANCH  18  19
ENDBRANCH  17  18
ENDBRANCH  16  17
ENDBRANCH  15  16
ENDBRANCH  14  15
ENDBRANCH  13  14
ENDBRANCH   1  13
TORSDOF 20
ENDMDL
MODEL 3
REMARK VINA RESULT:    -4.947      2.472      6.501
REMARK INTER + INTRA:         -12.356
REMARK INTER:                 -10.658
REMARK INTRA:                  -1.698
REMARK UNBOUND:                -1.626
REMARK SMILES CCCCCCCCCCCCCCCCCCCCCC(=O)[O-]
REMARK SMILES IDX 12 1 11 2 10 3 9 4 8 5 7 6 6 7 5 8 4 9 3 10 2 11 1 12 13 13
REMARK SMILES IDX 14 14 15 15 16 16 17 17 18 18 19 19 20 20 21 21 22 22 23 23
REMARK SMILES IDX 24 24
REMARK H PARENT
REMARK Flexibility Score: inf
ROOT
ATOM      1  C   UNL     1      -2.642  26.232  53.923  1.00  0.00     0.000 C 
ENDROOT
BRANCH   1   2
ATOM      2  C   UNL     1      -3.108  26.555  55.359  1.00  0.00     0.000 C 
BRANCH   2   3
ATOM      3  C   UNL     1      -4.409  27.378  55.384  1.00  0.00     0.000 C 
BRANCH   3   4
ATOM      4  C   UNL     1      -4.278  28.652  56.234  1.00  0.00    -0.000 C 
BRANCH   4   5
ATOM      5  C   UNL     1      -2.814  28.999  56.558  1.00  0.00    -0.000 C 
BRANCH   5   6
ATOM      6  C   UNL     1      -2.699  30.003  57.724  1.00  0.00    -0.000 C 
BRANCH   6   7
ATOM      7  C   UNL     1      -4.043  30.630  58.133  1.00  0.00    -0.000 C 
BRANCH   7   8
ATOM      8  C   UNL     1      -3.881  31.839  59.068  1.00  0.00    -0.000 C 
BRANCH   8   9
ATOM      9  C   UNL     1      -4.046  31.456  60.551  1.00  0.00    -0.000 C 
BRANCH   9  10
ATOM     10  C   UNL     1      -3.495  32.508  61.534  1.00  0.00    -0.000 C 
BRANCH  10  11
ATOM     11  C   UNL     1      -2.201  33.198  61.062  1.00  0.00    -0.003 C 
ATOM     12  C   UNL     1      -0.938  32.465  61.514  1.00  0.00     0.004 C 
ENDBRANCH  10  11
ENDBRANCH   9  10
ENDBRANCH   8   9
ENDBRANCH   7   8
ENDBRANCH   6   7
ENDBRANCH   5   6
ENDBRANCH   4   5
ENDBRANCH   3   4
ENDBRANCH   2   3
ENDBRANCH   1   2
BRANCH   1  13
ATOM     13  C   UNL     1      -1.138  25.915  53.813  1.00  0.00     0.000 C 
BRANCH  13  14
ATOM     14  C   UNL     1      -0.630  25.649  52.384  1.00  0.00     0.000 C 
BRANCH  14  15
ATOM     15  C   UNL     1       0.687  24.852  52.299  1.00  0.00     0.000 C 
BRANCH  15  16
ATOM     16  C   UNL     1       1.167  24.344  53.669  1.00  0.00     0.000 C 
BRANCH  16  17
ATOM     17  C   UNL     1       2.688  24.488  53.848  1.00  0.00     0.000 C 
BRANCH  17  18
ATOM     18  C   UNL     1       3.081  25.843  54.463  1.00  0.00     0.000 C 
BRANCH  18  19
ATOM     19  C   UNL     1       2.633  25.983  55.927  1.00  0.00     0.000 C 
BRANCH  19  20
ATOM     20  C   UNL     1       1.348  26.815  56.074  1.00  0.00     0.006 C 
BRANCH  20  21
ATOM     21  C   UNL     1       1.109  27.260  57.523  1.00  0.00     0.053 C 
BRANCH  21  22
ATOM     22  C   UNL     1       2.178  28.197  57.997  1.00  0.00     0.041 C 
ATOM     23  O   UNL     1       2.441  29.243  57.346  1.00  0.00    -0.550 OA
ATOM     24  O   UNL     1       2.860  27.933  59.179  1.00  0.00    -0.550 OA
ENDBRANCH  21  22
ENDBRANCH  20  21
ENDBRANCH  19  20
ENDBRANCH  18  19
ENDBRANCH  17  18
ENDBRANCH  16  17
ENDBRANCH  15  16
ENDBRANCH  14  15
ENDBRANCH  13  14
ENDBRANCH   1  13
TORSDOF 20
ENDMDL
MODEL 4
REMARK VINA RESULT:    -4.770      1.344      1.997
REMARK INTER + INTRA:         -11.972
REMARK INTER:                 -10.700
REMARK INTRA:                  -1.272
REMARK UNBOUND:                -1.626
REMARK SMILES CCCCCCCCCCCCCCCCCCCCCC(=O)[O-]
REMARK SMILES IDX 12 1 11 2 10 3 9 4 8 5 7 6 6 7 5 8 4 9 3 10 2 11 1 12 13 13
REMARK SMILES IDX 14 14 15 15 16 16 17 17 18 18 19 19 20 20 21 21 22 22 23 23
REMARK SMILES IDX 24 24
REMARK H PARENT
REMARK Flexibility Score: inf
ROOT
ATOM      1  C   UNL     1      -3.859  31.921  59.050  1.00  0.00     0.000 C 
ENDROOT
BRANCH   1   2
ATOM      2  C   UNL     1      -2.853  32.282  60.163  1.00  0.00     0.000 C 
BRANCH   2   3
ATOM      3  C   UNL     1      -3.506  32.322  61.556  1.00  0.00     0.000 C 
BRANCH   3   4
ATOM      4  C   UNL     1      -3.542  33.741  62.145  1.00  0.00    -0.000 C 
BRANCH   4   5
ATOM      5  C   UNL     1      -2.829  33.836  63.505  1.00  0.00    -0.000 C 
BRANCH   5   6
ATOM      6  C   UNL     1      -1.399  33.258  63.454  1.00  0.00    -0.000 C 
BRANCH   6   7
ATOM      7  C   UNL     1      -1.034  32.405  64.681  1.00  0.00    -0.000 C 
BRANCH   7   8
ATOM      8  C   UNL     1       0.314  31.684  64.531  1.00  0.00    -0.000 C 
BRANCH   8   9
ATOM      9  C   UNL     1       0.144  30.217  64.090  1.00  0.00    -0.000 C 
BRANCH   9  10
ATOM     10  C   UNL     1       1.439  29.568  63.563  1.00  0.00    -0.000 C 
BRANCH  10  11
ATOM     11  C   UNL     1       1.443  29.306  62.045  1.00  0.00    -0.003 C 
ATOM     12  C   UNL     1       1.269  30.582  61.221  1.00  0.00     0.004 C 
ENDBRANCH  10  11
ENDBRANCH   9  10
ENDBRANCH   8   9
ENDBRANCH   7   8
ENDBRANCH   6   7
ENDBRANCH   5   6
ENDBRANCH   4   5
ENDBRANCH   3   4
ENDBRANCH   2   3
ENDBRANCH   1   2
BRANCH   1  13
ATOM     13  C   UNL     1      -4.658  30.632  59.327  1.00  0.00     0.000 C 
BRANCH  13  14
ATOM     14  C   UNL     1      -4.732  29.644  58.147  1.00  0.00     0.000 C 
BRANCH  14  15
ATOM     15  C   UNL     1      -3.731  29.918  57.007  1.00  0.00     0.000 C 
BRANCH  15  16
ATOM     16  C   UNL     1      -3.091  28.635  56.451  1.00  0.00     0.000 C 
BRANCH  16  17
ATOM     17  C   UNL     1      -4.069  27.815  55.593  1.00  0.00     0.000 C 
BRANCH  17  18
ATOM     18  C   UNL     1      -3.462  26.481  55.124  1.00  0.00     0.000 C 
BRANCH  18  19
ATOM     19  C   UNL     1      -3.039  26.508  53.647  1.00  0.00     0.000 C 
BRANCH  19  20
ATOM     20  C   UNL     1      -1.569  26.103  53.446  1.00  0.00     0.006 C 
BRANCH  20  21
ATOM     21  C   UNL     1      -0.793  26.066  54.769  1.00  0.00     0.053 C 
BRANCH  21  22
ATOM     22  C   UNL     1       0.576  25.483  54.591  1.00  0.00     0.041 C 
ATOM     23  O   UNL     1       1.586  26.085  55.043  1.00  0.00    -0.550 OA
ATOM     24  O   UNL     1       0.733  24.257  53.956  1.00  0.00    -0.550 OA
ENDBRANCH  21  22
ENDBRANCH  20  21
ENDBRANCH  19  20
ENDBRANCH  18  19
ENDBRANCH  17  18
ENDBRANCH  16  17
ENDBRANCH  15  16
ENDBRANCH  14  15
ENDBRANCH  13  14
ENDBRANCH   1  13
TORSDOF 20
ENDMDL
MODEL 5
REMARK VINA RESULT:    -4.718      1.404      2.849
REMARK INTER + INTRA:         -11.861
REMARK INTER:                 -10.563
REMARK INTRA:                  -1.298
REMARK UNBOUND:                -1.626
REMARK SMILES CCCCCCCCCCCCCCCCCCCCCC(=O)[O-]
REMARK SMILES IDX 12 1 11 2 10 3 9 4 8 5 7 6 6 7 5 8 4 9 3 10 2 11 1 12 13 13
REMARK SMILES IDX 14 14 15 15 16 16 17 17 18 18 19 19 20 20 21 21 22 22 23 23
REMARK SMILES IDX 24 24
REMARK H PARENT
REMARK Flexibility Score: inf
ROOT
ATOM      1  C   UNL     1      -3.063  32.748  62.110  1.00  0.00     0.000 C 
ENDROOT
BRANCH   1   2
ATOM      2  C   UNL     1      -1.684  32.843  62.795  1.00  0.00     0.000 C 
BRANCH   2   3
ATOM      3  C   UNL     1      -1.795  33.128  64.304  1.00  0.00     0.000 C 
BRANCH   3   4
ATOM      4  C   UNL     1      -0.816  34.219  64.767  1.00  0.00    -0.000 C 
BRANCH   4   5
ATOM      5  C   UNL     1       0.344  33.655  65.606  1.00  0.00    -0.000 C 
BRANCH   5   6
ATOM      6  C   UNL     1      -0.098  32.465  66.483  1.00  0.00    -0.000 C 
BRANCH   6   7
ATOM      7  C   UNL     1       0.862  32.169  67.649  1.00  0.00    -0.000 C 
BRANCH   7   8
ATOM      8  C   UNL     1       1.951  31.148  67.285  1.00  0.00    -0.000 C 
BRANCH   8   9
ATOM      9  C   UNL     1       1.452  30.100  66.271  1.00  0.00    -0.000 C 
BRANCH   9  10
ATOM     10  C   UNL     1       2.379  29.915  65.055  1.00  0.00    -0.000 C 
BRANCH  10  11
ATOM     11  C   UNL     1       1.642  29.822  63.705  1.00  0.00    -0.003 C 
ATOM     12  C   UNL     1       0.138  29.598  63.864  1.00  0.00     0.004 C 
ENDBRANCH  10  11
ENDBRANCH   9  10
ENDBRANCH   8   9
ENDBRANCH   7   8
ENDBRANCH   6   7
ENDBRANCH   5   6
ENDBRANCH   4   5
ENDBRANCH   3   4
ENDBRANCH   2   3
ENDBRANCH   1   2
BRANCH   1  13
ATOM     13  C   UNL     1      -2.987  32.501  60.590  1.00  0.00     0.000 C 
BRANCH  13  14
ATOM     14  C   UNL     1      -3.979  31.454  60.049  1.00  0.00     0.000 C 
BRANCH  14  15
ATOM     15  C   UNL     1      -4.184  31.482  58.522  1.00  0.00     0.000 C 
BRANCH  15  16
ATOM     16  C   UNL     1      -3.356  30.414  57.787  1.00  0.00     0.000 C 
BRANCH  16  17
ATOM     17  C   UNL     1      -4.236  29.411  57.024  1.00  0.00     0.000 C 
BRANCH  17  18
ATOM     18  C   UNL     1      -3.431  28.215  56.485  1.00  0.00     0.000 C 
BRANCH  18  19
ATOM     19  C   UNL     1      -4.165  27.462  55.364  1.00  0.00     0.000 C 
BRANCH  19  20
ATOM     20  C   UNL     1      -3.362  26.262  54.834  1.00  0.00     0.006 C 
BRANCH  20  21
ATOM     21  C   UNL     1      -1.982  26.677  54.306  1.00  0.00     0.053 C 
BRANCH  21  22
ATOM     22  C   UNL     1      -0.875  26.063  55.107  1.00  0.00     0.041 C 
ATOM     23  O   UNL     1      -0.313  25.008  54.709  1.00  0.00    -0.550 OA
ATOM     24  O   UNL     1      -0.440  26.676  56.276  1.00  0.00    -0.550 OA
ENDBRANCH  21  22
ENDBRANCH  20  21
ENDBRANCH  19  20
ENDBRANCH  18  19
ENDBRANCH  17  18
ENDBRANCH  16  17
ENDBRANCH  15  16
ENDBRANCH  14  15
ENDBRANCH  13  14
ENDBRANCH   1  13
TORSDOF 20
ENDMDL
MODEL 6
REMARK VINA RESULT:    -4.651      1.924      3.038
REMARK INTER + INTRA:         -11.715
REMARK INTER:                 -10.657
REMARK INTRA:                  -1.058
REMARK UNBOUND:                -1.626
REMARK SMILES CCCCCCCCCCCCCCCCCCCCCC(=O)[O-]
REMARK SMILES IDX 12 1 11 2 10 3 9 4 8 5 7 6 6 7 5 8 4 9 3 10 2 11 1 12 13 13
REMARK SMILES IDX 14 14 15 15 16 16 17 17 18 18 19 19 20 20 21 21 22 22 23 23
REMARK SMILES IDX 24 24
REMARK H PARENT
REMARK Flexibility Score: inf
ROOT
ATOM      1  C   UNL     1      -3.637  30.115  57.869  1.00  0.00     0.000 C 
ENDROOT
BRANCH   1   2
ATOM      2  C   UNL     1      -3.898  31.543  58.391  1.00  0.00     0.000 C 
BRANCH   2   3
ATOM      3  C   UNL     1      -4.032  31.595  59.924  1.00  0.00     0.000 C 
BRANCH   3   4
ATOM      4  C   UNL     1      -2.906  32.409  60.582  1.00  0.00    -0.000 C 
BRANCH   4   5
ATOM      5  C   UNL     1      -3.182  32.707  62.066  1.00  0.00    -0.000 C 
BRANCH   5   6
ATOM      6  C   UNL     1      -3.042  34.208  62.394  1.00  0.00    -0.000 C 
BRANCH   6   7
ATOM      7  C   UNL     1      -2.146  34.493  63.611  1.00  0.00    -0.000 C 
BRANCH   7   8
ATOM      8  C   UNL     1      -2.143  33.347  64.635  1.00  0.00    -0.000 C 
BRANCH   8   9
ATOM      9  C   UNL     1      -0.722  32.827  64.925  1.00  0.00    -0.000 C 
BRANCH   9  10
ATOM     10  C   UNL     1      -0.340  31.569  64.121  1.00  0.00    -0.000 C 
BRANCH  10  11
ATOM     11  C   UNL     1       1.101  31.078  64.360  1.00  0.00    -0.003 C 
ATOM     12  C   UNL     1       1.684  30.338  63.156  1.00  0.00     0.004 C 
ENDBRANCH  10  11
ENDBRANCH   9  10
ENDBRANCH   8   9
ENDBRANCH   7   8
ENDBRANCH   6   7
ENDBRANCH   5   6
ENDBRANCH   4   5
ENDBRANCH   3   4
ENDBRANCH   2   3
ENDBRANCH   1   2
BRANCH   1  13
ATOM     13  C   UNL     1      -4.922  29.326  57.545  1.00  0.00     0.000 C 
BRANCH  13  14
ATOM     14  C   UNL     1      -4.847  28.448  56.282  1.00  0.00     0.000 C 
BRANCH  14  15
ATOM     15  C   UNL     1      -3.420  28.148  55.783  1.00  0.00     0.000 C 
BRANCH  15  16
ATOM     16  C   UNL     1      -2.992  26.692  56.032  1.00  0.00     0.000 C 
BRANCH  16  17
ATOM     17  C   UNL     1      -2.720  25.928  54.726  1.00  0.00     0.000 C 
BRANCH  17  18
ATOM     18  C   UNL     1      -1.347  26.267  54.122  1.00  0.00     0.000 C 
BRANCH  18  19
ATOM     19  C   UNL     1      -0.197  26.098  55.129  1.00  0.00     0.000 C 
BRANCH  19  20
ATOM     20  C   UNL     1       0.990  25.315  54.544  1.00  0.00     0.006 C 
BRANCH  20  21
ATOM     21  C   UNL     1       0.582  24.464  53.334  1.00  0.00     0.053 C 
BRANCH  21  22
ATOM     22  C   UNL     1       1.312  24.880  52.093  1.00  0.00     0.041 C 
ATOM     23  O   UNL     1       2.570  24.824  52.047  1.00  0.00    -0.550 OA
ATOM     24  O   UNL     1       0.601  25.298  50.975  1.00  0.00    -0.550 OA
ENDBRANCH  21  22
ENDBRANCH  20  21
ENDBRANCH  19  20
ENDBRANCH  18  19
ENDBRANCH  17  18
ENDBRANCH  16  17
ENDBRANCH  15  16
ENDBRANCH  14  15
ENDBRANCH  13  14
ENDBRANCH   1  13
TORSDOF 20
ENDMDL
MODEL 7
REMARK VINA RESULT:    -4.644      4.488      7.250
REMARK INTER + INTRA:         -11.699
REMARK INTER:                  -9.107
REMARK INTRA:                  -2.592
REMARK UNBOUND:                -1.626
REMARK SMILES CCCCCCCCCCCCCCCCCCCCCC(=O)[O-]
REMARK SMILES IDX 12 1 11 2 10 3 9 4 8 5 7 6 6 7 5 8 4 9 3 10 2 11 1 12 13 13
REMARK SMILES IDX 14 14 15 15 16 16 17 17 18 18 19 19 20 20 21 21 22 22 23 23
REMARK SMILES IDX 24 24
REMARK H PARENT
REMARK Flexibility Score: inf
ROOT
ATOM      1  C   UNL     1      -2.928  26.389  53.604  1.00  0.00     0.000 C 
ENDROOT
BRANCH   1   2
ATOM      2  C   UNL     1      -3.528  26.443  55.025  1.00  0.00     0.000 C 
BRANCH   2   3
ATOM      3  C   UNL     1      -4.687  27.450  55.137  1.00  0.00     0.000 C 
BRANCH   3   4
ATOM      4  C   UNL     1      -4.571  28.338  56.386  1.00  0.00    -0.000 C 
BRANCH   4   5
ATOM      5  C   UNL     1      -3.490  29.424  56.243  1.00  0.00    -0.000 C 
BRANCH   5   6
ATOM      6  C   UNL     1      -2.429  29.339  57.360  1.00  0.00    -0.000 C 
BRANCH   6   7
ATOM      7  C   UNL     1      -1.039  28.911  56.858  1.00  0.00    -0.000 C 
BRANCH   7   8
ATOM      8  C   UNL     1      -0.796  27.399  56.982  1.00  0.00    -0.000 C 
BRANCH   8   9
ATOM      9  C   UNL     1       0.679  27.023  56.738  1.00  0.00    -0.000 C 
BRANCH   9  10
ATOM     10  C   UNL     1       1.578  27.180  57.980  1.00  0.00    -0.000 C 
BRANCH  10  11
ATOM     11  C   UNL     1       2.497  28.417  57.943  1.00  0.00    -0.003 C 
ATOM     12  C   UNL     1       2.081  29.496  58.944  1.00  0.00     0.004 C 
ENDBRANCH  10  11
ENDBRANCH   9  10
ENDBRANCH   8   9
ENDBRANCH   7   8
ENDBRANCH   6   7
ENDBRANCH   5   6
ENDBRANCH   4   5
ENDBRANCH   3   4
ENDBRANCH   2   3
ENDBRANCH   1   2
BRANCH   1  13
ATOM     13  C   UNL     1      -1.393  26.247  53.582  1.00  0.00     0.000 C 
BRANCH  13  14
ATOM     14  C   UNL     1      -0.811  25.665  52.280  1.00  0.00     0.000 C 
BRANCH  14  15
ATOM     15  C   UNL     1       0.506  24.884  52.449  1.00  0.00     0.000 C 
BRANCH  15  16
ATOM     16  C   UNL     1       0.978  24.816  53.912  1.00  0.00     0.000 C 
BRANCH  16  17
ATOM     17  C   UNL     1       2.160  23.852  54.103  1.00  0.00     0.000 C 
BRANCH  17  18
ATOM     18  C   UNL     1       3.461  24.388  53.482  1.00  0.00     0.000 C 
BRANCH  18  19
ATOM     19  C   UNL     1       4.540  24.693  54.534  1.00  0.00     0.000 C 
BRANCH  19  20
ATOM     20  C   UNL     1       3.992  25.493  55.727  1.00  0.00     0.006 C 
BRANCH  20  21
ATOM     21  C   UNL     1       4.281  24.805  57.068  1.00  0.00     0.053 C 
BRANCH  21  22
ATOM     22  C   UNL     1       5.224  25.609  57.910  1.00  0.00     0.041 C 
ATOM     23  O   UNL     1       6.339  25.969  57.449  1.00  0.00    -0.550 OA
ATOM     24  O   UNL     1       4.855  25.990  59.195  1.00  0.00    -0.550 OA
ENDBRANCH  21  22
ENDBRANCH  20  21
ENDBRANCH  19  20
ENDBRANCH  18  19
ENDBRANCH  17  18
ENDBRANCH  16  17
ENDBRANCH  15  16
ENDBRANCH  14  15
ENDBRANCH  13  14
ENDBRANCH   1  13
TORSDOF 20
ENDMDL
MODEL 8
REMARK VINA RESULT:    -4.568      3.903     10.135
REMARK INTER + INTRA:         -11.535
REMARK INTER:                 -10.314
REMARK INTRA:                  -1.222
REMARK UNBOUND:                -1.626
REMARK SMILES CCCCCCCCCCCCCCCCCCCCCC(=O)[O-]
REMARK SMILES IDX 12 1 11 2 10 3 9 4 8 5 7 6 6 7 5 8 4 9 3 10 2 11 1 12 13 13
REMARK SMILES IDX 14 14 15 15 16 16 17 17 18 18 19 19 20 20 21 21 22 22 23 23
REMARK SMILES IDX 24 24
REMARK H PARENT
REMARK Flexibility Score: inf
ROOT
ATOM      1  C   UNL     1      -3.903  31.232  58.364  1.00  0.00     0.000 C 
ENDROOT
BRANCH   1   2
ATOM      2  C   UNL     1      -3.043  30.123  57.722  1.00  0.00     0.000 C 
BRANCH   2   3
ATOM      3  C   UNL     1      -3.775  29.400  56.577  1.00  0.00     0.000 C 
BRANCH   3   4
ATOM      4  C   UNL     1      -3.050  28.117  56.138  1.00  0.00    -0.000 C 
BRANCH   4   5
ATOM      5  C   UNL     1      -3.975  27.144  55.386  1.00  0.00    -0.000 C 
BRANCH   5   6
ATOM      6  C   UNL     1      -3.187  26.020  54.681  1.00  0.00    -0.000 C 
BRANCH   6   7
ATOM      7  C   UNL     1      -2.774  26.367  53.240  1.00  0.00    -0.000 C 
BRANCH   7   8
ATOM      8  C   UNL     1      -1.308  26.024  52.937  1.00  0.00    -0.000 C 
BRANCH   8   9
ATOM      9  C   UNL     1      -0.488  25.783  54.219  1.00  0.00    -0.000 C 
BRANCH   9  10
ATOM     10  C   UNL     1       0.501  24.606  54.117  1.00  0.00    -0.000 C 
BRANCH  10  11
ATOM     11  C   UNL     1       1.933  25.015  53.717  1.00  0.00    -0.003 C 
ATOM     12  C   UNL     1       2.274  24.648  52.273  1.00  0.00     0.004 C 
ENDBRANCH  10  11
ENDBRANCH   9  10
ENDBRANCH   8   9
ENDBRANCH   7   8
ENDBRANCH   6   7
ENDBRANCH   5   6
ENDBRANCH   4   5
ENDBRANCH   3   4
ENDBRANCH   2   3
ENDBRANCH   1   2
BRANCH   1  13
ATOM     13  C   UNL     1      -4.458  30.864  59.754  1.00  0.00     0.000 C 
BRANCH  13  14
ATOM     14  C   UNL     1      -4.148  31.880  60.870  1.00  0.00     0.000 C 
BRANCH  14  15
ATOM     15  C   UNL     1      -2.701  32.409  60.883  1.00  0.00     0.000 C 
BRANCH  15  16
ATOM     16  C   UNL     1      -2.472  33.500  61.943  1.00  0.00     0.000 C 
BRANCH  16  17
ATOM     17  C   UNL     1      -2.669  32.978  63.375  1.00  0.00     0.000 C 
BRANCH  17  18
ATOM     18  C   UNL     1      -1.814  31.733  63.669  1.00  0.00     0.000 C 
BRANCH  18  19
ATOM     19  C   UNL     1      -0.306  32.032  63.657  1.00  0.00     0.000 C 
BRANCH  19  20
ATOM     20  C   UNL     1       0.377  31.683  64.990  1.00  0.00     0.006 C 
BRANCH  20  21
ATOM     21  C   UNL     1       0.805  32.935  65.767  1.00  0.00     0.053 C 
BRANCH  21  22
ATOM     22  C   UNL     1      -0.346  33.549  66.504  1.00  0.00     0.041 C 
ATOM     23  O   UNL     1      -0.847  32.965  67.501  1.00  0.00    -0.550 OA
ATOM     24  O   UNL     1      -0.844  34.785  66.110  1.00  0.00    -0.550 OA
ENDBRANCH  21  22
ENDBRANCH  20  21
ENDBRANCH  19  20
ENDBRANCH  18  19
ENDBRANCH  17  18
ENDBRANCH  16  17
ENDBRANCH  15  16
ENDBRANCH  14  15
ENDBRANCH  13  14
ENDBRANCH   1  13
TORSDOF 20
ENDMDL
MODEL 9
REMARK VINA RESULT:    -4.557      4.989      8.680
REMARK INTER + INTRA:         -11.510
REMARK INTER:                  -9.466
REMARK INTRA:                  -2.044
REMARK UNBOUND:                -1.626
REMARK SMILES CCCCCCCCCCCCCCCCCCCCCC(=O)[O-]
REMARK SMILES IDX 12 1 11 2 10 3 9 4 8 5 7 6 6 7 5 8 4 9 3 10 2 11 1 12 13 13
REMARK SMILES IDX 14 14 15 15 16 16 17 17 18 18 19 19 20 20 21 21 22 22 23 23
REMARK SMILES IDX 24 24
REMARK H PARENT
REMARK Flexibility Score: inf
ROOT
ATOM      1  C   UNL     1       1.365  24.288  53.656  1.00  0.00     0.000 C 
ENDROOT
BRANCH   1   2
ATOM      2  C   UNL     1       1.816  22.812  53.631  1.00  0.00     0.000 C 
BRANCH   2   3
ATOM      3  C   UNL     1       2.993  22.540  54.585  1.00  0.00     0.000 C 
BRANCH   3   4
ATOM      4  C   UNL     1       3.766  23.820  54.941  1.00  0.00    -0.000 C 
BRANCH   4   5
ATOM      5  C   UNL     1       4.361  23.777  56.359  1.00  0.00    -0.000 C 
BRANCH   5   6
ATOM      6  C   UNL     1       4.458  25.181  56.992  1.00  0.00    -0.000 C 
BRANCH   6   7
ATOM      7  C   UNL     1       3.569  26.231  56.303  1.00  0.00    -0.000 C 
BRANCH   7   8
ATOM      8  C   UNL     1       3.823  27.659  56.811  1.00  0.00    -0.000 C 
BRANCH   8   9
ATOM      9  C   UNL     1       2.555  28.302  57.404  1.00  0.00    -0.000 C 
BRANCH   9  10
ATOM     10  C   UNL     1       1.464  27.287  57.796  1.00  0.00    -0.000 C 
BRANCH  10  11
ATOM     11  C   UNL     1       0.082  27.572  57.176  1.00  0.00    -0.003 C 
ATOM     12  C   UNL     1      -0.238  29.065  57.098  1.00  0.00     0.004 C 
ENDBRANCH  10  11
ENDBRANCH   9  10
ENDBRANCH   8   9
ENDBRANCH   7   8
ENDBRANCH   6   7
ENDBRANCH   5   6
ENDBRANCH   4   5
ENDBRANCH   3   4
ENDBRANCH   2   3
ENDBRANCH   1   2
BRANCH   1  13
ATOM     13  C   UNL     1       0.163  24.556  54.584  1.00  0.00     0.000 C 
BRANCH  13  14
ATOM     14  C   UNL     1      -0.525  25.919  54.382  1.00  0.00     0.000 C 
BRANCH  14  15
ATOM     15  C   UNL     1      -1.334  26.052  53.077  1.00  0.00     0.000 C 
BRANCH  15  16
ATOM     16  C   UNL     1      -2.795  26.468  53.319  1.00  0.00     0.000 C 
BRANCH  16  17
ATOM     17  C   UNL     1      -3.084  26.764  54.799  1.00  0.00     0.000 C 
BRANCH  17  18
ATOM     18  C   UNL     1      -4.585  26.955  55.077  1.00  0.00     0.000 C 
BRANCH  18  19
ATOM     19  C   UNL     1      -4.889  28.263  55.825  1.00  0.00     0.000 C 
BRANCH  19  20
ATOM     20  C   UNL     1      -3.741  28.693  56.754  1.00  0.00     0.006 C 
BRANCH  20  21
ATOM     21  C   UNL     1      -3.812  30.184  57.109  1.00  0.00     0.053 C 
BRANCH  21  22
ATOM     22  C   UNL     1      -4.292  30.396  58.513  1.00  0.00     0.041 C 
ATOM     23  O   UNL     1      -5.245  29.710  58.969  1.00  0.00    -0.550 OA
ATOM     24  O   UNL     1      -3.662  31.328  59.330  1.00  0.00    -0.550 OA
ENDBRANCH  21  22
ENDBRANCH  20  21
ENDBRANCH  19  20
ENDBRANCH  18  19
ENDBRANCH  17  18
ENDBRANCH  16  17
ENDBRANCH  15  16
ENDBRANCH  14  15
ENDBRANCH  13  14
ENDBRANCH   1  13
TORSDOF 20
ENDMDL
