MODEL 1
REMARK VINA RESULT:    -6.956      0.000      0.000
REMARK INTER + INTRA:         -10.835
REMARK INTER:                 -10.209
REMARK INTRA:                  -0.625
REMARK UNBOUND:                -0.625
REMARK SMILES O=c1c(O[C@H]2O[C@H](CO)[C@@H](O)[C@H](O)[C@@H]2O)c(-c2ccc(O)c(O)c2)oc2cc(O)cc(O)c12
REMARK SMILES IDX 4 1 3 2 16 3 25 4 2 5 26 6 1 7 33 8 27 9 31 10 28 11 30 12
REMARK SMILES IDX 17 13 18 14 19 15 20 16 24 17 22 18 21 19 23 21 32 23 29 25
REMARK SMILES IDX 5 27 14 28 6 29 12 30 7 31 10 32 15 33 13 35 8 37 9 38 11 40
REMARK H PARENT 21 20 23 22 32 24 29 26 15 34 13 36 9 39 11 41
REMARK Flexibility Score: inf
ROOT
ATOM      1  O   UNL     1      12.260   0.705   1.271  1.00  0.00    -0.454 OA
ENDROOT
BRANCH   1   2
ATOM      2  C   UNL     1      13.192   0.982   2.292  1.00  0.00     0.214 A 
ATOM      3  C   UNL     1      14.230   1.889   2.007  1.00  0.00     0.180 A 
ATOM      4  O   UNL     1      15.154   2.155   2.920  1.00  0.00    -0.452 OA
ATOM      5  C   UNL     1      13.157   0.385   3.575  1.00  0.00     0.239 A 
ATOM      6  C   UNL     1      15.171   1.607   4.126  1.00  0.00     0.146 A 
ATOM      7  O   UNL     1      12.196  -0.360   3.889  1.00  0.00    -0.285 OA
ATOM      8  C   UNL     1      14.188   0.660   4.509  1.00  0.00     0.111 A 
ATOM      9  C   UNL     1      16.174   1.993   5.018  1.00  0.00     0.094 A 
ATOM     10  C   UNL     1      14.281   0.073   5.808  1.00  0.00     0.134 A 
ATOM     11  C   UNL     1      16.219   1.461   6.305  1.00  0.00     0.123 A 
ATOM     12  C   UNL     1      15.273   0.511   6.695  1.00  0.00     0.093 A 
BRANCH   3  13
ATOM     13  C   UNL     1      14.340   2.562   0.694  1.00  0.00     0.025 A 
ATOM     14  C   UNL     1      15.589   2.775   0.086  1.00  0.00     0.016 A 
ATOM     15  C   UNL     1      15.670   3.403  -1.159  1.00  0.00     0.051 A 
ATOM     16  C   UNL     1      14.509   3.811  -1.822  1.00  0.00     0.157 A 
ATOM     17  C   UNL     1      13.174   2.951   0.016  1.00  0.00     0.062 A 
ATOM     18  C   UNL     1      13.254   3.581  -1.235  1.00  0.00     0.158 A 
BRANCH  16  19
ATOM     19  O   UNL     1      14.621   4.438  -3.063  1.00  0.00    -0.504 OA
ATOM     20  H   UNL     1      15.236   4.089  -3.788  1.00  0.00     0.293 HD
ENDBRANCH  16  19
BRANCH  18  21
ATOM     21  O   UNL     1      12.091   3.977  -1.895  1.00  0.00    -0.504 OA
ATOM     22  H   UNL     1      11.580   3.343  -2.498  1.00  0.00     0.293 HD
ENDBRANCH  18  21
ENDBRANCH   3  13
BRANCH  10  23
ATOM     23  O   UNL     1      13.451  -0.956   6.262  1.00  0.00    -0.507 OA
ATOM     24  H   UNL     1      13.028  -0.992   7.177  1.00  0.00     0.293 HD
ENDBRANCH  10  23
BRANCH  11  25
ATOM     25  O   UNL     1      17.214   1.876   7.187  1.00  0.00    -0.508 OA
ATOM     26  H   UNL     1      17.326   1.449   8.098  1.00  0.00     0.293 HD
ENDBRANCH  11  25
ENDBRANCH   1   2
BRANCH   1  27
ATOM     27  C   UNL     1      10.898   0.287   1.417  1.00  0.00     0.339 C 
ATOM     28  C   UNL     1      10.387  -0.305   0.090  1.00  0.00     0.214 C 
ATOM     29  O   UNL     1      10.067   1.353   1.854  1.00  0.00    -0.332 OA
ATOM     30  C   UNL     1      10.239   0.793  -0.979  1.00  0.00     0.180 C 
ATOM     31  C   UNL     1      10.073   2.437   0.939  1.00  0.00     0.179 C 
ATOM     32  C   UNL     1       9.475   2.012  -0.425  1.00  0.00     0.177 C 
BRANCH  28  33
ATOM     33  O   UNL     1       9.181  -1.008   0.278  1.00  0.00    -0.384 OA
ATOM     34  H   UNL     1       9.185  -1.799  -0.322  1.00  0.00     0.211 HD
ENDBRANCH  28  33
BRANCH  30  35
ATOM     35  O   UNL     1       9.573   0.268  -2.100  1.00  0.00    -0.387 OA
ATOM     36  H   UNL     1      10.089   0.546  -2.901  1.00  0.00     0.211 HD
ENDBRANCH  30  35
BRANCH  31  37
ATOM     37  C   UNL     1       9.264   3.584   1.570  1.00  0.00     0.191 C 
BRANCH  37  38
ATOM     38  O   UNL     1       7.898   3.468   1.276  1.00  0.00    -0.394 OA
ATOM     39  H   UNL     1       7.670   4.225   0.676  1.00  0.00     0.210 HD
ENDBRANCH  37  38
ENDBRANCH  31  37
BRANCH  32  40
ATOM     40  O   UNL     1       9.575   3.077  -1.337  1.00  0.00    -0.387 OA
ATOM     41  H   UNL     1       9.120   2.788  -2.171  1.00  0.00     0.211 HD
ENDBRANCH  32  40
ENDBRANCH   1  27
TORSDOF 12
ENDMDL
MODEL 2
REMARK VINA RESULT:    -6.799      1.242      1.791
REMARK INTER + INTRA:         -10.604
REMARK INTER:                  -9.018
REMARK INTRA:                  -1.585
REMARK UNBOUND:                -0.625
REMARK SMILES O=c1c(O[C@H]2O[C@H](CO)[C@@H](O)[C@H](O)[C@@H]2O)c(-c2ccc(O)c(O)c2)oc2cc(O)cc(O)c12
REMARK SMILES IDX 4 1 3 2 16 3 25 4 2 5 26 6 1 7 33 8 27 9 31 10 28 11 30 12
REMARK SMILES IDX 17 13 18 14 19 15 20 16 24 17 22 18 21 19 23 21 32 23 29 25
REMARK SMILES IDX 5 27 14 28 6 29 12 30 7 31 10 32 15 33 13 35 8 37 9 38 11 40
REMARK H PARENT 21 20 23 22 32 24 29 26 15 34 13 36 9 39 11 41
REMARK Flexibility Score: inf
ROOT
ATOM      1  O   UNL     1      12.238   0.946   1.949  1.00  0.00    -0.454 OA
ENDROOT
BRANCH   1   2
ATOM      2  C   UNL     1      13.245   0.959   2.936  1.00  0.00     0.214 A 
ATOM      3  C   UNL     1      14.458   1.605   2.629  1.00  0.00     0.180 A 
ATOM      4  O   UNL     1      15.452   1.613   3.508  1.00  0.00    -0.452 OA
ATOM      5  C   UNL     1      13.116   0.343   4.203  1.00  0.00     0.239 A 
ATOM      6  C   UNL     1      15.381   1.034   4.697  1.00  0.00     0.146 A 
ATOM      7  O   UNL     1      12.018  -0.166   4.540  1.00  0.00    -0.285 OA
ATOM      8  C   UNL     1      14.216   0.333   5.098  1.00  0.00     0.111 A 
ATOM      9  C   UNL     1      16.478   1.140   5.555  1.00  0.00     0.094 A 
ATOM     10  C   UNL     1      14.213  -0.304   6.376  1.00  0.00     0.134 A 
ATOM     11  C   UNL     1      16.442   0.568   6.825  1.00  0.00     0.123 A 
ATOM     12  C   UNL     1      15.312  -0.145   7.231  1.00  0.00     0.093 A 
BRANCH   3  13
ATOM     13  C   UNL     1      14.678   2.279   1.330  1.00  0.00     0.025 A 
ATOM     14  C   UNL     1      14.731   3.679   1.234  1.00  0.00     0.016 A 
ATOM     15  C   UNL     1      14.950   4.295  -0.000  1.00  0.00     0.051 A 
ATOM     16  C   UNL     1      15.136   3.524  -1.151  1.00  0.00     0.157 A 
ATOM     17  C   UNL     1      14.887   1.505   0.178  1.00  0.00     0.062 A 
ATOM     18  C   UNL     1      15.109   2.122  -1.063  1.00  0.00     0.158 A 
BRANCH  16  19
ATOM     19  O   UNL     1      15.350   4.166  -2.370  1.00  0.00    -0.504 OA
ATOM     20  H   UNL     1      14.876   5.026  -2.616  1.00  0.00     0.293 HD
ENDBRANCH  16  19
BRANCH  18  21
ATOM     21  O   UNL     1      15.302   1.346  -2.206  1.00  0.00    -0.504 OA
ATOM     22  H   UNL     1      16.226   1.045  -2.493  1.00  0.00     0.293 HD
ENDBRANCH  18  21
ENDBRANCH   3  13
BRANCH  10  23
ATOM     23  O   UNL     1      13.179  -1.124   6.840  1.00  0.00    -0.507 OA
ATOM     24  H   UNL     1      12.853  -1.956   6.372  1.00  0.00     0.293 HD
ENDBRANCH  10  23
BRANCH  11  25
ATOM     25  O   UNL     1      17.538   0.705   7.673  1.00  0.00    -0.508 OA
ATOM     26  H   UNL     1      18.385   1.173   7.373  1.00  0.00     0.293 HD
ENDBRANCH  11  25
ENDBRANCH   1   2
BRANCH   1  27
ATOM     27  C   UNL     1      11.009   1.681   1.942  1.00  0.00     0.339 C 
ATOM     28  C   UNL     1       9.842   0.743   1.577  1.00  0.00     0.214 C 
ATOM     29  O   UNL     1      11.067   2.791   1.059  1.00  0.00    -0.332 OA
ATOM     30  C   UNL     1       9.928   0.310   0.102  1.00  0.00     0.180 C 
ATOM     31  C   UNL     1      11.319   2.391  -0.279  1.00  0.00     0.179 C 
ATOM     32  C   UNL     1      10.158   1.522  -0.823  1.00  0.00     0.177 C 
BRANCH  28  33
ATOM     33  O   UNL     1       8.600   1.341   1.867  1.00  0.00    -0.384 OA
ATOM     34  H   UNL     1       8.755   2.305   2.051  1.00  0.00     0.211 HD
ENDBRANCH  28  33
BRANCH  30  35
ATOM     35  O   UNL     1       8.747  -0.361  -0.258  1.00  0.00    -0.387 OA
ATOM     36  H   UNL     1       8.356   0.130  -1.027  1.00  0.00     0.211 HD
ENDBRANCH  30  35
BRANCH  31  37
ATOM     37  C   UNL     1      11.504   3.666  -1.119  1.00  0.00     0.191 C 
BRANCH  37  38
ATOM     38  O   UNL     1      10.276   4.145  -1.599  1.00  0.00    -0.394 OA
ATOM     39  H   UNL     1       9.589   3.885  -0.932  1.00  0.00     0.210 HD
ENDBRANCH  37  38
ENDBRANCH  31  37
BRANCH  32  40
ATOM     40  O   UNL     1      10.475   1.067  -2.115  1.00  0.00    -0.387 OA
ATOM     41  H   UNL     1      11.341   1.482  -2.365  1.00  0.00     0.211 HD
ENDBRANCH  32  40
ENDBRANCH   1  27
TORSDOF 12
ENDMDL
MODEL 3
REMARK VINA RESULT:    -6.732      1.708      4.656
REMARK INTER + INTRA:         -10.505
REMARK INTER:                  -9.564
REMARK INTRA:                  -0.941
REMARK UNBOUND:                -0.625
REMARK SMILES O=c1c(O[C@H]2O[C@H](CO)[C@@H](O)[C@H](O)[C@@H]2O)c(-c2ccc(O)c(O)c2)oc2cc(O)cc(O)c12
REMARK SMILES IDX 4 1 3 2 16 3 25 4 2 5 26 6 1 7 33 8 27 9 31 10 28 11 30 12
REMARK SMILES IDX 17 13 18 14 19 15 20 16 24 17 22 18 21 19 23 21 32 23 29 25
REMARK SMILES IDX 5 27 14 28 6 29 12 30 7 31 10 32 15 33 13 35 8 37 9 38 11 40
REMARK H PARENT 21 20 23 22 32 24 29 26 15 34 13 36 9 39 11 41
REMARK Flexibility Score: inf
ROOT
ATOM      1  O   UNL     1      13.727   2.802   0.909  1.00  0.00    -0.454 OA
ENDROOT
BRANCH   1   2
ATOM      2  C   UNL     1      13.737   2.068   2.113  1.00  0.00     0.214 A 
ATOM      3  C   UNL     1      12.680   1.166   2.341  1.00  0.00     0.180 A 
ATOM      4  O   UNL     1      12.621   0.478   3.474  1.00  0.00    -0.452 OA
ATOM      5  C   UNL     1      14.731   2.201   3.111  1.00  0.00     0.239 A 
ATOM      6  C   UNL     1      13.519   0.585   4.442  1.00  0.00     0.146 A 
ATOM      7  O   UNL     1      15.731   2.932   2.901  1.00  0.00    -0.285 OA
ATOM      8  C   UNL     1      14.610   1.483   4.328  1.00  0.00     0.111 A 
ATOM      9  C   UNL     1      13.374  -0.219   5.575  1.00  0.00     0.094 A 
ATOM     10  C   UNL     1      15.524   1.583   5.421  1.00  0.00     0.134 A 
ATOM     11  C   UNL     1      14.306  -0.159   6.609  1.00  0.00     0.123 A 
ATOM     12  C   UNL     1      15.376   0.735   6.526  1.00  0.00     0.093 A 
BRANCH   3  13
ATOM     13  C   UNL     1      11.601   0.960   1.350  1.00  0.00     0.025 A 
ATOM     14  C   UNL     1      11.236  -0.328   0.924  1.00  0.00     0.016 A 
ATOM     15  C   UNL     1      10.207  -0.501  -0.004  1.00  0.00     0.051 A 
ATOM     16  C   UNL     1       9.517   0.605  -0.507  1.00  0.00     0.157 A 
ATOM     17  C   UNL     1      10.891   2.068   0.861  1.00  0.00     0.062 A 
ATOM     18  C   UNL     1       9.856   1.897  -0.070  1.00  0.00     0.158 A 
BRANCH  16  19
ATOM     19  O   UNL     1       8.495   0.402  -1.435  1.00  0.00    -0.504 OA
ATOM     20  H   UNL     1       8.552  -0.313  -2.150  1.00  0.00     0.293 HD
ENDBRANCH  16  19
BRANCH  18  21
ATOM     21  O   UNL     1       9.166   3.004  -0.562  1.00  0.00    -0.504 OA
ATOM     22  H   UNL     1       8.208   2.932  -0.885  1.00  0.00     0.293 HD
ENDBRANCH  18  21
ENDBRANCH   3  13
BRANCH  10  23
ATOM     23  O   UNL     1      16.567   2.512   5.486  1.00  0.00    -0.507 OA
ATOM     24  H   UNL     1      17.268   2.538   6.210  1.00  0.00     0.293 HD
ENDBRANCH  10  23
BRANCH  11  25
ATOM     25  O   UNL     1      14.155  -0.985   7.720  1.00  0.00    -0.508 OA
ATOM     26  H   UNL     1      14.546  -0.738   8.622  1.00  0.00     0.293 HD
ENDBRANCH  11  25
ENDBRANCH   1   2
BRANCH   1  27
ATOM     27  C   UNL     1      14.721   2.808  -0.121  1.00  0.00     0.339 C 
ATOM     28  C   UNL     1      14.343   3.834  -1.207  1.00  0.00     0.214 C 
ATOM     29  O   UNL     1      14.903   1.516  -0.681  1.00  0.00    -0.332 OA
ATOM     30  C   UNL     1      13.109   3.363  -1.998  1.00  0.00     0.180 C 
ATOM     31  C   UNL     1      13.707   1.017  -1.260  1.00  0.00     0.179 C 
ATOM     32  C   UNL     1      13.262   1.898  -2.453  1.00  0.00     0.177 C 
BRANCH  28  33
ATOM     33  O   UNL     1      15.433   4.097  -2.060  1.00  0.00    -0.384 OA
ATOM     34  H   UNL     1      15.833   4.966  -1.793  1.00  0.00     0.211 HD
ENDBRANCH  28  33
BRANCH  30  35
ATOM     35  O   UNL     1      12.919   4.202  -3.110  1.00  0.00    -0.387 OA
ATOM     36  H   UNL     1      13.818   4.405  -3.478  1.00  0.00     0.211 HD
ENDBRANCH  30  35
BRANCH  31  37
ATOM     37  C   UNL     1      13.974  -0.432  -1.704  1.00  0.00     0.191 C 
BRANCH  37  38
ATOM     38  O   UNL     1      15.345  -0.730  -1.678  1.00  0.00    -0.394 OA
ATOM     39  H   UNL     1      15.576  -0.925  -0.733  1.00  0.00     0.210 HD
ENDBRANCH  37  38
ENDBRANCH  31  37
BRANCH  32  40
ATOM     40  O   UNL     1      12.031   1.434  -2.950  1.00  0.00    -0.387 OA
ATOM     41  H   UNL     1      12.165   1.230  -3.912  1.00  0.00     0.211 HD
ENDBRANCH  32  40
ENDBRANCH   1  27
TORSDOF 12
ENDMDL
MODEL 4
REMARK VINA RESULT:    -6.506      1.959      4.918
REMARK INTER + INTRA:         -10.174
REMARK INTER:                  -8.699
REMARK INTRA:                  -1.475
REMARK UNBOUND:                -0.625
REMARK SMILES O=c1c(O[C@H]2O[C@H](CO)[C@@H](O)[C@H](O)[C@@H]2O)c(-c2ccc(O)c(O)c2)oc2cc(O)cc(O)c12
REMARK SMILES IDX 4 1 3 2 16 3 25 4 2 5 26 6 1 7 33 8 27 9 31 10 28 11 30 12
REMARK SMILES IDX 17 13 18 14 19 15 20 16 24 17 22 18 21 19 23 21 32 23 29 25
REMARK SMILES IDX 5 27 14 28 6 29 12 30 7 31 10 32 15 33 13 35 8 37 9 38 11 40
REMARK H PARENT 21 20 23 22 32 24 29 26 15 34 13 36 9 39 11 41
REMARK Flexibility Score: inf
ROOT
ATOM      1  O   UNL     1      13.944   1.025   1.540  1.00  0.00    -0.454 OA
ENDROOT
BRANCH   1   2
ATOM      2  C   UNL     1      13.315   0.616   2.734  1.00  0.00     0.214 A 
ATOM      3  C   UNL     1      12.001   0.118   2.648  1.00  0.00     0.180 A 
ATOM      4  O   UNL     1      11.350  -0.244   3.745  1.00  0.00    -0.452 OA
ATOM      5  C   UNL     1      13.918   0.697   4.012  1.00  0.00     0.239 A 
ATOM      6  C   UNL     1      11.869  -0.169   4.961  1.00  0.00     0.146 A 
ATOM      7  O   UNL     1      15.118   1.054   4.112  1.00  0.00    -0.285 OA
ATOM      8  C   UNL     1      13.175   0.342   5.166  1.00  0.00     0.111 A 
ATOM      9  C   UNL     1      11.102  -0.615   6.041  1.00  0.00     0.094 A 
ATOM     10  C   UNL     1      13.665   0.437   6.504  1.00  0.00     0.134 A 
ATOM     11  C   UNL     1      11.613  -0.577   7.336  1.00  0.00     0.123 A 
ATOM     12  C   UNL     1      12.890  -0.057   7.561  1.00  0.00     0.093 A 
BRANCH   3  13
ATOM     13  C   UNL     1      11.296  -0.005   1.352  1.00  0.00     0.025 A 
ATOM     14  C   UNL     1      11.663  -0.982   0.412  1.00  0.00     0.016 A 
ATOM     15  C   UNL     1      10.977  -1.088  -0.801  1.00  0.00     0.051 A 
ATOM     16  C   UNL     1       9.907  -0.236  -1.084  1.00  0.00     0.157 A 
ATOM     17  C   UNL     1      10.206   0.835   1.076  1.00  0.00     0.062 A 
ATOM     18  C   UNL     1       9.515   0.729  -0.140  1.00  0.00     0.158 A 
BRANCH  16  19
ATOM     19  O   UNL     1       9.243  -0.364  -2.304  1.00  0.00    -0.504 OA
ATOM     20  H   UNL     1       9.459  -1.105  -2.959  1.00  0.00     0.293 HD
ENDBRANCH  16  19
BRANCH  18  21
ATOM     21  O   UNL     1       8.442   1.577  -0.413  1.00  0.00    -0.504 OA
ATOM     22  H   UNL     1       8.585   2.526  -0.740  1.00  0.00     0.293 HD
ENDBRANCH  18  21
ENDBRANCH   3  13
BRANCH  10  23
ATOM     23  O   UNL     1      14.883   1.031   6.851  1.00  0.00    -0.507 OA
ATOM     24  H   UNL     1      15.362   1.724   6.297  1.00  0.00     0.293 HD
ENDBRANCH  10  23
BRANCH  11  25
ATOM     25  O   UNL     1      10.842  -1.049   8.394  1.00  0.00    -0.508 OA
ATOM     26  H   UNL     1      11.219  -1.692   9.080  1.00  0.00     0.293 HD
ENDBRANCH  11  25
ENDBRANCH   1   2
BRANCH   1  27
ATOM     27  C   UNL     1      14.315   2.355   1.157  1.00  0.00     0.339 C 
ATOM     28  C   UNL     1      13.102   3.078   0.540  1.00  0.00     0.214 C 
ATOM     29  O   UNL     1      15.417   2.354   0.262  1.00  0.00    -0.332 OA
ATOM     30  C   UNL     1      12.741   2.473  -0.828  1.00  0.00     0.180 C 
ATOM     31  C   UNL     1      15.130   1.642  -0.932  1.00  0.00     0.179 C 
ATOM     32  C   UNL     1      13.989   2.329  -1.722  1.00  0.00     0.177 C 
BRANCH  28  33
ATOM     33  O   UNL     1      13.331   4.465   0.447  1.00  0.00    -0.384 OA
ATOM     34  H   UNL     1      12.457   4.930   0.523  1.00  0.00     0.211 HD
ENDBRANCH  28  33
BRANCH  30  35
ATOM     35  O   UNL     1      11.780   3.282  -1.459  1.00  0.00    -0.387 OA
ATOM     36  H   UNL     1      12.249   4.099  -1.774  1.00  0.00     0.211 HD
ENDBRANCH  30  35
BRANCH  31  37
ATOM     37  C   UNL     1      16.425   1.580  -1.760  1.00  0.00     0.191 C 
BRANCH  37  38
ATOM     38  O   UNL     1      16.484   0.408  -2.528  1.00  0.00    -0.394 OA
ATOM     39  H   UNL     1      16.508   0.691  -3.479  1.00  0.00     0.210 HD
ENDBRANCH  37  38
ENDBRANCH  31  37
BRANCH  32  40
ATOM     40  O   UNL     1      13.665   1.556  -2.851  1.00  0.00    -0.387 OA
ATOM     41  H   UNL     1      14.282   0.778  -2.857  1.00  0.00     0.211 HD
ENDBRANCH  32  40
ENDBRANCH   1  27
TORSDOF 12
ENDMDL
MODEL 5
REMARK VINA RESULT:    -6.292      1.727      4.497
REMARK INTER + INTRA:          -9.861
REMARK INTER:                  -8.553
REMARK INTRA:                  -1.308
REMARK UNBOUND:                -0.625
REMARK SMILES O=c1c(O[C@H]2O[C@H](CO)[C@@H](O)[C@H](O)[C@@H]2O)c(-c2ccc(O)c(O)c2)oc2cc(O)cc(O)c12
REMARK SMILES IDX 4 1 3 2 16 3 25 4 2 5 26 6 1 7 33 8 27 9 31 10 28 11 30 12
REMARK SMILES IDX 17 13 18 14 19 15 20 16 24 17 22 18 21 19 23 21 32 23 29 25
REMARK SMILES IDX 5 27 14 28 6 29 12 30 7 31 10 32 15 33 13 35 8 37 9 38 11 40
REMARK H PARENT 21 20 23 22 32 24 29 26 15 34 13 36 9 39 11 41
REMARK Flexibility Score: inf
ROOT
ATOM      1  O   UNL     1      13.936   1.657   1.206  1.00  0.00    -0.454 OA
ENDROOT
BRANCH   1   2
ATOM      2  C   UNL     1      13.483   1.109   2.424  1.00  0.00     0.214 A 
ATOM      3  C   UNL     1      12.294   0.356   2.404  1.00  0.00     0.180 A 
ATOM      4  O   UNL     1      11.803  -0.149   3.528  1.00  0.00    -0.452 OA
ATOM      5  C   UNL     1      14.140   1.291   3.665  1.00  0.00     0.239 A 
ATOM      6  C   UNL     1      12.375   0.012   4.713  1.00  0.00     0.146 A 
ATOM      7  O   UNL     1      15.246   1.884   3.702  1.00  0.00    -0.285 OA
ATOM      8  C   UNL     1      13.561   0.775   4.851  1.00  0.00     0.111 A 
ATOM      9  C   UNL     1      11.787  -0.599   5.823  1.00  0.00     0.094 A 
ATOM     10  C   UNL     1      14.109   0.946   6.159  1.00  0.00     0.134 A 
ATOM     11  C   UNL     1      12.364  -0.477   7.085  1.00  0.00     0.123 A 
ATOM     12  C   UNL     1      13.521   0.288   7.247  1.00  0.00     0.093 A 
BRANCH   3  13
ATOM     13  C   UNL     1      11.545   0.111   1.151  1.00  0.00     0.025 A 
ATOM     14  C   UNL     1      12.128  -0.578   0.075  1.00  0.00     0.016 A 
ATOM     15  C   UNL     1      11.399  -0.807  -1.095  1.00  0.00     0.051 A 
ATOM     16  C   UNL     1      10.077  -0.368  -1.201  1.00  0.00     0.157 A 
ATOM     17  C   UNL     1      10.209   0.531   1.052  1.00  0.00     0.062 A 
ATOM     18  C   UNL     1       9.476   0.301  -0.122  1.00  0.00     0.158 A 
BRANCH  16  19
ATOM     19  O   UNL     1       9.375  -0.609  -2.382  1.00  0.00    -0.504 OA
ATOM     20  H   UNL     1       8.489  -1.099  -2.391  1.00  0.00     0.293 HD
ENDBRANCH  16  19
BRANCH  18  21
ATOM     21  O   UNL     1       8.153   0.734  -0.218  1.00  0.00    -0.504 OA
ATOM     22  H   UNL     1       7.806   1.198  -1.049  1.00  0.00     0.293 HD
ENDBRANCH  18  21
ENDBRANCH   3  13
BRANCH  10  23
ATOM     23  O   UNL     1      15.201   1.770   6.448  1.00  0.00    -0.507 OA
ATOM     24  H   UNL     1      16.152   1.450   6.545  1.00  0.00     0.293 HD
ENDBRANCH  10  23
BRANCH  11  25
ATOM     25  O   UNL     1      11.774  -1.113   8.175  1.00  0.00    -0.508 OA
ATOM     26  H   UNL     1      12.018  -0.868   9.128  1.00  0.00     0.293 HD
ENDBRANCH  11  25
ENDBRANCH   1   2
BRANCH   1  27
ATOM     27  C   UNL     1      14.163   3.036   0.897  1.00  0.00     0.339 C 
ATOM     28  C   UNL     1      13.085   3.907   1.570  1.00  0.00     0.214 C 
ATOM     29  O   UNL     1      14.198   3.261  -0.505  1.00  0.00    -0.332 OA
ATOM     30  C   UNL     1      11.711   3.685   0.911  1.00  0.00     0.180 C 
ATOM     31  C   UNL     1      12.980   2.889  -1.131  1.00  0.00     0.179 C 
ATOM     32  C   UNL     1      11.810   3.769  -0.626  1.00  0.00     0.177 C 
BRANCH  28  33
ATOM     33  O   UNL     1      13.449   5.268   1.558  1.00  0.00    -0.384 OA
ATOM     34  H   UNL     1      12.827   5.761   2.154  1.00  0.00     0.211 HD
ENDBRANCH  28  33
BRANCH  30  35
ATOM     35  O   UNL     1      10.801   4.640   1.394  1.00  0.00    -0.387 OA
ATOM     36  H   UNL     1      11.173   4.993   2.244  1.00  0.00     0.211 HD
ENDBRANCH  30  35
BRANCH  31  37
ATOM     37  C   UNL     1      13.174   3.035  -2.650  1.00  0.00     0.191 C 
BRANCH  37  38
ATOM     38  O   UNL     1      12.766   4.301  -3.097  1.00  0.00    -0.394 OA
ATOM     39  H   UNL     1      13.030   4.364  -4.052  1.00  0.00     0.210 HD
ENDBRANCH  37  38
ENDBRANCH  31  37
BRANCH  32  40
ATOM     40  O   UNL     1      10.604   3.322  -1.194  1.00  0.00    -0.387 OA
ATOM     41  H   UNL     1       9.867   3.749  -0.684  1.00  0.00     0.211 HD
ENDBRANCH  32  40
ENDBRANCH   1  27
TORSDOF 12
ENDMDL
MODEL 6
REMARK VINA RESULT:    -6.210      2.472      6.744
REMARK INTER + INTRA:          -9.739
REMARK INTER:                  -9.337
REMARK INTRA:                  -0.403
REMARK UNBOUND:                -0.625
REMARK SMILES O=c1c(O[C@H]2O[C@H](CO)[C@@H](O)[C@H](O)[C@@H]2O)c(-c2ccc(O)c(O)c2)oc2cc(O)cc(O)c12
REMARK SMILES IDX 4 1 3 2 16 3 25 4 2 5 26 6 1 7 33 8 27 9 31 10 28 11 30 12
REMARK SMILES IDX 17 13 18 14 19 15 20 16 24 17 22 18 21 19 23 21 32 23 29 25
REMARK SMILES IDX 5 27 14 28 6 29 12 30 7 31 10 32 15 33 13 35 8 37 9 38 11 40
REMARK H PARENT 21 20 23 22 32 24 29 26 15 34 13 36 9 39 11 41
REMARK Flexibility Score: inf
ROOT
ATOM      1  O   UNL     1      12.198   2.527   1.498  1.00  0.00    -0.454 OA
ENDROOT
BRANCH   1   2
ATOM      2  C   UNL     1      11.468   3.319   0.588  1.00  0.00     0.214 A 
ATOM      3  C   UNL     1      11.901   3.347  -0.752  1.00  0.00     0.180 A 
ATOM      4  O   UNL     1      11.274   4.106  -1.641  1.00  0.00    -0.452 OA
ATOM      5  C   UNL     1      10.345   4.102   0.946  1.00  0.00     0.239 A 
ATOM      6  C   UNL     1      10.231   4.868  -1.346  1.00  0.00     0.146 A 
ATOM      7  O   UNL     1       9.883   4.031   2.111  1.00  0.00    -0.285 OA
ATOM      8  C   UNL     1       9.729   4.935  -0.022  1.00  0.00     0.111 A 
ATOM      9  C   UNL     1       9.627   5.596  -2.373  1.00  0.00     0.094 A 
ATOM     10  C   UNL     1       8.627   5.804   0.243  1.00  0.00     0.134 A 
ATOM     11  C   UNL     1       8.514   6.393  -2.117  1.00  0.00     0.123 A 
ATOM     12  C   UNL     1       8.017   6.489  -0.815  1.00  0.00     0.093 A 
BRANCH   3  13
ATOM     13  C   UNL     1      13.063   2.557  -1.215  1.00  0.00     0.025 A 
ATOM     14  C   UNL     1      12.894   1.372  -1.950  1.00  0.00     0.016 A 
ATOM     15  C   UNL     1      14.004   0.646  -2.387  1.00  0.00     0.051 A 
ATOM     16  C   UNL     1      15.297   1.100  -2.111  1.00  0.00     0.157 A 
ATOM     17  C   UNL     1      14.362   3.023  -0.959  1.00  0.00     0.062 A 
ATOM     18  C   UNL     1      15.479   2.296  -1.397  1.00  0.00     0.158 A 
BRANCH  16  19
ATOM     19  O   UNL     1      16.387   0.353  -2.558  1.00  0.00    -0.504 OA
ATOM     20  H   UNL     1      17.075   0.733  -3.196  1.00  0.00     0.293 HD
ENDBRANCH  16  19
BRANCH  18  21
ATOM     21  O   UNL     1      16.766   2.759  -1.126  1.00  0.00    -0.504 OA
ATOM     22  H   UNL     1      17.216   2.587  -0.235  1.00  0.00     0.293 HD
ENDBRANCH  18  21
ENDBRANCH   3  13
BRANCH  10  23
ATOM     23  O   UNL     1       8.116   6.052   1.521  1.00  0.00    -0.507 OA
ATOM     24  H   UNL     1       8.346   6.856   2.085  1.00  0.00     0.293 HD
ENDBRANCH  10  23
BRANCH  11  25
ATOM     25  O   UNL     1       7.913   7.093  -3.160  1.00  0.00    -0.508 OA
ATOM     26  H   UNL     1       6.924   7.316  -3.149  1.00  0.00     0.293 HD
ENDBRANCH  11  25
ENDBRANCH   1   2
BRANCH   1  27
ATOM     27  C   UNL     1      12.697   1.199   1.300  1.00  0.00     0.339 C 
ATOM     28  C   UNL     1      11.670   0.172   1.812  1.00  0.00     0.214 C 
ATOM     29  O   UNL     1      13.959   1.015   1.926  1.00  0.00    -0.332 OA
ATOM     30  C   UNL     1      11.570   0.216   3.348  1.00  0.00     0.180 C 
ATOM     31  C   UNL     1      13.891   1.228   3.327  1.00  0.00     0.179 C 
ATOM     32  C   UNL     1      12.967   0.183   3.999  1.00  0.00     0.177 C 
BRANCH  28  33
ATOM     33  O   UNL     1      11.974  -1.124   1.352  1.00  0.00    -0.384 OA
ATOM     34  H   UNL     1      12.849  -1.090   0.884  1.00  0.00     0.211 HD
ENDBRANCH  28  33
BRANCH  30  35
ATOM     35  O   UNL     1      10.795  -0.867   3.797  1.00  0.00    -0.387 OA
ATOM     36  H   UNL     1      10.886  -0.899   4.785  1.00  0.00     0.211 HD
ENDBRANCH  30  35
BRANCH  31  37
ATOM     37  C   UNL     1      15.323   1.146   3.881  1.00  0.00     0.191 C 
BRANCH  37  38
ATOM     38  O   UNL     1      15.443   1.840   5.094  1.00  0.00    -0.394 OA
ATOM     39  H   UNL     1      16.207   2.465   4.990  1.00  0.00     0.210 HD
ENDBRANCH  37  38
ENDBRANCH  31  37
BRANCH  32  40
ATOM     40  O   UNL     1      12.847   0.471   5.370  1.00  0.00    -0.387 OA
ATOM     41  H   UNL     1      12.862  -0.397   5.852  1.00  0.00     0.211 HD
ENDBRANCH  32  40
ENDBRANCH   1  27
TORSDOF 12
ENDMDL
MODEL 7
REMARK VINA RESULT:    -6.134      2.305      6.420
REMARK INTER + INTRA:          -9.628
REMARK INTER:                  -8.775
REMARK INTRA:                  -0.852
REMARK UNBOUND:                -0.625
REMARK SMILES O=c1c(O[C@H]2O[C@H](CO)[C@@H](O)[C@H](O)[C@@H]2O)c(-c2ccc(O)c(O)c2)oc2cc(O)cc(O)c12
REMARK SMILES IDX 4 1 3 2 16 3 25 4 2 5 26 6 1 7 33 8 27 9 31 10 28 11 30 12
REMARK SMILES IDX 17 13 18 14 19 15 20 16 24 17 22 18 21 19 23 21 32 23 29 25
REMARK SMILES IDX 5 27 14 28 6 29 12 30 7 31 10 32 15 33 13 35 8 37 9 38 11 40
REMARK H PARENT 21 20 23 22 32 24 29 26 15 34 13 36 9 39 11 41
REMARK Flexibility Score: inf
ROOT
ATOM      1  O   UNL     1      14.507   2.850   2.136  1.00  0.00    -0.454 OA
ENDROOT
BRANCH   1   2
ATOM      2  C   UNL     1      13.398   3.256   1.365  1.00  0.00     0.214 A 
ATOM      3  C   UNL     1      13.459   3.061  -0.028  1.00  0.00     0.180 A 
ATOM      4  O   UNL     1      12.460   3.460  -0.803  1.00  0.00    -0.452 OA
ATOM      5  C   UNL     1      12.242   3.868   1.906  1.00  0.00     0.239 A 
ATOM      6  C   UNL     1      11.368   4.052  -0.342  1.00  0.00     0.146 A 
ATOM      7  O   UNL     1      12.120   3.976   3.151  1.00  0.00    -0.285 OA
ATOM      8  C   UNL     1      11.214   4.321   1.041  1.00  0.00     0.111 A 
ATOM      9  C   UNL     1      10.363   4.395  -1.250  1.00  0.00     0.094 A 
ATOM     10  C   UNL     1      10.033   4.998   1.474  1.00  0.00     0.134 A 
ATOM     11  C   UNL     1       9.187   4.998  -0.810  1.00  0.00     0.123 A 
ATOM     12  C   UNL     1       9.025   5.291   0.546  1.00  0.00     0.093 A 
BRANCH   3  13
ATOM     13  C   UNL     1      14.627   2.426  -0.678  1.00  0.00     0.025 A 
ATOM     14  C   UNL     1      15.905   3.006  -0.609  1.00  0.00     0.016 A 
ATOM     15  C   UNL     1      16.997   2.385  -1.220  1.00  0.00     0.051 A 
ATOM     16  C   UNL     1      16.833   1.171  -1.893  1.00  0.00     0.157 A 
ATOM     17  C   UNL     1      14.469   1.196  -1.334  1.00  0.00     0.062 A 
ATOM     18  C   UNL     1      15.564   0.570  -1.948  1.00  0.00     0.158 A 
BRANCH  16  19
ATOM     19  O   UNL     1      17.940   0.575  -2.496  1.00  0.00    -0.504 OA
ATOM     20  H   UNL     1      18.222   0.798  -3.443  1.00  0.00     0.293 HD
ENDBRANCH  16  19
BRANCH  18  21
ATOM     21  O   UNL     1      15.396  -0.646  -2.610  1.00  0.00    -0.504 OA
ATOM     22  H   UNL     1      14.714  -0.757  -3.351  1.00  0.00     0.293 HD
ENDBRANCH  18  21
ENDBRANCH   3  13
BRANCH  10  23
ATOM     23  O   UNL     1       9.814   5.428   2.786  1.00  0.00    -0.507 OA
ATOM     24  H   UNL     1      10.522   5.465   3.504  1.00  0.00     0.293 HD
ENDBRANCH  10  23
BRANCH  11  25
ATOM     25  O   UNL     1       8.188   5.311  -1.728  1.00  0.00    -0.508 OA
ATOM     26  H   UNL     1       7.220   5.412  -1.445  1.00  0.00     0.293 HD
ENDBRANCH  11  25
ENDBRANCH   1   2
BRANCH   1  27
ATOM     27  C   UNL     1      14.957   1.514   2.385  1.00  0.00     0.339 C 
ATOM     28  C   UNL     1      13.747   0.586   2.605  1.00  0.00     0.214 C 
ATOM     29  O   UNL     1      15.849   1.459   3.490  1.00  0.00    -0.332 OA
ATOM     30  C   UNL     1      13.044   0.908   3.936  1.00  0.00     0.180 C 
ATOM     31  C   UNL     1      15.240   1.922   4.685  1.00  0.00     0.179 C 
ATOM     32  C   UNL     1      14.059   1.007   5.093  1.00  0.00     0.177 C 
BRANCH  28  33
ATOM     33  O   UNL     1      14.126  -0.769   2.535  1.00  0.00    -0.384 OA
ATOM     34  H   UNL     1      14.440  -0.956   1.612  1.00  0.00     0.211 HD
ENDBRANCH  28  33
BRANCH  30  35
ATOM     35  O   UNL     1      12.087  -0.083   4.211  1.00  0.00    -0.387 OA
ATOM     36  H   UNL     1      11.968  -0.108   5.196  1.00  0.00     0.211 HD
ENDBRANCH  30  35
BRANCH  31  37
ATOM     37  C   UNL     1      16.324   1.957   5.776  1.00  0.00     0.191 C 
BRANCH  37  38
ATOM     38  O   UNL     1      15.904   2.700   6.889  1.00  0.00    -0.394 OA
ATOM     39  H   UNL     1      16.189   2.194   7.694  1.00  0.00     0.210 HD
ENDBRANCH  37  38
ENDBRANCH  31  37
BRANCH  32  40
ATOM     40  O   UNL     1      13.420   1.538   6.227  1.00  0.00    -0.387 OA
ATOM     41  H   UNL     1      13.822   1.097   7.020  1.00  0.00     0.211 HD
ENDBRANCH  32  40
ENDBRANCH   1  27
TORSDOF 12
ENDMDL
MODEL 8
REMARK VINA RESULT:    -6.041      1.080      1.085
REMARK INTER + INTRA:          -9.492
REMARK INTER:                  -8.192
REMARK INTRA:                  -1.300
REMARK UNBOUND:                -0.625
REMARK SMILES O=c1c(O[C@H]2O[C@H](CO)[C@@H](O)[C@H](O)[C@@H]2O)c(-c2ccc(O)c(O)c2)oc2cc(O)cc(O)c12
REMARK SMILES IDX 4 1 3 2 16 3 25 4 2 5 26 6 1 7 33 8 27 9 31 10 28 11 30 12
REMARK SMILES IDX 17 13 18 14 19 15 20 16 24 17 22 18 21 19 23 21 32 23 29 25
REMARK SMILES IDX 5 27 14 28 6 29 12 30 7 31 10 32 15 33 13 35 8 37 9 38 11 40
REMARK H PARENT 21 20 23 22 32 24 29 26 15 34 13 36 9 39 11 41
REMARK Flexibility Score: inf
ROOT
ATOM      1  O   UNL     1      11.418   0.140   1.574  1.00  0.00    -0.454 OA
ENDROOT
BRANCH   1   2
ATOM      2  C   UNL     1      12.452   0.548   2.441  1.00  0.00     0.214 A 
ATOM      3  C   UNL     1      13.434   1.417   1.931  1.00  0.00     0.180 A 
ATOM      4  O   UNL     1      14.449   1.801   2.693  1.00  0.00    -0.452 OA
ATOM      5  C   UNL     1      12.571   0.117   3.784  1.00  0.00     0.239 A 
ATOM      6  C   UNL     1      14.609   1.409   3.949  1.00  0.00     0.146 A 
ATOM      7  O   UNL     1      11.666  -0.588   4.295  1.00  0.00    -0.285 OA
ATOM      8  C   UNL     1      13.693   0.513   4.555  1.00  0.00     0.111 A 
ATOM      9  C   UNL     1      15.698   1.909   4.668  1.00  0.00     0.094 A 
ATOM     10  C   UNL     1      13.941   0.094   5.898  1.00  0.00     0.134 A 
ATOM     11  C   UNL     1      15.896   1.543   5.997  1.00  0.00     0.123 A 
ATOM     12  C   UNL     1      15.017   0.645   6.606  1.00  0.00     0.093 A 
BRANCH   3  13
ATOM     13  C   UNL     1      13.385   1.921   0.540  1.00  0.00     0.025 A 
ATOM     14  C   UNL     1      14.311   1.489  -0.425  1.00  0.00     0.016 A 
ATOM     15  C   UNL     1      14.241   1.969  -1.735  1.00  0.00     0.051 A 
ATOM     16  C   UNL     1      13.239   2.870  -2.105  1.00  0.00     0.157 A 
ATOM     17  C   UNL     1      12.366   2.807   0.161  1.00  0.00     0.062 A 
ATOM     18  C   UNL     1      12.293   3.289  -1.154  1.00  0.00     0.158 A 
BRANCH  16  19
ATOM     19  O   UNL     1      13.195   3.333  -3.420  1.00  0.00    -0.504 OA
ATOM     20  H   UNL     1      12.858   2.759  -4.182  1.00  0.00     0.293 HD
ENDBRANCH  16  19
BRANCH  18  21
ATOM     21  O   UNL     1      11.285   4.181  -1.519  1.00  0.00    -0.504 OA
ATOM     22  H   UNL     1      10.517   3.899  -2.117  1.00  0.00     0.293 HD
ENDBRANCH  18  21
ENDBRANCH   3  13
BRANCH  10  23
ATOM     23  O   UNL     1      13.186  -0.874   6.567  1.00  0.00    -0.507 OA
ATOM     24  H   UNL     1      12.652  -1.600   6.114  1.00  0.00     0.293 HD
ENDBRANCH  10  23
BRANCH  11  25
ATOM     25  O   UNL     1      16.974   2.071   6.703  1.00  0.00    -0.508 OA
ATOM     26  H   UNL     1      16.887   2.350   7.673  1.00  0.00     0.293 HD
ENDBRANCH  11  25
ENDBRANCH   1   2
BRANCH   1  27
ATOM     27  C   UNL     1      10.024   0.002   1.875  1.00  0.00     0.339 C 
ATOM     28  C   UNL     1       9.302  -0.689   0.703  1.00  0.00     0.214 C 
ATOM     29  O   UNL     1       9.427   1.256   2.174  1.00  0.00    -0.332 OA
ATOM     30  C   UNL     1       9.242   0.236  -0.526  1.00  0.00     0.180 C 
ATOM     31  C   UNL     1       9.530   2.164   1.089  1.00  0.00     0.179 C 
ATOM     32  C   UNL     1       8.746   1.644  -0.142  1.00  0.00     0.177 C 
BRANCH  28  33
ATOM     33  O   UNL     1       8.018  -1.125   1.083  1.00  0.00    -0.384 OA
ATOM     34  H   UNL     1       7.374  -0.845   0.381  1.00  0.00     0.211 HD
ENDBRANCH  28  33
BRANCH  30  35
ATOM     35  O   UNL     1       8.398  -0.330  -1.497  1.00  0.00    -0.387 OA
ATOM     36  H   UNL     1       8.853  -0.227  -2.373  1.00  0.00     0.211 HD
ENDBRANCH  30  35
BRANCH  31  37
ATOM     37  C   UNL     1       8.986   3.522   1.565  1.00  0.00     0.191 C 
BRANCH  37  38
ATOM     38  O   UNL     1       9.442   4.569   0.751  1.00  0.00    -0.394 OA
ATOM     39  H   UNL     1      10.311   4.866   1.129  1.00  0.00     0.210 HD
ENDBRANCH  37  38
ENDBRANCH  31  37
BRANCH  32  40
ATOM     40  O   UNL     1       8.939   2.517  -1.227  1.00  0.00    -0.387 OA
ATOM     41  H   UNL     1       8.114   3.064  -1.310  1.00  0.00     0.211 HD
ENDBRANCH  32  40
ENDBRANCH   1  27
TORSDOF 12
ENDMDL
MODEL 9
REMARK VINA RESULT:    -5.356      2.159      4.866
REMARK INTER + INTRA:          -8.486
REMARK INTER:                  -8.770
REMARK INTRA:                   0.284
REMARK UNBOUND:                -0.625
REMARK SMILES O=c1c(O[C@H]2O[C@H](CO)[C@@H](O)[C@H](O)[C@@H]2O)c(-c2ccc(O)c(O)c2)oc2cc(O)cc(O)c12
REMARK SMILES IDX 4 1 3 2 16 3 25 4 2 5 26 6 1 7 33 8 27 9 31 10 28 11 30 12
REMARK SMILES IDX 17 13 18 14 19 15 20 16 24 17 22 18 21 19 23 21 32 23 29 25
REMARK SMILES IDX 5 27 14 28 6 29 12 30 7 31 10 32 15 33 13 35 8 37 9 38 11 40
REMARK H PARENT 21 20 23 22 32 24 29 26 15 34 13 36 9 39 11 41
REMARK Flexibility Score: inf
ROOT
ATOM      1  O   UNL     1      14.046   0.539   1.365  1.00  0.00    -0.454 OA
ENDROOT
BRANCH   1   2
ATOM      2  C   UNL     1      13.428   0.287   2.607  1.00  0.00     0.214 A 
ATOM      3  C   UNL     1      12.039   0.054   2.614  1.00  0.00     0.180 A 
ATOM      4  O   UNL     1      11.402  -0.150   3.760  1.00  0.00    -0.452 OA
ATOM      5  C   UNL     1      14.115   0.279   3.844  1.00  0.00     0.239 A 
ATOM      6  C   UNL     1      12.002  -0.149   4.941  1.00  0.00     0.146 A 
ATOM      7  O   UNL     1      15.365   0.398   3.862  1.00  0.00    -0.285 OA
ATOM      8  C   UNL     1      13.393   0.102   5.051  1.00  0.00     0.111 A 
ATOM      9  C   UNL     1      11.234  -0.413   6.078  1.00  0.00     0.094 A 
ATOM     10  C   UNL     1      13.976   0.131   6.354  1.00  0.00     0.134 A 
ATOM     11  C   UNL     1      11.825  -0.445   7.339  1.00  0.00     0.123 A 
ATOM     12  C   UNL     1      13.189  -0.179   7.471  1.00  0.00     0.093 A 
BRANCH   3  13
ATOM     13  C   UNL     1      11.242   0.040   1.367  1.00  0.00     0.025 A 
ATOM     14  C   UNL     1      11.119  -1.125   0.592  1.00  0.00     0.016 A 
ATOM     15  C   UNL     1      10.354  -1.119  -0.576  1.00  0.00     0.051 A 
ATOM     16  C   UNL     1       9.687   0.042  -0.977  1.00  0.00     0.157 A 
ATOM     17  C   UNL     1      10.553   1.199   0.975  1.00  0.00     0.062 A 
ATOM     18  C   UNL     1       9.783   1.206  -0.197  1.00  0.00     0.158 A 
BRANCH  16  19
ATOM     19  O   UNL     1       8.932   0.019  -2.150  1.00  0.00    -0.504 OA
ATOM     20  H   UNL     1       8.074   0.548  -2.248  1.00  0.00     0.293 HD
ENDBRANCH  16  19
BRANCH  18  21
ATOM     21  O   UNL     1       9.113   2.365  -0.587  1.00  0.00    -0.504 OA
ATOM     22  H   UNL     1       9.586   3.260  -0.640  1.00  0.00     0.293 HD
ENDBRANCH  18  21
ENDBRANCH   3  13
BRANCH  10  23
ATOM     23  O   UNL     1      15.305   0.484   6.609  1.00  0.00    -0.507 OA
ATOM     24  H   UNL     1      15.901   0.979   5.964  1.00  0.00     0.293 HD
ENDBRANCH  10  23
BRANCH  11  25
ATOM     25  O   UNL     1      11.045  -0.733   8.456  1.00  0.00    -0.508 OA
ATOM     26  H   UNL     1      11.287  -1.485   9.091  1.00  0.00     0.293 HD
ENDBRANCH  11  25
ENDBRANCH   1   2
BRANCH   1  27
ATOM     27  C   UNL     1      13.442   1.057   0.174  1.00  0.00     0.339 C 
ATOM     28  C   UNL     1      13.897   0.233  -1.045  1.00  0.00     0.214 C 
ATOM     29  O   UNL     1      13.734   2.436  -0.004  1.00  0.00    -0.332 OA
ATOM     30  C   UNL     1      15.387   0.477  -1.347  1.00  0.00     0.180 C 
ATOM     31  C   UNL     1      15.129   2.672  -0.110  1.00  0.00     0.179 C 
ATOM     32  C   UNL     1      15.711   1.985  -1.370  1.00  0.00     0.177 C 
BRANCH  28  33
ATOM     33  O   UNL     1      13.092   0.501  -2.169  1.00  0.00    -0.384 OA
ATOM     34  H   UNL     1      12.506   1.274  -1.954  1.00  0.00     0.211 HD
ENDBRANCH  28  33
BRANCH  30  35
ATOM     35  O   UNL     1      15.717  -0.112  -2.579  1.00  0.00    -0.387 OA
ATOM     36  H   UNL     1      16.103  -1.005  -2.380  1.00  0.00     0.211 HD
ENDBRANCH  30  35
BRANCH  31  37
ATOM     37  C   UNL     1      15.342   4.194  -0.155  1.00  0.00     0.191 C 
BRANCH  37  38
ATOM     38  O   UNL     1      16.705   4.518  -0.216  1.00  0.00    -0.394 OA
ATOM     39  H   UNL     1      17.205   3.692   0.016  1.00  0.00     0.210 HD
ENDBRANCH  37  38
ENDBRANCH  31  37
BRANCH  32  40
ATOM     40  O   UNL     1      17.106   2.159  -1.402  1.00  0.00    -0.387 OA
ATOM     41  H   UNL     1      17.448   1.929  -0.499  1.00  0.00     0.211 HD
ENDBRANCH  32  40
ENDBRANCH   1  27
TORSDOF 12
ENDMDL
