MODEL 1
REMARK VINA RESULT:    -7.128      0.000      0.000
REMARK INTER + INTRA:         -11.386
REMARK INTER:                 -10.253
REMARK INTRA:                  -1.133
REMARK UNBOUND:                -1.133
REMARK SMILES O=c1cc(-c2ccc(O)c(O)c2)oc2cc(O[C@@H]3O[C@H](CO)[C@H](O)[C@H](O)[C@@H]3O)cc(O)c12
REMARK SMILES IDX 17 1 16 2 4 3 3 4 13 5 2 6 14 7 1 8 32 9 15 10 30 11 29 12
REMARK SMILES IDX 5 13 6 14 7 15 8 16 12 17 10 18 9 19 11 21 31 23 18 25 27 26
REMARK SMILES IDX 19 27 25 28 20 29 23 30 28 31 26 33 21 35 22 36 24 38
REMARK H PARENT 9 20 11 22 31 24 28 32 26 34 22 37 24 39
REMARK Flexibility Score: inf
ROOT
ATOM      1  O   UNL     1      31.015   5.326  46.249  1.00  0.00    -0.462 OA
ENDROOT
BRANCH   1   2
ATOM      2  C   UNL     1      30.832   5.224  44.861  1.00  0.00     0.130 A 
ATOM      3  C   UNL     1      27.770   4.214  41.359  1.00  0.00     0.138 A 
ATOM      4  C   UNL     1      28.738   4.420  40.362  1.00  0.00     0.100 A 
ATOM      5  O   UNL     1      28.101   4.359  42.642  1.00  0.00    -0.456 OA
ATOM      6  C   UNL     1      30.028   4.813  40.726  1.00  0.00     0.197 A 
ATOM      7  C   UNL     1      29.325   4.699  43.038  1.00  0.00     0.146 A 
ATOM      8  O   UNL     1      30.881   5.048  39.825  1.00  0.00    -0.289 OA
ATOM      9  C   UNL     1      30.344   4.967  42.095  1.00  0.00     0.107 A 
ATOM     10  C   UNL     1      29.585   4.807  44.403  1.00  0.00     0.094 A 
ATOM     11  C   UNL     1      31.614   5.373  42.554  1.00  0.00     0.134 A 
ATOM     12  C   UNL     1      31.846   5.507  43.935  1.00  0.00     0.093 A 
BRANCH   3  13
ATOM     13  C   UNL     1      26.367   3.872  41.026  1.00  0.00     0.021 A 
ATOM     14  C   UNL     1      26.040   3.533  39.705  1.00  0.00     0.016 A 
ATOM     15  C   UNL     1      24.725   3.232  39.352  1.00  0.00     0.051 A 
ATOM     16  C   UNL     1      23.710   3.276  40.313  1.00  0.00     0.157 A 
ATOM     17  C   UNL     1      25.344   3.921  41.996  1.00  0.00     0.062 A 
ATOM     18  C   UNL     1      24.020   3.631  41.641  1.00  0.00     0.158 A 
BRANCH  16  19
ATOM     19  O   UNL     1      22.409   2.978  39.922  1.00  0.00    -0.504 OA
ATOM     20  H   UNL     1      21.991   2.070  40.098  1.00  0.00     0.293 HD
ENDBRANCH  16  19
BRANCH  18  21
ATOM     21  O   UNL     1      23.010   3.702  42.602  1.00  0.00    -0.504 OA
ATOM     22  H   UNL     1      22.033   3.593  42.340  1.00  0.00     0.293 HD
ENDBRANCH  18  21
ENDBRANCH   3  13
BRANCH  11  23
ATOM     23  O   UNL     1      32.649   5.653  41.654  1.00  0.00    -0.507 OA
ATOM     24  H   UNL     1      33.319   6.385  41.835  1.00  0.00     0.293 HD
ENDBRANCH  11  23
ENDBRANCH   1   2
BRANCH   1  25
ATOM     25  C   UNL     1      31.342   6.501  46.990  1.00  0.00     0.339 C 
ATOM     26  C   UNL     1      30.150   7.441  47.192  1.00  0.00     0.214 C 
ATOM     27  O   UNL     1      31.868   6.145  48.247  1.00  0.00    -0.332 OA
ATOM     28  C   UNL     1      29.002   6.762  47.986  1.00  0.00     0.180 C 
ATOM     29  C   UNL     1      30.985   5.383  49.069  1.00  0.00     0.179 C 
ATOM     30  C   UNL     1      29.438   5.509  48.791  1.00  0.00     0.177 C 
BRANCH  26  31
ATOM     31  O   UNL     1      29.695   7.932  45.953  1.00  0.00    -0.384 OA
ATOM     32  H   UNL     1      28.718   8.082  46.039  1.00  0.00     0.211 HD
ENDBRANCH  26  31
BRANCH  28  33
ATOM     33  O   UNL     1      27.879   6.480  47.189  1.00  0.00    -0.387 OA
ATOM     34  H   UNL     1      27.255   5.920  47.727  1.00  0.00     0.211 HD
ENDBRANCH  28  33
BRANCH  29  35
ATOM     35  C   UNL     1      31.476   3.924  49.131  1.00  0.00     0.191 C 
BRANCH  35  36
ATOM     36  O   UNL     1      30.733   3.202  50.067  1.00  0.00    -0.394 OA
ATOM     37  H   UNL     1      31.361   2.573  50.494  1.00  0.00     0.210 HD
ENDBRANCH  35  36
ENDBRANCH  29  35
BRANCH  30  38
ATOM     38  O   UNL     1      28.885   4.337  48.252  1.00  0.00    -0.387 OA
ATOM     39  H   UNL     1      28.021   4.563  47.833  1.00  0.00     0.211 HD
ENDBRANCH  30  38
ENDBRANCH   1  25
TORSDOF 11
ENDMDL
MODEL 2
REMARK VINA RESULT:    -6.626      2.619      8.291
REMARK INTER + INTRA:         -10.664
REMARK INTER:                  -9.519
REMARK INTRA:                  -1.145
REMARK UNBOUND:                -1.133
REMARK SMILES O=c1cc(-c2ccc(O)c(O)c2)oc2cc(O[C@@H]3O[C@H](CO)[C@H](O)[C@H](O)[C@@H]3O)cc(O)c12
REMARK SMILES IDX 17 1 16 2 4 3 3 4 13 5 2 6 14 7 1 8 32 9 15 10 30 11 29 12
REMARK SMILES IDX 5 13 6 14 7 15 8 16 12 17 10 18 9 19 11 21 31 23 18 25 27 26
REMARK SMILES IDX 19 27 25 28 20 29 23 30 28 31 26 33 21 35 22 36 24 38
REMARK H PARENT 9 20 11 22 31 24 28 32 26 34 22 37 24 39
REMARK Flexibility Score: inf
ROOT
ATOM      1  O   UNL     1      25.636   3.890  41.865  1.00  0.00    -0.462 OA
ENDROOT
BRANCH   1   2
ATOM      2  C   UNL     1      26.857   4.135  42.511  1.00  0.00     0.130 A 
ATOM      3  C   UNL     1      31.432   5.330  41.956  1.00  0.00     0.138 A 
ATOM      4  C   UNL     1      31.694   5.230  43.333  1.00  0.00     0.100 A 
ATOM      5  O   UNL     1      30.208   5.070  41.497  1.00  0.00    -0.456 OA
ATOM      6  C   UNL     1      30.658   4.898  44.209  1.00  0.00     0.197 A 
ATOM      7  C   UNL     1      29.198   4.717  42.288  1.00  0.00     0.146 A 
ATOM      8  O   UNL     1      30.886   4.860  45.450  1.00  0.00    -0.289 OA
ATOM      9  C   UNL     1      29.370   4.637  43.689  1.00  0.00     0.107 A 
ATOM     10  C   UNL     1      27.958   4.444  41.716  1.00  0.00     0.094 A 
ATOM     11  C   UNL     1      28.263   4.308  44.499  1.00  0.00     0.134 A 
ATOM     12  C   UNL     1      27.011   4.069  43.903  1.00  0.00     0.093 A 
BRANCH   3  13
ATOM     13  C   UNL     1      32.473   5.754  40.991  1.00  0.00     0.021 A 
ATOM     14  C   UNL     1      32.131   6.644  39.962  1.00  0.00     0.016 A 
ATOM     15  C   UNL     1      33.080   7.043  39.021  1.00  0.00     0.051 A 
ATOM     16  C   UNL     1      34.387   6.550  39.086  1.00  0.00     0.157 A 
ATOM     17  C   UNL     1      33.789   5.253  41.056  1.00  0.00     0.062 A 
ATOM     18  C   UNL     1      34.742   5.643  40.105  1.00  0.00     0.158 A 
BRANCH  16  19
ATOM     19  O   UNL     1      35.304   6.963  38.126  1.00  0.00    -0.504 OA
ATOM     20  H   UNL     1      36.047   7.621  38.342  1.00  0.00     0.293 HD
ENDBRANCH  16  19
BRANCH  18  21
ATOM     21  O   UNL     1      36.038   5.126  40.165  1.00  0.00    -0.504 OA
ATOM     22  H   UNL     1      36.298   4.454  40.882  1.00  0.00     0.293 HD
ENDBRANCH  18  21
ENDBRANCH   3  13
BRANCH  11  23
ATOM     23  O   UNL     1      28.388   4.224  45.890  1.00  0.00    -0.507 OA
ATOM     24  H   UNL     1      28.835   4.955  46.423  1.00  0.00     0.293 HD
ENDBRANCH  11  23
ENDBRANCH   1   2
BRANCH   1  25
ATOM     25  C   UNL     1      25.053   4.651  40.808  1.00  0.00     0.339 C 
ATOM     26  C   UNL     1      24.755   3.821  39.556  1.00  0.00     0.214 C 
ATOM     27  O   UNL     1      23.863   5.259  41.254  1.00  0.00    -0.332 OA
ATOM     28  C   UNL     1      23.744   2.679  39.843  1.00  0.00     0.180 C 
ATOM     29  C   UNL     1      22.858   4.349  41.696  1.00  0.00     0.179 C 
ATOM     30  C   UNL     1      22.911   2.876  41.138  1.00  0.00     0.177 C 
BRANCH  26  31
ATOM     31  O   UNL     1      25.948   3.322  39.002  1.00  0.00    -0.384 OA
ATOM     32  H   UNL     1      26.329   2.681  39.656  1.00  0.00     0.211 HD
ENDBRANCH  26  31
BRANCH  28  33
ATOM     33  O   UNL     1      24.338   1.406  39.818  1.00  0.00    -0.387 OA
ATOM     34  H   UNL     1      24.373   1.066  40.754  1.00  0.00     0.211 HD
ENDBRANCH  28  33
BRANCH  29  35
ATOM     35  C   UNL     1      22.748   4.414  43.231  1.00  0.00     0.191 C 
BRANCH  35  36
ATOM     36  O   UNL     1      23.667   5.330  43.745  1.00  0.00    -0.394 OA
ATOM     37  H   UNL     1      24.547   4.884  43.722  1.00  0.00     0.210 HD
ENDBRANCH  35  36
ENDBRANCH  29  35
BRANCH  30  38
ATOM     38  O   UNL     1      23.261   1.934  42.118  1.00  0.00    -0.387 OA
ATOM     39  H   UNL     1      22.723   1.120  41.977  1.00  0.00     0.211 HD
ENDBRANCH  30  38
ENDBRANCH   1  25
TORSDOF 11
ENDMDL
MODEL 3
REMARK VINA RESULT:    -6.388      2.711      6.369
REMARK INTER + INTRA:         -10.321
REMARK INTER:                  -9.394
REMARK INTRA:                  -0.927
REMARK UNBOUND:                -1.133
REMARK SMILES O=c1cc(-c2ccc(O)c(O)c2)oc2cc(O[C@@H]3O[C@H](CO)[C@H](O)[C@H](O)[C@@H]3O)cc(O)c12
REMARK SMILES IDX 17 1 16 2 4 3 3 4 13 5 2 6 14 7 1 8 32 9 15 10 30 11 29 12
REMARK SMILES IDX 5 13 6 14 7 15 8 16 12 17 10 18 9 19 11 21 31 23 18 25 27 26
REMARK SMILES IDX 19 27 25 28 20 29 23 30 28 31 26 33 21 35 22 36 24 38
REMARK H PARENT 9 20 11 22 31 24 28 32 26 34 22 37 24 39
REMARK Flexibility Score: inf
ROOT
ATOM      1  O   UNL     1      28.972   5.284  45.450  1.00  0.00    -0.462 OA
ENDROOT
BRANCH   1   2
ATOM      2  C   UNL     1      29.074   5.061  44.069  1.00  0.00     0.130 A 
ATOM      3  C   UNL     1      31.841   5.452  40.214  1.00  0.00     0.138 A 
ATOM      4  C   UNL     1      30.850   4.925  39.368  1.00  0.00     0.100 A 
ATOM      5  O   UNL     1      31.590   5.594  41.515  1.00  0.00    -0.456 OA
ATOM      6  C   UNL     1      29.626   4.522  39.908  1.00  0.00     0.197 A 
ATOM      7  C   UNL     1      30.428   5.256  42.069  1.00  0.00     0.146 A 
ATOM      8  O   UNL     1      28.759   4.002  39.152  1.00  0.00    -0.289 OA
ATOM      9  C   UNL     1      29.396   4.679  41.293  1.00  0.00     0.107 A 
ATOM     10  C   UNL     1      30.248   5.461  43.435  1.00  0.00     0.094 A 
ATOM     11  C   UNL     1      28.198   4.288  41.926  1.00  0.00     0.134 A 
ATOM     12  C   UNL     1      28.050   4.474  43.312  1.00  0.00     0.093 A 
BRANCH   3  13
ATOM     13  C   UNL     1      33.184   5.823  39.709  1.00  0.00     0.021 A 
ATOM     14  C   UNL     1      33.321   6.969  38.911  1.00  0.00     0.016 A 
ATOM     15  C   UNL     1      34.566   7.332  38.398  1.00  0.00     0.051 A 
ATOM     16  C   UNL     1      35.694   6.548  38.662  1.00  0.00     0.157 A 
ATOM     17  C   UNL     1      34.318   5.029  39.974  1.00  0.00     0.062 A 
ATOM     18  C   UNL     1      35.568   5.386  39.449  1.00  0.00     0.158 A 
BRANCH  16  19
ATOM     19  O   UNL     1      36.917   6.937  38.126  1.00  0.00    -0.504 OA
ATOM     20  H   UNL     1      37.715   7.156  38.713  1.00  0.00     0.293 HD
ENDBRANCH  16  19
BRANCH  18  21
ATOM     21  O   UNL     1      36.683   4.583  39.698  1.00  0.00    -0.504 OA
ATOM     22  H   UNL     1      36.951   3.848  39.049  1.00  0.00     0.293 HD
ENDBRANCH  18  21
ENDBRANCH   3  13
BRANCH  11  23
ATOM     23  O   UNL     1      27.155   3.708  41.196  1.00  0.00    -0.507 OA
ATOM     24  H   UNL     1      27.097   2.710  41.063  1.00  0.00     0.293 HD
ENDBRANCH  11  23
ENDBRANCH   1   2
BRANCH   1  25
ATOM     25  C   UNL     1      28.298   6.362  46.100  1.00  0.00     0.339 C 
ATOM     26  C   UNL     1      27.773   5.997  47.492  1.00  0.00     0.214 C 
ATOM     27  O   UNL     1      29.159   7.472  46.208  1.00  0.00    -0.332 OA
ATOM     28  C   UNL     1      28.918   5.588  48.457  1.00  0.00     0.180 C 
ATOM     29  C   UNL     1      30.350   7.232  46.955  1.00  0.00     0.179 C 
ATOM     30  C   UNL     1      30.328   6.059  48.008  1.00  0.00     0.177 C 
BRANCH  26  31
ATOM     31  O   UNL     1      26.797   4.987  47.399  1.00  0.00    -0.384 OA
ATOM     32  H   UNL     1      25.997   5.307  47.892  1.00  0.00     0.211 HD
ENDBRANCH  26  31
BRANCH  28  33
ATOM     33  O   UNL     1      28.920   4.214  48.751  1.00  0.00    -0.387 OA
ATOM     34  H   UNL     1      28.151   4.031  49.359  1.00  0.00     0.211 HD
ENDBRANCH  28  33
BRANCH  29  35
ATOM     35  C   UNL     1      31.552   7.164  45.994  1.00  0.00     0.191 C 
BRANCH  35  36
ATOM     36  O   UNL     1      32.717   7.576  46.643  1.00  0.00    -0.394 OA
ATOM     37  H   UNL     1      33.436   6.977  46.332  1.00  0.00     0.210 HD
ENDBRANCH  35  36
ENDBRANCH  29  35
BRANCH  30  38
ATOM     38  O   UNL     1      31.134   4.973  47.632  1.00  0.00    -0.387 OA
ATOM     39  H   UNL     1      31.016   4.252  48.294  1.00  0.00     0.211 HD
ENDBRANCH  30  38
ENDBRANCH   1  25
TORSDOF 11
ENDMDL
MODEL 4
REMARK VINA RESULT:    -6.379      2.816      8.118
REMARK INTER + INTRA:         -10.309
REMARK INTER:                  -9.210
REMARK INTRA:                  -1.099
REMARK UNBOUND:                -1.133
REMARK SMILES O=c1cc(-c2ccc(O)c(O)c2)oc2cc(O[C@@H]3O[C@H](CO)[C@H](O)[C@H](O)[C@@H]3O)cc(O)c12
REMARK SMILES IDX 17 1 16 2 4 3 3 4 13 5 2 6 14 7 1 8 32 9 15 10 30 11 29 12
REMARK SMILES IDX 5 13 6 14 7 15 8 16 12 17 10 18 9 19 11 21 31 23 18 25 27 26
REMARK SMILES IDX 19 27 25 28 20 29 23 30 28 31 26 33 21 35 22 36 24 38
REMARK H PARENT 9 20 11 22 31 24 28 32 26 34 22 37 24 39
REMARK Flexibility Score: inf
ROOT
ATOM      1  O   UNL     1      25.019   4.140  41.830  1.00  0.00    -0.462 OA
ENDROOT
BRANCH   1   2
ATOM      2  C   UNL     1      26.351   4.312  41.422  1.00  0.00     0.130 A 
ATOM      3  C   UNL     1      30.646   5.984  42.614  1.00  0.00     0.138 A 
ATOM      4  C   UNL     1      31.204   5.623  41.376  1.00  0.00     0.100 A 
ATOM      5  O   UNL     1      29.357   5.743  42.853  1.00  0.00    -0.456 OA
ATOM      6  C   UNL     1      30.409   4.981  40.424  1.00  0.00     0.197 A 
ATOM      7  C   UNL     1      28.553   5.165  41.965  1.00  0.00     0.146 A 
ATOM      8  O   UNL     1      30.927   4.612  39.333  1.00  0.00    -0.289 OA
ATOM      9  C   UNL     1      29.048   4.733  40.712  1.00  0.00     0.107 A 
ATOM     10  C   UNL     1      27.213   4.972  42.294  1.00  0.00     0.094 A 
ATOM     11  C   UNL     1      28.176   4.079  39.818  1.00  0.00     0.134 A 
ATOM     12  C   UNL     1      26.834   3.866  40.184  1.00  0.00     0.093 A 
BRANCH   3  13
ATOM     13  C   UNL     1      31.462   6.596  43.689  1.00  0.00     0.021 A 
ATOM     14  C   UNL     1      30.942   6.659  44.991  1.00  0.00     0.016 A 
ATOM     15  C   UNL     1      31.672   7.252  46.020  1.00  0.00     0.051 A 
ATOM     16  C   UNL     1      32.931   7.805  45.764  1.00  0.00     0.157 A 
ATOM     17  C   UNL     1      32.729   7.156  43.428  1.00  0.00     0.062 A 
ATOM     18  C   UNL     1      33.459   7.763  44.458  1.00  0.00     0.158 A 
BRANCH  16  19
ATOM     19  O   UNL     1      33.626   8.396  46.814  1.00  0.00    -0.504 OA
ATOM     20  H   UNL     1      34.194   7.852  47.454  1.00  0.00     0.293 HD
ENDBRANCH  16  19
BRANCH  18  21
ATOM     21  O   UNL     1      34.704   8.334  44.187  1.00  0.00    -0.504 OA
ATOM     22  H   UNL     1      34.927   9.274  44.504  1.00  0.00     0.293 HD
ENDBRANCH  18  21
ENDBRANCH   3  13
BRANCH  11  23
ATOM     23  O   UNL     1      28.626   3.631  38.571  1.00  0.00    -0.507 OA
ATOM     24  H   UNL     1      28.021   3.626  37.765  1.00  0.00     0.293 HD
ENDBRANCH  11  23
ENDBRANCH   1   2
BRANCH   1  25
ATOM     25  C   UNL     1      24.492   4.324  43.144  1.00  0.00     0.339 C 
ATOM     26  C   UNL     1      23.571   5.542  43.262  1.00  0.00     0.214 C 
ATOM     27  O   UNL     1      23.786   3.172  43.543  1.00  0.00    -0.332 OA
ATOM     28  C   UNL     1      22.332   5.427  42.335  1.00  0.00     0.180 C 
ATOM     29  C   UNL     1      22.681   2.830  42.709  1.00  0.00     0.179 C 
ATOM     30  C   UNL     1      22.027   3.983  41.855  1.00  0.00     0.177 C 
BRANCH  26  31
ATOM     31  O   UNL     1      24.290   6.727  43.012  1.00  0.00    -0.384 OA
ATOM     32  H   UNL     1      23.625   7.433  42.803  1.00  0.00     0.211 HD
ENDBRANCH  26  31
BRANCH  28  33
ATOM     33  O   UNL     1      22.380   6.316  41.247  1.00  0.00    -0.387 OA
ATOM     34  H   UNL     1      21.984   5.855  40.458  1.00  0.00     0.211 HD
ENDBRANCH  28  33
BRANCH  29  35
ATOM     35  C   UNL     1      23.034   1.582  41.877  1.00  0.00     0.191 C 
BRANCH  35  36
ATOM     36  O   UNL     1      23.990   1.899  40.910  1.00  0.00    -0.394 OA
ATOM     37  H   UNL     1      24.119   2.876  40.956  1.00  0.00     0.210 HD
ENDBRANCH  35  36
ENDBRANCH  29  35
BRANCH  30  38
ATOM     38  O   UNL     1      22.261   3.841  40.478  1.00  0.00    -0.387 OA
ATOM     39  H   UNL     1      21.914   2.964  40.190  1.00  0.00     0.211 HD
ENDBRANCH  30  38
ENDBRANCH   1  25
TORSDOF 11
ENDMDL
MODEL 5
REMARK VINA RESULT:    -6.338      7.823     12.182
REMARK INTER + INTRA:         -10.250
REMARK INTER:                  -9.133
REMARK INTRA:                  -1.117
REMARK UNBOUND:                -1.133
REMARK SMILES O=c1cc(-c2ccc(O)c(O)c2)oc2cc(O[C@@H]3O[C@H](CO)[C@H](O)[C@H](O)[C@@H]3O)cc(O)c12
REMARK SMILES IDX 17 1 16 2 4 3 3 4 13 5 2 6 14 7 1 8 32 9 15 10 30 11 29 12
REMARK SMILES IDX 5 13 6 14 7 15 8 16 12 17 10 18 9 19 11 21 31 23 18 25 27 26
REMARK SMILES IDX 19 27 25 28 20 29 23 30 28 31 26 33 21 35 22 36 24 38
REMARK H PARENT 9 20 11 22 31 24 28 32 26 34 22 37 24 39
REMARK Flexibility Score: inf
ROOT
ATOM      1  O   UNL     1      21.026   1.549  42.729  1.00  0.00    -0.462 OA
ENDROOT
BRANCH   1   2
ATOM      2  C   UNL     1      20.332   0.578  43.467  1.00  0.00     0.130 A 
ATOM      3  C   UNL     1      20.585  -3.678  45.585  1.00  0.00     0.138 A 
ATOM      4  C   UNL     1      19.236  -3.637  45.977  1.00  0.00     0.100 A 
ATOM      5  O   UNL     1      21.101  -2.665  44.890  1.00  0.00    -0.456 OA
ATOM      6  C   UNL     1      18.462  -2.517  45.666  1.00  0.00     0.197 A 
ATOM      7  C   UNL     1      20.394  -1.592  44.542  1.00  0.00     0.146 A 
ATOM      8  O   UNL     1      17.265  -2.462  46.064  1.00  0.00    -0.289 OA
ATOM      9  C   UNL     1      19.043  -1.456  44.936  1.00  0.00     0.107 A 
ATOM     10  C   UNL     1      21.013  -0.591  43.797  1.00  0.00     0.094 A 
ATOM     11  C   UNL     1      18.343  -0.282  44.590  1.00  0.00     0.134 A 
ATOM     12  C   UNL     1      18.996   0.731  43.865  1.00  0.00     0.093 A 
BRANCH   3  13
ATOM     13  C   UNL     1      21.472  -4.806  45.955  1.00  0.00     0.021 A 
ATOM     14  C   UNL     1      21.578  -5.905  45.089  1.00  0.00     0.016 A 
ATOM     15  C   UNL     1      22.384  -6.994  45.419  1.00  0.00     0.051 A 
ATOM     16  C   UNL     1      23.087  -7.010  46.628  1.00  0.00     0.157 A 
ATOM     17  C   UNL     1      22.177  -4.821  47.176  1.00  0.00     0.062 A 
ATOM     18  C   UNL     1      22.978  -5.921  47.515  1.00  0.00     0.158 A 
BRANCH  16  19
ATOM     19  O   UNL     1      23.874  -8.118  46.927  1.00  0.00    -0.504 OA
ATOM     20  H   UNL     1      24.871  -8.038  47.095  1.00  0.00     0.293 HD
ENDBRANCH  16  19
BRANCH  18  21
ATOM     21  O   UNL     1      23.657  -5.938  48.734  1.00  0.00    -0.504 OA
ATOM     22  H   UNL     1      23.609  -6.748  49.346  1.00  0.00     0.293 HD
ENDBRANCH  18  21
ENDBRANCH   3  13
BRANCH  11  23
ATOM     23  O   UNL     1      17.006  -0.104  44.964  1.00  0.00    -0.507 OA
ATOM     24  H   UNL     1      16.723   0.662  45.555  1.00  0.00     0.293 HD
ENDBRANCH  11  23
ENDBRANCH   1   2
BRANCH   1  25
ATOM     25  C   UNL     1      22.321   2.078  43.008  1.00  0.00     0.339 C 
ATOM     26  C   UNL     1      23.174   2.287  41.753  1.00  0.00     0.214 C 
ATOM     27  O   UNL     1      22.202   3.303  43.694  1.00  0.00    -0.332 OA
ATOM     28  C   UNL     1      22.524   3.295  40.768  1.00  0.00     0.180 C 
ATOM     29  C   UNL     1      21.497   4.319  42.983  1.00  0.00     0.179 C 
ATOM     30  C   UNL     1      21.446   4.208  41.411  1.00  0.00     0.177 C 
BRANCH  26  31
ATOM     31  O   UNL     1      23.435   1.054  41.126  1.00  0.00    -0.384 OA
ATOM     32  H   UNL     1      24.373   0.810  41.339  1.00  0.00     0.211 HD
ENDBRANCH  26  31
BRANCH  28  33
ATOM     33  O   UNL     1      22.030   2.679  39.605  1.00  0.00    -0.387 OA
ATOM     34  H   UNL     1      21.405   1.956  39.884  1.00  0.00     0.211 HD
ENDBRANCH  28  33
BRANCH  29  35
ATOM     35  C   UNL     1      20.111   4.523  43.624  1.00  0.00     0.191 C 
BRANCH  35  36
ATOM     36  O   UNL     1      19.522   5.694  43.144  1.00  0.00    -0.394 OA
ATOM     37  H   UNL     1      18.678   5.424  42.710  1.00  0.00     0.210 HD
ENDBRANCH  35  36
ENDBRANCH  29  35
BRANCH  30  38
ATOM     38  O   UNL     1      20.163   3.903  40.928  1.00  0.00    -0.387 OA
ATOM     39  H   UNL     1      19.696   3.357  41.604  1.00  0.00     0.211 HD
ENDBRANCH  30  38
ENDBRANCH   1  25
TORSDOF 11
ENDMDL
MODEL 6
REMARK VINA RESULT:    -6.310      7.062     11.655
REMARK INTER + INTRA:         -10.209
REMARK INTER:                  -9.143
REMARK INTRA:                  -1.066
REMARK UNBOUND:                -1.133
REMARK SMILES O=c1cc(-c2ccc(O)c(O)c2)oc2cc(O[C@@H]3O[C@H](CO)[C@H](O)[C@H](O)[C@@H]3O)cc(O)c12
REMARK SMILES IDX 17 1 16 2 4 3 3 4 13 5 2 6 14 7 1 8 32 9 15 10 30 11 29 12
REMARK SMILES IDX 5 13 6 14 7 15 8 16 12 17 10 18 9 19 11 21 31 23 18 25 27 26
REMARK SMILES IDX 19 27 25 28 20 29 23 30 28 31 26 33 21 35 22 36 24 38
REMARK H PARENT 9 20 11 22 31 24 28 32 26 34 22 37 24 39
REMARK Flexibility Score: inf
ROOT
ATOM      1  O   UNL     1      21.407   2.441  42.470  1.00  0.00    -0.462 OA
ENDROOT
BRANCH   1   2
ATOM      2  C   UNL     1      20.598   1.483  43.102  1.00  0.00     0.130 A 
ATOM      3  C   UNL     1      20.468  -2.786  45.204  1.00  0.00     0.138 A 
ATOM      4  C   UNL     1      19.081  -2.715  45.413  1.00  0.00     0.100 A 
ATOM      5  O   UNL     1      21.096  -1.783  44.591  1.00  0.00    -0.456 OA
ATOM      6  C   UNL     1      18.381  -1.574  45.011  1.00  0.00     0.197 A 
ATOM      7  C   UNL     1      20.467  -0.692  44.160  1.00  0.00     0.146 A 
ATOM      8  O   UNL     1      17.144  -1.492  45.248  1.00  0.00    -0.289 OA
ATOM      9  C   UNL     1      19.079  -0.525  44.372  1.00  0.00     0.107 A 
ATOM     10  C   UNL     1      21.202   0.297  43.511  1.00  0.00     0.094 A 
ATOM     11  C   UNL     1      18.458   0.667  43.945  1.00  0.00     0.134 A 
ATOM     12  C   UNL     1      19.226   1.667  43.320  1.00  0.00     0.093 A 
BRANCH   3  13
ATOM     13  C   UNL     1      21.272  -3.937  45.680  1.00  0.00     0.021 A 
ATOM     14  C   UNL     1      22.223  -3.735  46.692  1.00  0.00     0.016 A 
ATOM     15  C   UNL     1      23.014  -4.791  47.144  1.00  0.00     0.051 A 
ATOM     16  C   UNL     1      22.877  -6.065  46.584  1.00  0.00     0.157 A 
ATOM     17  C   UNL     1      21.135  -5.219  45.111  1.00  0.00     0.062 A 
ATOM     18  C   UNL     1      21.937  -6.279  45.556  1.00  0.00     0.158 A 
BRANCH  16  19
ATOM     19  O   UNL     1      23.689  -7.091  47.055  1.00  0.00    -0.504 OA
ATOM     20  H   UNL     1      24.564  -7.333  46.601  1.00  0.00     0.293 HD
ENDBRANCH  16  19
BRANCH  18  21
ATOM     21  O   UNL     1      21.810  -7.541  44.973  1.00  0.00    -0.504 OA
ATOM     22  H   UNL     1      22.417  -8.307  45.253  1.00  0.00     0.293 HD
ENDBRANCH  18  21
ENDBRANCH   3  13
BRANCH  11  23
ATOM     23  O   UNL     1      17.088   0.876  44.140  1.00  0.00    -0.507 OA
ATOM     24  H   UNL     1      16.749   1.517  44.840  1.00  0.00     0.293 HD
ENDBRANCH  11  23
ENDBRANCH   1   2
BRANCH   1  25
ATOM     25  C   UNL     1      21.003   3.396  41.490  1.00  0.00     0.339 C 
ATOM     26  C   UNL     1      21.540   4.805  41.759  1.00  0.00     0.214 C 
ATOM     27  O   UNL     1      21.421   2.979  40.211  1.00  0.00    -0.332 OA
ATOM     28  C   UNL     1      23.091   4.846  41.756  1.00  0.00     0.180 C 
ATOM     29  C   UNL     1      22.832   2.825  40.066  1.00  0.00     0.179 C 
ATOM     30  C   UNL     1      23.759   3.636  41.050  1.00  0.00     0.177 C 
BRANCH  26  31
ATOM     31  O   UNL     1      21.016   5.308  42.966  1.00  0.00    -0.384 OA
ATOM     32  H   UNL     1      21.377   4.744  43.698  1.00  0.00     0.211 HD
ENDBRANCH  26  31
BRANCH  28  33
ATOM     33  O   UNL     1      23.634   5.041  43.038  1.00  0.00    -0.387 OA
ATOM     34  H   UNL     1      23.957   5.982  43.093  1.00  0.00     0.211 HD
ENDBRANCH  28  33
BRANCH  29  35
ATOM     35  C   UNL     1      23.179   1.326  40.000  1.00  0.00     0.191 C 
BRANCH  35  36
ATOM     36  O   UNL     1      24.417   1.141  39.381  1.00  0.00    -0.394 OA
ATOM     37  H   UNL     1      24.416   0.221  39.026  1.00  0.00     0.210 HD
ENDBRANCH  35  36
ENDBRANCH  29  35
BRANCH  30  38
ATOM     38  O   UNL     1      24.430   2.814  41.969  1.00  0.00    -0.387 OA
ATOM     39  H   UNL     1      25.395   3.009  41.917  1.00  0.00     0.211 HD
ENDBRANCH  30  38
ENDBRANCH   1  25
TORSDOF 11
ENDMDL
MODEL 7
REMARK VINA RESULT:    -6.309      8.729     12.761
REMARK INTER + INTRA:         -10.208
REMARK INTER:                  -9.227
REMARK INTRA:                  -0.981
REMARK UNBOUND:                -1.133
REMARK SMILES O=c1cc(-c2ccc(O)c(O)c2)oc2cc(O[C@@H]3O[C@H](CO)[C@H](O)[C@H](O)[C@@H]3O)cc(O)c12
REMARK SMILES IDX 17 1 16 2 4 3 3 4 13 5 2 6 14 7 1 8 32 9 15 10 30 11 29 12
REMARK SMILES IDX 5 13 6 14 7 15 8 16 12 17 10 18 9 19 11 21 31 23 18 25 27 26
REMARK SMILES IDX 19 27 25 28 20 29 23 30 28 31 26 33 21 35 22 36 24 38
REMARK H PARENT 9 20 11 22 31 24 28 32 26 34 22 37 24 39
REMARK Flexibility Score: inf
ROOT
ATOM      1  O   UNL     1      20.961  -5.103  46.128  1.00  0.00    -0.462 OA
ENDROOT
BRANCH   1   2
ATOM      2  C   UNL     1      20.250  -3.933  45.816  1.00  0.00     0.130 A 
ATOM      3  C   UNL     1      20.453   0.374  43.799  1.00  0.00     0.138 A 
ATOM      4  C   UNL     1      19.117   0.662  44.123  1.00  0.00     0.100 A 
ATOM      5  O   UNL     1      20.983  -0.794  44.162  1.00  0.00    -0.456 OA
ATOM      6  C   UNL     1      18.347  -0.296  44.788  1.00  0.00     0.197 A 
ATOM      7  C   UNL     1      20.300  -1.723  44.825  1.00  0.00     0.146 A 
ATOM      8  O   UNL     1      17.132  -0.053  45.031  1.00  0.00    -0.289 OA
ATOM      9  C   UNL     1      18.938  -1.528  45.149  1.00  0.00     0.107 A 
ATOM     10  C   UNL     1      20.943  -2.907  45.181  1.00  0.00     0.094 A 
ATOM     11  C   UNL     1      18.235  -2.557  45.809  1.00  0.00     0.134 A 
ATOM     12  C   UNL     1      18.895  -3.757  46.130  1.00  0.00     0.093 A 
BRANCH   3  13
ATOM     13  C   UNL     1      21.292   1.322  43.028  1.00  0.00     0.021 A 
ATOM     14  C   UNL     1      21.076   2.701  43.173  1.00  0.00     0.016 A 
ATOM     15  C   UNL     1      21.830   3.619  42.442  1.00  0.00     0.051 A 
ATOM     16  C   UNL     1      22.804   3.174  41.543  1.00  0.00     0.157 A 
ATOM     17  C   UNL     1      22.271   0.871  42.119  1.00  0.00     0.062 A 
ATOM     18  C   UNL     1      23.021   1.792  41.375  1.00  0.00     0.158 A 
BRANCH  16  19
ATOM     19  O   UNL     1      23.530   4.119  40.825  1.00  0.00    -0.504 OA
ATOM     20  H   UNL     1      23.988   3.891  39.949  1.00  0.00     0.293 HD
ENDBRANCH  16  19
BRANCH  18  21
ATOM     21  O   UNL     1      23.974   1.337  40.462  1.00  0.00    -0.504 OA
ATOM     22  H   UNL     1      24.456   1.986  39.846  1.00  0.00     0.293 HD
ENDBRANCH  18  21
ENDBRANCH   3  13
BRANCH  11  23
ATOM     23  O   UNL     1      16.884  -2.406  46.143  1.00  0.00    -0.507 OA
ATOM     24  H   UNL     1      16.316  -3.198  46.402  1.00  0.00     0.293 HD
ENDBRANCH  11  23
ENDBRANCH   1   2
BRANCH   1  25
ATOM     25  C   UNL     1      20.681  -6.025  47.180  1.00  0.00     0.339 C 
ATOM     26  C   UNL     1      20.019  -7.317  46.694  1.00  0.00     0.214 C 
ATOM     27  O   UNL     1      21.868  -6.344  47.868  1.00  0.00    -0.332 OA
ATOM     28  C   UNL     1      20.923  -8.094  45.699  1.00  0.00     0.180 C 
ATOM     29  C   UNL     1      22.879  -6.947  47.063  1.00  0.00     0.179 C 
ATOM     30  C   UNL     1      22.421  -7.692  45.752  1.00  0.00     0.177 C 
BRANCH  26  31
ATOM     31  O   UNL     1      18.757  -7.043  46.133  1.00  0.00    -0.384 OA
ATOM     32  H   UNL     1      18.152  -7.781  46.402  1.00  0.00     0.211 HD
ENDBRANCH  26  31
BRANCH  28  33
ATOM     33  O   UNL     1      20.440  -8.055  44.379  1.00  0.00    -0.387 OA
ATOM     34  H   UNL     1      20.183  -8.982  44.120  1.00  0.00     0.211 HD
ENDBRANCH  28  33
BRANCH  29  35
ATOM     35  C   UNL     1      24.013  -5.932  46.821  1.00  0.00     0.191 C 
BRANCH  35  36
ATOM     36  O   UNL     1      25.137  -6.575  46.300  1.00  0.00    -0.394 OA
ATOM     37  H   UNL     1      24.800  -7.288  45.707  1.00  0.00     0.210 HD
ENDBRANCH  35  36
ENDBRANCH  29  35
BRANCH  30  38
ATOM     38  O   UNL     1      22.813  -7.026  44.580  1.00  0.00    -0.387 OA
ATOM     39  H   UNL     1      23.682  -6.589  44.745  1.00  0.00     0.211 HD
ENDBRANCH  30  38
ENDBRANCH   1  25
TORSDOF 11
ENDMDL
MODEL 8
REMARK VINA RESULT:    -6.287      8.792     12.345
REMARK INTER + INTRA:         -10.176
REMARK INTER:                  -9.105
REMARK INTRA:                  -1.071
REMARK UNBOUND:                -1.133
REMARK SMILES O=c1cc(-c2ccc(O)c(O)c2)oc2cc(O[C@@H]3O[C@H](CO)[C@H](O)[C@H](O)[C@@H]3O)cc(O)c12
REMARK SMILES IDX 17 1 16 2 4 3 3 4 13 5 2 6 14 7 1 8 32 9 15 10 30 11 29 12
REMARK SMILES IDX 5 13 6 14 7 15 8 16 12 17 10 18 9 19 11 21 31 23 18 25 27 26
REMARK SMILES IDX 19 27 25 28 20 29 23 30 28 31 26 33 21 35 22 36 24 38
REMARK H PARENT 9 20 11 22 31 24 28 32 26 34 22 37 24 39
REMARK Flexibility Score: inf
ROOT
ATOM      1  O   UNL     1      21.260  -5.282  45.934  1.00  0.00    -0.462 OA
ENDROOT
BRANCH   1   2
ATOM      2  C   UNL     1      21.590  -3.922  46.041  1.00  0.00     0.130 A 
ATOM      3  C   UNL     1      20.717   0.476  44.442  1.00  0.00     0.138 A 
ATOM      4  C   UNL     1      21.695   1.045  45.275  1.00  0.00     0.100 A 
ATOM      5  O   UNL     1      20.517  -0.842  44.463  1.00  0.00    -0.456 OA
ATOM      6  C   UNL     1      22.419   0.226  46.145  1.00  0.00     0.197 A 
ATOM      7  C   UNL     1      21.205  -1.665  45.250  1.00  0.00     0.146 A 
ATOM      8  O   UNL     1      23.260   0.748  46.929  1.00  0.00    -0.289 OA
ATOM      9  C   UNL     1      22.175  -1.166  46.149  1.00  0.00     0.107 A 
ATOM     10  C   UNL     1      20.942  -3.032  45.189  1.00  0.00     0.094 A 
ATOM     11  C   UNL     1      22.848  -2.065  47.002  1.00  0.00     0.134 A 
ATOM     12  C   UNL     1      22.543  -3.437  46.947  1.00  0.00     0.093 A 
BRANCH   3  13
ATOM     13  C   UNL     1      19.866   1.305  43.556  1.00  0.00     0.021 A 
ATOM     14  C   UNL     1      18.509   0.979  43.409  1.00  0.00     0.016 A 
ATOM     15  C   UNL     1      17.687   1.723  42.564  1.00  0.00     0.051 A 
ATOM     16  C   UNL     1      18.210   2.800  41.840  1.00  0.00     0.157 A 
ATOM     17  C   UNL     1      20.397   2.388  42.824  1.00  0.00     0.062 A 
ATOM     18  C   UNL     1      19.574   3.129  41.965  1.00  0.00     0.158 A 
BRANCH  16  19
ATOM     19  O   UNL     1      17.361   3.513  41.000  1.00  0.00    -0.504 OA
ATOM     20  H   UNL     1      17.709   4.222  40.363  1.00  0.00     0.293 HD
ENDBRANCH  16  19
BRANCH  18  21
ATOM     21  O   UNL     1      20.111   4.187  41.228  1.00  0.00    -0.504 OA
ATOM     22  H   UNL     1      20.751   4.849  41.659  1.00  0.00     0.293 HD
ENDBRANCH  18  21
ENDBRANCH   3  13
BRANCH  11  23
ATOM     23  O   UNL     1      23.811  -1.612  47.910  1.00  0.00    -0.507 OA
ATOM     24  H   UNL     1      24.757  -1.418  47.620  1.00  0.00     0.293 HD
ENDBRANCH  11  23
ENDBRANCH   1   2
BRANCH   1  25
ATOM     25  C   UNL     1      21.059  -6.205  47.003  1.00  0.00     0.339 C 
ATOM     26  C   UNL     1      19.979  -7.250  46.706  1.00  0.00     0.214 C 
ATOM     27  O   UNL     1      22.267  -6.864  47.304  1.00  0.00    -0.332 OA
ATOM     28  C   UNL     1      20.337  -8.123  45.474  1.00  0.00     0.180 C 
ATOM     29  C   UNL     1      22.823  -7.612  46.225  1.00  0.00     0.179 C 
ATOM     30  C   UNL     1      21.842  -8.099  45.092  1.00  0.00     0.177 C 
BRANCH  26  31
ATOM     31  O   UNL     1      18.725  -6.630  46.547  1.00  0.00    -0.384 OA
ATOM     32  H   UNL     1      18.625  -6.415  45.584  1.00  0.00     0.211 HD
ENDBRANCH  26  31
BRANCH  28  33
ATOM     33  O   UNL     1      19.532  -7.845  44.356  1.00  0.00    -0.387 OA
ATOM     34  H   UNL     1      18.742  -7.325  44.670  1.00  0.00     0.211 HD
ENDBRANCH  28  33
BRANCH  29  35
ATOM     35  C   UNL     1      24.065  -6.880  45.681  1.00  0.00     0.191 C 
BRANCH  35  36
ATOM     36  O   UNL     1      24.775  -7.710  44.811  1.00  0.00    -0.394 OA
ATOM     37  H   UNL     1      25.573  -7.202  44.531  1.00  0.00     0.210 HD
ENDBRANCH  35  36
ENDBRANCH  29  35
BRANCH  30  38
ATOM     38  O   UNL     1      22.048  -7.439  43.871  1.00  0.00    -0.387 OA
ATOM     39  H   UNL     1      22.417  -8.086  43.224  1.00  0.00     0.211 HD
ENDBRANCH  30  38
ENDBRANCH   1  25
TORSDOF 11
ENDMDL
MODEL 9
REMARK VINA RESULT:    -6.193      2.318      3.872
REMARK INTER + INTRA:         -10.041
REMARK INTER:                  -8.915
REMARK INTRA:                  -1.126
REMARK UNBOUND:                -1.133
REMARK SMILES O=c1cc(-c2ccc(O)c(O)c2)oc2cc(O[C@@H]3O[C@H](CO)[C@H](O)[C@H](O)[C@@H]3O)cc(O)c12
REMARK SMILES IDX 17 1 16 2 4 3 3 4 13 5 2 6 14 7 1 8 32 9 15 10 30 11 29 12
REMARK SMILES IDX 5 13 6 14 7 15 8 16 12 17 10 18 9 19 11 21 31 23 18 25 27 26
REMARK SMILES IDX 19 27 25 28 20 29 23 30 28 31 26 33 21 35 22 36 24 38
REMARK H PARENT 9 20 11 22 31 24 28 32 26 34 22 37 24 39
REMARK Flexibility Score: inf
ROOT
ATOM      1  O   UNL     1      28.920   5.562  44.855  1.00  0.00    -0.462 OA
ENDROOT
BRANCH   1   2
ATOM      2  C   UNL     1      28.261   5.133  43.693  1.00  0.00     0.130 A 
ATOM      3  C   UNL     1      24.046   4.322  41.633  1.00  0.00     0.138 A 
ATOM      4  C   UNL     1      24.640   3.865  40.444  1.00  0.00     0.100 A 
ATOM      5  O   UNL     1      24.817   4.705  42.651  1.00  0.00    -0.456 OA
ATOM      6  C   UNL     1      26.033   3.854  40.330  1.00  0.00     0.197 A 
ATOM      7  C   UNL     1      26.146   4.681  42.600  1.00  0.00     0.146 A 
ATOM      8  O   UNL     1      26.561   3.491  39.242  1.00  0.00    -0.289 OA
ATOM      9  C   UNL     1      26.820   4.275  41.425  1.00  0.00     0.107 A 
ATOM     10  C   UNL     1      26.870   5.080  43.722  1.00  0.00     0.094 A 
ATOM     11  C   UNL     1      28.229   4.310  41.395  1.00  0.00     0.134 A 
ATOM     12  C   UNL     1      28.939   4.748  42.528  1.00  0.00     0.093 A 
BRANCH   3  13
ATOM     13  C   UNL     1      22.576   4.429  41.780  1.00  0.00     0.021 A 
ATOM     14  C   UNL     1      21.761   3.408  41.266  1.00  0.00     0.016 A 
ATOM     15  C   UNL     1      20.373   3.490  41.365  1.00  0.00     0.051 A 
ATOM     16  C   UNL     1      19.773   4.600  41.968  1.00  0.00     0.157 A 
ATOM     17  C   UNL     1      21.973   5.550  42.386  1.00  0.00     0.062 A 
ATOM     18  C   UNL     1      20.577   5.639  42.475  1.00  0.00     0.158 A 
BRANCH  16  19
ATOM     19  O   UNL     1      18.385   4.650  42.041  1.00  0.00    -0.504 OA
ATOM     20  H   UNL     1      17.803   3.873  41.743  1.00  0.00     0.293 HD
ENDBRANCH  16  19
BRANCH  18  21
ATOM     21  O   UNL     1      19.987   6.763  43.058  1.00  0.00    -0.504 OA
ATOM     22  H   UNL     1      20.071   7.679  42.625  1.00  0.00     0.293 HD
ENDBRANCH  18  21
ENDBRANCH   3  13
BRANCH  11  23
ATOM     23  O   UNL     1      28.935   3.923  40.250  1.00  0.00    -0.507 OA
ATOM     24  H   UNL     1      29.226   4.597  39.560  1.00  0.00     0.293 HD
ENDBRANCH  11  23
ENDBRANCH   1   2
BRANCH   1  25
ATOM     25  C   UNL     1      28.977   6.892  45.371  1.00  0.00     0.339 C 
ATOM     26  C   UNL     1      28.923   6.951  46.900  1.00  0.00     0.214 C 
ATOM     27  O   UNL     1      30.152   7.530  44.925  1.00  0.00    -0.332 OA
ATOM     28  C   UNL     1      30.117   6.207  47.554  1.00  0.00     0.180 C 
ATOM     29  C   UNL     1      31.364   6.892  45.322  1.00  0.00     0.179 C 
ATOM     30  C   UNL     1      31.320   5.973  46.602  1.00  0.00     0.177 C 
BRANCH  26  31
ATOM     31  O   UNL     1      27.691   6.454  47.368  1.00  0.00    -0.384 OA
ATOM     32  H   UNL     1      27.024   7.180  47.262  1.00  0.00     0.211 HD
ENDBRANCH  26  31
BRANCH  28  33
ATOM     33  O   UNL     1      29.736   5.009  48.183  1.00  0.00    -0.387 OA
ATOM     34  H   UNL     1      28.798   4.807  47.911  1.00  0.00     0.211 HD
ENDBRANCH  28  33
BRANCH  29  35
ATOM     35  C   UNL     1      32.003   6.204  44.100  1.00  0.00     0.191 C 
BRANCH  35  36
ATOM     36  O   UNL     1      33.379   6.065  44.287  1.00  0.00    -0.394 OA
ATOM     37  H   UNL     1      33.499   5.348  44.955  1.00  0.00     0.210 HD
ENDBRANCH  35  36
ENDBRANCH  29  35
BRANCH  30  38
ATOM     38  O   UNL     1      31.476   4.610  46.300  1.00  0.00    -0.387 OA
ATOM     39  H   UNL     1      30.678   4.126  46.619  1.00  0.00     0.211 HD
ENDBRANCH  30  38
ENDBRANCH   1  25
TORSDOF 11
ENDMDL
