MODEL 1
REMARK VINA RESULT:    -5.803      0.000      0.000
REMARK INTER + INTRA:         -16.839
REMARK INTER:                 -13.266
REMARK INTRA:                  -3.573
REMARK UNBOUND:                -3.573
REMARK SMILES CCCCCCCCCCCCCCCCCCCCCCCC(=O)[O-]
REMARK SMILES IDX 13 1 14 2 15 3 16 4 17 5 18 6 19 7 20 8 21 9 22 10 23 11
REMARK SMILES IDX 24 12 25 13 26 14 12 15 11 16 10 17 9 18 8 19 7 20 6 21 5 22
REMARK SMILES IDX 4 23 3 24 2 25 1 26
REMARK H PARENT
REMARK Flexibility Score: inf
ROOT
ATOM      1  C   UNL     1      23.340  14.154   3.483  1.00  0.00     0.000 C 
ENDROOT
BRANCH   1   2
ATOM      2  C   UNL     1      22.914  12.688   3.297  1.00  0.00     0.000 C 
BRANCH   2   3
ATOM      3  C   UNL     1      22.036  12.477   2.054  1.00  0.00     0.000 C 
BRANCH   3   4
ATOM      4  C   UNL     1      22.839  11.819   0.921  1.00  0.00     0.000 C 
BRANCH   4   5
ATOM      5  C   UNL     1      23.699  12.827   0.142  1.00  0.00     0.000 C 
BRANCH   5   6
ATOM      6  C   UNL     1      25.192  12.452   0.139  1.00  0.00     0.000 C 
BRANCH   6   7
ATOM      7  C   UNL     1      26.006  13.256   1.165  1.00  0.00     0.000 C 
BRANCH   7   8
ATOM      8  C   UNL     1      27.525  13.087   0.980  1.00  0.00     0.000 C 
BRANCH   8   9
ATOM      9  C   UNL     1      27.867  12.227  -0.254  1.00  0.00     0.000 C 
BRANCH   9  10
ATOM     10  C   UNL     1      29.361  12.244  -0.625  1.00  0.00     0.006 C 
BRANCH  10  11
ATOM     11  C   UNL     1      29.629  12.854  -2.006  1.00  0.00     0.053 C 
BRANCH  11  12
ATOM     12  C   UNL     1      30.667  13.927  -1.913  1.00  0.00     0.041 C 
ATOM     13  O   UNL     1      31.124  14.460  -2.959  1.00  0.00    -0.550 OA
ATOM     14  O   UNL     1      31.105  14.365  -0.669  1.00  0.00    -0.550 OA
ENDBRANCH  11  12
ENDBRANCH  10  11
ENDBRANCH   9  10
ENDBRANCH   8   9
ENDBRANCH   7   8
ENDBRANCH   6   7
ENDBRANCH   5   6
ENDBRANCH   4   5
ENDBRANCH   3   4
ENDBRANCH   2   3
ENDBRANCH   1   2
BRANCH   1  15
ATOM     15  C   UNL     1      22.182  15.132   3.755  1.00  0.00     0.000 C 
BRANCH  15  16
ATOM     16  C   UNL     1      22.115  16.308   2.756  1.00  0.00     0.000 C 
BRANCH  16  17
ATOM     17  C   UNL     1      22.685  15.936   1.375  1.00  0.00     0.000 C 
BRANCH  17  18
ATOM     18  C   UNL     1      21.593  15.881   0.286  1.00  0.00    -0.000 C 
BRANCH  18  19
ATOM     19  C   UNL     1      20.156  15.820   0.845  1.00  0.00    -0.000 C 
BRANCH  19  20
ATOM     20  C   UNL     1      19.379  14.540   0.493  1.00  0.00    -0.000 C 
BRANCH  20  21
ATOM     21  C   UNL     1      19.744  13.986  -0.897  1.00  0.00    -0.000 C 
BRANCH  21  22
ATOM     22  C   UNL     1      19.717  12.449  -0.942  1.00  0.00    -0.000 C 
BRANCH  22  23
ATOM     23  C   UNL     1      20.568  11.882  -2.092  1.00  0.00    -0.000 C 
BRANCH  23  24
ATOM     24  C   UNL     1      21.524  12.926  -2.690  1.00  0.00    -0.000 C 
BRANCH  24  25
ATOM     25  C   UNL     1      22.730  12.289  -3.396  1.00  0.00    -0.003 C 
ATOM     26  C   UNL     1      23.845  13.310  -3.609  1.00  0.00     0.004 C 
ENDBRANCH  24  25
ENDBRANCH  23  24
ENDBRANCH  22  23
ENDBRANCH  21  22
ENDBRANCH  20  21
ENDBRANCH  19  20
ENDBRANCH  18  19
ENDBRANCH  17  18
ENDBRANCH  16  17
ENDBRANCH  15  16
ENDBRANCH   1  15
TORSDOF 22
ENDMDL
MODEL 2
REMARK VINA RESULT:    -5.762      4.522      7.364
REMARK INTER + INTRA:         -16.745
REMARK INTER:                 -14.035
REMARK INTRA:                  -2.710
REMARK UNBOUND:                -3.573
REMARK SMILES CCCCCCCCCCCCCCCCCCCCCCCC(=O)[O-]
REMARK SMILES IDX 13 1 14 2 15 3 16 4 17 5 18 6 19 7 20 8 21 9 22 10 23 11
REMARK SMILES IDX 24 12 25 13 26 14 12 15 11 16 10 17 9 18 8 19 7 20 6 21 5 22
REMARK SMILES IDX 4 23 3 24 2 25 1 26
REMARK H PARENT
REMARK Flexibility Score: inf
ROOT
ATOM      1  C   UNL     1      22.758  11.474   0.063  1.00  0.00     0.000 C 
ENDROOT
BRANCH   1   2
ATOM      2  C   UNL     1      22.325  11.191   1.512  1.00  0.00     0.000 C 
BRANCH   2   3
ATOM      3  C   UNL     1      21.706  12.418   2.198  1.00  0.00     0.000 C 
BRANCH   3   4
ATOM      4  C   UNL     1      22.472  12.773   3.481  1.00  0.00     0.000 C 
BRANCH   4   5
ATOM      5  C   UNL     1      23.232  14.103   3.367  1.00  0.00     0.000 C 
BRANCH   5   6
ATOM      6  C   UNL     1      23.983  14.243   2.031  1.00  0.00     0.000 C 
BRANCH   6   7
ATOM      7  C   UNL     1      23.409  15.359   1.144  1.00  0.00     0.000 C 
BRANCH   7   8
ATOM      8  C   UNL     1      22.257  16.122   1.823  1.00  0.00     0.000 C 
BRANCH   8   9
ATOM      9  C   UNL     1      21.080  16.375   0.859  1.00  0.00     0.000 C 
BRANCH   9  10
ATOM     10  C   UNL     1      20.092  15.199   0.765  1.00  0.00     0.006 C 
BRANCH  10  11
ATOM     11  C   UNL     1      20.197  14.431  -0.558  1.00  0.00     0.053 C 
BRANCH  11  12
ATOM     12  C   UNL     1      19.092  13.429  -0.672  1.00  0.00     0.041 C 
ATOM     13  O   UNL     1      18.764  12.730   0.323  1.00  0.00    -0.550 OA
ATOM     14  O   UNL     1      18.398  13.292  -1.869  1.00  0.00    -0.550 OA
ENDBRANCH  11  12
ENDBRANCH  10  11
ENDBRANCH   9  10
ENDBRANCH   8   9
ENDBRANCH   7   8
ENDBRANCH   6   7
ENDBRANCH   5   6
ENDBRANCH   4   5
ENDBRANCH   3   4
ENDBRANCH   2   3
ENDBRANCH   1   2
BRANCH   1  15
ATOM     15  C   UNL     1      21.753  11.016  -1.011  1.00  0.00     0.000 C 
BRANCH  15  16
ATOM     16  C   UNL     1      21.909  11.752  -2.360  1.00  0.00     0.000 C 
BRANCH  16  17
ATOM     17  C   UNL     1      23.030  12.807  -2.325  1.00  0.00     0.000 C 
BRANCH  17  18
ATOM     18  C   UNL     1      23.447  13.266  -3.739  1.00  0.00    -0.000 C 
BRANCH  18  19
ATOM     19  C   UNL     1      22.546  12.718  -4.864  1.00  0.00    -0.000 C 
BRANCH  19  20
ATOM     20  C   UNL     1      23.296  12.020  -6.012  1.00  0.00    -0.000 C 
BRANCH  20  21
ATOM     21  C   UNL     1      24.445  11.124  -5.513  1.00  0.00    -0.000 C 
BRANCH  21  22
ATOM     22  C   UNL     1      25.249  10.504  -6.667  1.00  0.00    -0.000 C 
BRANCH  22  23
ATOM     23  C   UNL     1      24.885  11.119  -8.030  1.00  0.00    -0.000 C 
BRANCH  23  24
ATOM     24  C   UNL     1      25.854  10.697  -9.146  1.00  0.00    -0.000 C 
BRANCH  24  25
ATOM     25  C   UNL     1      27.319  11.015  -8.812  1.00  0.00    -0.003 C 
ATOM     26  C   UNL     1      27.689  12.429  -9.253  1.00  0.00     0.004 C 
ENDBRANCH  24  25
ENDBRANCH  23  24
ENDBRANCH  22  23
ENDBRANCH  21  22
ENDBRANCH  20  21
ENDBRANCH  19  20
ENDBRANCH  18  19
ENDBRANCH  17  18
ENDBRANCH  16  17
ENDBRANCH  15  16
ENDBRANCH   1  15
TORSDOF 22
ENDMDL
MODEL 3
REMARK VINA RESULT:    -5.721      4.554      7.037
REMARK INTER + INTRA:         -16.652
REMARK INTER:                 -13.680
REMARK INTRA:                  -2.973
REMARK UNBOUND:                -3.573
REMARK SMILES CCCCCCCCCCCCCCCCCCCCCCCC(=O)[O-]
REMARK SMILES IDX 13 1 14 2 15 3 16 4 17 5 18 6 19 7 20 8 21 9 22 10 23 11
REMARK SMILES IDX 24 12 25 13 26 14 12 15 11 16 10 17 9 18 8 19 7 20 6 21 5 22
REMARK SMILES IDX 4 23 3 24 2 25 1 26
REMARK H PARENT
REMARK Flexibility Score: inf
ROOT
ATOM      1  C   UNL     1      23.591  13.194  -2.389  1.00  0.00     0.000 C 
ENDROOT
BRANCH   1   2
ATOM      2  C   UNL     1      22.385  12.906  -3.300  1.00  0.00     0.000 C 
BRANCH   2   3
ATOM      3  C   UNL     1      22.795  12.361  -4.676  1.00  0.00     0.000 C 
BRANCH   3   4
ATOM      4  C   UNL     1      24.186  11.711  -4.616  1.00  0.00     0.000 C 
BRANCH   4   5
ATOM      5  C   UNL     1      24.562  10.996  -5.923  1.00  0.00     0.000 C 
BRANCH   5   6
ATOM      6  C   UNL     1      23.659  11.404  -7.101  1.00  0.00     0.000 C 
BRANCH   6   7
ATOM      7  C   UNL     1      24.288  11.083  -8.466  1.00  0.00     0.000 C 
BRANCH   7   8
ATOM      8  C   UNL     1      25.825  11.169  -8.445  1.00  0.00     0.000 C 
BRANCH   8   9
ATOM      9  C   UNL     1      26.454  10.639  -9.750  1.00  0.00     0.000 C 
BRANCH   9  10
ATOM     10  C   UNL     1      27.356   9.408  -9.548  1.00  0.00     0.006 C 
BRANCH  10  11
ATOM     11  C   UNL     1      27.381   8.915  -8.096  1.00  0.00     0.053 C 
BRANCH  11  12
ATOM     12  C   UNL     1      26.571   7.665  -7.953  1.00  0.00     0.041 C 
ATOM     13  O   UNL     1      25.530   7.660  -7.244  1.00  0.00    -0.550 OA
ATOM     14  O   UNL     1      26.947   6.512  -8.634  1.00  0.00    -0.550 OA
ENDBRANCH  11  12
ENDBRANCH  10  11
ENDBRANCH   9  10
ENDBRANCH   8   9
ENDBRANCH   7   8
ENDBRANCH   6   7
ENDBRANCH   5   6
ENDBRANCH   4   5
ENDBRANCH   3   4
ENDBRANCH   2   3
ENDBRANCH   1   2
BRANCH   1  15
ATOM     15  C   UNL     1      23.231  13.532  -0.931  1.00  0.00     0.000 C 
BRANCH  15  16
ATOM     16  C   UNL     1      23.791  12.523   0.096  1.00  0.00     0.000 C 
BRANCH  16  17
ATOM     17  C   UNL     1      22.677  11.785   0.860  1.00  0.00     0.000 C 
BRANCH  17  18
ATOM     18  C   UNL     1      21.858  10.851  -0.056  1.00  0.00    -0.000 C 
BRANCH  18  19
ATOM     19  C   UNL     1      20.453  11.386  -0.398  1.00  0.00    -0.000 C 
BRANCH  19  20
ATOM     20  C   UNL     1      19.984  12.572   0.462  1.00  0.00    -0.000 C 
BRANCH  20  21
ATOM     21  C   UNL     1      19.145  13.588  -0.334  1.00  0.00    -0.000 C 
BRANCH  21  22
ATOM     22  C   UNL     1      19.729  15.009  -0.272  1.00  0.00    -0.000 C 
BRANCH  22  23
ATOM     23  C   UNL     1      20.375  15.317   1.090  1.00  0.00    -0.000 C 
BRANCH  23  24
ATOM     24  C   UNL     1      21.652  16.163   0.961  1.00  0.00    -0.000 C 
BRANCH  24  25
ATOM     25  C   UNL     1      22.728  15.773   1.985  1.00  0.00    -0.003 C 
ATOM     26  C   UNL     1      22.166  14.819   3.037  1.00  0.00     0.004 C 
ENDBRANCH  24  25
ENDBRANCH  23  24
ENDBRANCH  22  23
ENDBRANCH  21  22
ENDBRANCH  20  21
ENDBRANCH  19  20
ENDBRANCH  18  19
ENDBRANCH  17  18
ENDBRANCH  16  17
ENDBRANCH  15  16
ENDBRANCH   1  15
TORSDOF 22
ENDMDL
MODEL 4
REMARK VINA RESULT:    -5.719      3.671      6.234
REMARK INTER + INTRA:         -16.647
REMARK INTER:                 -13.902
REMARK INTRA:                  -2.745
REMARK UNBOUND:                -3.573
REMARK SMILES CCCCCCCCCCCCCCCCCCCCCCCC(=O)[O-]
REMARK SMILES IDX 13 1 14 2 15 3 16 4 17 5 18 6 19 7 20 8 21 9 22 10 23 11
REMARK SMILES IDX 24 12 25 13 26 14 12 15 11 16 10 17 9 18 8 19 7 20 6 21 5 22
REMARK SMILES IDX 4 23 3 24 2 25 1 26
REMARK H PARENT
REMARK Flexibility Score: inf
ROOT
ATOM      1  C   UNL     1      19.254  12.365  -1.205  1.00  0.00     0.000 C 
ENDROOT
BRANCH   1   2
ATOM      2  C   UNL     1      19.956  12.863  -2.480  1.00  0.00     0.000 C 
BRANCH   2   3
ATOM      3  C   UNL     1      21.218  12.054  -2.818  1.00  0.00     0.000 C 
BRANCH   3   4
ATOM      4  C   UNL     1      22.482  12.902  -2.614  1.00  0.00     0.000 C 
BRANCH   4   5
ATOM      5  C   UNL     1      23.255  13.137  -3.921  1.00  0.00     0.000 C 
BRANCH   5   6
ATOM      6  C   UNL     1      22.646  12.376  -5.113  1.00  0.00     0.000 C 
BRANCH   6   7
ATOM      7  C   UNL     1      23.705  11.634  -5.944  1.00  0.00     0.000 C 
BRANCH   7   8
ATOM      8  C   UNL     1      23.612  11.958  -7.446  1.00  0.00     0.000 C 
BRANCH   8   9
ATOM      9  C   UNL     1      24.531  11.053  -8.293  1.00  0.00     0.000 C 
BRANCH   9  10
ATOM     10  C   UNL     1      25.567  10.273  -7.464  1.00  0.00     0.006 C 
BRANCH  10  11
ATOM     11  C   UNL     1      26.232   9.137  -8.250  1.00  0.00     0.053 C 
BRANCH  11  12
ATOM     12  C   UNL     1      26.677   8.049  -7.324  1.00  0.00     0.041 C 
ATOM     13  O   UNL     1      25.832   7.416  -6.637  1.00  0.00    -0.550 OA
ATOM     14  O   UNL     1      28.022   7.708  -7.247  1.00  0.00    -0.550 OA
ENDBRANCH  11  12
ENDBRANCH  10  11
ENDBRANCH   9  10
ENDBRANCH   8   9
ENDBRANCH   7   8
ENDBRANCH   6   7
ENDBRANCH   5   6
ENDBRANCH   4   5
ENDBRANCH   3   4
ENDBRANCH   2   3
ENDBRANCH   1   2
BRANCH   1  15
ATOM     15  C   UNL     1      19.225  13.381  -0.047  1.00  0.00     0.000 C 
BRANCH  15  16
ATOM     16  C   UNL     1      20.049  14.658  -0.323  1.00  0.00     0.000 C 
BRANCH  16  17
ATOM     17  C   UNL     1      20.220  15.528   0.936  1.00  0.00     0.000 C 
BRANCH  17  18
ATOM     18  C   UNL     1      21.545  16.318   0.927  1.00  0.00    -0.000 C 
BRANCH  18  19
ATOM     19  C   UNL     1      22.287  16.309   2.279  1.00  0.00    -0.000 C 
BRANCH  19  20
ATOM     20  C   UNL     1      21.801  15.245   3.277  1.00  0.00    -0.000 C 
BRANCH  20  21
ATOM     21  C   UNL     1      22.959  14.556   4.023  1.00  0.00    -0.000 C 
BRANCH  21  22
ATOM     22  C   UNL     1      23.242  13.142   3.490  1.00  0.00    -0.000 C 
BRANCH  22  23
ATOM     23  C   UNL     1      22.134  12.639   2.548  1.00  0.00    -0.000 C 
BRANCH  23  24
ATOM     24  C   UNL     1      22.650  12.346   1.131  1.00  0.00    -0.000 C 
BRANCH  24  25
ATOM     25  C   UNL     1      23.670  13.386   0.644  1.00  0.00    -0.003 C 
ATOM     26  C   UNL     1      25.072  12.788   0.568  1.00  0.00     0.004 C 
ENDBRANCH  24  25
ENDBRANCH  23  24
ENDBRANCH  22  23
ENDBRANCH  21  22
ENDBRANCH  20  21
ENDBRANCH  19  20
ENDBRANCH  18  19
ENDBRANCH  17  18
ENDBRANCH  16  17
ENDBRANCH  15  16
ENDBRANCH   1  15
TORSDOF 22
ENDMDL
MODEL 5
REMARK VINA RESULT:    -5.694      3.224      5.557
REMARK INTER + INTRA:         -16.589
REMARK INTER:                 -13.415
REMARK INTRA:                  -3.174
REMARK UNBOUND:                -3.573
REMARK SMILES CCCCCCCCCCCCCCCCCCCCCCCC(=O)[O-]
REMARK SMILES IDX 13 1 14 2 15 3 16 4 17 5 18 6 19 7 20 8 21 9 22 10 23 11
REMARK SMILES IDX 24 12 25 13 26 14 12 15 11 16 10 17 9 18 8 19 7 20 6 21 5 22
REMARK SMILES IDX 4 23 3 24 2 25 1 26
REMARK H PARENT
REMARK Flexibility Score: inf
ROOT
ATOM      1  C   UNL     1      23.664  13.029   0.506  1.00  0.00     0.000 C 
ENDROOT
BRANCH   1   2
ATOM      2  C   UNL     1      24.093  12.546  -0.890  1.00  0.00     0.000 C 
BRANCH   2   3
ATOM      3  C   UNL     1      23.289  13.205  -2.021  1.00  0.00     0.000 C 
BRANCH   3   4
ATOM      4  C   UNL     1      22.715  12.147  -2.974  1.00  0.00     0.000 C 
BRANCH   4   5
ATOM      5  C   UNL     1      22.310  12.734  -4.335  1.00  0.00     0.000 C 
BRANCH   5   6
ATOM      6  C   UNL     1      23.170  12.192  -5.492  1.00  0.00     0.000 C 
BRANCH   6   7
ATOM      7  C   UNL     1      24.352  11.341  -5.002  1.00  0.00     0.000 C 
BRANCH   7   8
ATOM      8  C   UNL     1      25.083  10.625  -6.152  1.00  0.00     0.000 C 
BRANCH   8   9
ATOM      9  C   UNL     1      24.268  10.648  -7.462  1.00  0.00     0.000 C 
BRANCH   9  10
ATOM     10  C   UNL     1      24.968  11.390  -8.614  1.00  0.00     0.006 C 
BRANCH  10  11
ATOM     11  C   UNL     1      26.341  10.802  -8.961  1.00  0.00     0.053 C 
BRANCH  11  12
ATOM     12  C   UNL     1      27.407  11.843  -8.826  1.00  0.00     0.041 C 
ATOM     13  O   UNL     1      27.519  12.752  -9.691  1.00  0.00    -0.550 OA
ATOM     14  O   UNL     1      28.255  11.831  -7.725  1.00  0.00    -0.550 OA
ENDBRANCH  11  12
ENDBRANCH  10  11
ENDBRANCH   9  10
ENDBRANCH   8   9
ENDBRANCH   7   8
ENDBRANCH   6   7
ENDBRANCH   5   6
ENDBRANCH   4   5
ENDBRANCH   3   4
ENDBRANCH   2   3
ENDBRANCH   1   2
BRANCH   1  15
ATOM     15  C   UNL     1      22.676  12.100   1.235  1.00  0.00     0.000 C 
BRANCH  15  16
ATOM     16  C   UNL     1      22.176  12.661   2.584  1.00  0.00     0.000 C 
BRANCH  16  17
ATOM     17  C   UNL     1      23.274  13.428   3.343  1.00  0.00     0.000 C 
BRANCH  17  18
ATOM     18  C   UNL     1      22.729  14.688   4.049  1.00  0.00    -0.000 C 
BRANCH  18  19
ATOM     19  C   UNL     1      21.842  15.573   3.150  1.00  0.00    -0.000 C 
BRANCH  19  20
ATOM     20  C   UNL     1      22.569  16.224   1.962  1.00  0.00    -0.000 C 
BRANCH  20  21
ATOM     21  C   UNL     1      21.779  16.109   0.645  1.00  0.00    -0.000 C 
BRANCH  21  22
ATOM     22  C   UNL     1      20.279  15.869   0.880  1.00  0.00    -0.000 C 
BRANCH  22  23
ATOM     23  C   UNL     1      19.829  14.473   0.411  1.00  0.00    -0.000 C 
BRANCH  23  24
ATOM     24  C   UNL     1      20.063  14.250  -1.091  1.00  0.00    -0.000 C 
BRANCH  24  25
ATOM     25  C   UNL     1      19.509  12.905  -1.584  1.00  0.00    -0.003 C 
ATOM     26  C   UNL     1      19.455  11.885  -0.450  1.00  0.00     0.004 C 
ENDBRANCH  24  25
ENDBRANCH  23  24
ENDBRANCH  22  23
ENDBRANCH  21  22
ENDBRANCH  20  21
ENDBRANCH  19  20
ENDBRANCH  18  19
ENDBRANCH  17  18
ENDBRANCH  16  17
ENDBRANCH  15  16
ENDBRANCH   1  15
TORSDOF 22
ENDMDL
MODEL 6
REMARK VINA RESULT:    -5.616      4.428      6.965
REMARK INTER + INTRA:         -16.411
REMARK INTER:                 -13.861
REMARK INTRA:                  -2.550
REMARK UNBOUND:                -3.573
REMARK SMILES CCCCCCCCCCCCCCCCCCCCCCCC(=O)[O-]
REMARK SMILES IDX 13 1 14 2 15 3 16 4 17 5 18 6 19 7 20 8 21 9 22 10 23 11
REMARK SMILES IDX 24 12 25 13 26 14 12 15 11 16 10 17 9 18 8 19 7 20 6 21 5 22
REMARK SMILES IDX 4 23 3 24 2 25 1 26
REMARK H PARENT
REMARK Flexibility Score: inf
ROOT
ATOM      1  C   UNL     1      22.690  12.840  -1.922  1.00  0.00     0.000 C 
ENDROOT
BRANCH   1   2
ATOM      2  C   UNL     1      23.558  13.160  -3.151  1.00  0.00     0.000 C 
BRANCH   2   3
ATOM      3  C   UNL     1      22.857  12.828  -4.477  1.00  0.00     0.000 C 
BRANCH   3   4
ATOM      4  C   UNL     1      23.654  11.783  -5.272  1.00  0.00     0.000 C 
BRANCH   4   5
ATOM      5  C   UNL     1      23.322  11.801  -6.772  1.00  0.00     0.000 C 
BRANCH   5   6
ATOM      6  C   UNL     1      23.981  10.639  -7.538  1.00  0.00     0.000 C 
BRANCH   6   7
ATOM      7  C   UNL     1      24.697  11.104  -8.815  1.00  0.00     0.000 C 
BRANCH   7   8
ATOM      8  C   UNL     1      26.197  11.367  -8.592  1.00  0.00     0.000 C 
BRANCH   8   9
ATOM      9  C   UNL     1      27.083  10.419  -9.427  1.00  0.00     0.000 C 
BRANCH   9  10
ATOM     10  C   UNL     1      26.944   8.937  -9.037  1.00  0.00     0.006 C 
BRANCH  10  11
ATOM     11  C   UNL     1      27.551   8.617  -7.666  1.00  0.00     0.053 C 
BRANCH  11  12
ATOM     12  C   UNL     1      26.690   7.643  -6.926  1.00  0.00     0.041 C 
ATOM     13  O   UNL     1      25.447   7.611  -7.129  1.00  0.00    -0.550 OA
ATOM     14  O   UNL     1      27.266   6.742  -6.037  1.00  0.00    -0.550 OA
ENDBRANCH  11  12
ENDBRANCH  10  11
ENDBRANCH   9  10
ENDBRANCH   8   9
ENDBRANCH   7   8
ENDBRANCH   6   7
ENDBRANCH   5   6
ENDBRANCH   4   5
ENDBRANCH   3   4
ENDBRANCH   2   3
ENDBRANCH   1   2
BRANCH   1  15
ATOM     15  C   UNL     1      23.204  13.436  -0.598  1.00  0.00     0.000 C 
BRANCH  15  16
ATOM     16  C   UNL     1      23.588  12.371   0.454  1.00  0.00     0.000 C 
BRANCH  16  17
ATOM     17  C   UNL     1      22.378  11.905   1.284  1.00  0.00     0.000 C 
BRANCH  17  18
ATOM     18  C   UNL     1      22.436  12.412   2.741  1.00  0.00    -0.000 C 
BRANCH  18  19
ATOM     19  C   UNL     1      23.519  13.482   2.987  1.00  0.00    -0.000 C 
BRANCH  19  20
ATOM     20  C   UNL     1      23.048  14.707   3.789  1.00  0.00    -0.000 C 
BRANCH  20  21
ATOM     21  C   UNL     1      21.832  15.403   3.151  1.00  0.00    -0.000 C 
BRANCH  21  22
ATOM     22  C   UNL     1      22.216  16.255   1.930  1.00  0.00    -0.000 C 
BRANCH  22  23
ATOM     23  C   UNL     1      21.257  16.045   0.744  1.00  0.00    -0.000 C 
BRANCH  23  24
ATOM     24  C   UNL     1      20.243  14.919   0.997  1.00  0.00    -0.000 C 
BRANCH  24  25
ATOM     25  C   UNL     1      19.572  14.424  -0.293  1.00  0.00    -0.003 C 
ATOM     26  C   UNL     1      19.137  12.967  -0.162  1.00  0.00     0.004 C 
ENDBRANCH  24  25
ENDBRANCH  23  24
ENDBRANCH  22  23
ENDBRANCH  21  22
ENDBRANCH  20  21
ENDBRANCH  19  20
ENDBRANCH  18  19
ENDBRANCH  17  18
ENDBRANCH  16  17
ENDBRANCH  15  16
ENDBRANCH   1  15
TORSDOF 22
ENDMDL
MODEL 7
REMARK VINA RESULT:    -5.590      4.838      8.010
REMARK INTER + INTRA:         -16.353
REMARK INTER:                 -13.565
REMARK INTRA:                  -2.788
REMARK UNBOUND:                -3.573
REMARK SMILES CCCCCCCCCCCCCCCCCCCCCCCC(=O)[O-]
REMARK SMILES IDX 13 1 14 2 15 3 16 4 17 5 18 6 19 7 20 8 21 9 22 10 23 11
REMARK SMILES IDX 24 12 25 13 26 14 12 15 11 16 10 17 9 18 8 19 7 20 6 21 5 22
REMARK SMILES IDX 4 23 3 24 2 25 1 26
REMARK H PARENT
REMARK Flexibility Score: inf
ROOT
ATOM      1  C   UNL     1      23.381  12.950  -0.499  1.00  0.00     0.000 C 
ENDROOT
BRANCH   1   2
ATOM      2  C   UNL     1      22.646  11.767   0.156  1.00  0.00     0.000 C 
BRANCH   2   3
ATOM      3  C   UNL     1      22.865  11.699   1.675  1.00  0.00     0.000 C 
BRANCH   3   4
ATOM      4  C   UNL     1      21.774  12.481   2.422  1.00  0.00     0.000 C 
BRANCH   4   5
ATOM      5  C   UNL     1      22.343  13.374   3.535  1.00  0.00     0.000 C 
BRANCH   5   6
ATOM      6  C   UNL     1      22.148  14.874   3.249  1.00  0.00     0.000 C 
BRANCH   6   7
ATOM      7  C   UNL     1      23.048  15.380   2.110  1.00  0.00     0.000 C 
BRANCH   7   8
ATOM      8  C   UNL     1      22.251  16.064   0.985  1.00  0.00     0.000 C 
BRANCH   8   9
ATOM      9  C   UNL     1      20.730  15.859   1.143  1.00  0.00     0.000 C 
BRANCH   9  10
ATOM     10  C   UNL     1      20.075  15.138  -0.049  1.00  0.00     0.006 C 
BRANCH  10  11
ATOM     11  C   UNL     1      19.133  14.006   0.378  1.00  0.00     0.053 C 
BRANCH  11  12
ATOM     12  C   UNL     1      19.038  12.970  -0.696  1.00  0.00     0.041 C 
ATOM     13  O   UNL     1      19.386  11.781  -0.464  1.00  0.00    -0.550 OA
ATOM     14  O   UNL     1      18.531  13.308  -1.946  1.00  0.00    -0.550 OA
ENDBRANCH  11  12
ENDBRANCH  10  11
ENDBRANCH   9  10
ENDBRANCH   8   9
ENDBRANCH   7   8
ENDBRANCH   6   7
ENDBRANCH   5   6
ENDBRANCH   4   5
ENDBRANCH   3   4
ENDBRANCH   2   3
ENDBRANCH   1   2
BRANCH   1  15
ATOM     15  C   UNL     1      22.753  13.450  -1.813  1.00  0.00     0.000 C 
BRANCH  15  16
ATOM     16  C   UNL     1      23.636  13.203  -3.056  1.00  0.00     0.000 C 
BRANCH  16  17
ATOM     17  C   UNL     1      22.968  12.257  -4.070  1.00  0.00     0.000 C 
BRANCH  17  18
ATOM     18  C   UNL     1      23.974  11.689  -5.093  1.00  0.00    -0.000 C 
BRANCH  18  19
ATOM     19  C   UNL     1      23.413  11.577  -6.526  1.00  0.00    -0.000 C 
BRANCH  19  20
ATOM     20  C   UNL     1      24.178  10.612  -7.447  1.00  0.00    -0.000 C 
BRANCH  20  21
ATOM     21  C   UNL     1      24.732  11.305  -8.706  1.00  0.00    -0.000 C 
BRANCH  21  22
ATOM     22  C   UNL     1      26.269  11.336  -8.731  1.00  0.00    -0.000 C 
BRANCH  22  23
ATOM     23  C   UNL     1      26.890  10.484  -7.609  1.00  0.00    -0.000 C 
BRANCH  23  24
ATOM     24  C   UNL     1      27.628   9.247  -8.146  1.00  0.00    -0.000 C 
BRANCH  24  25
ATOM     25  C   UNL     1      26.723   8.009  -8.234  1.00  0.00    -0.003 C 
ATOM     26  C   UNL     1      26.290   7.546  -6.845  1.00  0.00     0.004 C 
ENDBRANCH  24  25
ENDBRANCH  23  24
ENDBRANCH  22  23
ENDBRANCH  21  22
ENDBRANCH  20  21
ENDBRANCH  19  20
ENDBRANCH  18  19
ENDBRANCH  17  18
ENDBRANCH  16  17
ENDBRANCH  15  16
ENDBRANCH   1  15
TORSDOF 22
ENDMDL
MODEL 8
REMARK VINA RESULT:    -5.558      4.770      7.281
REMARK INTER + INTRA:         -16.279
REMARK INTER:                 -13.364
REMARK INTRA:                  -2.916
REMARK UNBOUND:                -3.573
REMARK SMILES CCCCCCCCCCCCCCCCCCCCCCCC(=O)[O-]
REMARK SMILES IDX 13 1 14 2 15 3 16 4 17 5 18 6 19 7 20 8 21 9 22 10 23 11
REMARK SMILES IDX 24 12 25 13 26 14 12 15 11 16 10 17 9 18 8 19 7 20 6 21 5 22
REMARK SMILES IDX 4 23 3 24 2 25 1 26
REMARK H PARENT
REMARK Flexibility Score: inf
ROOT
ATOM      1  C   UNL     1      22.760  13.106  -2.979  1.00  0.00     0.000 C 
ENDROOT
BRANCH   1   2
ATOM      2  C   UNL     1      23.777  12.854  -4.106  1.00  0.00     0.000 C 
BRANCH   2   3
ATOM      3  C   UNL     1      23.191  12.032  -5.263  1.00  0.00     0.000 C 
BRANCH   3   4
ATOM      4  C   UNL     1      24.286  11.214  -5.964  1.00  0.00     0.000 C 
BRANCH   4   5
ATOM      5  C   UNL     1      23.797  10.566  -7.268  1.00  0.00     0.000 C 
BRANCH   5   6
ATOM      6  C   UNL     1      24.232  11.351  -8.519  1.00  0.00     0.000 C 
BRANCH   6   7
ATOM      7  C   UNL     1      25.759  11.419  -8.673  1.00  0.00     0.000 C 
BRANCH   7   8
ATOM      8  C   UNL     1      26.293  10.434  -9.728  1.00  0.00     0.000 C 
BRANCH   8   9
ATOM      9  C   UNL     1      27.581   9.725  -9.262  1.00  0.00     0.000 C 
BRANCH   9  10
ATOM     10  C   UNL     1      27.679   9.558  -7.736  1.00  0.00     0.006 C 
BRANCH  10  11
ATOM     11  C   UNL     1      27.908   8.104  -7.305  1.00  0.00     0.053 C 
BRANCH  11  12
ATOM     12  C   UNL     1      26.750   7.248  -7.709  1.00  0.00     0.041 C 
ATOM     13  O   UNL     1      25.582   7.550  -7.347  1.00  0.00    -0.550 OA
ATOM     14  O   UNL     1      26.955   6.136  -8.517  1.00  0.00    -0.550 OA
ENDBRANCH  11  12
ENDBRANCH  10  11
ENDBRANCH   9  10
ENDBRANCH   8   9
ENDBRANCH   7   8
ENDBRANCH   6   7
ENDBRANCH   5   6
ENDBRANCH   4   5
ENDBRANCH   3   4
ENDBRANCH   2   3
ENDBRANCH   1   2
BRANCH   1  15
ATOM     15  C   UNL     1      21.722  11.985  -2.786  1.00  0.00     0.000 C 
BRANCH  15  16
ATOM     16  C   UNL     1      20.262  12.451  -2.984  1.00  0.00     0.000 C 
BRANCH  16  17
ATOM     17  C   UNL     1      19.839  13.508  -1.948  1.00  0.00     0.000 C 
BRANCH  17  18
ATOM     18  C   UNL     1      19.281  12.872  -0.657  1.00  0.00    -0.000 C 
BRANCH  18  19
ATOM     19  C   UNL     1      19.465  13.747   0.600  1.00  0.00    -0.000 C 
BRANCH  19  20
ATOM     20  C   UNL     1      19.848  15.210   0.320  1.00  0.00    -0.000 C 
BRANCH  20  21
ATOM     21  C   UNL     1      21.184  15.610   0.972  1.00  0.00    -0.000 C 
BRANCH  21  22
ATOM     22  C   UNL     1      22.400  15.074   0.198  1.00  0.00    -0.000 C 
BRANCH  22  23
ATOM     23  C   UNL     1      23.325  14.218   1.081  1.00  0.00    -0.000 C 
BRANCH  23  24
ATOM     24  C   UNL     1      23.499  12.789   0.543  1.00  0.00    -0.000 C 
BRANCH  24  25
ATOM     25  C   UNL     1      22.501  11.797   1.159  1.00  0.00    -0.003 C 
ATOM     26  C   UNL     1      22.135  12.201   2.586  1.00  0.00     0.004 C 
ENDBRANCH  24  25
ENDBRANCH  23  24
ENDBRANCH  22  23
ENDBRANCH  21  22
ENDBRANCH  20  21
ENDBRANCH  19  20
ENDBRANCH  18  19
ENDBRANCH  17  18
ENDBRANCH  16  17
ENDBRANCH  15  16
ENDBRANCH   1  15
TORSDOF 22
ENDMDL
MODEL 9
REMARK VINA RESULT:    -5.557      3.314      5.956
REMARK INTER + INTRA:         -16.277
REMARK INTER:                 -13.809
REMARK INTRA:                  -2.467
REMARK UNBOUND:                -3.573
REMARK SMILES CCCCCCCCCCCCCCCCCCCCCCCC(=O)[O-]
REMARK SMILES IDX 13 1 14 2 15 3 16 4 17 5 18 6 19 7 20 8 21 9 22 10 23 11
REMARK SMILES IDX 24 12 25 13 26 14 12 15 11 16 10 17 9 18 8 19 7 20 6 21 5 22
REMARK SMILES IDX 4 23 3 24 2 25 1 26
REMARK H PARENT
REMARK Flexibility Score: inf
ROOT
ATOM      1  C   UNL     1      19.484  12.349  -1.344  1.00  0.00     0.000 C 
ENDROOT
BRANCH   1   2
ATOM      2  C   UNL     1      20.184  12.939  -2.581  1.00  0.00     0.000 C 
BRANCH   2   3
ATOM      3  C   UNL     1      21.474  12.192  -2.947  1.00  0.00     0.000 C 
BRANCH   3   4
ATOM      4  C   UNL     1      22.685  13.136  -2.903  1.00  0.00     0.000 C 
BRANCH   4   5
ATOM      5  C   UNL     1      23.604  12.978  -4.124  1.00  0.00     0.000 C 
BRANCH   5   6
ATOM      6  C   UNL     1      22.944  12.178  -5.262  1.00  0.00     0.000 C 
BRANCH   6   7
ATOM      7  C   UNL     1      23.970  11.467  -6.158  1.00  0.00     0.000 C 
BRANCH   7   8
ATOM      8  C   UNL     1      23.589  11.515  -7.648  1.00  0.00     0.000 C 
BRANCH   8   9
ATOM      9  C   UNL     1      24.671  10.880  -8.546  1.00  0.00     0.000 C 
BRANCH   9  10
ATOM     10  C   UNL     1      26.101  11.046  -8.002  1.00  0.00     0.006 C 
BRANCH  10  11
ATOM     11  C   UNL     1      27.151  11.188  -9.111  1.00  0.00     0.053 C 
BRANCH  11  12
ATOM     12  C   UNL     1      28.190  12.192  -8.723  1.00  0.00     0.041 C 
ATOM     13  O   UNL     1      28.155  13.358  -9.199  1.00  0.00    -0.550 OA
ATOM     14  O   UNL     1      29.178  11.852  -7.806  1.00  0.00    -0.550 OA
ENDBRANCH  11  12
ENDBRANCH  10  11
ENDBRANCH   9  10
ENDBRANCH   8   9
ENDBRANCH   7   8
ENDBRANCH   6   7
ENDBRANCH   5   6
ENDBRANCH   4   5
ENDBRANCH   3   4
ENDBRANCH   2   3
ENDBRANCH   1   2
BRANCH   1  15
ATOM     15  C   UNL     1      19.174  13.368  -0.231  1.00  0.00     0.000 C 
BRANCH  15  16
ATOM     16  C   UNL     1      19.940  14.701  -0.380  1.00  0.00     0.000 C 
BRANCH  16  17
ATOM     17  C   UNL     1      20.037  15.472   0.949  1.00  0.00     0.000 C 
BRANCH  17  18
ATOM     18  C   UNL     1      21.302  16.353   1.025  1.00  0.00    -0.000 C 
BRANCH  18  19
ATOM     19  C   UNL     1      22.131  16.146   2.309  1.00  0.00    -0.000 C 
BRANCH  19  20
ATOM     20  C   UNL     1      22.101  14.716   2.875  1.00  0.00    -0.000 C 
BRANCH  20  21
ATOM     21  C   UNL     1      23.473  14.258   3.405  1.00  0.00    -0.000 C 
BRANCH  21  22
ATOM     22  C   UNL     1      24.244  13.409   2.380  1.00  0.00    -0.000 C 
BRANCH  22  23
ATOM     23  C   UNL     1      23.629  13.491   0.972  1.00  0.00    -0.000 C 
BRANCH  23  24
ATOM     24  C   UNL     1      23.480  12.111   0.311  1.00  0.00    -0.000 C 
BRANCH  24  25
ATOM     25  C   UNL     1      22.320  11.295   0.899  1.00  0.00    -0.003 C 
ATOM     26  C   UNL     1      21.998  10.087   0.023  1.00  0.00     0.004 C 
ENDBRANCH  24  25
ENDBRANCH  23  24
ENDBRANCH  22  23
ENDBRANCH  21  22
ENDBRANCH  20  21
ENDBRANCH  19  20
ENDBRANCH  18  19
ENDBRANCH  17  18
ENDBRANCH  16  17
ENDBRANCH  15  16
ENDBRANCH   1  15
TORSDOF 22
ENDMDL
