MODEL 1
REMARK VINA RESULT:    -6.602      0.000      0.000
REMARK INTER + INTRA:          -8.077
REMARK INTER:                  -7.759
REMARK INTRA:                  -0.318
REMARK UNBOUND:                -0.318
REMARK SMILES O=c1cc(-c2ccc(O)c(O)c2)oc2cc(O)cc(O)c12
REMARK SMILES IDX 4 1 3 2 2 3 1 4 21 5 19 6 18 7 16 8 15 9 14 10 13 11 5 12
REMARK SMILES IDX 6 13 7 14 8 15 12 16 10 17 9 18 11 20 20 22 17 24
REMARK H PARENT 9 19 11 21 20 23 17 25
REMARK Flexibility Score: inf
ROOT
ATOM      1  C   UNL     1     173.341 175.337 176.601  1.00  0.00     0.138 A 
ATOM      2  C   UNL     1     174.429 175.603 175.758  1.00  0.00     0.100 A 
ATOM      3  C   UNL     1     174.259 176.441 174.655  1.00  0.00     0.197 A 
ATOM      4  O   UNL     1     175.268 176.705 173.950  1.00  0.00    -0.289 OA
ATOM      5  C   UNL     1     172.983 176.986 174.375  1.00  0.00     0.107 A 
ATOM      6  C   UNL     1     172.683 177.825 173.259  1.00  0.00     0.134 A 
ATOM      7  C   UNL     1     171.405 178.385 173.142  1.00  0.00     0.093 A 
ATOM      8  C   UNL     1     170.400 178.089 174.065  1.00  0.00     0.123 A 
ATOM      9  C   UNL     1     170.668 177.231 175.130  1.00  0.00     0.094 A 
ATOM     10  C   UNL     1     171.943 176.685 175.294  1.00  0.00     0.146 A 
ATOM     11  O   UNL     1     172.161 175.886 176.333  1.00  0.00    -0.456 OA
ENDROOT
BRANCH   1  12
ATOM     12  C   UNL     1     173.464 174.450 177.785  1.00  0.00     0.021 A 
ATOM     13  C   UNL     1     174.644 173.729 178.051  1.00  0.00     0.016 A 
ATOM     14  C   UNL     1     174.735 172.910 179.180  1.00  0.00     0.051 A 
ATOM     15  C   UNL     1     173.655 172.803 180.065  1.00  0.00     0.157 A 
ATOM     16  C   UNL     1     172.390 174.347 178.687  1.00  0.00     0.062 A 
ATOM     17  C   UNL     1     172.477 173.527 179.817  1.00  0.00     0.158 A 
BRANCH  15  18
ATOM     18  O   UNL     1     173.748 171.984 181.189  1.00  0.00    -0.504 OA
ATOM     19  H   UNL     1     173.388 171.036 181.187  1.00  0.00     0.293 HD
ENDBRANCH  15  18
BRANCH  17  20
ATOM     20  O   UNL     1     171.386 173.446 180.681  1.00  0.00    -0.504 OA
ATOM     21  H   UNL     1     170.635 172.781 180.539  1.00  0.00     0.293 HD
ENDBRANCH  17  20
ENDBRANCH   1  12
BRANCH   6  22
ATOM     22  O   UNL     1     173.588 178.121 172.235  1.00  0.00    -0.507 OA
ATOM     23  H   UNL     1     174.583 178.226 172.353  1.00  0.00     0.293 HD
ENDBRANCH   6  22
BRANCH   8  24
ATOM     24  O   UNL     1     169.126 178.638 173.931  1.00  0.00    -0.508 OA
ATOM     25  H   UNL     1     168.847 179.461 174.450  1.00  0.00     0.293 HD
ENDBRANCH   8  24
TORSDOF 5
ENDMDL
MODEL 2
REMARK VINA RESULT:    -6.430      1.469      6.645
REMARK INTER + INTRA:          -7.875
REMARK INTER:                  -7.558
REMARK INTRA:                  -0.317
REMARK UNBOUND:                -0.318
REMARK SMILES O=c1cc(-c2ccc(O)c(O)c2)oc2cc(O)cc(O)c12
REMARK SMILES IDX 4 1 3 2 2 3 1 4 21 5 19 6 18 7 16 8 15 9 14 10 13 11 5 12
REMARK SMILES IDX 6 13 7 14 8 15 12 16 10 17 9 18 11 20 20 22 17 24
REMARK H PARENT 9 19 11 21 20 23 17 25
REMARK Flexibility Score: inf
ROOT
ATOM      1  C   UNL     1     172.721 175.796 176.086  1.00  0.00     0.138 A 
ATOM      2  C   UNL     1     174.036 175.493 175.706  1.00  0.00     0.100 A 
ATOM      3  C   UNL     1     174.815 174.665 176.514  1.00  0.00     0.197 A 
ATOM      4  O   UNL     1     175.971 174.368 176.117  1.00  0.00    -0.289 OA
ATOM      5  C   UNL     1     174.286 174.167 177.728  1.00  0.00     0.107 A 
ATOM      6  C   UNL     1     175.000 173.343 178.651  1.00  0.00     0.134 A 
ATOM      7  C   UNL     1     174.337 172.829 179.772  1.00  0.00     0.093 A 
ATOM      8  C   UNL     1     173.006 173.158 180.037  1.00  0.00     0.123 A 
ATOM      9  C   UNL     1     172.315 174.002 179.170  1.00  0.00     0.094 A 
ATOM     10  C   UNL     1     172.938 174.502 178.024  1.00  0.00     0.146 A 
ATOM     11  O   UNL     1     172.237 175.290 177.215  1.00  0.00    -0.456 OA
ENDROOT
BRANCH   1  12
ATOM     12  C   UNL     1     171.849 176.674 175.266  1.00  0.00     0.021 A 
ATOM     13  C   UNL     1     172.353 177.408 174.175  1.00  0.00     0.016 A 
ATOM     14  C   UNL     1     171.505 178.219 173.414  1.00  0.00     0.051 A 
ATOM     15  C   UNL     1     170.142 178.305 173.724  1.00  0.00     0.157 A 
ATOM     16  C   UNL     1     170.476 176.756 175.561  1.00  0.00     0.062 A 
ATOM     17  C   UNL     1     169.626 177.568 174.802  1.00  0.00     0.158 A 
BRANCH  15  18
ATOM     18  O   UNL     1     169.301 179.116 172.964  1.00  0.00    -0.504 OA
ATOM     19  H   UNL     1     168.336 178.861 172.786  1.00  0.00     0.293 HD
ENDBRANCH  15  18
BRANCH  17  20
ATOM     20  O   UNL     1     168.272 177.628 175.134  1.00  0.00    -0.504 OA
ATOM     21  H   UNL     1     167.923 177.312 176.031  1.00  0.00     0.293 HD
ENDBRANCH  17  20
ENDBRANCH   1  12
BRANCH   6  22
ATOM     22  O   UNL     1     176.354 173.018 178.526  1.00  0.00    -0.507 OA
ATOM     23  H   UNL     1     177.077 173.653 178.228  1.00  0.00     0.293 HD
ENDBRANCH   6  22
BRANCH   8  24
ATOM     24  O   UNL     1     172.360 172.654 181.164  1.00  0.00    -0.508 OA
ATOM     25  H   UNL     1     172.614 171.760 181.565  1.00  0.00     0.293 HD
ENDBRANCH   8  24
TORSDOF 5
ENDMDL
MODEL 3
REMARK VINA RESULT:    -6.386      4.865      7.374
REMARK INTER + INTRA:          -7.824
REMARK INTER:                  -7.508
REMARK INTRA:                  -0.316
REMARK UNBOUND:                -0.318
REMARK SMILES O=c1cc(-c2ccc(O)c(O)c2)oc2cc(O)cc(O)c12
REMARK SMILES IDX 4 1 3 2 2 3 1 4 21 5 19 6 18 7 16 8 15 9 14 10 13 11 5 12
REMARK SMILES IDX 6 13 7 14 8 15 12 16 10 17 9 18 11 20 20 22 17 24
REMARK H PARENT 9 19 11 21 20 23 17 25
REMARK Flexibility Score: inf
ROOT
ATOM      1  C   UNL     1     173.661 170.606 176.058  1.00  0.00     0.138 A 
ATOM      2  C   UNL     1     172.345 170.902 175.675  1.00  0.00     0.100 A 
ATOM      3  C   UNL     1     171.560 171.726 176.481  1.00  0.00     0.197 A 
ATOM      4  O   UNL     1     170.403 172.018 176.081  1.00  0.00    -0.289 OA
ATOM      5  C   UNL     1     172.083 172.226 177.697  1.00  0.00     0.107 A 
ATOM      6  C   UNL     1     171.363 173.047 178.618  1.00  0.00     0.134 A 
ATOM      7  C   UNL     1     172.020 173.564 179.741  1.00  0.00     0.093 A 
ATOM      8  C   UNL     1     173.352 173.241 180.009  1.00  0.00     0.123 A 
ATOM      9  C   UNL     1     174.049 172.401 179.144  1.00  0.00     0.094 A 
ATOM     10  C   UNL     1     173.432 171.898 177.996  1.00  0.00     0.146 A 
ATOM     11  O   UNL     1     174.139 171.114 177.189  1.00  0.00    -0.456 OA
ENDROOT
BRANCH   1  12
ATOM     12  C   UNL     1     174.539 169.732 175.240  1.00  0.00     0.021 A 
ATOM     13  C   UNL     1     174.036 168.975 174.165  1.00  0.00     0.016 A 
ATOM     14  C   UNL     1     174.890 168.169 173.406  1.00  0.00     0.051 A 
ATOM     15  C   UNL     1     176.257 168.111 173.701  1.00  0.00     0.157 A 
ATOM     16  C   UNL     1     175.917 169.679 175.521  1.00  0.00     0.062 A 
ATOM     17  C   UNL     1     176.772 168.871 174.764  1.00  0.00     0.158 A 
BRANCH  15  18
ATOM     18  O   UNL     1     177.105 167.305 172.943  1.00  0.00    -0.504 OA
ATOM     19  H   UNL     1     177.448 167.599 172.036  1.00  0.00     0.293 HD
ENDBRANCH  15  18
BRANCH  17  20
ATOM     20  O   UNL     1     178.130 168.839 175.081  1.00  0.00    -0.504 OA
ATOM     21  H   UNL     1     178.838 168.604 174.396  1.00  0.00     0.293 HD
ENDBRANCH  17  20
ENDBRANCH   1  12
BRANCH   6  22
ATOM     22  O   UNL     1     170.007 173.366 178.489  1.00  0.00    -0.507 OA
ATOM     23  H   UNL     1     169.351 173.424 179.251  1.00  0.00     0.293 HD
ENDBRANCH   6  22
BRANCH   8  24
ATOM     24  O   UNL     1     173.992 173.748 181.139  1.00  0.00    -0.508 OA
ATOM     25  H   UNL     1     174.699 173.215 181.631  1.00  0.00     0.293 HD
ENDBRANCH   8  24
TORSDOF 5
ENDMDL
MODEL 4
REMARK VINA RESULT:    -6.376      5.136      7.105
REMARK INTER + INTRA:          -7.812
REMARK INTER:                  -7.495
REMARK INTRA:                  -0.318
REMARK UNBOUND:                -0.318
REMARK SMILES O=c1cc(-c2ccc(O)c(O)c2)oc2cc(O)cc(O)c12
REMARK SMILES IDX 4 1 3 2 2 3 1 4 21 5 19 6 18 7 16 8 15 9 14 10 13 11 5 12
REMARK SMILES IDX 6 13 7 14 8 15 12 16 10 17 9 18 11 20 20 22 17 24
REMARK H PARENT 9 19 11 21 20 23 17 25
REMARK Flexibility Score: inf
ROOT
ATOM      1  C   UNL     1     173.041 171.084 176.619  1.00  0.00     0.138 A 
ATOM      2  C   UNL     1     171.972 170.847 175.744  1.00  0.00     0.100 A 
ATOM      3  C   UNL     1     172.159 170.028 174.630  1.00  0.00     0.197 A 
ATOM      4  O   UNL     1     171.165 169.790 173.896  1.00  0.00    -0.289 OA
ATOM      5  C   UNL     1     173.434 169.473 174.371  1.00  0.00     0.107 A 
ATOM      6  C   UNL     1     173.752 168.652 173.247  1.00  0.00     0.134 A 
ATOM      7  C   UNL     1     175.026 168.078 173.150  1.00  0.00     0.093 A 
ATOM      8  C   UNL     1     176.011 168.344 174.103  1.00  0.00     0.123 A 
ATOM      9  C   UNL     1     175.727 169.184 175.178  1.00  0.00     0.094 A 
ATOM     10  C   UNL     1     174.455 169.743 175.321  1.00  0.00     0.146 A 
ATOM     11  O   UNL     1     174.221 170.525 176.370  1.00  0.00    -0.456 OA
ENDROOT
BRANCH   1  12
ATOM     12  C   UNL     1     172.900 171.949 177.817  1.00  0.00     0.021 A 
ATOM     13  C   UNL     1     171.722 172.680 178.067  1.00  0.00     0.016 A 
ATOM     14  C   UNL     1     171.614 173.478 179.209  1.00  0.00     0.051 A 
ATOM     15  C   UNL     1     172.672 173.555 180.123  1.00  0.00     0.157 A 
ATOM     16  C   UNL     1     173.953 172.021 178.747  1.00  0.00     0.062 A 
ATOM     17  C   UNL     1     173.847 172.821 179.890  1.00  0.00     0.158 A 
BRANCH  15  18
ATOM     18  O   UNL     1     172.561 174.354 181.260  1.00  0.00    -0.504 OA
ATOM     19  H   UNL     1     172.330 173.960 182.165  1.00  0.00     0.293 HD
ENDBRANCH  15  18
BRANCH  17  20
ATOM     20  O   UNL     1     174.918 172.872 180.782  1.00  0.00    -0.504 OA
ATOM     21  H   UNL     1     175.180 172.079 181.355  1.00  0.00     0.293 HD
ENDBRANCH  17  20
ENDBRANCH   1  12
BRANCH   6  22
ATOM     22  O   UNL     1     172.870 168.387 172.195  1.00  0.00    -0.507 OA
ATOM     23  H   UNL     1     172.296 167.562 172.114  1.00  0.00     0.293 HD
ENDBRANCH   6  22
BRANCH   8  24
ATOM     24  O   UNL     1     177.281 167.781 173.989  1.00  0.00    -0.508 OA
ATOM     25  H   UNL     1     177.571 167.293 173.151  1.00  0.00     0.293 HD
ENDBRANCH   8  24
TORSDOF 5
ENDMDL
MODEL 5
REMARK VINA RESULT:    -6.106      4.619      6.196
REMARK INTER + INTRA:          -7.494
REMARK INTER:                  -7.229
REMARK INTRA:                  -0.265
REMARK UNBOUND:                -0.318
REMARK SMILES O=c1cc(-c2ccc(O)c(O)c2)oc2cc(O)cc(O)c12
REMARK SMILES IDX 4 1 3 2 2 3 1 4 21 5 19 6 18 7 16 8 15 9 14 10 13 11 5 12
REMARK SMILES IDX 6 13 7 14 8 15 12 16 10 17 9 18 11 20 20 22 17 24
REMARK H PARENT 9 19 11 21 20 23 17 25
REMARK Flexibility Score: inf
ROOT
ATOM      1  C   UNL     1     173.957 171.522 176.843  1.00  0.00     0.138 A 
ATOM      2  C   UNL     1     173.723 170.173 176.541  1.00  0.00     0.100 A 
ATOM      3  C   UNL     1     174.306 169.607 175.407  1.00  0.00     0.197 A 
ATOM      4  O   UNL     1     174.122 168.381 175.195  1.00  0.00    -0.289 OA
ATOM      5  C   UNL     1     175.099 170.407 174.550  1.00  0.00     0.107 A 
ATOM      6  C   UNL     1     175.715 169.948 173.346  1.00  0.00     0.134 A 
ATOM      7  C   UNL     1     176.559 170.808 172.633  1.00  0.00     0.093 A 
ATOM      8  C   UNL     1     176.761 172.126 173.045  1.00  0.00     0.123 A 
ATOM      9  C   UNL     1     176.125 172.600 174.190  1.00  0.00     0.094 A 
ATOM     10  C   UNL     1     175.305 171.756 174.943  1.00  0.00     0.146 A 
ATOM     11  O   UNL     1     174.731 172.243 176.038  1.00  0.00    -0.456 OA
ENDROOT
BRANCH   1  12
ATOM     12  C   UNL     1     173.360 172.175 178.034  1.00  0.00     0.021 A 
ATOM     13  C   UNL     1     172.041 172.670 178.024  1.00  0.00     0.016 A 
ATOM     14  C   UNL     1     171.502 173.272 179.164  1.00  0.00     0.051 A 
ATOM     15  C   UNL     1     172.264 173.383 180.334  1.00  0.00     0.157 A 
ATOM     16  C   UNL     1     174.113 172.279 179.217  1.00  0.00     0.062 A 
ATOM     17  C   UNL     1     173.576 172.883 180.359  1.00  0.00     0.158 A 
BRANCH  15  18
ATOM     18  O   UNL     1     171.723 173.986 181.468  1.00  0.00    -0.504 OA
ATOM     19  H   UNL     1     172.207 173.971 182.359  1.00  0.00     0.293 HD
ENDBRANCH  15  18
BRANCH  17  20
ATOM     20  O   UNL     1     174.360 172.974 181.509  1.00  0.00    -0.504 OA
ATOM     21  H   UNL     1     174.323 172.276 182.243  1.00  0.00     0.293 HD
ENDBRANCH  17  20
ENDBRANCH   1  12
BRANCH   6  22
ATOM     22  O   UNL     1     175.517 168.676 172.800  1.00  0.00    -0.507 OA
ATOM     23  H   UNL     1     175.597 167.809 173.307  1.00  0.00     0.293 HD
ENDBRANCH   6  22
BRANCH   8  24
ATOM     24  O   UNL     1     177.590 172.979 172.318  1.00  0.00    -0.508 OA
ATOM     25  H   UNL     1     177.712 172.875 171.318  1.00  0.00     0.293 HD
ENDBRANCH   8  24
TORSDOF 5
ENDMDL
MODEL 6
REMARK VINA RESULT:    -6.099      2.153      2.434
REMARK INTER + INTRA:          -7.486
REMARK INTER:                  -7.221
REMARK INTRA:                  -0.265
REMARK UNBOUND:                -0.318
REMARK SMILES O=c1cc(-c2ccc(O)c(O)c2)oc2cc(O)cc(O)c12
REMARK SMILES IDX 4 1 3 2 2 3 1 4 21 5 19 6 18 7 16 8 15 9 14 10 13 11 5 12
REMARK SMILES IDX 6 13 7 14 8 15 12 16 10 17 9 18 11 20 20 22 17 24
REMARK H PARENT 9 19 11 21 20 23 17 25
REMARK Flexibility Score: inf
ROOT
ATOM      1  C   UNL     1     172.414 174.853 176.863  1.00  0.00     0.138 A 
ATOM      2  C   UNL     1     172.637 176.205 176.566  1.00  0.00     0.100 A 
ATOM      3  C   UNL     1     172.067 176.764 175.421  1.00  0.00     0.197 A 
ATOM      4  O   UNL     1     172.241 177.993 175.213  1.00  0.00    -0.289 OA
ATOM      5  C   UNL     1     171.299 175.955 174.551  1.00  0.00     0.107 A 
ATOM      6  C   UNL     1     170.699 176.407 173.336  1.00  0.00     0.134 A 
ATOM      7  C   UNL     1     169.877 175.537 172.608  1.00  0.00     0.093 A 
ATOM      8  C   UNL     1     169.684 174.216 173.017  1.00  0.00     0.123 A 
ATOM      9  C   UNL     1     170.306 173.750 174.173  1.00  0.00     0.094 A 
ATOM     10  C   UNL     1     171.102 174.603 174.941  1.00  0.00     0.146 A 
ATOM     11  O   UNL     1     171.663 174.123 176.045  1.00  0.00    -0.456 OA
ENDROOT
BRANCH   1  12
ATOM     12  C   UNL     1     172.998 174.206 178.065  1.00  0.00     0.021 A 
ATOM     13  C   UNL     1     174.325 173.735 178.080  1.00  0.00     0.016 A 
ATOM     14  C   UNL     1     174.852 173.140 179.230  1.00  0.00     0.051 A 
ATOM     15  C   UNL     1     174.068 173.011 180.383  1.00  0.00     0.157 A 
ATOM     16  C   UNL     1     172.222 174.085 179.232  1.00  0.00     0.062 A 
ATOM     17  C   UNL     1     172.747 173.487 180.383  1.00  0.00     0.158 A 
BRANCH  15  18
ATOM     18  O   UNL     1     174.596 172.414 181.527  1.00  0.00    -0.504 OA
ATOM     19  H   UNL     1     174.144 171.622 181.970  1.00  0.00     0.293 HD
ENDBRANCH  15  18
BRANCH  17  20
ATOM     20  O   UNL     1     171.941 173.378 181.516  1.00  0.00    -0.504 OA
ATOM     21  H   UNL     1     170.931 173.441 181.467  1.00  0.00     0.293 HD
ENDBRANCH  17  20
ENDBRANCH   1  12
BRANCH   6  22
ATOM     22  O   UNL     1     170.891 177.682 172.794  1.00  0.00    -0.507 OA
ATOM     23  H   UNL     1     170.408 178.048 171.989  1.00  0.00     0.293 HD
ENDBRANCH   6  22
BRANCH   8  24
ATOM     24  O   UNL     1     168.878 173.354 172.276  1.00  0.00    -0.508 OA
ATOM     25  H   UNL     1     169.227 172.876 171.455  1.00  0.00     0.293 HD
ENDBRANCH   8  24
TORSDOF 5
ENDMDL
MODEL 7
REMARK VINA RESULT:    -6.095      1.433      2.825
REMARK INTER + INTRA:          -7.481
REMARK INTER:                  -7.190
REMARK INTRA:                  -0.291
REMARK UNBOUND:                -0.318
REMARK SMILES O=c1cc(-c2ccc(O)c(O)c2)oc2cc(O)cc(O)c12
REMARK SMILES IDX 4 1 3 2 2 3 1 4 21 5 19 6 18 7 16 8 15 9 14 10 13 11 5 12
REMARK SMILES IDX 6 13 7 14 8 15 12 16 10 17 9 18 11 20 20 22 17 24
REMARK H PARENT 9 19 11 21 20 23 17 25
REMARK Flexibility Score: inf
ROOT
ATOM      1  C   UNL     1     173.296 175.126 176.974  1.00  0.00     0.138 A 
ATOM      2  C   UNL     1     172.361 176.166 176.886  1.00  0.00     0.100 A 
ATOM      3  C   UNL     1     172.292 176.937 175.725  1.00  0.00     0.197 A 
ATOM      4  O   UNL     1     171.404 177.827 175.656  1.00  0.00    -0.289 OA
ATOM      5  C   UNL     1     173.188 176.686 174.660  1.00  0.00     0.107 A 
ATOM      6  C   UNL     1     173.234 177.430 173.441  1.00  0.00     0.134 A 
ATOM      7  C   UNL     1     174.100 177.024 172.418  1.00  0.00     0.093 A 
ATOM      8  C   UNL     1     174.964 175.941 172.591  1.00  0.00     0.123 A 
ATOM      9  C   UNL     1     174.963 175.240 173.795  1.00  0.00     0.094 A 
ATOM     10  C   UNL     1     174.086 175.597 174.821  1.00  0.00     0.146 A 
ATOM     11  O   UNL     1     174.106 174.891 175.946  1.00  0.00    -0.456 OA
ENDROOT
BRANCH   1  12
ATOM     12  C   UNL     1     173.415 174.277 178.186  1.00  0.00     0.021 A 
ATOM     13  C   UNL     1     174.567 173.506 178.439  1.00  0.00     0.016 A 
ATOM     14  C   UNL     1     174.655 172.725 179.595  1.00  0.00     0.051 A 
ATOM     15  C   UNL     1     173.603 172.705 180.518  1.00  0.00     0.157 A 
ATOM     16  C   UNL     1     172.369 174.262 179.126  1.00  0.00     0.062 A 
ATOM     17  C   UNL     1     172.455 173.479 180.282  1.00  0.00     0.158 A 
BRANCH  15  18
ATOM     18  O   UNL     1     173.695 171.923 181.669  1.00  0.00    -0.504 OA
ATOM     19  H   UNL     1     173.860 170.924 181.620  1.00  0.00     0.293 HD
ENDBRANCH  15  18
BRANCH  17  20
ATOM     20  O   UNL     1     171.392 173.485 181.185  1.00  0.00    -0.504 OA
ATOM     21  H   UNL     1     171.397 174.058 182.020  1.00  0.00     0.293 HD
ENDBRANCH  17  20
ENDBRANCH   1  12
BRANCH   6  22
ATOM     22  O   UNL     1     172.473 178.577 173.194  1.00  0.00    -0.507 OA
ATOM     23  H   UNL     1     171.470 178.633 173.268  1.00  0.00     0.293 HD
ENDBRANCH   6  22
BRANCH   8  24
ATOM     24  O   UNL     1     175.833 175.555 171.573  1.00  0.00    -0.508 OA
ATOM     25  H   UNL     1     175.552 175.573 170.600  1.00  0.00     0.293 HD
ENDBRANCH   8  24
TORSDOF 5
ENDMDL
MODEL 8
REMARK VINA RESULT:    -6.006      4.914      5.832
REMARK INTER + INTRA:          -7.377
REMARK INTER:                  -7.091
REMARK INTRA:                  -0.286
REMARK UNBOUND:                -0.318
REMARK SMILES O=c1cc(-c2ccc(O)c(O)c2)oc2cc(O)cc(O)c12
REMARK SMILES IDX 4 1 3 2 2 3 1 4 21 5 19 6 18 7 16 8 15 9 14 10 13 11 5 12
REMARK SMILES IDX 6 13 7 14 8 15 12 16 10 17 9 18 11 20 20 22 17 24
REMARK H PARENT 9 19 11 21 20 23 17 25
REMARK Flexibility Score: inf
ROOT
ATOM      1  C   UNL     1     173.446 171.694 176.841  1.00  0.00     0.138 A 
ATOM      2  C   UNL     1     174.737 171.654 176.298  1.00  0.00     0.100 A 
ATOM      3  C   UNL     1     174.950 171.031 175.068  1.00  0.00     0.197 A 
ATOM      4  O   UNL     1     176.110 171.061 174.581  1.00  0.00    -0.289 OA
ATOM      5  C   UNL     1     173.869 170.414 174.395  1.00  0.00     0.107 A 
ATOM      6  C   UNL     1     173.973 169.719 173.151  1.00  0.00     0.134 A 
ATOM      7  C   UNL     1     172.813 169.236 172.533  1.00  0.00     0.093 A 
ATOM      8  C   UNL     1     171.563 169.367 173.141  1.00  0.00     0.123 A 
ATOM      9  C   UNL     1     171.457 169.999 174.378  1.00  0.00     0.094 A 
ATOM     10  C   UNL     1     172.590 170.524 175.004  1.00  0.00     0.146 A 
ATOM     11  O   UNL     1     172.442 171.134 176.174  1.00  0.00    -0.456 OA
ENDROOT
BRANCH   1  12
ATOM     12  C   UNL     1     173.163 172.339 178.148  1.00  0.00     0.021 A 
ATOM     13  C   UNL     1     171.907 172.907 178.437  1.00  0.00     0.016 A 
ATOM     14  C   UNL     1     171.666 173.499 179.680  1.00  0.00     0.051 A 
ATOM     15  C   UNL     1     172.670 173.527 180.656  1.00  0.00     0.157 A 
ATOM     16  C   UNL     1     174.160 172.361 179.140  1.00  0.00     0.062 A 
ATOM     17  C   UNL     1     173.922 172.954 180.384  1.00  0.00     0.158 A 
BRANCH  15  18
ATOM     18  O   UNL     1     172.426 174.120 181.894  1.00  0.00    -0.504 OA
ATOM     19  H   UNL     1     173.142 174.168 182.611  1.00  0.00     0.293 HD
ENDBRANCH  15  18
BRANCH  17  20
ATOM     20  O   UNL     1     174.941 172.962 181.337  1.00  0.00    -0.504 OA
ATOM     21  H   UNL     1     174.750 172.915 182.330  1.00  0.00     0.293 HD
ENDBRANCH  17  20
ENDBRANCH   1  12
BRANCH   6  22
ATOM     22  O   UNL     1     175.181 169.461 172.497  1.00  0.00    -0.507 OA
ATOM     23  H   UNL     1     175.300 169.416 171.497  1.00  0.00     0.293 HD
ENDBRANCH   6  22
BRANCH   8  24
ATOM     24  O   UNL     1     170.417 168.868 172.525  1.00  0.00    -0.508 OA
ATOM     25  H   UNL     1     169.792 168.231 173.005  1.00  0.00     0.293 HD
ENDBRANCH   8  24
TORSDOF 5
ENDMDL
MODEL 9
REMARK VINA RESULT:    -5.911      2.691      3.127
REMARK INTER + INTRA:          -7.265
REMARK INTER:                  -6.992
REMARK INTRA:                  -0.274
REMARK UNBOUND:                -0.318
REMARK SMILES O=c1cc(-c2ccc(O)c(O)c2)oc2cc(O)cc(O)c12
REMARK SMILES IDX 4 1 3 2 2 3 1 4 21 5 19 6 18 7 16 8 15 9 14 10 13 11 5 12
REMARK SMILES IDX 6 13 7 14 8 15 12 16 10 17 9 18 11 20 20 22 17 24
REMARK H PARENT 9 19 11 21 20 23 17 25
REMARK Flexibility Score: inf
ROOT
ATOM      1  C   UNL     1     172.089 173.390 176.587  1.00  0.00     0.138 A 
ATOM      2  C   UNL     1     172.034 172.326 175.675  1.00  0.00     0.100 A 
ATOM      3  C   UNL     1     171.346 172.483 174.471  1.00  0.00     0.197 A 
ATOM      4  O   UNL     1     171.363 171.529 173.651  1.00  0.00    -0.289 OA
ATOM      5  C   UNL     1     170.678 173.700 174.196  1.00  0.00     0.107 A 
ATOM      6  C   UNL     1     169.916 173.962 173.017  1.00  0.00     0.134 A 
ATOM      7  C   UNL     1     169.384 175.240 172.810  1.00  0.00     0.093 A 
ATOM      8  C   UNL     1     169.534 176.247 173.766  1.00  0.00     0.123 A 
ATOM      9  C   UNL     1     170.233 175.988 174.942  1.00  0.00     0.094 A 
ATOM     10  C   UNL     1     170.806 174.733 175.162  1.00  0.00     0.146 A 
ATOM     11  O   UNL     1     171.480 174.533 176.290  1.00  0.00    -0.456 OA
ENDROOT
BRANCH   1  12
ATOM     12  C   UNL     1     172.803 173.277 177.883  1.00  0.00     0.021 A 
ATOM     13  C   UNL     1     174.201 173.119 177.946  1.00  0.00     0.016 A 
ATOM     14  C   UNL     1     174.848 173.026 179.182  1.00  0.00     0.051 A 
ATOM     15  C   UNL     1     174.113 173.097 180.372  1.00  0.00     0.157 A 
ATOM     16  C   UNL     1     172.075 173.361 179.084  1.00  0.00     0.062 A 
ATOM     17  C   UNL     1     172.720 173.267 180.322  1.00  0.00     0.158 A 
BRANCH  15  18
ATOM     18  O   UNL     1     174.762 173.002 181.603  1.00  0.00    -0.504 OA
ATOM     19  H   UNL     1     174.989 173.826 182.149  1.00  0.00     0.293 HD
ENDBRANCH  15  18
BRANCH  17  20
ATOM     20  O   UNL     1     171.961 173.345 181.489  1.00  0.00    -0.504 OA
ATOM     21  H   UNL     1     172.375 173.562 182.387  1.00  0.00     0.293 HD
ENDBRANCH  17  20
ENDBRANCH   1  12
BRANCH   6  22
ATOM     22  O   UNL     1     169.636 173.005 172.036  1.00  0.00    -0.507 OA
ATOM     23  H   UNL     1     170.183 172.177 171.861  1.00  0.00     0.293 HD
ENDBRANCH   6  22
BRANCH   8  24
ATOM     24  O   UNL     1     168.986 177.512 173.558  1.00  0.00    -0.508 OA
ATOM     25  H   UNL     1     169.450 178.351 173.884  1.00  0.00     0.293 HD
ENDBRANCH   8  24
TORSDOF 5
ENDMDL
