MODEL 1
REMARK VINA RESULT:    23.656      0.000      0.000
REMARK INTER + INTRA:          30.633
REMARK INTER:                  31.262
REMARK INTRA:                  -0.629
REMARK UNBOUND:                -0.629
REMARK SMILES CC[C@H](C=C[C@@H](C)[C@H]1CC[C@H]2[C@@H]3CC=C4C[C@H](O)CC[C@]4(C)[C@H]3CC[C@]12C)C(C)C
REMARK SMILES IDX 6 1 7 2 5 3 4 4 3 5 2 6 1 7 28 8 29 9 30 10 8 11 9 12 26 13
REMARK SMILES IDX 10 14 11 15 25 16 27 17 12 18 24 19 23 20 13 21 21 22 14 23
REMARK SMILES IDX 15 24 20 25 22 26 16 27 19 28 17 29 18 30
REMARK H PARENT 18 31
REMARK Flexibility Score: inf
ROOT
ATOM      1  C   UNL     1      20.833  41.396  26.831  1.00  0.00     0.012 C 
ATOM      2  C   UNL     1      21.216  39.926  26.589  1.00  0.00     0.012 C 
ENDROOT
BRANCH   1   3
ATOM      3  C   UNL     1      21.913  42.331  26.304  1.00  0.00    -0.028 C 
ATOM      4  C   UNL     1      21.732  43.170  25.266  1.00  0.00    -0.027 C 
BRANCH   4   5
ATOM      5  C   UNL     1      22.738  44.233  24.852  1.00  0.00     0.014 C 
BRANCH   5   6
ATOM      6  C   UNL     1      23.111  44.137  23.351  1.00  0.00     0.004 C 
ATOM      7  C   UNL     1      22.701  42.796  22.738  1.00  0.00     0.004 C 
ENDBRANCH   5   6
BRANCH   5   8
ATOM      8  C   UNL     1      22.360  45.683  25.287  1.00  0.00    -0.011 C 
ATOM      9  C   UNL     1      22.726  46.712  24.208  1.00  0.00     0.008 C 
ATOM     10  C   UNL     1      22.926  46.116  26.649  1.00  0.00     0.008 C 
ENDBRANCH   5   8
ENDBRANCH   4   5
ENDBRANCH   1   3
BRANCH   1  11
ATOM     11  C   UNL     1      20.369  41.622  28.309  1.00  0.00     0.002 C 
ATOM     12  C   UNL     1      20.326  40.380  29.234  1.00  0.00     0.005 C 
ATOM     13  C   UNL     1      21.117  42.693  29.144  1.00  0.00    -0.026 C 
ATOM     14  C   UNL     1      20.527  40.900  30.670  1.00  0.00     0.005 C 
ATOM     15  C   UNL     1      20.512  42.418  30.529  1.00  0.00    -0.001 C 
ATOM     16  C   UNL     1      20.779  44.158  28.779  1.00  0.00     0.007 C 
ATOM     17  C   UNL     1      22.658  42.464  29.086  1.00  0.00     0.012 C 
ATOM     18  C   UNL     1      21.137  43.276  31.649  1.00  0.00     0.000 C 
ATOM     19  C   UNL     1      21.338  45.140  29.835  1.00  0.00     0.005 C 
ATOM     20  C   UNL     1      20.926  44.784  31.304  1.00  0.00     0.003 C 
ATOM     21  C   UNL     1      20.468  42.967  32.995  1.00  0.00     0.031 C 
ATOM     22  C   UNL     1      21.574  45.720  32.398  1.00  0.00    -0.008 C 
ATOM     23  C   UNL     1      20.835  43.956  34.064  1.00  0.00    -0.027 C 
ATOM     24  C   UNL     1      21.211  45.230  33.812  1.00  0.00    -0.065 C 
ATOM     25  C   UNL     1      21.023  47.168  32.211  1.00  0.00     0.014 C 
ATOM     26  C   UNL     1      23.123  45.741  32.279  1.00  0.00     0.016 C 
ATOM     27  C   UNL     1      21.451  46.152  34.992  1.00  0.00     0.063 C 
ATOM     28  C   UNL     1      21.349  48.116  33.378  1.00  0.00     0.033 C 
ATOM     29  C   UNL     1      20.890  47.559  34.735  1.00  0.00     0.118 C 
BRANCH  29  30
ATOM     30  O   UNL     1      19.487  47.586  34.852  1.00  0.00    -0.393 OA
ATOM     31  H   UNL     1      19.257  47.881  35.770  1.00  0.00     0.210 HD
ENDBRANCH  29  30
ENDBRANCH   1  11
TORSDOF 6
ENDMDL
MODEL 2
REMARK VINA RESULT:    23.916      2.278      5.271
REMARK INTER + INTRA:          30.976
REMARK INTER:                  31.083
REMARK INTRA:                  -0.106
REMARK UNBOUND:                -0.629
REMARK SMILES CC[C@H](C=C[C@@H](C)[C@H]1CC[C@H]2[C@@H]3CC=C4C[C@H](O)CC[C@]4(C)[C@H]3CC[C@]12C)C(C)C
REMARK SMILES IDX 6 1 7 2 5 3 4 4 3 5 2 6 1 7 28 8 29 9 30 10 8 11 9 12 26 13
REMARK SMILES IDX 10 14 11 15 25 16 27 17 12 18 24 19 23 20 13 21 21 22 14 23
REMARK SMILES IDX 15 24 20 25 22 26 16 27 19 28 17 29 18 30
REMARK H PARENT 18 31
REMARK Flexibility Score: inf
ROOT
ATOM      1  C   UNL     1      21.086  40.025  27.429  1.00  0.00     0.012 C 
ATOM      2  C   UNL     1      21.382  39.828  25.933  1.00  0.00     0.012 C 
ENDROOT
BRANCH   1   3
ATOM      3  C   UNL     1      19.588  39.978  27.696  1.00  0.00    -0.028 C 
ATOM      4  C   UNL     1      19.015  39.144  28.585  1.00  0.00    -0.027 C 
BRANCH   4   5
ATOM      5  C   UNL     1      17.550  39.216  28.990  1.00  0.00     0.014 C 
BRANCH   5   6
ATOM      6  C   UNL     1      16.621  39.508  27.785  1.00  0.00     0.004 C 
ATOM      7  C   UNL     1      16.428  41.008  27.554  1.00  0.00     0.004 C 
ENDBRANCH   5   6
BRANCH   5   8
ATOM      8  C   UNL     1      17.060  38.010  29.851  1.00  0.00    -0.011 C 
ATOM      9  C   UNL     1      17.423  36.666  29.202  1.00  0.00     0.008 C 
ATOM     10  C   UNL     1      15.566  38.041  30.212  1.00  0.00     0.008 C 
ENDBRANCH   5   8
ENDBRANCH   4   5
ENDBRANCH   1   3
BRANCH   1  11
ATOM     11  C   UNL     1      21.863  41.260  27.999  1.00  0.00     0.002 C 
ATOM     12  C   UNL     1      22.416  42.282  26.975  1.00  0.00     0.005 C 
ATOM     13  C   UNL     1      21.147  42.135  29.061  1.00  0.00    -0.026 C 
ATOM     14  C   UNL     1      22.491  43.635  27.707  1.00  0.00     0.005 C 
ATOM     15  C   UNL     1      22.139  43.303  29.153  1.00  0.00    -0.001 C 
ATOM     16  C   UNL     1      21.051  41.502  30.469  1.00  0.00     0.007 C 
ATOM     17  C   UNL     1      19.733  42.562  28.563  1.00  0.00     0.012 C 
ATOM     18  C   UNL     1      21.660  44.439  30.082  1.00  0.00     0.000 C 
ATOM     19  C   UNL     1      20.590  42.542  31.517  1.00  0.00     0.005 C 
ATOM     20  C   UNL     1      21.440  43.858  31.514  1.00  0.00     0.003 C 
ATOM     21  C   UNL     1      22.709  45.556  30.145  1.00  0.00     0.031 C 
ATOM     22  C   UNL     1      20.916  44.965  32.509  1.00  0.00    -0.008 C 
ATOM     23  C   UNL     1      22.431  46.551  31.235  1.00  0.00    -0.027 C 
ATOM     24  C   UNL     1      21.736  46.260  32.357  1.00  0.00    -0.065 C 
ATOM     25  C   UNL     1      21.070  44.442  33.971  1.00  0.00     0.014 C 
ATOM     26  C   UNL     1      19.424  45.306  32.242  1.00  0.00     0.016 C 
ATOM     27  C   UNL     1      21.620  47.331  33.425  1.00  0.00     0.063 C 
ATOM     28  C   UNL     1      20.866  45.522  35.047  1.00  0.00     0.033 C 
ATOM     29  C   UNL     1      21.775  46.743  34.836  1.00  0.00     0.118 C 
BRANCH  29  30
ATOM     30  O   UNL     1      23.119  46.437  35.125  1.00  0.00    -0.393 OA
ATOM     31  H   UNL     1      23.491  45.923  34.364  1.00  0.00     0.210 HD
ENDBRANCH  29  30
ENDBRANCH   1  11
TORSDOF 6
ENDMDL
