MODEL 1
REMARK VINA RESULT:    19.858      0.000      0.000
REMARK INTER + INTRA:          49.033
REMARK INTER:                  50.042
REMARK INTRA:                  -1.009
REMARK UNBOUND:                -1.009
REMARK SMILES CCCCCCCCCCCCCCCCCCCCCCCCCCCC(=O)[O-]
REMARK SMILES IDX 15 1 16 2 17 3 18 4 19 5 20 6 21 7 22 8 23 9 24 10 25 11
REMARK SMILES IDX 26 12 27 13 28 14 29 15 30 16 14 17 13 18 12 19 11 20 10 21
REMARK SMILES IDX 9 22 8 23 7 24 6 25 5 26 4 27 3 28 2 29 1 30
REMARK H PARENT
REMARK Flexibility Score: inf
ROOT
ATOM      1  C   UNL     1       1.708   8.734  -6.312  1.00  0.00     0.000 C 
ENDROOT
BRANCH   1   2
ATOM      2  C   UNL     1       1.724   8.689  -7.848  1.00  0.00     0.000 C 
BRANCH   2   3
ATOM      3  C   UNL     1       0.487   7.990  -8.434  1.00  0.00     0.000 C 
BRANCH   3   4
ATOM      4  C   UNL     1      -0.346   8.911  -9.343  1.00  0.00     0.000 C 
BRANCH   4   5
ATOM      5  C   UNL     1      -1.102   8.162 -10.462  1.00  0.00     0.000 C 
BRANCH   5   6
ATOM      6  C   UNL     1      -0.149   7.371 -11.375  1.00  0.00     0.000 C 
BRANCH   6   7
ATOM      7  C   UNL     1      -0.550   7.446 -12.857  1.00  0.00     0.000 C 
BRANCH   7   8
ATOM      8  C   UNL     1       0.263   8.497 -13.634  1.00  0.00     0.000 C 
BRANCH   8   9
ATOM      9  C   UNL     1      -0.610   9.647 -14.173  1.00  0.00     0.000 C 
BRANCH   9  10
ATOM     10  C   UNL     1      -0.032  11.058 -13.958  1.00  0.00     0.000 C 
BRANCH  10  11
ATOM     11  C   UNL     1       1.344  11.248 -14.615  1.00  0.00     0.000 C 
BRANCH  11  12
ATOM     12  C   UNL     1       2.427  10.478 -13.849  1.00  0.00     0.006 C 
BRANCH  12  13
ATOM     13  C   UNL     1       2.684  11.110 -12.478  1.00  0.00     0.053 C 
BRANCH  13  14
ATOM     14  C   UNL     1       3.351  10.130 -11.566  1.00  0.00     0.041 C 
ATOM     15  O   UNL     1       3.264  10.265 -10.317  1.00  0.00    -0.550 OA
ATOM     16  O   UNL     1       4.028   9.040 -12.096  1.00  0.00    -0.550 OA
ENDBRANCH  13  14
ENDBRANCH  12  13
ENDBRANCH  11  12
ENDBRANCH  10  11
ENDBRANCH   9  10
ENDBRANCH   8   9
ENDBRANCH   7   8
ENDBRANCH   6   7
ENDBRANCH   5   6
ENDBRANCH   4   5
ENDBRANCH   3   4
ENDBRANCH   2   3
ENDBRANCH   1   2
BRANCH   1  17
ATOM     17  C   UNL     1       0.345   9.172  -5.745  1.00  0.00     0.000 C 
BRANCH  17  18
ATOM     18  C   UNL     1       0.180   8.822  -4.258  1.00  0.00     0.000 C 
BRANCH  18  19
ATOM     19  C   UNL     1       0.345   7.316  -3.986  1.00  0.00     0.000 C 
BRANCH  19  20
ATOM     20  C   UNL     1       1.367   7.033  -2.872  1.00  0.00     0.000 C 
BRANCH  20  21
ATOM     21  C   UNL     1       2.783   7.498  -3.245  1.00  0.00     0.000 C 
BRANCH  21  22
ATOM     22  C   UNL     1       3.749   7.321  -2.063  1.00  0.00    -0.000 C 
BRANCH  22  23
ATOM     23  C   UNL     1       4.992   8.217  -2.177  1.00  0.00    -0.000 C 
BRANCH  23  24
ATOM     24  C   UNL     1       6.306   7.418  -2.117  1.00  0.00    -0.000 C 
BRANCH  24  25
ATOM     25  C   UNL     1       6.113   5.943  -2.504  1.00  0.00    -0.000 C 
BRANCH  25  26
ATOM     26  C   UNL     1       5.662   5.766  -3.964  1.00  0.00    -0.000 C 
BRANCH  26  27
ATOM     27  C   UNL     1       5.624   4.290  -4.402  1.00  0.00    -0.000 C 
BRANCH  27  28
ATOM     28  C   UNL     1       6.990   3.690  -4.781  1.00  0.00    -0.000 C 
BRANCH  28  29
ATOM     29  C   UNL     1       7.256   2.334  -4.111  1.00  0.00    -0.003 C 
ATOM     30  C   UNL     1       7.266   2.463  -2.590  1.00  0.00     0.004 C 
ENDBRANCH  28  29
ENDBRANCH  27  28
ENDBRANCH  26  27
ENDBRANCH  25  26
ENDBRANCH  24  25
ENDBRANCH  23  24
ENDBRANCH  22  23
ENDBRANCH  21  22
ENDBRANCH  20  21
ENDBRANCH  19  20
ENDBRANCH  18  19
ENDBRANCH  17  18
ENDBRANCH   1  17
TORSDOF 26
ENDMDL
MODEL 2
REMARK VINA RESULT:    19.948      1.705      2.907
REMARK INTER + INTRA:          49.260
REMARK INTER:                  51.046
REMARK INTRA:                  -1.786
REMARK UNBOUND:                -1.009
REMARK SMILES CCCCCCCCCCCCCCCCCCCCCCCCCCCC(=O)[O-]
REMARK SMILES IDX 15 1 16 2 17 3 18 4 19 5 20 6 21 7 22 8 23 9 24 10 25 11
REMARK SMILES IDX 26 12 27 13 28 14 29 15 30 16 14 17 13 18 12 19 11 20 10 21
REMARK SMILES IDX 9 22 8 23 7 24 6 25 5 26 4 27 3 28 2 29 1 30
REMARK H PARENT
REMARK Flexibility Score: inf
ROOT
ATOM      1  C   UNL     1       0.879   9.137  -6.079  1.00  0.00     0.000 C 
ENDROOT
BRANCH   1   2
ATOM      2  C   UNL     1       1.048   8.162  -7.255  1.00  0.00     0.000 C 
BRANCH   2   3
ATOM      3  C   UNL     1       1.624   8.841  -8.508  1.00  0.00     0.000 C 
BRANCH   3   4
ATOM      4  C   UNL     1       3.134   9.118  -8.398  1.00  0.00     0.000 C 
BRANCH   4   5
ATOM      5  C   UNL     1       3.802   9.469  -9.745  1.00  0.00     0.000 C 
BRANCH   5   6
ATOM      6  C   UNL     1       2.833  10.185 -10.702  1.00  0.00     0.000 C 
BRANCH   6   7
ATOM      7  C   UNL     1       3.474  10.507 -12.062  1.00  0.00     0.000 C 
BRANCH   7   8
ATOM      8  C   UNL     1       2.711  11.604 -12.827  1.00  0.00     0.000 C 
BRANCH   8   9
ATOM      9  C   UNL     1       2.093  11.093 -14.142  1.00  0.00     0.000 C 
BRANCH   9  10
ATOM     10  C   UNL     1       0.568  11.275 -14.259  1.00  0.00     0.000 C 
BRANCH  10  11
ATOM     11  C   UNL     1      -0.197   9.943 -14.226  1.00  0.00     0.000 C 
BRANCH  11  12
ATOM     12  C   UNL     1       0.463   8.956 -13.256  1.00  0.00     0.006 C 
BRANCH  12  13
ATOM     13  C   UNL     1      -0.276   7.614 -13.249  1.00  0.00     0.053 C 
BRANCH  13  14
ATOM     14  C   UNL     1      -1.031   7.438 -11.970  1.00  0.00     0.041 C 
ATOM     15  O   UNL     1      -0.784   8.178 -10.981  1.00  0.00    -0.550 OA
ATOM     16  O   UNL     1      -2.040   6.489 -11.886  1.00  0.00    -0.550 OA
ENDBRANCH  13  14
ENDBRANCH  12  13
ENDBRANCH  11  12
ENDBRANCH  10  11
ENDBRANCH   9  10
ENDBRANCH   8   9
ENDBRANCH   7   8
ENDBRANCH   6   7
ENDBRANCH   5   6
ENDBRANCH   4   5
ENDBRANCH   3   4
ENDBRANCH   2   3
ENDBRANCH   1   2
BRANCH   1  17
ATOM     17  C   UNL     1      -0.287   8.750  -5.150  1.00  0.00     0.000 C 
BRANCH  17  18
ATOM     18  C   UNL     1      -0.052   9.176  -3.692  1.00  0.00     0.000 C 
BRANCH  18  19
ATOM     19  C   UNL     1       0.335   7.991  -2.788  1.00  0.00     0.000 C 
BRANCH  19  20
ATOM     20  C   UNL     1       0.677   6.728  -3.596  1.00  0.00     0.000 C 
BRANCH  20  21
ATOM     21  C   UNL     1       2.175   6.392  -3.553  1.00  0.00     0.000 C 
BRANCH  21  22
ATOM     22  C   UNL     1       3.011   7.642  -3.236  1.00  0.00    -0.000 C 
BRANCH  22  23
ATOM     23  C   UNL     1       3.836   7.489  -1.949  1.00  0.00    -0.000 C 
BRANCH  23  24
ATOM     24  C   UNL     1       5.302   7.920  -2.131  1.00  0.00    -0.000 C 
BRANCH  24  25
ATOM     25  C   UNL     1       6.215   6.745  -2.516  1.00  0.00    -0.000 C 
BRANCH  25  26
ATOM     26  C   UNL     1       5.427   5.479  -2.894  1.00  0.00    -0.000 C 
BRANCH  26  27
ATOM     27  C   UNL     1       5.815   4.926  -4.278  1.00  0.00    -0.000 C 
BRANCH  27  28
ATOM     28  C   UNL     1       6.839   3.776  -4.255  1.00  0.00    -0.000 C 
BRANCH  28  29
ATOM     29  C   UNL     1       6.926   3.078  -2.890  1.00  0.00    -0.003 C 
ATOM     30  C   UNL     1       7.271   1.600  -3.048  1.00  0.00     0.004 C 
ENDBRANCH  28  29
ENDBRANCH  27  28
ENDBRANCH  26  27
ENDBRANCH  25  26
ENDBRANCH  24  25
ENDBRANCH  23  24
ENDBRANCH  22  23
ENDBRANCH  21  22
ENDBRANCH  20  21
ENDBRANCH  19  20
ENDBRANCH  18  19
ENDBRANCH  17  18
ENDBRANCH   1  17
TORSDOF 26
ENDMDL
MODEL 3
REMARK VINA RESULT:    20.064      4.797      7.384
REMARK INTER + INTRA:          49.551
REMARK INTER:                  48.854
REMARK INTRA:                   0.697
REMARK UNBOUND:                -1.009
REMARK SMILES CCCCCCCCCCCCCCCCCCCCCCCCCCCC(=O)[O-]
REMARK SMILES IDX 15 1 16 2 17 3 18 4 19 5 20 6 21 7 22 8 23 9 24 10 25 11
REMARK SMILES IDX 26 12 27 13 28 14 29 15 30 16 14 17 13 18 12 19 11 20 10 21
REMARK SMILES IDX 9 22 8 23 7 24 6 25 5 26 4 27 3 28 2 29 1 30
REMARK H PARENT
REMARK Flexibility Score: inf
ROOT
ATOM      1  C   UNL     1       0.631   8.189  -5.927  1.00  0.00     0.000 C 
ENDROOT
BRANCH   1   2
ATOM      2  C   UNL     1       0.419   9.559  -5.263  1.00  0.00     0.000 C 
BRANCH   2   3
ATOM      3  C   UNL     1      -0.276   9.453  -3.896  1.00  0.00     0.000 C 
BRANCH   3   4
ATOM      4  C   UNL     1      -0.583  10.826  -3.273  1.00  0.00     0.000 C 
BRANCH   4   5
ATOM      5  C   UNL     1      -1.587  10.768  -2.102  1.00  0.00     0.000 C 
BRANCH   5   6
ATOM      6  C   UNL     1      -1.340  11.885  -1.072  1.00  0.00     0.000 C 
BRANCH   6   7
ATOM      7  C   UNL     1      -0.969  13.224  -1.729  1.00  0.00     0.000 C 
BRANCH   7   8
ATOM      8  C   UNL     1      -0.676  14.326  -0.694  1.00  0.00     0.000 C 
BRANCH   8   9
ATOM      9  C   UNL     1      -0.094  15.602  -1.330  1.00  0.00     0.000 C 
BRANCH   9  10
ATOM     10  C   UNL     1       1.443  15.695  -1.315  1.00  0.00     0.000 C 
BRANCH  10  11
ATOM     11  C   UNL     1       1.993  16.675  -2.363  1.00  0.00     0.000 C 
BRANCH  11  12
ATOM     12  C   UNL     1       1.467  16.332  -3.762  1.00  0.00     0.006 C 
BRANCH  12  13
ATOM     13  C   UNL     1       2.590  15.798  -4.656  1.00  0.00     0.053 C 
BRANCH  13  14
ATOM     14  C   UNL     1       2.049  14.821  -5.652  1.00  0.00     0.041 C 
ATOM     15  O   UNL     1       2.707  13.790  -5.951  1.00  0.00    -0.550 OA
ATOM     16  O   UNL     1       0.796  15.026  -6.212  1.00  0.00    -0.550 OA
ENDBRANCH  13  14
ENDBRANCH  12  13
ENDBRANCH  11  12
ENDBRANCH  10  11
ENDBRANCH   9  10
ENDBRANCH   8   9
ENDBRANCH   7   8
ENDBRANCH   6   7
ENDBRANCH   5   6
ENDBRANCH   4   5
ENDBRANCH   3   4
ENDBRANCH   2   3
ENDBRANCH   1   2
BRANCH   1  17
ATOM     17  C   UNL     1      -0.145   7.061  -5.222  1.00  0.00     0.000 C 
BRANCH  17  18
ATOM     18  C   UNL     1       0.744   6.215  -4.299  1.00  0.00     0.000 C 
BRANCH  18  19
ATOM     19  C   UNL     1       1.302   7.025  -3.115  1.00  0.00     0.000 C 
BRANCH  19  20
ATOM     20  C   UNL     1       2.728   7.537  -3.379  1.00  0.00     0.000 C 
BRANCH  20  21
ATOM     21  C   UNL     1       3.677   7.265  -2.201  1.00  0.00     0.000 C 
BRANCH  21  22
ATOM     22  C   UNL     1       4.920   8.165  -2.277  1.00  0.00    -0.000 C 
BRANCH  22  23
ATOM     23  C   UNL     1       6.188   7.465  -1.762  1.00  0.00    -0.000 C 
BRANCH  23  24
ATOM     24  C   UNL     1       6.513   6.180  -2.543  1.00  0.00    -0.000 C 
BRANCH  24  25
ATOM     25  C   UNL     1       5.293   5.627  -3.297  1.00  0.00    -0.000 C 
BRANCH  25  26
ATOM     26  C   UNL     1       5.682   4.677  -4.442  1.00  0.00    -0.000 C 
BRANCH  26  27
ATOM     27  C   UNL     1       6.991   3.914  -4.166  1.00  0.00    -0.000 C 
BRANCH  27  28
ATOM     28  C   UNL     1       6.946   2.965  -2.955  1.00  0.00    -0.000 C 
BRANCH  28  29
ATOM     29  C   UNL     1       7.054   1.484  -3.348  1.00  0.00    -0.003 C 
ATOM     30  C   UNL     1       6.989   1.311  -4.864  1.00  0.00     0.004 C 
ENDBRANCH  28  29
ENDBRANCH  27  28
ENDBRANCH  26  27
ENDBRANCH  25  26
ENDBRANCH  24  25
ENDBRANCH  23  24
ENDBRANCH  22  23
ENDBRANCH  21  22
ENDBRANCH  20  21
ENDBRANCH  19  20
ENDBRANCH  18  19
ENDBRANCH  17  18
ENDBRANCH   1  17
TORSDOF 26
ENDMDL
MODEL 4
REMARK VINA RESULT:    20.101      1.165      1.998
REMARK INTER + INTRA:          49.645
REMARK INTER:                  49.646
REMARK INTRA:                  -0.001
REMARK UNBOUND:                -1.009
REMARK SMILES CCCCCCCCCCCCCCCCCCCCCCCCCCCC(=O)[O-]
REMARK SMILES IDX 15 1 16 2 17 3 18 4 19 5 20 6 21 7 22 8 23 9 24 10 25 11
REMARK SMILES IDX 26 12 27 13 28 14 29 15 30 16 14 17 13 18 12 19 11 20 10 21
REMARK SMILES IDX 9 22 8 23 7 24 6 25 5 26 4 27 3 28 2 29 1 30
REMARK H PARENT
REMARK Flexibility Score: inf
ROOT
ATOM      1  C   UNL     1       0.146   9.781  -4.385  1.00  0.00     0.000 C 
ENDROOT
BRANCH   1   2
ATOM      2  C   UNL     1       0.136   9.247  -5.827  1.00  0.00     0.000 C 
BRANCH   2   3
ATOM      3  C   UNL     1       1.540   8.870  -6.328  1.00  0.00     0.000 C 
BRANCH   3   4
ATOM      4  C   UNL     1       1.584   8.612  -7.844  1.00  0.00     0.000 C 
BRANCH   4   5
ATOM      5  C   UNL     1       0.266   8.051  -8.419  1.00  0.00     0.000 C 
BRANCH   5   6
ATOM      6  C   UNL     1       0.034   8.495  -9.874  1.00  0.00     0.000 C 
BRANCH   6   7
ATOM      7  C   UNL     1      -0.681   7.423 -10.713  1.00  0.00     0.000 C 
BRANCH   7   8
ATOM      8  C   UNL     1      -0.989   7.904 -12.143  1.00  0.00     0.000 C 
BRANCH   8   9
ATOM      9  C   UNL     1      -0.340   7.018 -13.222  1.00  0.00     0.000 C 
BRANCH   9  10
ATOM     10  C   UNL     1       0.958   7.580 -13.833  1.00  0.00     0.000 C 
BRANCH  10  11
ATOM     11  C   UNL     1       1.457   8.845 -13.116  1.00  0.00     0.000 C 
BRANCH  11  12
ATOM     12  C   UNL     1       2.888   9.189 -13.545  1.00  0.00     0.006 C 
BRANCH  12  13
ATOM     13  C   UNL     1       3.823   9.258 -12.335  1.00  0.00     0.053 C 
BRANCH  13  14
ATOM     14  C   UNL     1       3.333  10.272 -11.351  1.00  0.00     0.041 C 
ATOM     15  O   UNL     1       3.002  11.424 -11.739  1.00  0.00    -0.550 OA
ATOM     16  O   UNL     1       3.195   9.930 -10.013  1.00  0.00    -0.550 OA
ENDBRANCH  13  14
ENDBRANCH  12  13
ENDBRANCH  11  12
ENDBRANCH  10  11
ENDBRANCH   9  10
ENDBRANCH   8   9
ENDBRANCH   7   8
ENDBRANCH   6   7
ENDBRANCH   5   6
ENDBRANCH   4   5
ENDBRANCH   3   4
ENDBRANCH   2   3
ENDBRANCH   1   2
BRANCH   1  17
ATOM     17  C   UNL     1      -0.169   8.689  -3.346  1.00  0.00     0.000 C 
BRANCH  17  18
ATOM     18  C   UNL     1      -0.035   7.269  -3.916  1.00  0.00     0.000 C 
BRANCH  18  19
ATOM     19  C   UNL     1       1.219   6.542  -3.399  1.00  0.00     0.000 C 
BRANCH  19  20
ATOM     20  C   UNL     1       2.365   7.515  -3.073  1.00  0.00     0.000 C 
BRANCH  20  21
ATOM     21  C   UNL     1       3.620   6.791  -2.562  1.00  0.00     0.000 C 
BRANCH  21  22
ATOM     22  C   UNL     1       4.637   7.792  -1.990  1.00  0.00    -0.000 C 
BRANCH  22  23
ATOM     23  C   UNL     1       6.089   7.415  -2.325  1.00  0.00    -0.000 C 
BRANCH  23  24
ATOM     24  C   UNL     1       6.264   5.909  -2.587  1.00  0.00    -0.000 C 
BRANCH  24  25
ATOM     25  C   UNL     1       5.218   5.359  -3.570  1.00  0.00    -0.000 C 
BRANCH  25  26
ATOM     26  C   UNL     1       5.853   4.726  -4.821  1.00  0.00    -0.000 C 
BRANCH  26  27
ATOM     27  C   UNL     1       7.163   3.980  -4.512  1.00  0.00    -0.000 C 
BRANCH  27  28
ATOM     28  C   UNL     1       7.019   2.455  -4.348  1.00  0.00    -0.000 C 
BRANCH  28  29
ATOM     29  C   UNL     1       6.786   2.028  -2.891  1.00  0.00    -0.003 C 
ATOM     30  C   UNL     1       7.954   2.446  -2.002  1.00  0.00     0.004 C 
ENDBRANCH  28  29
ENDBRANCH  27  28
ENDBRANCH  26  27
ENDBRANCH  25  26
ENDBRANCH  24  25
ENDBRANCH  23  24
ENDBRANCH  22  23
ENDBRANCH  21  22
ENDBRANCH  20  21
ENDBRANCH  19  20
ENDBRANCH  18  19
ENDBRANCH  17  18
ENDBRANCH   1  17
TORSDOF 26
ENDMDL
MODEL 5
REMARK VINA RESULT:    20.236      1.314      1.781
REMARK INTER + INTRA:          49.986
REMARK INTER:                  51.036
REMARK INTRA:                  -1.050
REMARK UNBOUND:                -1.009
REMARK SMILES CCCCCCCCCCCCCCCCCCCCCCCCCCCC(=O)[O-]
REMARK SMILES IDX 15 1 16 2 17 3 18 4 19 5 20 6 21 7 22 8 23 9 24 10 25 11
REMARK SMILES IDX 26 12 27 13 28 14 29 15 30 16 14 17 13 18 12 19 11 20 10 21
REMARK SMILES IDX 9 22 8 23 7 24 6 25 5 26 4 27 3 28 2 29 1 30
REMARK H PARENT
REMARK Flexibility Score: inf
ROOT
ATOM      1  C   UNL     1       1.824   8.764  -6.924  1.00  0.00     0.000 C 
ENDROOT
BRANCH   1   2
ATOM      2  C   UNL     1       1.752   8.472  -8.432  1.00  0.00     0.000 C 
BRANCH   2   3
ATOM      3  C   UNL     1       0.383   7.920  -8.864  1.00  0.00     0.000 C 
BRANCH   3   4
ATOM      4  C   UNL     1      -0.411   8.908  -9.737  1.00  0.00     0.000 C 
BRANCH   4   5
ATOM      5  C   UNL     1      -1.253   8.227 -10.837  1.00  0.00     0.000 C 
BRANCH   5   6
ATOM      6  C   UNL     1      -0.606   6.924 -11.338  1.00  0.00     0.000 C 
BRANCH   6   7
ATOM      7  C   UNL     1      -0.007   7.063 -12.746  1.00  0.00     0.000 C 
BRANCH   7   8
ATOM      8  C   UNL     1      -0.308   8.433 -13.381  1.00  0.00     0.000 C 
BRANCH   8   9
ATOM      9  C   UNL     1       0.967   9.219 -13.737  1.00  0.00     0.000 C 
BRANCH   9  10
ATOM     10  C   UNL     1       2.289   8.509 -13.388  1.00  0.00     0.000 C 
BRANCH  10  11
ATOM     11  C   UNL     1       3.370   9.475 -12.878  1.00  0.00     0.000 C 
BRANCH  11  12
ATOM     12  C   UNL     1       3.143   9.820 -11.401  1.00  0.00     0.006 C 
BRANCH  12  13
ATOM     13  C   UNL     1       2.886  11.319 -11.221  1.00  0.00     0.053 C 
BRANCH  13  14
ATOM     14  C   UNL     1       2.919  12.019 -12.542  1.00  0.00     0.041 C 
ATOM     15  O   UNL     1       2.035  11.783 -13.407  1.00  0.00    -0.550 OA
ATOM     16  O   UNL     1       3.898  12.969 -12.798  1.00  0.00    -0.550 OA
ENDBRANCH  13  14
ENDBRANCH  12  13
ENDBRANCH  11  12
ENDBRANCH  10  11
ENDBRANCH   9  10
ENDBRANCH   8   9
ENDBRANCH   7   8
ENDBRANCH   6   7
ENDBRANCH   5   6
ENDBRANCH   4   5
ENDBRANCH   3   4
ENDBRANCH   2   3
ENDBRANCH   1   2
BRANCH   1  17
ATOM     17  C   UNL     1       0.445   8.706  -6.242  1.00  0.00     0.000 C 
BRANCH  17  18
ATOM     18  C   UNL     1       0.395   9.507  -4.932  1.00  0.00     0.000 C 
BRANCH  18  19
ATOM     19  C   UNL     1       0.206   8.607  -3.698  1.00  0.00     0.000 C 
BRANCH  19  20
ATOM     20  C   UNL     1       0.429   7.120  -4.020  1.00  0.00     0.000 C 
BRANCH  20  21
ATOM     21  C   UNL     1       1.619   6.525  -3.253  1.00  0.00     0.000 C 
BRANCH  21  22
ATOM     22  C   UNL     1       2.764   7.544  -3.137  1.00  0.00    -0.000 C 
BRANCH  22  23
ATOM     23  C   UNL     1       3.693   7.256  -1.948  1.00  0.00    -0.000 C 
BRANCH  23  24
ATOM     24  C   UNL     1       5.132   7.745  -2.189  1.00  0.00    -0.000 C 
BRANCH  24  25
ATOM     25  C   UNL     1       6.045   6.635  -2.737  1.00  0.00    -0.000 C 
BRANCH  25  26
ATOM     26  C   UNL     1       5.300   5.653  -3.658  1.00  0.00    -0.000 C 
BRANCH  26  27
ATOM     27  C   UNL     1       6.205   4.523  -4.181  1.00  0.00    -0.000 C 
BRANCH  27  28
ATOM     28  C   UNL     1       6.477   3.390  -3.173  1.00  0.00    -0.000 C 
BRANCH  28  29
ATOM     29  C   UNL     1       7.565   2.415  -3.647  1.00  0.00    -0.003 C 
ATOM     30  C   UNL     1       7.146   1.705  -4.932  1.00  0.00     0.004 C 
ENDBRANCH  28  29
ENDBRANCH  27  28
ENDBRANCH  26  27
ENDBRANCH  25  26
ENDBRANCH  24  25
ENDBRANCH  23  24
ENDBRANCH  22  23
ENDBRANCH  21  22
ENDBRANCH  20  21
ENDBRANCH  19  20
ENDBRANCH  18  19
ENDBRANCH  17  18
ENDBRANCH   1  17
TORSDOF 26
ENDMDL
MODEL 6
REMARK VINA RESULT:    20.377      1.649      3.167
REMARK INTER + INTRA:          50.340
REMARK INTER:                  50.719
REMARK INTRA:                  -0.380
REMARK UNBOUND:                -1.009
REMARK SMILES CCCCCCCCCCCCCCCCCCCCCCCCCCCC(=O)[O-]
REMARK SMILES IDX 15 1 16 2 17 3 18 4 19 5 20 6 21 7 22 8 23 9 24 10 25 11
REMARK SMILES IDX 26 12 27 13 28 14 29 15 30 16 14 17 13 18 12 19 11 20 10 21
REMARK SMILES IDX 9 22 8 23 7 24 6 25 5 26 4 27 3 28 2 29 1 30
REMARK H PARENT
REMARK Flexibility Score: inf
ROOT
ATOM      1  C   UNL     1       0.382   8.898  -4.625  1.00  0.00     0.000 C 
ENDROOT
BRANCH   1   2
ATOM      2  C   UNL     1       0.869   9.343  -6.013  1.00  0.00     0.000 C 
BRANCH   2   3
ATOM      3  C   UNL     1       0.897   8.189  -7.029  1.00  0.00     0.000 C 
BRANCH   3   4
ATOM      4  C   UNL     1       1.436   8.616  -8.405  1.00  0.00     0.000 C 
BRANCH   4   5
ATOM      5  C   UNL     1       2.879   9.165  -8.366  1.00  0.00     0.000 C 
BRANCH   5   6
ATOM      6  C   UNL     1       3.487   9.293  -9.774  1.00  0.00     0.000 C 
BRANCH   6   7
ATOM      7  C   UNL     1       2.745  10.317 -10.648  1.00  0.00     0.000 C 
BRANCH   7   8
ATOM      8  C   UNL     1       3.706  11.192 -11.473  1.00  0.00     0.000 C 
BRANCH   8   9
ATOM      9  C   UNL     1       2.999  11.931 -12.625  1.00  0.00     0.000 C 
BRANCH   9  10
ATOM     10  C   UNL     1       1.867  11.141 -13.308  1.00  0.00     0.000 C 
BRANCH  10  11
ATOM     11  C   UNL     1       2.286   9.716 -13.702  1.00  0.00     0.000 C 
BRANCH  11  12
ATOM     12  C   UNL     1       1.599   8.676 -12.808  1.00  0.00     0.006 C 
BRANCH  12  13
ATOM     13  C   UNL     1       0.164   8.415 -13.272  1.00  0.00     0.053 C 
BRANCH  13  14
ATOM     14  C   UNL     1      -0.636   7.788 -12.175  1.00  0.00     0.041 C 
ATOM     15  O   UNL     1      -0.614   8.278 -11.015  1.00  0.00    -0.550 OA
ATOM     16  O   UNL     1      -1.444   6.692 -12.445  1.00  0.00    -0.550 OA
ENDBRANCH  13  14
ENDBRANCH  12  13
ENDBRANCH  11  12
ENDBRANCH  10  11
ENDBRANCH   9  10
ENDBRANCH   8   9
ENDBRANCH   7   8
ENDBRANCH   6   7
ENDBRANCH   5   6
ENDBRANCH   4   5
ENDBRANCH   3   4
ENDBRANCH   2   3
ENDBRANCH   1   2
BRANCH   1  17
ATOM     17  C   UNL     1       0.328   7.366  -4.477  1.00  0.00     0.000 C 
BRANCH  17  18
ATOM     18  C   UNL     1       1.144   6.855  -3.280  1.00  0.00     0.000 C 
BRANCH  18  19
ATOM     19  C   UNL     1       2.570   7.436  -3.249  1.00  0.00     0.000 C 
BRANCH  19  20
ATOM     20  C   UNL     1       3.406   6.868  -2.090  1.00  0.00     0.000 C 
BRANCH  20  21
ATOM     21  C   UNL     1       4.548   7.808  -1.674  1.00  0.00     0.000 C 
BRANCH  21  22
ATOM     22  C   UNL     1       5.832   7.493  -2.457  1.00  0.00    -0.000 C 
BRANCH  22  23
ATOM     23  C   UNL     1       6.018   5.988  -2.705  1.00  0.00    -0.000 C 
BRANCH  23  24
ATOM     24  C   UNL     1       5.418   5.530  -4.046  1.00  0.00    -0.000 C 
BRANCH  24  25
ATOM     25  C   UNL     1       6.356   4.588  -4.817  1.00  0.00    -0.000 C 
BRANCH  25  26
ATOM     26  C   UNL     1       5.596   3.523  -5.626  1.00  0.00    -0.000 C 
BRANCH  26  27
ATOM     27  C   UNL     1       6.371   2.198  -5.744  1.00  0.00    -0.000 C 
BRANCH  27  28
ATOM     28  C   UNL     1       7.386   1.936  -4.616  1.00  0.00    -0.000 C 
BRANCH  28  29
ATOM     29  C   UNL     1       6.757   2.003  -3.216  1.00  0.00    -0.003 C 
ATOM     30  C   UNL     1       7.796   2.380  -2.163  1.00  0.00     0.004 C 
ENDBRANCH  28  29
ENDBRANCH  27  28
ENDBRANCH  26  27
ENDBRANCH  25  26
ENDBRANCH  24  25
ENDBRANCH  23  24
ENDBRANCH  22  23
ENDBRANCH  21  22
ENDBRANCH  20  21
ENDBRANCH  19  20
ENDBRANCH  18  19
ENDBRANCH  17  18
ENDBRANCH   1  17
TORSDOF 26
ENDMDL
MODEL 7
REMARK VINA RESULT:    20.680      4.287      9.895
REMARK INTER + INTRA:          51.104
REMARK INTER:                  53.313
REMARK INTRA:                  -2.209
REMARK UNBOUND:                -1.009
REMARK SMILES CCCCCCCCCCCCCCCCCCCCCCCCCCCC(=O)[O-]
REMARK SMILES IDX 15 1 16 2 17 3 18 4 19 5 20 6 21 7 22 8 23 9 24 10 25 11
REMARK SMILES IDX 26 12 27 13 28 14 29 15 30 16 14 17 13 18 12 19 11 20 10 21
REMARK SMILES IDX 9 22 8 23 7 24 6 25 5 26 4 27 3 28 2 29 1 30
REMARK H PARENT
REMARK Flexibility Score: inf
ROOT
ATOM      1  C   UNL     1      -0.033   8.103  -5.414  1.00  0.00     0.000 C 
ENDROOT
BRANCH   1   2
ATOM      2  C   UNL     1       0.543   7.440  -4.153  1.00  0.00     0.000 C 
BRANCH   2   3
ATOM      3  C   UNL     1       0.262   8.250  -2.877  1.00  0.00     0.000 C 
BRANCH   3   4
ATOM      4  C   UNL     1      -0.975   9.158  -3.005  1.00  0.00     0.000 C 
BRANCH   4   5
ATOM      5  C   UNL     1      -0.645  10.666  -2.986  1.00  0.00     0.000 C 
BRANCH   5   6
ATOM      6  C   UNL     1      -1.773  11.495  -2.346  1.00  0.00     0.000 C 
BRANCH   6   7
ATOM      7  C   UNL     1      -1.570  11.705  -0.837  1.00  0.00     0.000 C 
BRANCH   7   8
ATOM      8  C   UNL     1      -0.406  12.664  -0.527  1.00  0.00     0.000 C 
BRANCH   8   9
ATOM      9  C   UNL     1      -0.426  13.929  -1.405  1.00  0.00     0.000 C 
BRANCH   9  10
ATOM     10  C   UNL     1      -0.307  15.258  -0.635  1.00  0.00     0.000 C 
BRANCH  10  11
ATOM     11  C   UNL     1       0.551  16.300  -1.369  1.00  0.00     0.000 C 
BRANCH  11  12
ATOM     12  C   UNL     1       0.636  15.982  -2.867  1.00  0.00     0.006 C 
BRANCH  12  13
ATOM     13  C   UNL     1       2.084  16.053  -3.362  1.00  0.00     0.053 C 
BRANCH  13  14
ATOM     14  C   UNL     1       2.153  15.744  -4.824  1.00  0.00     0.041 C 
ATOM     15  O   UNL     1       1.106  15.452  -5.461  1.00  0.00    -0.550 OA
ATOM     16  O   UNL     1       3.366  15.828  -5.493  1.00  0.00    -0.550 OA
ENDBRANCH  13  14
ENDBRANCH  12  13
ENDBRANCH  11  12
ENDBRANCH  10  11
ENDBRANCH   9  10
ENDBRANCH   8   9
ENDBRANCH   7   8
ENDBRANCH   6   7
ENDBRANCH   5   6
ENDBRANCH   4   5
ENDBRANCH   3   4
ENDBRANCH   2   3
ENDBRANCH   1   2
BRANCH   1  17
ATOM     17  C   UNL     1       0.946   9.101  -6.059  1.00  0.00     0.000 C 
BRANCH  17  18
ATOM     18  C   UNL     1       1.697   8.506  -7.260  1.00  0.00     0.000 C 
BRANCH  18  19
ATOM     19  C   UNL     1       0.746   8.018  -8.367  1.00  0.00     0.000 C 
BRANCH  19  20
ATOM     20  C   UNL     1      -0.194   9.131  -8.861  1.00  0.00     0.000 C 
BRANCH  20  21
ATOM     21  C   UNL     1      -1.064   8.681 -10.045  1.00  0.00     0.000 C 
BRANCH  21  22
ATOM     22  C   UNL     1      -0.345   7.608 -10.879  1.00  0.00    -0.000 C 
BRANCH  22  23
ATOM     23  C   UNL     1      -1.060   7.316 -12.207  1.00  0.00    -0.000 C 
BRANCH  23  24
ATOM     24  C   UNL     1      -0.405   8.032 -13.402  1.00  0.00    -0.000 C 
BRANCH  24  25
ATOM     25  C   UNL     1       1.128   7.928 -13.379  1.00  0.00    -0.000 C 
BRANCH  25  26
ATOM     26  C   UNL     1       1.819   9.292 -13.555  1.00  0.00    -0.000 C 
BRANCH  26  27
ATOM     27  C   UNL     1       3.085   9.436 -12.691  1.00  0.00    -0.000 C 
BRANCH  27  28
ATOM     28  C   UNL     1       3.180  10.749 -11.893  1.00  0.00    -0.000 C 
BRANCH  28  29
ATOM     29  C   UNL     1       2.923  10.558 -10.390  1.00  0.00    -0.003 C 
ATOM     30  C   UNL     1       3.688   9.353  -9.849  1.00  0.00     0.004 C 
ENDBRANCH  28  29
ENDBRANCH  27  28
ENDBRANCH  26  27
ENDBRANCH  25  26
ENDBRANCH  24  25
ENDBRANCH  23  24
ENDBRANCH  22  23
ENDBRANCH  21  22
ENDBRANCH  20  21
ENDBRANCH  19  20
ENDBRANCH  18  19
ENDBRANCH  17  18
ENDBRANCH   1  17
TORSDOF 26
ENDMDL
MODEL 8
REMARK VINA RESULT:    20.899      1.138      3.224
REMARK INTER + INTRA:          51.657
REMARK INTER:                  50.680
REMARK INTRA:                   0.977
REMARK UNBOUND:                -1.009
REMARK SMILES CCCCCCCCCCCCCCCCCCCCCCCCCCCC(=O)[O-]
REMARK SMILES IDX 15 1 16 2 17 3 18 4 19 5 20 6 21 7 22 8 23 9 24 10 25 11
REMARK SMILES IDX 26 12 27 13 28 14 29 15 30 16 14 17 13 18 12 19 11 20 10 21
REMARK SMILES IDX 9 22 8 23 7 24 6 25 5 26 4 27 3 28 2 29 1 30
REMARK H PARENT
REMARK Flexibility Score: inf
ROOT
ATOM      1  C   UNL     1       1.165   7.129  -4.298  1.00  0.00     0.000 C 
ENDROOT
BRANCH   1   2
ATOM      2  C   UNL     1       0.098   8.235  -4.319  1.00  0.00     0.000 C 
BRANCH   2   3
ATOM      3  C   UNL     1       0.190   9.123  -5.570  1.00  0.00     0.000 C 
BRANCH   3   4
ATOM      4  C   UNL     1       1.425   8.812  -6.434  1.00  0.00     0.000 C 
BRANCH   4   5
ATOM      5  C   UNL     1       1.113   7.958  -7.681  1.00  0.00     0.000 C 
BRANCH   5   6
ATOM      6  C   UNL     1      -0.002   8.577  -8.542  1.00  0.00     0.000 C 
BRANCH   6   7
ATOM      7  C   UNL     1       0.253   8.414 -10.049  1.00  0.00     0.000 C 
BRANCH   7   8
ATOM      8  C   UNL     1      -1.045   8.188 -10.845  1.00  0.00     0.000 C 
BRANCH   8   9
ATOM      9  C   UNL     1      -0.804   7.471 -12.186  1.00  0.00     0.000 C 
BRANCH   9  10
ATOM     10  C   UNL     1       0.039   8.261 -13.205  1.00  0.00     0.000 C 
BRANCH  10  11
ATOM     11  C   UNL     1       1.457   7.694 -13.375  1.00  0.00     0.000 C 
BRANCH  11  12
ATOM     12  C   UNL     1       2.484   8.823 -13.527  1.00  0.00     0.006 C 
BRANCH  12  13
ATOM     13  C   UNL     1       1.827  10.193 -13.332  1.00  0.00     0.053 C 
BRANCH  13  14
ATOM     14  C   UNL     1       2.677  11.062 -12.460  1.00  0.00     0.041 C 
ATOM     15  O   UNL     1       2.899  12.259 -12.782  1.00  0.00    -0.550 OA
ATOM     16  O   UNL     1       3.182  10.564 -11.267  1.00  0.00    -0.550 OA
ENDBRANCH  13  14
ENDBRANCH  12  13
ENDBRANCH  11  12
ENDBRANCH  10  11
ENDBRANCH   9  10
ENDBRANCH   8   9
ENDBRANCH   7   8
ENDBRANCH   6   7
ENDBRANCH   5   6
ENDBRANCH   4   5
ENDBRANCH   3   4
ENDBRANCH   2   3
ENDBRANCH   1   2
BRANCH   1  17
ATOM     17  C   UNL     1       1.971   7.107  -2.986  1.00  0.00     0.000 C 
BRANCH  17  18
ATOM     18  C   UNL     1       3.367   7.731  -3.136  1.00  0.00     0.000 C 
BRANCH  18  19
ATOM     19  C   UNL     1       4.194   7.643  -1.840  1.00  0.00     0.000 C 
BRANCH  19  20
ATOM     20  C   UNL     1       5.696   7.852  -2.091  1.00  0.00     0.000 C 
BRANCH  20  21
ATOM     21  C   UNL     1       6.431   6.535  -2.383  1.00  0.00     0.000 C 
BRANCH  21  22
ATOM     22  C   UNL     1       5.460   5.470  -2.916  1.00  0.00    -0.000 C 
BRANCH  22  23
ATOM     23  C   UNL     1       5.432   5.411  -4.451  1.00  0.00    -0.000 C 
BRANCH  23  24
ATOM     24  C   UNL     1       6.310   4.281  -5.017  1.00  0.00    -0.000 C 
BRANCH  24  25
ATOM     25  C   UNL     1       5.546   3.384  -6.005  1.00  0.00    -0.000 C 
BRANCH  25  26
ATOM     26  C   UNL     1       6.157   1.977  -6.123  1.00  0.00    -0.000 C 
BRANCH  26  27
ATOM     27  C   UNL     1       7.069   1.621  -4.935  1.00  0.00    -0.000 C 
BRANCH  27  28
ATOM     28  C   UNL     1       7.438   2.804  -4.022  1.00  0.00    -0.000 C 
BRANCH  28  29
ATOM     29  C   UNL     1       7.602   2.398  -2.550  1.00  0.00    -0.003 C 
ATOM     30  C   UNL     1       7.254   0.926  -2.343  1.00  0.00     0.004 C 
ENDBRANCH  28  29
ENDBRANCH  27  28
ENDBRANCH  26  27
ENDBRANCH  25  26
ENDBRANCH  24  25
ENDBRANCH  23  24
ENDBRANCH  22  23
ENDBRANCH  21  22
ENDBRANCH  20  21
ENDBRANCH  19  20
ENDBRANCH  18  19
ENDBRANCH  17  18
ENDBRANCH   1  17
TORSDOF 26
ENDMDL
MODEL 9
REMARK VINA RESULT:    21.247      4.062     10.024
REMARK INTER + INTRA:          52.533
REMARK INTER:                  54.184
REMARK INTRA:                  -1.652
REMARK UNBOUND:                -1.009
REMARK SMILES CCCCCCCCCCCCCCCCCCCCCCCCCCCC(=O)[O-]
REMARK SMILES IDX 15 1 16 2 17 3 18 4 19 5 20 6 21 7 22 8 23 9 24 10 25 11
REMARK SMILES IDX 26 12 27 13 28 14 29 15 30 16 14 17 13 18 12 19 11 20 10 21
REMARK SMILES IDX 9 22 8 23 7 24 6 25 5 26 4 27 3 28 2 29 1 30
REMARK H PARENT
REMARK Flexibility Score: inf
ROOT
ATOM      1  C   UNL     1       0.911   8.947  -5.551  1.00  0.00     0.000 C 
ENDROOT
BRANCH   1   2
ATOM      2  C   UNL     1       1.221   7.977  -4.400  1.00  0.00     0.000 C 
BRANCH   2   3
ATOM      3  C   UNL     1       0.182   8.048  -3.269  1.00  0.00     0.000 C 
BRANCH   3   4
ATOM      4  C   UNL     1      -0.887   9.129  -3.507  1.00  0.00     0.000 C 
BRANCH   4   5
ATOM      5  C   UNL     1      -0.550  10.491  -2.862  1.00  0.00     0.000 C 
BRANCH   5   6
ATOM      6  C   UNL     1      -1.808  11.223  -2.364  1.00  0.00     0.000 C 
BRANCH   6   7
ATOM      7  C   UNL     1      -1.718  11.613  -0.880  1.00  0.00     0.000 C 
BRANCH   7   8
ATOM      8  C   UNL     1      -0.538  12.558  -0.591  1.00  0.00     0.000 C 
BRANCH   8   9
ATOM      9  C   UNL     1      -0.609  13.866  -1.400  1.00  0.00     0.000 C 
BRANCH   9  10
ATOM     10  C   UNL     1      -0.056  15.110  -0.679  1.00  0.00     0.000 C 
BRANCH  10  11
ATOM     11  C   UNL     1       0.277  16.260  -1.641  1.00  0.00     0.000 C 
BRANCH  11  12
ATOM     12  C   UNL     1       1.419  15.869  -2.588  1.00  0.00     0.006 C 
BRANCH  12  13
ATOM     13  C   UNL     1       1.194  16.448  -3.988  1.00  0.00     0.053 C 
BRANCH  13  14
ATOM     14  C   UNL     1       1.890  15.615  -5.017  1.00  0.00     0.041 C 
ATOM     15  O   UNL     1       3.108  15.808  -5.271  1.00  0.00    -0.550 OA
ATOM     16  O   UNL     1       1.205  14.593  -5.660  1.00  0.00    -0.550 OA
ENDBRANCH  13  14
ENDBRANCH  12  13
ENDBRANCH  11  12
ENDBRANCH  10  11
ENDBRANCH   9  10
ENDBRANCH   8   9
ENDBRANCH   7   8
ENDBRANCH   6   7
ENDBRANCH   5   6
ENDBRANCH   4   5
ENDBRANCH   3   4
ENDBRANCH   2   3
ENDBRANCH   1   2
BRANCH   1  17
ATOM     17  C   UNL     1       0.437   8.225  -6.825  1.00  0.00     0.000 C 
BRANCH  17  18
ATOM     18  C   UNL     1       1.201   8.672  -8.081  1.00  0.00     0.000 C 
BRANCH  18  19
ATOM     19  C   UNL     1       2.718   8.779  -7.841  1.00  0.00     0.000 C 
BRANCH  19  20
ATOM     20  C   UNL     1       3.435   9.544  -8.966  1.00  0.00     0.000 C 
BRANCH  20  21
ATOM     21  C   UNL     1       2.614   9.582 -10.264  1.00  0.00     0.000 C 
BRANCH  21  22
ATOM     22  C   UNL     1       3.521   9.813 -11.483  1.00  0.00    -0.000 C 
BRANCH  22  23
ATOM     23  C   UNL     1       3.451  11.256 -12.006  1.00  0.00    -0.000 C 
BRANCH  23  24
ATOM     24  C   UNL     1       2.273  11.480 -12.970  1.00  0.00    -0.000 C 
BRANCH  24  25
ATOM     25  C   UNL     1       1.811  10.177 -13.643  1.00  0.00    -0.000 C 
BRANCH  25  26
ATOM     26  C   UNL     1       0.280  10.080 -13.759  1.00  0.00    -0.000 C 
BRANCH  26  27
ATOM     27  C   UNL     1      -0.207   8.648 -14.048  1.00  0.00    -0.000 C 
BRANCH  27  28
ATOM     28  C   UNL     1       0.167   7.607 -12.977  1.00  0.00    -0.000 C 
BRANCH  28  29
ATOM     29  C   UNL     1      -0.911   7.444 -11.896  1.00  0.00    -0.003 C 
ATOM     30  C   UNL     1      -0.575   8.265 -10.654  1.00  0.00     0.004 C 
ENDBRANCH  28  29
ENDBRANCH  27  28
ENDBRANCH  26  27
ENDBRANCH  25  26
ENDBRANCH  24  25
ENDBRANCH  23  24
ENDBRANCH  22  23
ENDBRANCH  21  22
ENDBRANCH  20  21
ENDBRANCH  19  20
ENDBRANCH  18  19
ENDBRANCH  17  18
ENDBRANCH   1  17
TORSDOF 26
ENDMDL
