MODEL 1
REMARK VINA RESULT:     8.606      0.000      0.000
REMARK INTER + INTRA:          16.212
REMARK INTER:                  15.650
REMARK INTRA:                   0.562
REMARK UNBOUND:                 0.562
REMARK SMILES CCCCCCCCCCCCCCCC(=O)[O-]
REMARK SMILES IDX 9 1 10 2 11 3 12 4 13 5 14 6 15 7 16 8 17 9 18 10 8 11 7 12
REMARK SMILES IDX 6 13 5 14 4 15 3 16 2 17 1 18
REMARK H PARENT
REMARK Flexibility Score: inf
ROOT
ATOM      1  C   UNL     1      69.438  76.421  97.418  1.00  0.00     0.000 C 
ENDROOT
BRANCH   1   2
ATOM      2  C   UNL     1      68.465  75.811  96.394  1.00  0.00     0.000 C 
BRANCH   2   3
ATOM      3  C   UNL     1      67.875  76.864  95.442  1.00  0.00     0.000 C 
BRANCH   3   4
ATOM      4  C   UNL     1      68.718  77.051  94.167  1.00  0.00     0.000 C 
BRANCH   4   5
ATOM      5  C   UNL     1      67.878  77.514  92.966  1.00  0.00     0.000 C 
BRANCH   5   6
ATOM      6  C   UNL     1      67.973  76.549  91.772  1.00  0.00     0.006 C 
BRANCH   6   7
ATOM      7  C   UNL     1      69.377  75.946  91.624  1.00  0.00     0.053 C 
BRANCH   7   8
ATOM      8  C   UNL     1      69.383  74.475  91.906  1.00  0.00     0.041 C 
ATOM      9  O   UNL     1      68.371  73.922  92.411  1.00  0.00    -0.550 OA
ATOM     10  O   UNL     1      70.496  73.709  91.583  1.00  0.00    -0.550 OA
ENDBRANCH   7   8
ENDBRANCH   6   7
ENDBRANCH   5   6
ENDBRANCH   4   5
ENDBRANCH   3   4
ENDBRANCH   2   3
ENDBRANCH   1   2
BRANCH   1  11
ATOM     11  C   UNL     1      68.764  77.454  98.340  1.00  0.00     0.000 C 
BRANCH  11  12
ATOM     12  C   UNL     1      68.595  78.861  97.732  1.00  0.00    -0.000 C 
BRANCH  12  13
ATOM     13  C   UNL     1      68.809  80.031  98.713  1.00  0.00    -0.000 C 
BRANCH  13  14
ATOM     14  C   UNL     1      69.575  79.670  99.999  1.00  0.00    -0.000 C 
BRANCH  14  15
ATOM     15  C   UNL     1      68.938  78.499 100.763  1.00  0.00    -0.000 C 
BRANCH  15  16
ATOM     16  C   UNL     1      68.022  79.011 101.885  1.00  0.00    -0.000 C 
BRANCH  16  17
ATOM     17  C   UNL     1      68.451  78.510 103.272  1.00  0.00    -0.003 C 
ATOM     18  C   UNL     1      69.380  77.297 103.203  1.00  0.00     0.004 C 
ENDBRANCH  16  17
ENDBRANCH  15  16
ENDBRANCH  14  15
ENDBRANCH  13  14
ENDBRANCH  12  13
ENDBRANCH  11  12
ENDBRANCH   1  11
TORSDOF 14
ENDMDL
MODEL 2
REMARK VINA RESULT:     9.048     15.385     16.714
REMARK INTER + INTRA:          17.015
REMARK INTER:                  17.355
REMARK INTRA:                  -0.340
REMARK UNBOUND:                 0.562
REMARK SMILES CCCCCCCCCCCCCCCC(=O)[O-]
REMARK SMILES IDX 9 1 10 2 11 3 12 4 13 5 14 6 15 7 16 8 17 9 18 10 8 11 7 12
REMARK SMILES IDX 6 13 5 14 4 15 3 16 2 17 1 18
REMARK H PARENT
REMARK Flexibility Score: inf
ROOT
ATOM      1  C   UNL     1      76.671  63.844 100.184  1.00  0.00     0.000 C 
ENDROOT
BRANCH   1   2
ATOM      2  C   UNL     1      75.373  63.244  99.618  1.00  0.00     0.000 C 
BRANCH   2   3
ATOM      3  C   UNL     1      74.372  64.321  99.172  1.00  0.00     0.000 C 
BRANCH   3   4
ATOM      4  C   UNL     1      74.190  64.367  97.643  1.00  0.00     0.000 C 
BRANCH   4   5
ATOM      5  C   UNL     1      75.475  63.999  96.884  1.00  0.00     0.000 C 
BRANCH   5   6
ATOM      6  C   UNL     1      75.323  62.711  96.055  1.00  0.00     0.006 C 
BRANCH   6   7
ATOM      7  C   UNL     1      75.295  61.455  96.937  1.00  0.00     0.053 C 
BRANCH   7   8
ATOM      8  C   UNL     1      76.422  60.523  96.616  1.00  0.00     0.041 C 
ATOM      9  O   UNL     1      77.052  59.947  97.541  1.00  0.00    -0.550 OA
ATOM     10  O   UNL     1      76.760  60.269  95.292  1.00  0.00    -0.550 OA
ENDBRANCH   7   8
ENDBRANCH   6   7
ENDBRANCH   5   6
ENDBRANCH   4   5
ENDBRANCH   3   4
ENDBRANCH   2   3
ENDBRANCH   1   2
BRANCH   1  11
ATOM     11  C   UNL     1      76.655  63.960 101.720  1.00  0.00     0.000 C 
BRANCH  11  12
ATOM     12  C   UNL     1      78.040  63.912 102.394  1.00  0.00    -0.000 C 
BRANCH  12  13
ATOM     13  C   UNL     1      79.135  64.751 101.706  1.00  0.00    -0.000 C 
BRANCH  13  14
ATOM     14  C   UNL     1      80.496  64.759 102.425  1.00  0.00    -0.000 C 
BRANCH  14  15
ATOM     15  C   UNL     1      80.854  66.132 103.012  1.00  0.00    -0.000 C 
BRANCH  15  16
ATOM     16  C   UNL     1      82.135  66.051 103.855  1.00  0.00    -0.000 C 
BRANCH  16  17
ATOM     17  C   UNL     1      82.395  67.334 104.659  1.00  0.00    -0.003 C 
ATOM     18  C   UNL     1      83.861  67.494 105.061  1.00  0.00     0.004 C 
ENDBRANCH  16  17
ENDBRANCH  15  16
ENDBRANCH  14  15
ENDBRANCH  13  14
ENDBRANCH  12  13
ENDBRANCH  11  12
ENDBRANCH   1  11
TORSDOF 14
ENDMDL
MODEL 3
REMARK VINA RESULT:     9.189     15.826     18.419
REMARK INTER + INTRA:          17.271
REMARK INTER:                  17.301
REMARK INTRA:                  -0.029
REMARK UNBOUND:                 0.562
REMARK SMILES CCCCCCCCCCCCCCCC(=O)[O-]
REMARK SMILES IDX 9 1 10 2 11 3 12 4 13 5 14 6 15 7 16 8 17 9 18 10 8 11 7 12
REMARK SMILES IDX 6 13 5 14 4 15 3 16 2 17 1 18
REMARK H PARENT
REMARK Flexibility Score: inf
ROOT
ATOM      1  C   UNL     1      76.674  63.665 100.191  1.00  0.00     0.000 C 
ENDROOT
BRANCH   1   2
ATOM      2  C   UNL     1      76.870  64.069 101.662  1.00  0.00     0.000 C 
BRANCH   2   3
ATOM      3  C   UNL     1      78.302  63.815 102.157  1.00  0.00     0.000 C 
BRANCH   3   4
ATOM      4  C   UNL     1      79.253  64.988 101.853  1.00  0.00     0.000 C 
BRANCH   4   5
ATOM      5  C   UNL     1      80.606  64.852 102.569  1.00  0.00     0.000 C 
BRANCH   5   6
ATOM      6  C   UNL     1      81.028  66.147 103.286  1.00  0.00     0.006 C 
BRANCH   6   7
ATOM      7  C   UNL     1      82.223  65.927 104.223  1.00  0.00     0.053 C 
BRANCH   7   8
ATOM      8  C   UNL     1      82.874  67.220 104.609  1.00  0.00     0.041 C 
ATOM      9  O   UNL     1      84.050  67.473 104.240  1.00  0.00    -0.550 OA
ATOM     10  O   UNL     1      82.169  68.159 105.352  1.00  0.00    -0.550 OA
ENDBRANCH   7   8
ENDBRANCH   6   7
ENDBRANCH   5   6
ENDBRANCH   4   5
ENDBRANCH   3   4
ENDBRANCH   2   3
ENDBRANCH   1   2
BRANCH   1  11
ATOM     11  C   UNL     1      75.204  63.362  99.846  1.00  0.00     0.000 C 
BRANCH  11  12
ATOM     12  C   UNL     1      74.490  64.448  99.017  1.00  0.00    -0.000 C 
BRANCH  12  13
ATOM     13  C   UNL     1      75.072  64.691  97.610  1.00  0.00    -0.000 C 
BRANCH  13  14
ATOM     14  C   UNL     1      74.503  63.783  96.506  1.00  0.00    -0.000 C 
BRANCH  14  15
ATOM     15  C   UNL     1      75.391  62.562  96.221  1.00  0.00    -0.000 C 
BRANCH  15  16
ATOM     16  C   UNL     1      75.442  61.626  97.437  1.00  0.00    -0.000 C 
BRANCH  16  17
ATOM     17  C   UNL     1      75.727  60.167  97.048  1.00  0.00    -0.003 C 
ATOM     18  C   UNL     1      77.044  60.004  96.290  1.00  0.00     0.004 C 
ENDBRANCH  16  17
ENDBRANCH  15  16
ENDBRANCH  14  15
ENDBRANCH  13  14
ENDBRANCH  12  13
ENDBRANCH  11  12
ENDBRANCH   1  11
TORSDOF 14
ENDMDL
MODEL 4
REMARK VINA RESULT:     9.304     21.518     22.738
REMARK INTER + INTRA:          17.480
REMARK INTER:                  17.985
REMARK INTRA:                  -0.505
REMARK UNBOUND:                 0.562
REMARK SMILES CCCCCCCCCCCCCCCC(=O)[O-]
REMARK SMILES IDX 9 1 10 2 11 3 12 4 13 5 14 6 15 7 16 8 17 9 18 10 8 11 7 12
REMARK SMILES IDX 6 13 5 14 4 15 3 16 2 17 1 18
REMARK H PARENT
REMARK Flexibility Score: inf
ROOT
ATOM      1  C   UNL     1      84.073  64.319 105.770  1.00  0.00     0.000 C 
ENDROOT
BRANCH   1   2
ATOM      2  C   UNL     1      84.047  63.055 104.893  1.00  0.00     0.000 C 
BRANCH   2   3
ATOM      3  C   UNL     1      83.574  63.343 103.460  1.00  0.00     0.000 C 
BRANCH   3   4
ATOM      4  C   UNL     1      83.115  62.073 102.719  1.00  0.00     0.000 C 
BRANCH   4   5
ATOM      5  C   UNL     1      83.667  61.993 101.287  1.00  0.00     0.000 C 
BRANCH   5   6
ATOM      6  C   UNL     1      84.896  62.893 101.076  1.00  0.00     0.006 C 
BRANCH   6   7
ATOM      7  C   UNL     1      85.705  62.489  99.835  1.00  0.00     0.053 C 
BRANCH   7   8
ATOM      8  C   UNL     1      85.733  63.580  98.809  1.00  0.00     0.041 C 
ATOM      9  O   UNL     1      85.774  64.786  99.168  1.00  0.00    -0.550 OA
ATOM     10  O   UNL     1      85.743  63.263  97.456  1.00  0.00    -0.550 OA
ENDBRANCH   7   8
ENDBRANCH   6   7
ENDBRANCH   5   6
ENDBRANCH   4   5
ENDBRANCH   3   4
ENDBRANCH   2   3
ENDBRANCH   1   2
BRANCH   1  11
ATOM     11  C   UNL     1      84.860  64.121 107.079  1.00  0.00     0.000 C 
BRANCH  11  12
ATOM     12  C   UNL     1      85.840  65.257 107.431  1.00  0.00    -0.000 C 
BRANCH  12  13
ATOM     13  C   UNL     1      85.947  65.591 108.932  1.00  0.00    -0.000 C 
BRANCH  13  14
ATOM     14  C   UNL     1      87.218  65.068 109.625  1.00  0.00    -0.000 C 
BRANCH  14  15
ATOM     15  C   UNL     1      87.435  65.682 111.016  1.00  0.00    -0.000 C 
BRANCH  15  16
ATOM     16  C   UNL     1      87.034  67.164 111.030  1.00  0.00    -0.000 C 
BRANCH  16  17
ATOM     17  C   UNL     1      88.087  68.066 110.368  1.00  0.00    -0.003 C 
ATOM     18  C   UNL     1      88.048  69.503 110.890  1.00  0.00     0.004 C 
ENDBRANCH  16  17
ENDBRANCH  15  16
ENDBRANCH  14  15
ENDBRANCH  13  14
ENDBRANCH  12  13
ENDBRANCH  11  12
ENDBRANCH   1  11
TORSDOF 14
ENDMDL
MODEL 5
REMARK VINA RESULT:     9.440     21.563     23.178
REMARK INTER + INTRA:          17.727
REMARK INTER:                  18.429
REMARK INTRA:                  -0.702
REMARK UNBOUND:                 0.562
REMARK SMILES CCCCCCCCCCCCCCCC(=O)[O-]
REMARK SMILES IDX 9 1 10 2 11 3 12 4 13 5 14 6 15 7 16 8 17 9 18 10 8 11 7 12
REMARK SMILES IDX 6 13 5 14 4 15 3 16 2 17 1 18
REMARK H PARENT
REMARK Flexibility Score: inf
ROOT
ATOM      1  C   UNL     1      84.119  64.214 106.091  1.00  0.00     0.000 C 
ENDROOT
BRANCH   1   2
ATOM      2  C   UNL     1      83.808  62.792 105.595  1.00  0.00     0.000 C 
BRANCH   2   3
ATOM      3  C   UNL     1      84.394  62.513 104.202  1.00  0.00     0.000 C 
BRANCH   3   4
ATOM      4  C   UNL     1      83.579  63.169 103.071  1.00  0.00     0.000 C 
BRANCH   4   5
ATOM      5  C   UNL     1      83.878  62.554 101.694  1.00  0.00     0.000 C 
BRANCH   5   6
ATOM      6  C   UNL     1      85.185  63.084 101.081  1.00  0.00     0.006 C 
BRANCH   6   7
ATOM      7  C   UNL     1      85.437  62.521  99.676  1.00  0.00     0.053 C 
BRANCH   7   8
ATOM      8  C   UNL     1      85.785  63.600  98.697  1.00  0.00     0.041 C 
ATOM      9  O   UNL     1      85.926  64.788  99.088  1.00  0.00    -0.550 OA
ATOM     10  O   UNL     1      85.984  63.288  97.358  1.00  0.00    -0.550 OA
ENDBRANCH   7   8
ENDBRANCH   6   7
ENDBRANCH   5   6
ENDBRANCH   4   5
ENDBRANCH   3   4
ENDBRANCH   2   3
ENDBRANCH   1   2
BRANCH   1  11
ATOM     11  C   UNL     1      85.445  64.297 106.870  1.00  0.00     0.000 C 
BRANCH  11  12
ATOM     12  C   UNL     1      85.422  65.223 108.102  1.00  0.00    -0.000 C 
BRANCH  12  13
ATOM     13  C   UNL     1      86.783  65.834 108.491  1.00  0.00    -0.000 C 
BRANCH  13  14
ATOM     14  C   UNL     1      86.787  66.624 109.813  1.00  0.00    -0.000 C 
BRANCH  14  15
ATOM     15  C   UNL     1      86.961  65.724 111.045  1.00  0.00    -0.000 C 
BRANCH  15  16
ATOM     16  C   UNL     1      88.102  64.718 110.833  1.00  0.00    -0.000 C 
BRANCH  16  17
ATOM     17  C   UNL     1      87.595  63.277 110.669  1.00  0.00    -0.003 C 
ATOM     18  C   UNL     1      88.009  62.652 109.336  1.00  0.00     0.004 C 
ENDBRANCH  16  17
ENDBRANCH  15  16
ENDBRANCH  14  15
ENDBRANCH  13  14
ENDBRANCH  12  13
ENDBRANCH  11  12
ENDBRANCH   1  11
TORSDOF 14
ENDMDL
MODEL 6
REMARK VINA RESULT:     9.484     16.504     18.788
REMARK INTER + INTRA:          17.807
REMARK INTER:                  17.793
REMARK INTRA:                   0.015
REMARK UNBOUND:                 0.562
REMARK SMILES CCCCCCCCCCCCCCCC(=O)[O-]
REMARK SMILES IDX 9 1 10 2 11 3 12 4 13 5 14 6 15 7 16 8 17 9 18 10 8 11 7 12
REMARK SMILES IDX 6 13 5 14 4 15 3 16 2 17 1 18
REMARK H PARENT
REMARK Flexibility Score: inf
ROOT
ATOM      1  C   UNL     1      76.401  63.607 100.030  1.00  0.00     0.000 C 
ENDROOT
BRANCH   1   2
ATOM      2  C   UNL     1      76.559  64.248 101.420  1.00  0.00     0.000 C 
BRANCH   2   3
ATOM      3  C   UNL     1      77.748  63.670 102.203  1.00  0.00     0.000 C 
BRANCH   3   4
ATOM      4  C   UNL     1      78.960  64.621 102.230  1.00  0.00     0.000 C 
BRANCH   4   5
ATOM      5  C   UNL     1      80.160  64.070 101.443  1.00  0.00     0.000 C 
BRANCH   5   6
ATOM      6  C   UNL     1      81.441  63.999 102.293  1.00  0.00     0.006 C 
BRANCH   6   7
ATOM      7  C   UNL     1      82.215  62.693 102.066  1.00  0.00     0.053 C 
BRANCH   7   8
ATOM      8  C   UNL     1      83.604  62.766 102.621  1.00  0.00     0.041 C 
ATOM      9  O   UNL     1      83.801  62.629 103.857  1.00  0.00    -0.550 OA
ATOM     10  O   UNL     1      84.685  62.956 101.769  1.00  0.00    -0.550 OA
ENDBRANCH   7   8
ENDBRANCH   6   7
ENDBRANCH   5   6
ENDBRANCH   4   5
ENDBRANCH   3   4
ENDBRANCH   2   3
ENDBRANCH   1   2
BRANCH   1  11
ATOM     11  C   UNL     1      74.930  63.343  99.658  1.00  0.00     0.000 C 
BRANCH  11  12
ATOM     12  C   UNL     1      74.271  64.430  98.787  1.00  0.00    -0.000 C 
BRANCH  12  13
ATOM     13  C   UNL     1      74.915  64.643  97.402  1.00  0.00    -0.000 C 
BRANCH  13  14
ATOM     14  C   UNL     1      74.535  63.596  96.340  1.00  0.00    -0.000 C 
BRANCH  14  15
ATOM     15  C   UNL     1      75.542  62.440  96.255  1.00  0.00    -0.000 C 
BRANCH  15  16
ATOM     16  C   UNL     1      75.394  61.494  97.456  1.00  0.00    -0.000 C 
BRANCH  16  17
ATOM     17  C   UNL     1      75.860  60.064  97.142  1.00  0.00    -0.003 C 
ATOM     18  C   UNL     1      77.039  60.026  96.168  1.00  0.00     0.004 C 
ENDBRANCH  16  17
ENDBRANCH  15  16
ENDBRANCH  14  15
ENDBRANCH  13  14
ENDBRANCH  12  13
ENDBRANCH  11  12
ENDBRANCH   1  11
TORSDOF 14
ENDMDL
MODEL 7
REMARK VINA RESULT:     9.549     21.512     24.372
REMARK INTER + INTRA:          17.927
REMARK INTER:                  17.990
REMARK INTRA:                  -0.063
REMARK UNBOUND:                 0.562
REMARK SMILES CCCCCCCCCCCCCCCC(=O)[O-]
REMARK SMILES IDX 9 1 10 2 11 3 12 4 13 5 14 6 15 7 16 8 17 9 18 10 8 11 7 12
REMARK SMILES IDX 6 13 5 14 4 15 3 16 2 17 1 18
REMARK H PARENT
REMARK Flexibility Score: inf
ROOT
ATOM      1  C   UNL     1      85.465  66.540 106.788  1.00  0.00     0.000 C 
ENDROOT
BRANCH   1   2
ATOM      2  C   UNL     1      85.713  66.005 108.208  1.00  0.00     0.000 C 
BRANCH   2   3
ATOM      3  C   UNL     1      87.209  65.907 108.547  1.00  0.00     0.000 C 
BRANCH   3   4
ATOM      4  C   UNL     1      87.628  66.871 109.673  1.00  0.00     0.000 C 
BRANCH   4   5
ATOM      5  C   UNL     1      87.109  66.432 111.051  1.00  0.00     0.000 C 
BRANCH   5   6
ATOM      6  C   UNL     1      86.827  64.922 111.123  1.00  0.00     0.006 C 
BRANCH   6   7
ATOM      7  C   UNL     1      88.106  64.086 110.969  1.00  0.00     0.053 C 
BRANCH   7   8
ATOM      8  C   UNL     1      87.836  62.773 110.302  1.00  0.00     0.041 C 
ATOM      9  O   UNL     1      87.419  61.794 110.974  1.00  0.00    -0.550 OA
ATOM     10  O   UNL     1      88.017  62.638 108.931  1.00  0.00    -0.550 OA
ENDBRANCH   7   8
ENDBRANCH   6   7
ENDBRANCH   5   6
ENDBRANCH   4   5
ENDBRANCH   3   4
ENDBRANCH   2   3
ENDBRANCH   1   2
BRANCH   1  11
ATOM     11  C   UNL     1      83.974  66.539 106.402  1.00  0.00     0.000 C 
BRANCH  11  12
ATOM     12  C   UNL     1      83.658  67.123 105.011  1.00  0.00    -0.000 C 
BRANCH  12  13
ATOM     13  C   UNL     1      82.220  66.886 104.509  1.00  0.00    -0.000 C 
BRANCH  13  14
ATOM     14  C   UNL     1      82.036  65.638 103.627  1.00  0.00    -0.000 C 
BRANCH  14  15
ATOM     15  C   UNL     1      83.226  64.669 103.709  1.00  0.00    -0.000 C 
BRANCH  15  16
ATOM     16  C   UNL     1      83.225  63.698 102.519  1.00  0.00    -0.000 C 
BRANCH  16  17
ATOM     17  C   UNL     1      83.506  62.248 102.941  1.00  0.00    -0.003 C 
ATOM     18  C   UNL     1      84.243  62.152 104.277  1.00  0.00     0.004 C 
ENDBRANCH  16  17
ENDBRANCH  15  16
ENDBRANCH  14  15
ENDBRANCH  13  14
ENDBRANCH  12  13
ENDBRANCH  11  12
ENDBRANCH   1  11
TORSDOF 14
ENDMDL
MODEL 8
REMARK VINA RESULT:     9.663     20.385     22.165
REMARK INTER + INTRA:          18.133
REMARK INTER:                  18.801
REMARK INTRA:                  -0.669
REMARK UNBOUND:                 0.562
REMARK SMILES CCCCCCCCCCCCCCCC(=O)[O-]
REMARK SMILES IDX 9 1 10 2 11 3 12 4 13 5 14 6 15 7 16 8 17 9 18 10 8 11 7 12
REMARK SMILES IDX 6 13 5 14 4 15 3 16 2 17 1 18
REMARK H PARENT
REMARK Flexibility Score: inf
ROOT
ATOM      1  C   UNL     1      82.856  66.932 104.518  1.00  0.00     0.000 C 
ENDROOT
BRANCH   1   2
ATOM      2  C   UNL     1      82.420  65.457 104.498  1.00  0.00     0.000 C 
BRANCH   2   3
ATOM      3  C   UNL     1      82.814  64.744 103.195  1.00  0.00     0.000 C 
BRANCH   3   4
ATOM      4  C   UNL     1      83.556  63.418 103.444  1.00  0.00     0.000 C 
BRANCH   4   5
ATOM      5  C   UNL     1      83.732  62.589 102.161  1.00  0.00     0.000 C 
BRANCH   5   6
ATOM      6  C   UNL     1      85.018  62.949 101.398  1.00  0.00     0.006 C 
BRANCH   6   7
ATOM      7  C   UNL     1      84.922  62.602  99.906  1.00  0.00     0.053 C 
BRANCH   7   8
ATOM      8  C   UNL     1      85.621  63.615  99.052  1.00  0.00     0.041 C 
ATOM      9  O   UNL     1      85.979  63.319  97.882  1.00  0.00    -0.550 OA
ATOM     10  O   UNL     1      85.850  64.896  99.538  1.00  0.00    -0.550 OA
ENDBRANCH   7   8
ENDBRANCH   6   7
ENDBRANCH   5   6
ENDBRANCH   4   5
ENDBRANCH   3   4
ENDBRANCH   2   3
ENDBRANCH   1   2
BRANCH   1  11
ATOM     11  C   UNL     1      84.045  67.190 105.462  1.00  0.00     0.000 C 
BRANCH  11  12
ATOM     12  C   UNL     1      84.328  66.067 106.479  1.00  0.00    -0.000 C 
BRANCH  12  13
ATOM     13  C   UNL     1      85.760  66.041 107.050  1.00  0.00    -0.000 C 
BRANCH  13  14
ATOM     14  C   UNL     1      85.892  65.412 108.448  1.00  0.00    -0.000 C 
BRANCH  14  15
ATOM     15  C   UNL     1      86.681  66.294 109.427  1.00  0.00    -0.000 C 
BRANCH  15  16
ATOM     16  C   UNL     1      86.994  65.530 110.722  1.00  0.00    -0.000 C 
BRANCH  16  17
ATOM     17  C   UNL     1      88.118  64.498 110.542  1.00  0.00    -0.003 C 
ATOM     18  C   UNL     1      87.617  63.056 110.624  1.00  0.00     0.004 C 
ENDBRANCH  16  17
ENDBRANCH  15  16
ENDBRANCH  14  15
ENDBRANCH  13  14
ENDBRANCH  12  13
ENDBRANCH  11  12
ENDBRANCH   1  11
TORSDOF 14
ENDMDL
MODEL 9
REMARK VINA RESULT:    10.061     15.864     17.228
REMARK INTER + INTRA:          18.858
REMARK INTER:                  18.486
REMARK INTRA:                   0.372
REMARK UNBOUND:                 0.562
REMARK SMILES CCCCCCCCCCCCCCCC(=O)[O-]
REMARK SMILES IDX 9 1 10 2 11 3 12 4 13 5 14 6 15 7 16 8 17 9 18 10 8 11 7 12
REMARK SMILES IDX 6 13 5 14 4 15 3 16 2 17 1 18
REMARK H PARENT
REMARK Flexibility Score: inf
ROOT
ATOM      1  C   UNL     1      75.584  63.997  99.589  1.00  0.00     0.000 C 
ENDROOT
BRANCH   1   2
ATOM      2  C   UNL     1      74.100  64.346  99.377  1.00  0.00     0.000 C 
BRANCH   2   3
ATOM      3  C   UNL     1      73.743  64.518  97.892  1.00  0.00     0.000 C 
BRANCH   3   4
ATOM      4  C   UNL     1      74.943  64.276  96.959  1.00  0.00     0.000 C 
BRANCH   4   5
ATOM      5  C   UNL     1      75.062  62.808  96.517  1.00  0.00     0.000 C 
BRANCH   5   6
ATOM      6  C   UNL     1      75.226  61.845  97.705  1.00  0.00     0.006 C 
BRANCH   6   7
ATOM      7  C   UNL     1      75.398  60.389  97.251  1.00  0.00     0.053 C 
BRANCH   7   8
ATOM      8  C   UNL     1      76.730  60.161  96.605  1.00  0.00     0.041 C 
ATOM      9  O   UNL     1      77.735  59.875  97.308  1.00  0.00    -0.550 OA
ATOM     10  O   UNL     1      76.856  60.237  95.223  1.00  0.00    -0.550 OA
ENDBRANCH   7   8
ENDBRANCH   6   7
ENDBRANCH   5   6
ENDBRANCH   4   5
ENDBRANCH   3   4
ENDBRANCH   2   3
ENDBRANCH   1   2
BRANCH   1  11
ATOM     11  C   UNL     1      75.989  63.991 101.075  1.00  0.00     0.000 C 
BRANCH  11  12
ATOM     12  C   UNL     1      77.453  63.599 101.351  1.00  0.00    -0.000 C 
BRANCH  12  13
ATOM     13  C   UNL     1      78.128  64.355 102.514  1.00  0.00    -0.000 C 
BRANCH  13  14
ATOM     14  C   UNL     1      79.435  65.080 102.145  1.00  0.00    -0.000 C 
BRANCH  14  15
ATOM     15  C   UNL     1      80.504  64.134 101.578  1.00  0.00    -0.000 C 
BRANCH  15  16
ATOM     16  C   UNL     1      81.650  63.938 102.581  1.00  0.00    -0.000 C 
BRANCH  16  17
ATOM     17  C   UNL     1      82.532  62.727 102.240  1.00  0.00    -0.003 C 
ATOM     18  C   UNL     1      83.876  62.749 102.970  1.00  0.00     0.004 C 
ENDBRANCH  16  17
ENDBRANCH  15  16
ENDBRANCH  14  15
ENDBRANCH  13  14
ENDBRANCH  12  13
ENDBRANCH  11  12
ENDBRANCH   1  11
TORSDOF 14
ENDMDL
