MODEL 1
REMARK VINA RESULT:    -3.887      0.000      0.000
REMARK INTER + INTRA:         -12.909
REMARK INTER:                  -8.886
REMARK INTRA:                  -4.023
REMARK UNBOUND:                -4.023
REMARK SMILES CCCCCCCCCCCCCCCCCCCCCCCC(=O)[O-]
REMARK SMILES IDX 13 1 14 2 15 3 16 4 17 5 18 6 19 7 20 8 21 9 22 10 23 11
REMARK SMILES IDX 24 12 25 13 26 14 12 15 11 16 10 17 9 18 8 19 7 20 6 21 5 22
REMARK SMILES IDX 4 23 3 24 2 25 1 26
REMARK H PARENT
REMARK Flexibility Score: inf
ROOT
ATOM      1  C   UNL     1     140.698 130.489 114.397  1.00  0.00     0.000 C 
ENDROOT
BRANCH   1   2
ATOM      2  C   UNL     1     142.066 129.787 114.470  1.00  0.00     0.000 C 
BRANCH   2   3
ATOM      3  C   UNL     1     142.150 128.755 115.605  1.00  0.00     0.000 C 
BRANCH   3   4
ATOM      4  C   UNL     1     142.752 127.434 115.104  1.00  0.00     0.000 C 
BRANCH   4   5
ATOM      5  C   UNL     1     144.239 127.272 115.474  1.00  0.00     0.000 C 
BRANCH   5   6
ATOM      6  C   UNL     1     145.231 127.637 114.356  1.00  0.00     0.000 C 
BRANCH   6   7
ATOM      7  C   UNL     1     145.646 129.119 114.386  1.00  0.00     0.000 C 
BRANCH   7   8
ATOM      8  C   UNL     1     145.916 129.636 115.810  1.00  0.00     0.000 C 
BRANCH   8   9
ATOM      9  C   UNL     1     146.459 131.078 115.889  1.00  0.00     0.000 C 
BRANCH   9  10
ATOM     10  C   UNL     1     145.478 132.115 116.466  1.00  0.00     0.006 C 
BRANCH  10  11
ATOM     11  C   UNL     1     144.191 131.482 117.009  1.00  0.00     0.053 C 
BRANCH  11  12
ATOM     12  C   UNL     1     143.043 132.432 116.860  1.00  0.00     0.041 C 
ATOM     13  O   UNL     1     142.255 132.630 117.820  1.00  0.00    -0.550 OA
ATOM     14  O   UNL     1     142.818 133.062 115.643  1.00  0.00    -0.550 OA
ENDBRANCH  11  12
ENDBRANCH  10  11
ENDBRANCH   9  10
ENDBRANCH   8   9
ENDBRANCH   7   8
ENDBRANCH   6   7
ENDBRANCH   5   6
ENDBRANCH   4   5
ENDBRANCH   3   4
ENDBRANCH   2   3
ENDBRANCH   1   2
BRANCH   1  15
ATOM     15  C   UNL     1     139.926 130.282 113.081  1.00  0.00     0.000 C 
BRANCH  15  16
ATOM     16  C   UNL     1     138.643 129.454 113.264  1.00  0.00     0.000 C 
BRANCH  16  17
ATOM     17  C   UNL     1     138.926 127.958 113.479  1.00  0.00     0.000 C 
BRANCH  17  18
ATOM     18  C   UNL     1     138.104 127.357 114.632  1.00  0.00    -0.000 C 
BRANCH  18  19
ATOM     19  C   UNL     1     138.915 127.243 115.934  1.00  0.00    -0.000 C 
BRANCH  19  20
ATOM     20  C   UNL     1     138.751 128.478 116.837  1.00  0.00    -0.000 C 
BRANCH  20  21
ATOM     21  C   UNL     1     139.165 128.203 118.292  1.00  0.00    -0.000 C 
BRANCH  21  22
ATOM     22  C   UNL     1     140.298 127.167 118.402  1.00  0.00    -0.000 C 
BRANCH  22  23
ATOM     23  C   UNL     1     141.446 127.635 119.314  1.00  0.00    -0.000 C 
BRANCH  23  24
ATOM     24  C   UNL     1     142.845 127.129 118.911  1.00  0.00    -0.000 C 
BRANCH  24  25
ATOM     25  C   UNL     1     143.961 128.187 118.974  1.00  0.00    -0.003 C 
ATOM     26  C   UNL     1     144.133 128.787 120.370  1.00  0.00     0.004 C 
ENDBRANCH  24  25
ENDBRANCH  23  24
ENDBRANCH  22  23
ENDBRANCH  21  22
ENDBRANCH  20  21
ENDBRANCH  19  20
ENDBRANCH  18  19
ENDBRANCH  17  18
ENDBRANCH  16  17
ENDBRANCH  15  16
ENDBRANCH   1  15
TORSDOF 22
ENDMDL
MODEL 2
REMARK VINA RESULT:    -3.796      1.725      4.075
REMARK INTER + INTRA:         -12.701
REMARK INTER:                  -8.282
REMARK INTRA:                  -4.419
REMARK UNBOUND:                -4.023
REMARK SMILES CCCCCCCCCCCCCCCCCCCCCCCC(=O)[O-]
REMARK SMILES IDX 13 1 14 2 15 3 16 4 17 5 18 6 19 7 20 8 21 9 22 10 23 11
REMARK SMILES IDX 24 12 25 13 26 14 12 15 11 16 10 17 9 18 8 19 7 20 6 21 5 22
REMARK SMILES IDX 4 23 3 24 2 25 1 26
REMARK H PARENT
REMARK Flexibility Score: inf
ROOT
ATOM      1  C   UNL     1     143.130 132.012 116.109  1.00  0.00     0.000 C 
ENDROOT
BRANCH   1   2
ATOM      2  C   UNL     1     144.660 131.985 115.939  1.00  0.00     0.000 C 
BRANCH   2   3
ATOM      3  C   UNL     1     145.320 130.795 116.651  1.00  0.00     0.000 C 
BRANCH   3   4
ATOM      4  C   UNL     1     146.289 130.061 115.713  1.00  0.00     0.000 C 
BRANCH   4   5
ATOM      5  C   UNL     1     145.584 129.414 114.506  1.00  0.00     0.000 C 
BRANCH   5   6
ATOM      6  C   UNL     1     145.566 127.875 114.513  1.00  0.00     0.000 C 
BRANCH   6   7
ATOM      7  C   UNL     1     144.235 127.294 115.018  1.00  0.00     0.000 C 
BRANCH   7   8
ATOM      8  C   UNL     1     144.155 127.226 116.553  1.00  0.00     0.000 C 
BRANCH   8   9
ATOM      9  C   UNL     1     142.727 127.251 117.135  1.00  0.00     0.000 C 
BRANCH   9  10
ATOM     10  C   UNL     1     142.624 127.728 118.595  1.00  0.00     0.006 C 
BRANCH  10  11
ATOM     11  C   UNL     1     143.936 128.318 119.125  1.00  0.00     0.053 C 
BRANCH  11  12
ATOM     12  C   UNL     1     143.707 128.994 120.440  1.00  0.00     0.041 C 
ATOM     13  O   UNL     1     144.044 128.427 121.513  1.00  0.00    -0.550 OA
ATOM     14  O   UNL     1     143.078 130.231 120.484  1.00  0.00    -0.550 OA
ENDBRANCH  11  12
ENDBRANCH  10  11
ENDBRANCH   9  10
ENDBRANCH   8   9
ENDBRANCH   7   8
ENDBRANCH   6   7
ENDBRANCH   5   6
ENDBRANCH   4   5
ENDBRANCH   3   4
ENDBRANCH   2   3
ENDBRANCH   1   2
BRANCH   1  15
ATOM     15  C   UNL     1     142.437 130.640 116.006  1.00  0.00     0.000 C 
BRANCH  15  16
ATOM     16  C   UNL     1     142.050 130.273 114.563  1.00  0.00     0.000 C 
BRANCH  16  17
ATOM     17  C   UNL     1     140.925 129.227 114.498  1.00  0.00     0.000 C 
BRANCH  17  18
ATOM     18  C   UNL     1     139.715 129.705 113.676  1.00  0.00    -0.000 C 
BRANCH  18  19
ATOM     19  C   UNL     1     138.747 128.559 113.335  1.00  0.00    -0.000 C 
BRANCH  19  20
ATOM     20  C   UNL     1     138.714 127.474 114.425  1.00  0.00    -0.000 C 
BRANCH  20  21
ATOM     21  C   UNL     1     137.399 127.477 115.220  1.00  0.00    -0.000 C 
BRANCH  21  22
ATOM     22  C   UNL     1     137.599 127.108 116.700  1.00  0.00    -0.000 C 
BRANCH  22  23
ATOM     23  C   UNL     1     138.972 127.544 117.243  1.00  0.00    -0.000 C 
BRANCH  23  24
ATOM     24  C   UNL     1     138.924 128.615 118.350  1.00  0.00    -0.000 C 
BRANCH  24  25
ATOM     25  C   UNL     1     139.514 129.981 117.958  1.00  0.00    -0.003 C 
ATOM     26  C   UNL     1     138.605 130.774 117.019  1.00  0.00     0.004 C 
ENDBRANCH  24  25
ENDBRANCH  23  24
ENDBRANCH  22  23
ENDBRANCH  21  22
ENDBRANCH  20  21
ENDBRANCH  19  20
ENDBRANCH  18  19
ENDBRANCH  17  18
ENDBRANCH  16  17
ENDBRANCH  15  16
ENDBRANCH   1  15
TORSDOF 22
ENDMDL
MODEL 3
REMARK VINA RESULT:    -3.780      2.336      6.143
REMARK INTER + INTRA:         -12.666
REMARK INTER:                  -8.276
REMARK INTRA:                  -4.390
REMARK UNBOUND:                -4.023
REMARK SMILES CCCCCCCCCCCCCCCCCCCCCCCC(=O)[O-]
REMARK SMILES IDX 13 1 14 2 15 3 16 4 17 5 18 6 19 7 20 8 21 9 22 10 23 11
REMARK SMILES IDX 24 12 25 13 26 14 12 15 11 16 10 17 9 18 8 19 7 20 6 21 5 22
REMARK SMILES IDX 4 23 3 24 2 25 1 26
REMARK H PARENT
REMARK Flexibility Score: inf
ROOT
ATOM      1  C   UNL     1     141.018 130.660 115.595  1.00  0.00     0.000 C 
ENDROOT
BRANCH   1   2
ATOM      2  C   UNL     1     141.441 130.268 114.167  1.00  0.00     0.000 C 
BRANCH   2   3
ATOM      3  C   UNL     1     140.295 130.385 113.151  1.00  0.00     0.000 C 
BRANCH   3   4
ATOM      4  C   UNL     1     139.003 129.767 113.706  1.00  0.00     0.000 C 
BRANCH   4   5
ATOM      5  C   UNL     1     138.758 128.332 113.204  1.00  0.00     0.000 C 
BRANCH   5   6
ATOM      6  C   UNL     1     139.234 127.221 114.157  1.00  0.00     0.000 C 
BRANCH   6   7
ATOM      7  C   UNL     1     138.669 127.370 115.580  1.00  0.00     0.000 C 
BRANCH   7   8
ATOM      8  C   UNL     1     137.135 127.259 115.629  1.00  0.00     0.000 C 
BRANCH   8   9
ATOM      9  C   UNL     1     136.398 128.555 116.028  1.00  0.00     0.000 C 
BRANCH   9  10
ATOM     10  C   UNL     1     136.965 129.275 117.265  1.00  0.00     0.006 C 
BRANCH  10  11
ATOM     11  C   UNL     1     137.447 130.698 116.960  1.00  0.00     0.053 C 
BRANCH  11  12
ATOM     12  C   UNL     1     136.363 131.480 116.288  1.00  0.00     0.041 C 
ATOM     13  O   UNL     1     135.239 131.610 116.840  1.00  0.00    -0.550 OA
ATOM     14  O   UNL     1     136.579 132.026 115.029  1.00  0.00    -0.550 OA
ENDBRANCH  11  12
ENDBRANCH  10  11
ENDBRANCH   9  10
ENDBRANCH   8   9
ENDBRANCH   7   8
ENDBRANCH   6   7
ENDBRANCH   5   6
ENDBRANCH   4   5
ENDBRANCH   3   4
ENDBRANCH   2   3
ENDBRANCH   1   2
BRANCH   1  15
ATOM     15  C   UNL     1     142.176 130.829 116.596  1.00  0.00     0.000 C 
BRANCH  15  16
ATOM     16  C   UNL     1     143.540 131.011 115.907  1.00  0.00     0.000 C 
BRANCH  16  17
ATOM     17  C   UNL     1     144.718 130.600 116.805  1.00  0.00     0.000 C 
BRANCH  17  18
ATOM     18  C   UNL     1     145.828 129.867 116.031  1.00  0.00    -0.000 C 
BRANCH  18  19
ATOM     19  C   UNL     1     145.417 129.537 114.586  1.00  0.00    -0.000 C 
BRANCH  19  20
ATOM     20  C   UNL     1     145.556 128.039 114.263  1.00  0.00    -0.000 C 
BRANCH  20  21
ATOM     21  C   UNL     1     144.708 127.155 115.191  1.00  0.00    -0.000 C 
BRANCH  21  22
ATOM     22  C   UNL     1     143.197 127.312 114.944  1.00  0.00    -0.000 C 
BRANCH  22  23
ATOM     23  C   UNL     1     142.377 127.303 116.247  1.00  0.00    -0.000 C 
BRANCH  23  24
ATOM     24  C   UNL     1     143.213 127.290 117.542  1.00  0.00    -0.000 C 
BRANCH  24  25
ATOM     25  C   UNL     1     142.401 127.441 118.840  1.00  0.00    -0.003 C 
ATOM     26  C   UNL     1     140.954 127.867 118.590  1.00  0.00     0.004 C 
ENDBRANCH  24  25
ENDBRANCH  23  24
ENDBRANCH  22  23
ENDBRANCH  21  22
ENDBRANCH  20  21
ENDBRANCH  19  20
ENDBRANCH  18  19
ENDBRANCH  17  18
ENDBRANCH  16  17
ENDBRANCH  15  16
ENDBRANCH   1  15
TORSDOF 22
ENDMDL
MODEL 4
REMARK VINA RESULT:    -3.722      1.549      4.516
REMARK INTER + INTRA:         -12.533
REMARK INTER:                  -8.343
REMARK INTRA:                  -4.189
REMARK UNBOUND:                -4.023
REMARK SMILES CCCCCCCCCCCCCCCCCCCCCCCC(=O)[O-]
REMARK SMILES IDX 13 1 14 2 15 3 16 4 17 5 18 6 19 7 20 8 21 9 22 10 23 11
REMARK SMILES IDX 24 12 25 13 26 14 12 15 11 16 10 17 9 18 8 19 7 20 6 21 5 22
REMARK SMILES IDX 4 23 3 24 2 25 1 26
REMARK H PARENT
REMARK Flexibility Score: inf
ROOT
ATOM      1  C   UNL     1     139.442 127.333 117.062  1.00  0.00     0.000 C 
ENDROOT
BRANCH   1   2
ATOM      2  C   UNL     1     138.255 128.073 116.420  1.00  0.00     0.000 C 
BRANCH   2   3
ATOM      3  C   UNL     1     137.835 127.473 115.070  1.00  0.00     0.000 C 
BRANCH   3   4
ATOM      4  C   UNL     1     138.846 127.831 113.971  1.00  0.00     0.000 C 
BRANCH   4   5
ATOM      5  C   UNL     1     138.837 129.329 113.609  1.00  0.00     0.000 C 
BRANCH   5   6
ATOM      6  C   UNL     1     140.226 129.986 113.532  1.00  0.00     0.000 C 
BRANCH   6   7
ATOM      7  C   UNL     1     140.644 130.658 114.852  1.00  0.00     0.000 C 
BRANCH   7   8
ATOM      8  C   UNL     1     142.167 130.844 114.972  1.00  0.00     0.000 C 
BRANCH   8   9
ATOM      9  C   UNL     1     142.642 131.516 116.278  1.00  0.00     0.000 C 
BRANCH   9  10
ATOM     10  C   UNL     1     144.141 131.862 116.327  1.00  0.00     0.006 C 
BRANCH  10  11
ATOM     11  C   UNL     1     144.416 133.355 116.111  1.00  0.00     0.053 C 
BRANCH  11  12
ATOM     12  C   UNL     1     145.446 133.838 117.084  1.00  0.00     0.041 C 
ATOM     13  O   UNL     1     145.098 134.254 118.220  1.00  0.00    -0.550 OA
ATOM     14  O   UNL     1     146.785 133.873 116.717  1.00  0.00    -0.550 OA
ENDBRANCH  11  12
ENDBRANCH  10  11
ENDBRANCH   9  10
ENDBRANCH   8   9
ENDBRANCH   7   8
ENDBRANCH   6   7
ENDBRANCH   5   6
ENDBRANCH   4   5
ENDBRANCH   3   4
ENDBRANCH   2   3
ENDBRANCH   1   2
BRANCH   1  15
ATOM     15  C   UNL     1     140.547 128.241 117.634  1.00  0.00     0.000 C 
BRANCH  15  16
ATOM     16  C   UNL     1     141.948 127.875 117.116  1.00  0.00     0.000 C 
BRANCH  16  17
ATOM     17  C   UNL     1     141.909 127.129 115.772  1.00  0.00     0.000 C 
BRANCH  17  18
ATOM     18  C   UNL     1     143.006 127.598 114.800  1.00  0.00    -0.000 C 
BRANCH  18  19
ATOM     19  C   UNL     1     144.417 127.209 115.274  1.00  0.00    -0.000 C 
BRANCH  19  20
ATOM     20  C   UNL     1     145.455 128.308 114.991  1.00  0.00    -0.000 C 
BRANCH  20  21
ATOM     21  C   UNL     1     146.030 128.922 116.277  1.00  0.00    -0.000 C 
BRANCH  21  22
ATOM     22  C   UNL     1     145.647 128.126 117.538  1.00  0.00    -0.000 C 
BRANCH  22  23
ATOM     23  C   UNL     1     145.283 129.034 118.727  1.00  0.00    -0.000 C 
BRANCH  23  24
ATOM     24  C   UNL     1     144.518 128.335 119.868  1.00  0.00    -0.000 C 
BRANCH  24  25
ATOM     25  C   UNL     1     143.421 129.187 120.530  1.00  0.00    -0.003 C 
ATOM     26  C   UNL     1     143.167 130.504 119.797  1.00  0.00     0.004 C 
ENDBRANCH  24  25
ENDBRANCH  23  24
ENDBRANCH  22  23
ENDBRANCH  21  22
ENDBRANCH  20  21
ENDBRANCH  19  20
ENDBRANCH  18  19
ENDBRANCH  17  18
ENDBRANCH  16  17
ENDBRANCH  15  16
ENDBRANCH   1  15
TORSDOF 22
ENDMDL
MODEL 5
REMARK VINA RESULT:    -3.628      2.386      6.050
REMARK INTER + INTRA:         -12.316
REMARK INTER:                  -8.423
REMARK INTRA:                  -3.893
REMARK UNBOUND:                -4.023
REMARK SMILES CCCCCCCCCCCCCCCCCCCCCCCC(=O)[O-]
REMARK SMILES IDX 13 1 14 2 15 3 16 4 17 5 18 6 19 7 20 8 21 9 22 10 23 11
REMARK SMILES IDX 24 12 25 13 26 14 12 15 11 16 10 17 9 18 8 19 7 20 6 21 5 22
REMARK SMILES IDX 4 23 3 24 2 25 1 26
REMARK H PARENT
REMARK Flexibility Score: inf
ROOT
ATOM      1  C   UNL     1     142.084 128.638 115.571  1.00  0.00     0.000 C 
ENDROOT
BRANCH   1   2
ATOM      2  C   UNL     1     142.085 129.857 114.630  1.00  0.00     0.000 C 
BRANCH   2   3
ATOM      3  C   UNL     1     140.745 130.607 114.621  1.00  0.00     0.000 C 
BRANCH   3   4
ATOM      4  C   UNL     1     139.995 130.378 113.299  1.00  0.00     0.000 C 
BRANCH   4   5
ATOM      5  C   UNL     1     138.643 129.666 113.490  1.00  0.00     0.000 C 
BRANCH   5   6
ATOM      6  C   UNL     1     138.559 128.257 112.878  1.00  0.00     0.000 C 
BRANCH   6   7
ATOM      7  C   UNL     1     139.034 127.157 113.843  1.00  0.00     0.000 C 
BRANCH   7   8
ATOM      8  C   UNL     1     138.316 127.203 115.203  1.00  0.00     0.000 C 
BRANCH   8   9
ATOM      9  C   UNL     1     139.224 126.977 116.430  1.00  0.00     0.000 C 
BRANCH   9  10
ATOM     10  C   UNL     1     138.831 127.771 117.689  1.00  0.00     0.006 C 
BRANCH  10  11
ATOM     11  C   UNL     1     137.796 128.866 117.406  1.00  0.00     0.053 C 
BRANCH  11  12
ATOM     12  C   UNL     1     136.523 128.578 118.139  1.00  0.00     0.041 C 
ATOM     13  O   UNL     1     136.248 129.199 119.199  1.00  0.00    -0.550 OA
ATOM     14  O   UNL     1     135.663 127.591 117.675  1.00  0.00    -0.550 OA
ENDBRANCH  11  12
ENDBRANCH  10  11
ENDBRANCH   9  10
ENDBRANCH   8   9
ENDBRANCH   7   8
ENDBRANCH   6   7
ENDBRANCH   5   6
ENDBRANCH   4   5
ENDBRANCH   3   4
ENDBRANCH   2   3
ENDBRANCH   1   2
BRANCH   1  15
ATOM     15  C   UNL     1     142.769 127.378 115.009  1.00  0.00     0.000 C 
BRANCH  15  16
ATOM     16  C   UNL     1     144.246 127.266 115.424  1.00  0.00     0.000 C 
BRANCH  16  17
ATOM     17  C   UNL     1     145.202 127.876 114.386  1.00  0.00     0.000 C 
BRANCH  17  18
ATOM     18  C   UNL     1     145.634 129.308 114.746  1.00  0.00    -0.000 C 
BRANCH  18  19
ATOM     19  C   UNL     1     145.994 129.457 116.233  1.00  0.00    -0.000 C 
BRANCH  19  20
ATOM     20  C   UNL     1     145.091 130.469 116.958  1.00  0.00    -0.000 C 
BRANCH  20  21
ATOM     21  C   UNL     1     144.866 130.107 118.435  1.00  0.00    -0.000 C 
BRANCH  21  22
ATOM     22  C   UNL     1     143.485 129.478 118.689  1.00  0.00    -0.000 C 
BRANCH  22  23
ATOM     23  C   UNL     1     143.559 127.960 118.935  1.00  0.00    -0.000 C 
BRANCH  23  24
ATOM     24  C   UNL     1     142.206 127.282 119.231  1.00  0.00    -0.000 C 
BRANCH  24  25
ATOM     25  C   UNL     1     141.800 127.264 120.714  1.00  0.00    -0.003 C 
ATOM     26  C   UNL     1     140.311 127.537 120.927  1.00  0.00     0.004 C 
ENDBRANCH  24  25
ENDBRANCH  23  24
ENDBRANCH  22  23
ENDBRANCH  21  22
ENDBRANCH  20  21
ENDBRANCH  19  20
ENDBRANCH  18  19
ENDBRANCH  17  18
ENDBRANCH  16  17
ENDBRANCH  15  16
ENDBRANCH   1  15
TORSDOF 22
ENDMDL
MODEL 6
REMARK VINA RESULT:    -3.625      2.173      5.427
REMARK INTER + INTRA:         -12.310
REMARK INTER:                  -8.341
REMARK INTRA:                  -3.968
REMARK UNBOUND:                -4.023
REMARK SMILES CCCCCCCCCCCCCCCCCCCCCCCC(=O)[O-]
REMARK SMILES IDX 13 1 14 2 15 3 16 4 17 5 18 6 19 7 20 8 21 9 22 10 23 11
REMARK SMILES IDX 24 12 25 13 26 14 12 15 11 16 10 17 9 18 8 19 7 20 6 21 5 22
REMARK SMILES IDX 4 23 3 24 2 25 1 26
REMARK H PARENT
REMARK Flexibility Score: inf
ROOT
ATOM      1  C   UNL     1     139.352 129.835 114.167  1.00  0.00     0.000 C 
ENDROOT
BRANCH   1   2
ATOM      2  C   UNL     1     138.873 128.526 113.513  1.00  0.00     0.000 C 
BRANCH   2   3
ATOM      3  C   UNL     1     138.582 127.418 114.537  1.00  0.00     0.000 C 
BRANCH   3   4
ATOM      4  C   UNL     1     137.388 127.792 115.428  1.00  0.00     0.000 C 
BRANCH   4   5
ATOM      5  C   UNL     1     137.525 127.266 116.869  1.00  0.00     0.000 C 
BRANCH   5   6
ATOM      6  C   UNL     1     138.963 126.939 117.307  1.00  0.00     0.000 C 
BRANCH   6   7
ATOM      7  C   UNL     1     139.411 127.744 118.539  1.00  0.00     0.000 C 
BRANCH   7   8
ATOM      8  C   UNL     1     140.111 126.876 119.600  1.00  0.00     0.000 C 
BRANCH   8   9
ATOM      9  C   UNL     1     141.587 127.235 119.868  1.00  0.00     0.000 C 
BRANCH   9  10
ATOM     10  C   UNL     1     141.820 128.630 120.476  1.00  0.00     0.006 C 
BRANCH  10  11
ATOM     11  C   UNL     1     143.206 129.199 120.152  1.00  0.00     0.053 C 
BRANCH  11  12
ATOM     12  C   UNL     1     144.256 128.494 120.952  1.00  0.00     0.041 C 
ATOM     13  O   UNL     1     144.119 128.354 122.195  1.00  0.00    -0.550 OA
ATOM     14  O   UNL     1     145.410 128.034 120.330  1.00  0.00    -0.550 OA
ENDBRANCH  11  12
ENDBRANCH  10  11
ENDBRANCH   9  10
ENDBRANCH   8   9
ENDBRANCH   7   8
ENDBRANCH   6   7
ENDBRANCH   5   6
ENDBRANCH   4   5
ENDBRANCH   3   4
ENDBRANCH   2   3
ENDBRANCH   1   2
BRANCH   1  15
ATOM     15  C   UNL     1     140.620 130.450 113.546  1.00  0.00     0.000 C 
BRANCH  15  16
ATOM     16  C   UNL     1     141.908 130.023 114.272  1.00  0.00     0.000 C 
BRANCH  16  17
ATOM     17  C   UNL     1     141.839 130.257 115.791  1.00  0.00     0.000 C 
BRANCH  17  18
ATOM     18  C   UNL     1     142.020 128.961 116.601  1.00  0.00    -0.000 C 
BRANCH  18  19
ATOM     19  C   UNL     1     142.192 127.725 115.701  1.00  0.00    -0.000 C 
BRANCH  19  20
ATOM     20  C   UNL     1     143.653 127.249 115.630  1.00  0.00    -0.000 C 
BRANCH  20  21
ATOM     21  C   UNL     1     144.400 127.438 116.960  1.00  0.00    -0.000 C 
BRANCH  21  22
ATOM     22  C   UNL     1     145.794 128.061 116.775  1.00  0.00    -0.000 C 
BRANCH  22  23
ATOM     23  C   UNL     1     145.886 128.952 115.523  1.00  0.00    -0.000 C 
BRANCH  23  24
ATOM     24  C   UNL     1     146.272 130.420 115.796  1.00  0.00    -0.000 C 
BRANCH  24  25
ATOM     25  C   UNL     1     145.111 131.323 116.246  1.00  0.00    -0.003 C 
ATOM     26  C   UNL     1     145.000 131.436 117.766  1.00  0.00     0.004 C 
ENDBRANCH  24  25
ENDBRANCH  23  24
ENDBRANCH  22  23
ENDBRANCH  21  22
ENDBRANCH  20  21
ENDBRANCH  19  20
ENDBRANCH  18  19
ENDBRANCH  17  18
ENDBRANCH  16  17
ENDBRANCH  15  16
ENDBRANCH   1  15
TORSDOF 22
ENDMDL
MODEL 7
REMARK VINA RESULT:    -3.589      8.792     12.332
REMARK INTER + INTRA:         -12.229
REMARK INTER:                  -7.826
REMARK INTRA:                  -4.403
REMARK UNBOUND:                -4.023
REMARK SMILES CCCCCCCCCCCCCCCCCCCCCCCC(=O)[O-]
REMARK SMILES IDX 13 1 14 2 15 3 16 4 17 5 18 6 19 7 20 8 21 9 22 10 23 11
REMARK SMILES IDX 24 12 25 13 26 14 12 15 11 16 10 17 9 18 8 19 7 20 6 21 5 22
REMARK SMILES IDX 4 23 3 24 2 25 1 26
REMARK H PARENT
REMARK Flexibility Score: inf
ROOT
ATOM      1  C   UNL     1     131.854 130.906 115.795  1.00  0.00     0.000 C 
ENDROOT
BRANCH   1   2
ATOM      2  C   UNL     1     132.425 132.318 115.570  1.00  0.00     0.000 C 
BRANCH   2   3
ATOM      3  C   UNL     1     131.663 133.107 114.494  1.00  0.00     0.000 C 
BRANCH   3   4
ATOM      4  C   UNL     1     130.858 132.165 113.587  1.00  0.00     0.000 C 
BRANCH   4   5
ATOM      5  C   UNL     1     129.561 132.803 113.056  1.00  0.00     0.000 C 
BRANCH   5   6
ATOM      6  C   UNL     1     128.263 132.221 113.645  1.00  0.00     0.000 C 
BRANCH   6   7
ATOM      7  C   UNL     1     128.493 130.912 114.421  1.00  0.00     0.000 C 
BRANCH   7   8
ATOM      8  C   UNL     1     128.025 130.994 115.884  1.00  0.00     0.000 C 
BRANCH   8   9
ATOM      9  C   UNL     1     128.467 132.264 116.641  1.00  0.00     0.000 C 
BRANCH   9  10
ATOM     10  C   UNL     1     129.119 132.013 118.013  1.00  0.00     0.006 C 
BRANCH  10  11
ATOM     11  C   UNL     1     128.431 130.896 118.807  1.00  0.00     0.053 C 
BRANCH  11  12
ATOM     12  C   UNL     1     128.630 131.105 120.275  1.00  0.00     0.041 C 
ATOM     13  O   UNL     1     128.753 132.268 120.740  1.00  0.00    -0.550 OA
ATOM     14  O   UNL     1     128.727 130.010 121.125  1.00  0.00    -0.550 OA
ENDBRANCH  11  12
ENDBRANCH  10  11
ENDBRANCH   9  10
ENDBRANCH   8   9
ENDBRANCH   7   8
ENDBRANCH   6   7
ENDBRANCH   5   6
ENDBRANCH   4   5
ENDBRANCH   3   4
ENDBRANCH   2   3
ENDBRANCH   1   2
BRANCH   1  15
ATOM     15  C   UNL     1     132.791 129.751 115.396  1.00  0.00     0.000 C 
BRANCH  15  16
ATOM     16  C   UNL     1     132.151 128.785 114.383  1.00  0.00     0.000 C 
BRANCH  16  17
ATOM     17  C   UNL     1     131.653 127.485 115.035  1.00  0.00     0.000 C 
BRANCH  17  18
ATOM     18  C   UNL     1     130.142 127.505 115.324  1.00  0.00    -0.000 C 
BRANCH  18  19
ATOM     19  C   UNL     1     129.822 128.005 116.743  1.00  0.00    -0.000 C 
BRANCH  19  20
ATOM     20  C   UNL     1     130.572 127.214 117.828  1.00  0.00    -0.000 C 
BRANCH  20  21
ATOM     21  C   UNL     1     131.122 128.118 118.943  1.00  0.00    -0.000 C 
BRANCH  21  22
ATOM     22  C   UNL     1     132.619 128.430 118.771  1.00  0.00    -0.000 C 
BRANCH  22  23
ATOM     23  C   UNL     1     133.403 127.260 118.149  1.00  0.00    -0.000 C 
BRANCH  23  24
ATOM     24  C   UNL     1     134.783 127.635 117.572  1.00  0.00    -0.000 C 
BRANCH  24  25
ATOM     25  C   UNL     1     135.180 126.875 116.295  1.00  0.00    -0.003 C 
ATOM     26  C   UNL     1     136.578 127.239 115.797  1.00  0.00     0.004 C 
ENDBRANCH  24  25
ENDBRANCH  23  24
ENDBRANCH  22  23
ENDBRANCH  21  22
ENDBRANCH  20  21
ENDBRANCH  19  20
ENDBRANCH  18  19
ENDBRANCH  17  18
ENDBRANCH  16  17
ENDBRANCH  15  16
ENDBRANCH   1  15
TORSDOF 22
ENDMDL
MODEL 8
REMARK VINA RESULT:    -3.584      2.070      6.173
REMARK INTER + INTRA:         -12.216
REMARK INTER:                  -7.672
REMARK INTRA:                  -4.545
REMARK UNBOUND:                -4.023
REMARK SMILES CCCCCCCCCCCCCCCCCCCCCCCC(=O)[O-]
REMARK SMILES IDX 13 1 14 2 15 3 16 4 17 5 18 6 19 7 20 8 21 9 22 10 23 11
REMARK SMILES IDX 24 12 25 13 26 14 12 15 11 16 10 17 9 18 8 19 7 20 6 21 5 22
REMARK SMILES IDX 4 23 3 24 2 25 1 26
REMARK H PARENT
REMARK Flexibility Score: inf
ROOT
ATOM      1  C   UNL     1     141.712 131.403 117.652  1.00  0.00     0.000 C 
ENDROOT
BRANCH   1   2
ATOM      2  C   UNL     1     141.290 130.483 116.491  1.00  0.00     0.000 C 
BRANCH   2   3
ATOM      3  C   UNL     1     141.787 130.977 115.125  1.00  0.00     0.000 C 
BRANCH   3   4
ATOM      4  C   UNL     1     141.335 130.034 114.000  1.00  0.00     0.000 C 
BRANCH   4   5
ATOM      5  C   UNL     1     139.922 130.356 113.477  1.00  0.00     0.000 C 
BRANCH   5   6
ATOM      6  C   UNL     1     138.953 129.161 113.445  1.00  0.00     0.000 C 
BRANCH   6   7
ATOM      7  C   UNL     1     138.169 128.993 114.758  1.00  0.00     0.000 C 
BRANCH   7   8
ATOM      8  C   UNL     1     138.256 127.566 115.328  1.00  0.00     0.000 C 
BRANCH   8   9
ATOM      9  C   UNL     1     139.687 127.061 115.608  1.00  0.00     0.000 C 
BRANCH   9  10
ATOM     10  C   UNL     1     140.115 127.094 117.086  1.00  0.00     0.006 C 
BRANCH  10  11
ATOM     11  C   UNL     1     139.175 127.932 117.961  1.00  0.00     0.053 C 
BRANCH  11  12
ATOM     12  C   UNL     1     139.620 127.888 119.390  1.00  0.00     0.041 C 
ATOM     13  O   UNL     1     140.219 126.875 119.837  1.00  0.00    -0.550 OA
ATOM     14  O   UNL     1     139.331 128.948 120.240  1.00  0.00    -0.550 OA
ENDBRANCH  11  12
ENDBRANCH  10  11
ENDBRANCH   9  10
ENDBRANCH   8   9
ENDBRANCH   7   8
ENDBRANCH   6   7
ENDBRANCH   5   6
ENDBRANCH   4   5
ENDBRANCH   3   4
ENDBRANCH   2   3
ENDBRANCH   1   2
BRANCH   1  15
ATOM     15  C   UNL     1     142.402 130.693 118.831  1.00  0.00     0.000 C 
BRANCH  15  16
ATOM     16  C   UNL     1     143.929 130.603 118.664  1.00  0.00     0.000 C 
BRANCH  16  17
ATOM     17  C   UNL     1     144.460 129.168 118.819  1.00  0.00     0.000 C 
BRANCH  17  18
ATOM     18  C   UNL     1     143.389 128.103 118.526  1.00  0.00    -0.000 C 
BRANCH  18  19
ATOM     19  C   UNL     1     143.855 127.072 117.484  1.00  0.00    -0.000 C 
BRANCH  19  20
ATOM     20  C   UNL     1     143.714 127.590 116.042  1.00  0.00    -0.000 C 
BRANCH  20  21
ATOM     21  C   UNL     1     145.040 127.537 115.265  1.00  0.00    -0.000 C 
BRANCH  21  22
ATOM     22  C   UNL     1     145.255 128.771 114.372  1.00  0.00    -0.000 C 
BRANCH  22  23
ATOM     23  C   UNL     1     145.093 130.096 115.140  1.00  0.00    -0.000 C 
BRANCH  23  24
ATOM     24  C   UNL     1     146.381 130.626 115.802  1.00  0.00    -0.000 C 
BRANCH  24  25
ATOM     25  C   UNL     1     146.306 132.083 116.290  1.00  0.00    -0.003 C 
ATOM     26  C   UNL     1     145.009 132.782 115.882  1.00  0.00     0.004 C 
ENDBRANCH  24  25
ENDBRANCH  23  24
ENDBRANCH  22  23
ENDBRANCH  21  22
ENDBRANCH  20  21
ENDBRANCH  19  20
ENDBRANCH  18  19
ENDBRANCH  17  18
ENDBRANCH  16  17
ENDBRANCH  15  16
ENDBRANCH   1  15
TORSDOF 22
ENDMDL
