MODEL 1
REMARK VINA RESULT:    -4.232      0.000      0.000
REMARK INTER + INTRA:         -16.231
REMARK INTER:                 -11.160
REMARK INTRA:                  -5.071
REMARK UNBOUND:                -5.071
REMARK SMILES CCCCCCCCCCCCCCCCCCCCCCCCCCCCCC(=O)[O-]
REMARK SMILES IDX 16 1 17 2 18 3 19 4 20 5 21 6 22 7 23 8 24 9 25 10 26 11
REMARK SMILES IDX 27 12 28 13 29 14 30 15 31 16 32 17 15 18 14 19 13 20 12 21
REMARK SMILES IDX 11 22 10 23 9 24 8 25 7 26 6 27 5 28 4 29 3 30 2 31 1 32
REMARK H PARENT
REMARK Flexibility Score: inf
ROOT
ATOM      1  C   UNL     1     192.679  -1.060 105.070  1.00  0.00     0.000 C 
ENDROOT
BRANCH   1   2
ATOM      2  C   UNL     1     191.893   0.021 105.829  1.00  0.00     0.000 C 
BRANCH   2   3
ATOM      3  C   UNL     1     192.749   1.276 106.033  1.00  0.00     0.000 C 
BRANCH   3   4
ATOM      4  C   UNL     1     193.624   1.561 104.805  1.00  0.00     0.000 C 
BRANCH   4   5
ATOM      5  C   UNL     1     192.934   2.449 103.754  1.00  0.00     0.000 C 
BRANCH   5   6
ATOM      6  C   UNL     1     193.673   2.543 102.400  1.00  0.00     0.000 C 
BRANCH   6   7
ATOM      7  C   UNL     1     193.047   1.757 101.224  1.00  0.00     0.000 C 
BRANCH   7   8
ATOM      8  C   UNL     1     192.400   0.406 101.581  1.00  0.00     0.000 C 
BRANCH   8   9
ATOM      9  C   UNL     1     193.208  -0.800 101.081  1.00  0.00     0.000 C 
BRANCH   9  10
ATOM     10  C   UNL     1     194.454  -1.024 101.950  1.00  0.00     0.000 C 
BRANCH  10  11
ATOM     11  C   UNL     1     195.611  -1.677 101.166  1.00  0.00     0.000 C 
BRANCH  11  12
ATOM     12  C   UNL     1     195.463  -3.201 100.989  1.00  0.00     0.000 C 
BRANCH  12  13
ATOM     13  C   UNL     1     195.069  -3.665  99.572  1.00  0.00     0.006 C 
BRANCH  13  14
ATOM     14  C   UNL     1     193.599  -4.096  99.433  1.00  0.00     0.053 C 
BRANCH  14  15
ATOM     15  C   UNL     1     193.327  -4.730  98.104  1.00  0.00     0.041 C 
ATOM     16  O   UNL     1     192.323  -5.472  97.949  1.00  0.00    -0.550 OA
ATOM     17  O   UNL     1     194.161  -4.466  97.025  1.00  0.00    -0.550 OA
ENDBRANCH  14  15
ENDBRANCH  13  14
ENDBRANCH  12  13
ENDBRANCH  11  12
ENDBRANCH  10  11
ENDBRANCH   9  10
ENDBRANCH   8   9
ENDBRANCH   7   8
ENDBRANCH   6   7
ENDBRANCH   5   6
ENDBRANCH   4   5
ENDBRANCH   3   4
ENDBRANCH   2   3
ENDBRANCH   1   2
BRANCH   1  18
ATOM     18  C   UNL     1     191.998  -2.444 105.131  1.00  0.00     0.000 C 
BRANCH  18  19
ATOM     19  C   UNL     1     191.543  -2.972 103.757  1.00  0.00     0.000 C 
BRANCH  19  20
ATOM     20  C   UNL     1     192.542  -3.912 103.059  1.00  0.00     0.000 C 
BRANCH  20  21
ATOM     21  C   UNL     1     192.851  -5.216 103.821  1.00  0.00     0.000 C 
BRANCH  21  22
ATOM     22  C   UNL     1     192.117  -6.465 103.296  1.00  0.00     0.000 C 
BRANCH  22  23
ATOM     23  C   UNL     1     192.617  -6.995 101.937  1.00  0.00     0.000 C 
BRANCH  23  24
ATOM     24  C   UNL     1     191.517  -7.246 100.889  1.00  0.00    -0.000 C 
BRANCH  24  25
ATOM     25  C   UNL     1     190.419  -6.167 100.908  1.00  0.00    -0.000 C 
BRANCH  25  26
ATOM     26  C   UNL     1     189.004  -6.766 100.911  1.00  0.00    -0.000 C 
BRANCH  26  27
ATOM     27  C   UNL     1     188.290  -6.604 102.265  1.00  0.00    -0.000 C 
BRANCH  27  28
ATOM     28  C   UNL     1     188.536  -7.794 103.206  1.00  0.00    -0.000 C 
BRANCH  28  29
ATOM     29  C   UNL     1     188.780  -7.357 104.660  1.00  0.00    -0.000 C 
BRANCH  29  30
ATOM     30  C   UNL     1     188.638  -5.835 104.808  1.00  0.00    -0.000 C 
BRANCH  30  31
ATOM     31  C   UNL     1     189.614  -5.250 105.841  1.00  0.00    -0.003 C 
ATOM     32  C   UNL     1     188.984  -4.148 106.692  1.00  0.00     0.004 C 
ENDBRANCH  30  31
ENDBRANCH  29  30
ENDBRANCH  28  29
ENDBRANCH  27  28
ENDBRANCH  26  27
ENDBRANCH  25  26
ENDBRANCH  24  25
ENDBRANCH  23  24
ENDBRANCH  22  23
ENDBRANCH  21  22
ENDBRANCH  20  21
ENDBRANCH  19  20
ENDBRANCH  18  19
ENDBRANCH   1  18
TORSDOF 28
ENDMDL
MODEL 2
REMARK VINA RESULT:    -4.132      2.983      4.877
REMARK INTER + INTRA:         -15.967
REMARK INTER:                 -12.358
REMARK INTRA:                  -3.609
REMARK UNBOUND:                -5.071
REMARK SMILES CCCCCCCCCCCCCCCCCCCCCCCCCCCCCC(=O)[O-]
REMARK SMILES IDX 16 1 17 2 18 3 19 4 20 5 21 6 22 7 23 8 24 9 25 10 26 11
REMARK SMILES IDX 27 12 28 13 29 14 30 15 31 16 32 17 15 18 14 19 13 20 12 21
REMARK SMILES IDX 11 22 10 23 9 24 8 25 7 26 6 27 5 28 4 29 3 30 2 31 1 32
REMARK H PARENT
REMARK Flexibility Score: inf
ROOT
ATOM      1  C   UNL     1     193.034  -2.452 105.121  1.00  0.00     0.000 C 
ENDROOT
BRANCH   1   2
ATOM      2  C   UNL     1     193.031  -0.970 105.529  1.00  0.00     0.000 C 
BRANCH   2   3
ATOM      3  C   UNL     1     191.633  -0.363 105.371  1.00  0.00     0.000 C 
BRANCH   3   4
ATOM      4  C   UNL     1     191.625   1.126 105.743  1.00  0.00     0.000 C 
BRANCH   4   5
ATOM      5  C   UNL     1     193.002   1.655 106.180  1.00  0.00     0.000 C 
BRANCH   5   6
ATOM      6  C   UNL     1     193.677   2.615 105.174  1.00  0.00     0.000 C 
BRANCH   6   7
ATOM      7  C   UNL     1     192.999   2.739 103.790  1.00  0.00     0.000 C 
BRANCH   7   8
ATOM      8  C   UNL     1     193.675   1.980 102.633  1.00  0.00     0.000 C 
BRANCH   8   9
ATOM      9  C   UNL     1     193.380   2.589 101.256  1.00  0.00     0.000 C 
BRANCH   9  10
ATOM     10  C   UNL     1     192.570   1.615 100.387  1.00  0.00     0.000 C 
BRANCH  10  11
ATOM     11  C   UNL     1     192.237   2.198  98.999  1.00  0.00     0.000 C 
BRANCH  11  12
ATOM     12  C   UNL     1     192.009   3.722  99.000  1.00  0.00     0.000 C 
BRANCH  12  13
ATOM     13  C   UNL     1     191.479   4.311  97.677  1.00  0.00     0.006 C 
BRANCH  13  14
ATOM     14  C   UNL     1     190.956   3.261  96.681  1.00  0.00     0.053 C 
BRANCH  14  15
ATOM     15  C   UNL     1     191.673   3.331  95.368  1.00  0.00     0.041 C 
ATOM     16  O   UNL     1     192.159   2.291  94.854  1.00  0.00    -0.550 OA
ATOM     17  O   UNL     1     191.766   4.541  94.692  1.00  0.00    -0.550 OA
ENDBRANCH  14  15
ENDBRANCH  13  14
ENDBRANCH  12  13
ENDBRANCH  11  12
ENDBRANCH  10  11
ENDBRANCH   9  10
ENDBRANCH   8   9
ENDBRANCH   7   8
ENDBRANCH   6   7
ENDBRANCH   5   6
ENDBRANCH   4   5
ENDBRANCH   3   4
ENDBRANCH   2   3
ENDBRANCH   1   2
BRANCH   1  18
ATOM     18  C   UNL     1     193.980  -2.741 103.936  1.00  0.00     0.000 C 
BRANCH  18  19
ATOM     19  C   UNL     1     193.978  -1.640 102.859  1.00  0.00     0.000 C 
BRANCH  19  20
ATOM     20  C   UNL     1     192.767  -1.664 101.908  1.00  0.00     0.000 C 
BRANCH  20  21
ATOM     21  C   UNL     1     193.094  -2.032 100.447  1.00  0.00     0.000 C 
BRANCH  21  22
ATOM     22  C   UNL     1     194.348  -2.910 100.263  1.00  0.00     0.000 C 
BRANCH  22  23
ATOM     23  C   UNL     1     194.109  -4.246  99.532  1.00  0.00     0.000 C 
BRANCH  23  24
ATOM     24  C   UNL     1     192.637  -4.557  99.203  1.00  0.00    -0.000 C 
BRANCH  24  25
ATOM     25  C   UNL     1     192.026  -5.613 100.142  1.00  0.00    -0.000 C 
BRANCH  25  26
ATOM     26  C   UNL     1     191.118  -4.991 101.214  1.00  0.00    -0.000 C 
BRANCH  26  27
ATOM     27  C   UNL     1     191.480  -5.445 102.640  1.00  0.00    -0.000 C 
BRANCH  27  28
ATOM     28  C   UNL     1     190.567  -6.571 103.150  1.00  0.00    -0.000 C 
BRANCH  28  29
ATOM     29  C   UNL     1     189.111  -6.116 103.332  1.00  0.00    -0.000 C 
BRANCH  29  30
ATOM     30  C   UNL     1     188.132  -7.184 102.823  1.00  0.00    -0.000 C 
BRANCH  30  31
ATOM     31  C   UNL     1     187.743  -6.972 101.351  1.00  0.00    -0.003 C 
ATOM     32  C   UNL     1     188.385  -7.997 100.416  1.00  0.00     0.004 C 
ENDBRANCH  30  31
ENDBRANCH  29  30
ENDBRANCH  28  29
ENDBRANCH  27  28
ENDBRANCH  26  27
ENDBRANCH  25  26
ENDBRANCH  24  25
ENDBRANCH  23  24
ENDBRANCH  22  23
ENDBRANCH  21  22
ENDBRANCH  20  21
ENDBRANCH  19  20
ENDBRANCH  18  19
ENDBRANCH   1  18
TORSDOF 28
ENDMDL
MODEL 3
REMARK VINA RESULT:    -4.102      3.418      5.826
REMARK INTER + INTRA:         -15.889
REMARK INTER:                 -11.354
REMARK INTRA:                  -4.535
REMARK UNBOUND:                -5.071
REMARK SMILES CCCCCCCCCCCCCCCCCCCCCCCCCCCCCC(=O)[O-]
REMARK SMILES IDX 16 1 17 2 18 3 19 4 20 5 21 6 22 7 23 8 24 9 25 10 26 11
REMARK SMILES IDX 27 12 28 13 29 14 30 15 31 16 32 17 15 18 14 19 13 20 12 21
REMARK SMILES IDX 11 22 10 23 9 24 8 25 7 26 6 27 5 28 4 29 3 30 2 31 1 32
REMARK H PARENT
REMARK Flexibility Score: inf
ROOT
ATOM      1  C   UNL     1     193.273  -1.361 106.222  1.00  0.00     0.000 C 
ENDROOT
BRANCH   1   2
ATOM      2  C   UNL     1     191.875  -0.780 106.488  1.00  0.00     0.000 C 
BRANCH   2   3
ATOM      3  C   UNL     1     191.687   0.550 105.749  1.00  0.00     0.000 C 
BRANCH   3   4
ATOM      4  C   UNL     1     192.424   1.692 106.461  1.00  0.00     0.000 C 
BRANCH   4   5
ATOM      5  C   UNL     1     193.404   2.452 105.549  1.00  0.00     0.000 C 
BRANCH   5   6
ATOM      6  C   UNL     1     193.753   1.728 104.229  1.00  0.00     0.000 C 
BRANCH   6   7
ATOM      7  C   UNL     1     193.536   2.538 102.929  1.00  0.00     0.000 C 
BRANCH   7   8
ATOM      8  C   UNL     1     193.017   1.744 101.716  1.00  0.00     0.000 C 
BRANCH   8   9
ATOM      9  C   UNL     1     193.057   2.546 100.407  1.00  0.00     0.000 C 
BRANCH   9  10
ATOM     10  C   UNL     1     192.416   1.753  99.258  1.00  0.00     0.000 C 
BRANCH  10  11
ATOM     11  C   UNL     1     191.719   2.665  98.228  1.00  0.00     0.000 C 
BRANCH  11  12
ATOM     12  C   UNL     1     191.676   4.151  98.638  1.00  0.00     0.000 C 
BRANCH  12  13
ATOM     13  C   UNL     1     190.457   4.942  98.122  1.00  0.00     0.006 C 
BRANCH  13  14
ATOM     14  C   UNL     1     189.207   4.082  97.864  1.00  0.00     0.053 C 
BRANCH  14  15
ATOM     15  C   UNL     1     188.882   3.993  96.405  1.00  0.00     0.041 C 
ATOM     16  O   UNL     1     189.770   4.218  95.543  1.00  0.00    -0.550 OA
ATOM     17  O   UNL     1     187.607   3.621  95.999  1.00  0.00    -0.550 OA
ENDBRANCH  14  15
ENDBRANCH  13  14
ENDBRANCH  12  13
ENDBRANCH  11  12
ENDBRANCH  10  11
ENDBRANCH   9  10
ENDBRANCH   8   9
ENDBRANCH   7   8
ENDBRANCH   6   7
ENDBRANCH   5   6
ENDBRANCH   4   5
ENDBRANCH   3   4
ENDBRANCH   2   3
ENDBRANCH   1   2
BRANCH   1  18
ATOM     18  C   UNL     1     193.227  -2.682 105.424  1.00  0.00     0.000 C 
BRANCH  18  19
ATOM     19  C   UNL     1     191.803  -3.118 105.028  1.00  0.00     0.000 C 
BRANCH  19  20
ATOM     20  C   UNL     1     191.504  -3.069 103.519  1.00  0.00     0.000 C 
BRANCH  20  21
ATOM     21  C   UNL     1     191.864  -1.738 102.827  1.00  0.00     0.000 C 
BRANCH  21  22
ATOM     22  C   UNL     1     191.829  -1.776 101.287  1.00  0.00     0.000 C 
BRANCH  22  23
ATOM     23  C   UNL     1     193.208  -1.705 100.599  1.00  0.00     0.000 C 
BRANCH  23  24
ATOM     24  C   UNL     1     194.409  -1.581 101.555  1.00  0.00    -0.000 C 
BRANCH  24  25
ATOM     25  C   UNL     1     195.468  -2.674 101.325  1.00  0.00    -0.000 C 
BRANCH  25  26
ATOM     26  C   UNL     1     195.859  -3.398 102.623  1.00  0.00    -0.000 C 
BRANCH  26  27
ATOM     27  C   UNL     1     194.918  -4.569 102.959  1.00  0.00    -0.000 C 
BRANCH  27  28
ATOM     28  C   UNL     1     194.189  -5.114 101.721  1.00  0.00    -0.000 C 
BRANCH  28  29
ATOM     29  C   UNL     1     193.140  -6.180 102.074  1.00  0.00    -0.000 C 
BRANCH  29  30
ATOM     30  C   UNL     1     192.212  -6.455 100.882  1.00  0.00    -0.000 C 
BRANCH  30  31
ATOM     31  C   UNL     1     190.944  -5.587 100.910  1.00  0.00    -0.003 C 
ATOM     32  C   UNL     1     189.848  -6.170 101.802  1.00  0.00     0.004 C 
ENDBRANCH  30  31
ENDBRANCH  29  30
ENDBRANCH  28  29
ENDBRANCH  27  28
ENDBRANCH  26  27
ENDBRANCH  25  26
ENDBRANCH  24  25
ENDBRANCH  23  24
ENDBRANCH  22  23
ENDBRANCH  21  22
ENDBRANCH  20  21
ENDBRANCH  19  20
ENDBRANCH  18  19
ENDBRANCH   1  18
TORSDOF 28
ENDMDL
MODEL 4
REMARK VINA RESULT:    -4.085      3.516      5.598
REMARK INTER + INTRA:         -15.842
REMARK INTER:                 -12.343
REMARK INTRA:                  -3.499
REMARK UNBOUND:                -5.071
REMARK SMILES CCCCCCCCCCCCCCCCCCCCCCCCCCCCCC(=O)[O-]
REMARK SMILES IDX 16 1 17 2 18 3 19 4 20 5 21 6 22 7 23 8 24 9 25 10 26 11
REMARK SMILES IDX 27 12 28 13 29 14 30 15 31 16 32 17 15 18 14 19 13 20 12 21
REMARK SMILES IDX 11 22 10 23 9 24 8 25 7 26 6 27 5 28 4 29 3 30 2 31 1 32
REMARK H PARENT
REMARK Flexibility Score: inf
ROOT
ATOM      1  C   UNL     1     191.942  -0.623 104.825  1.00  0.00     0.000 C 
ENDROOT
BRANCH   1   2
ATOM      2  C   UNL     1     193.144   0.183 105.342  1.00  0.00     0.000 C 
BRANCH   2   3
ATOM      3  C   UNL     1     193.747   1.041 104.224  1.00  0.00     0.000 C 
BRANCH   3   4
ATOM      4  C   UNL     1     192.693   1.408 103.171  1.00  0.00     0.000 C 
BRANCH   4   5
ATOM      5  C   UNL     1     193.182   1.222 101.723  1.00  0.00     0.000 C 
BRANCH   5   6
ATOM      6  C   UNL     1     192.061   1.187 100.660  1.00  0.00     0.000 C 
BRANCH   6   7
ATOM      7  C   UNL     1     192.326   1.983  99.361  1.00  0.00     0.000 C 
BRANCH   7   8
ATOM      8  C   UNL     1     192.765   3.448  99.543  1.00  0.00     0.000 C 
BRANCH   8   9
ATOM      9  C   UNL     1     192.094   4.407  98.549  1.00  0.00     0.000 C 
BRANCH   9  10
ATOM     10  C   UNL     1     190.600   4.085  98.400  1.00  0.00     0.000 C 
BRANCH  10  11
ATOM     11  C   UNL     1     189.847   5.144  97.568  1.00  0.00     0.000 C 
BRANCH  11  12
ATOM     12  C   UNL     1     189.213   4.589  96.278  1.00  0.00     0.000 C 
BRANCH  12  13
ATOM     13  C   UNL     1     189.839   3.284  95.744  1.00  0.00     0.006 C 
BRANCH  13  14
ATOM     14  C   UNL     1     191.146   3.485  94.957  1.00  0.00     0.053 C 
BRANCH  14  15
ATOM     15  C   UNL     1     191.708   2.187  94.467  1.00  0.00     0.041 C 
ATOM     16  O   UNL     1     192.389   1.460  95.236  1.00  0.00    -0.550 OA
ATOM     17  O   UNL     1     191.442   1.760  93.172  1.00  0.00    -0.550 OA
ENDBRANCH  14  15
ENDBRANCH  13  14
ENDBRANCH  12  13
ENDBRANCH  11  12
ENDBRANCH  10  11
ENDBRANCH   9  10
ENDBRANCH   8   9
ENDBRANCH   7   8
ENDBRANCH   6   7
ENDBRANCH   5   6
ENDBRANCH   4   5
ENDBRANCH   3   4
ENDBRANCH   2   3
ENDBRANCH   1   2
BRANCH   1  18
ATOM     18  C   UNL     1     192.167  -2.148 104.910  1.00  0.00     0.000 C 
BRANCH  18  19
ATOM     19  C   UNL     1     191.610  -2.925 103.702  1.00  0.00     0.000 C 
BRANCH  19  20
ATOM     20  C   UNL     1     191.981  -2.341 102.327  1.00  0.00     0.000 C 
BRANCH  20  21
ATOM     21  C   UNL     1     193.471  -2.465 101.948  1.00  0.00     0.000 C 
BRANCH  21  22
ATOM     22  C   UNL     1     193.793  -2.167 100.470  1.00  0.00     0.000 C 
BRANCH  22  23
ATOM     23  C   UNL     1     193.543  -3.337  99.497  1.00  0.00     0.000 C 
BRANCH  23  24
ATOM     24  C   UNL     1     194.811  -4.054  98.999  1.00  0.00    -0.000 C 
BRANCH  24  25
ATOM     25  C   UNL     1     194.835  -5.548  99.367  1.00  0.00    -0.000 C 
BRANCH  25  26
ATOM     26  C   UNL     1     195.068  -5.782 100.867  1.00  0.00    -0.000 C 
BRANCH  26  27
ATOM     27  C   UNL     1     194.044  -6.749 101.488  1.00  0.00    -0.000 C 
BRANCH  27  28
ATOM     28  C   UNL     1     192.668  -6.097 101.693  1.00  0.00    -0.000 C 
BRANCH  28  29
ATOM     29  C   UNL     1     191.558  -6.791 100.887  1.00  0.00    -0.000 C 
BRANCH  29  30
ATOM     30  C   UNL     1     190.189  -6.160 101.179  1.00  0.00    -0.000 C 
BRANCH  30  31
ATOM     31  C   UNL     1     189.024  -7.121 100.888  1.00  0.00    -0.003 C 
ATOM     32  C   UNL     1     187.782  -6.814 101.725  1.00  0.00     0.004 C 
ENDBRANCH  30  31
ENDBRANCH  29  30
ENDBRANCH  28  29
ENDBRANCH  27  28
ENDBRANCH  26  27
ENDBRANCH  25  26
ENDBRANCH  24  25
ENDBRANCH  23  24
ENDBRANCH  22  23
ENDBRANCH  21  22
ENDBRANCH  20  21
ENDBRANCH  19  20
ENDBRANCH  18  19
ENDBRANCH   1  18
TORSDOF 28
ENDMDL
MODEL 5
REMARK VINA RESULT:    -4.065      3.715      8.298
REMARK INTER + INTRA:         -15.790
REMARK INTER:                 -12.197
REMARK INTRA:                  -3.594
REMARK UNBOUND:                -5.071
REMARK SMILES CCCCCCCCCCCCCCCCCCCCCCCCCCCCCC(=O)[O-]
REMARK SMILES IDX 16 1 17 2 18 3 19 4 20 5 21 6 22 7 23 8 24 9 25 10 26 11
REMARK SMILES IDX 27 12 28 13 29 14 30 15 31 16 32 17 15 18 14 19 13 20 12 21
REMARK SMILES IDX 11 22 10 23 9 24 8 25 7 26 6 27 5 28 4 29 3 30 2 31 1 32
REMARK H PARENT
REMARK Flexibility Score: inf
ROOT
ATOM      1  C   UNL     1     192.900  -0.899 105.434  1.00  0.00     0.000 C 
ENDROOT
BRANCH   1   2
ATOM      2  C   UNL     1     192.847  -2.072 104.442  1.00  0.00     0.000 C 
BRANCH   2   3
ATOM      3  C   UNL     1     191.997  -1.713 103.218  1.00  0.00     0.000 C 
BRANCH   3   4
ATOM      4  C   UNL     1     191.614  -2.966 102.418  1.00  0.00     0.000 C 
BRANCH   4   5
ATOM      5  C   UNL     1     192.153  -2.960 100.976  1.00  0.00     0.000 C 
BRANCH   5   6
ATOM      6  C   UNL     1     193.452  -2.149 100.773  1.00  0.00     0.000 C 
BRANCH   6   7
ATOM      7  C   UNL     1     194.723  -2.966 100.441  1.00  0.00     0.000 C 
BRANCH   7   8
ATOM      8  C   UNL     1     194.655  -4.475 100.742  1.00  0.00     0.000 C 
BRANCH   8   9
ATOM      9  C   UNL     1     194.889  -4.806 102.223  1.00  0.00     0.000 C 
BRANCH   9  10
ATOM     10  C   UNL     1     193.933  -5.913 102.694  1.00  0.00     0.000 C 
BRANCH  10  11
ATOM     11  C   UNL     1     193.290  -6.678 101.519  1.00  0.00     0.000 C 
BRANCH  11  12
ATOM     12  C   UNL     1     191.930  -7.319 101.862  1.00  0.00     0.000 C 
BRANCH  12  13
ATOM     13  C   UNL     1     190.774  -6.962 100.906  1.00  0.00     0.006 C 
BRANCH  13  14
ATOM     14  C   UNL     1     189.653  -6.129 101.551  1.00  0.00     0.053 C 
BRANCH  14  15
ATOM     15  C   UNL     1     188.488  -6.979 101.954  1.00  0.00     0.041 C 
ATOM     16  O   UNL     1     187.325  -6.680 101.577  1.00  0.00    -0.550 OA
ATOM     17  O   UNL     1     188.693  -8.125 102.711  1.00  0.00    -0.550 OA
ENDBRANCH  14  15
ENDBRANCH  13  14
ENDBRANCH  12  13
ENDBRANCH  11  12
ENDBRANCH  10  11
ENDBRANCH   9  10
ENDBRANCH   8   9
ENDBRANCH   7   8
ENDBRANCH   6   7
ENDBRANCH   5   6
ENDBRANCH   4   5
ENDBRANCH   3   4
ENDBRANCH   2   3
ENDBRANCH   1   2
BRANCH   1  18
ATOM     18  C   UNL     1     192.363   0.417 104.830  1.00  0.00     0.000 C 
BRANCH  18  19
ATOM     19  C   UNL     1     193.454   1.476 104.583  1.00  0.00     0.000 C 
BRANCH  19  20
ATOM     20  C   UNL     1     193.259   2.326 103.314  1.00  0.00     0.000 C 
BRANCH  20  21
ATOM     21  C   UNL     1     193.549   1.593 101.989  1.00  0.00     0.000 C 
BRANCH  21  22
ATOM     22  C   UNL     1     192.310   1.316 101.115  1.00  0.00     0.000 C 
BRANCH  22  23
ATOM     23  C   UNL     1     192.381   1.879  99.681  1.00  0.00     0.000 C 
BRANCH  23  24
ATOM     24  C   UNL     1     192.790   3.360  99.581  1.00  0.00    -0.000 C 
BRANCH  24  25
ATOM     25  C   UNL     1     191.980   4.131  98.523  1.00  0.00    -0.000 C 
BRANCH  25  26
ATOM     26  C   UNL     1     191.351   3.204  97.471  1.00  0.00    -0.000 C 
BRANCH  26  27
ATOM     27  C   UNL     1     191.293   3.842  96.071  1.00  0.00    -0.000 C 
BRANCH  27  28
ATOM     28  C   UNL     1     189.957   3.578  95.359  1.00  0.00    -0.000 C 
BRANCH  28  29
ATOM     29  C   UNL     1     188.742   3.893  96.245  1.00  0.00    -0.000 C 
BRANCH  29  30
ATOM     30  C   UNL     1     188.593   5.407  96.457  1.00  0.00    -0.000 C 
BRANCH  30  31
ATOM     31  C   UNL     1     188.595   5.796  97.944  1.00  0.00    -0.003 C 
ATOM     32  C   UNL     1     187.219   5.654  98.594  1.00  0.00     0.004 C 
ENDBRANCH  30  31
ENDBRANCH  29  30
ENDBRANCH  28  29
ENDBRANCH  27  28
ENDBRANCH  26  27
ENDBRANCH  25  26
ENDBRANCH  24  25
ENDBRANCH  23  24
ENDBRANCH  22  23
ENDBRANCH  21  22
ENDBRANCH  20  21
ENDBRANCH  19  20
ENDBRANCH  18  19
ENDBRANCH   1  18
TORSDOF 28
ENDMDL
MODEL 6
REMARK VINA RESULT:    -4.022      2.979      5.378
REMARK INTER + INTRA:         -15.676
REMARK INTER:                 -11.144
REMARK INTRA:                  -4.532
REMARK UNBOUND:                -5.071
REMARK SMILES CCCCCCCCCCCCCCCCCCCCCCCCCCCCCC(=O)[O-]
REMARK SMILES IDX 16 1 17 2 18 3 19 4 20 5 21 6 22 7 23 8 24 9 25 10 26 11
REMARK SMILES IDX 27 12 28 13 29 14 30 15 31 16 32 17 15 18 14 19 13 20 12 21
REMARK SMILES IDX 11 22 10 23 9 24 8 25 7 26 6 27 5 28 4 29 3 30 2 31 1 32
REMARK H PARENT
REMARK Flexibility Score: inf
ROOT
ATOM      1  C   UNL     1     195.248  -3.020 101.407  1.00  0.00     0.000 C 
ENDROOT
BRANCH   1   2
ATOM      2  C   UNL     1     194.926  -4.303 102.189  1.00  0.00     0.000 C 
BRANCH   2   3
ATOM      3  C   UNL     1     193.528  -4.226 102.813  1.00  0.00     0.000 C 
BRANCH   3   4
ATOM      4  C   UNL     1     193.529  -3.362 104.081  1.00  0.00     0.000 C 
BRANCH   4   5
ATOM      5  C   UNL     1     192.543  -2.182 104.019  1.00  0.00     0.000 C 
BRANCH   5   6
ATOM      6  C   UNL     1     191.803  -2.027 102.670  1.00  0.00     0.000 C 
BRANCH   6   7
ATOM      7  C   UNL     1     191.221  -0.626 102.369  1.00  0.00     0.000 C 
BRANCH   7   8
ATOM      8  C   UNL     1     191.839   0.121 101.172  1.00  0.00     0.000 C 
BRANCH   8   9
ATOM      9  C   UNL     1     193.364   0.267 101.273  1.00  0.00     0.000 C 
BRANCH   9  10
ATOM     10  C   UNL     1     193.743   1.486 102.127  1.00  0.00     0.000 C 
BRANCH  10  11
ATOM     11  C   UNL     1     193.831   1.150 103.630  1.00  0.00     0.000 C 
BRANCH  11  12
ATOM     12  C   UNL     1     193.892   2.389 104.545  1.00  0.00     0.000 C 
BRANCH  12  13
ATOM     13  C   UNL     1     193.139   2.257 105.884  1.00  0.00     0.006 C 
BRANCH  13  14
ATOM     14  C   UNL     1     192.118   1.107 105.926  1.00  0.00     0.053 C 
BRANCH  14  15
ATOM     15  C   UNL     1     190.709   1.607 105.842  1.00  0.00     0.041 C 
ATOM     16  O   UNL     1     190.348   2.327 104.875  1.00  0.00    -0.550 OA
ATOM     17  O   UNL     1     189.784   1.243 106.812  1.00  0.00    -0.550 OA
ENDBRANCH  14  15
ENDBRANCH  13  14
ENDBRANCH  12  13
ENDBRANCH  11  12
ENDBRANCH  10  11
ENDBRANCH   9  10
ENDBRANCH   8   9
ENDBRANCH   7   8
ENDBRANCH   6   7
ENDBRANCH   5   6
ENDBRANCH   4   5
ENDBRANCH   3   4
ENDBRANCH   2   3
ENDBRANCH   1   2
BRANCH   1  18
ATOM     18  C   UNL     1     195.262  -3.242  99.879  1.00  0.00     0.000 C 
BRANCH  18  19
ATOM     19  C   UNL     1     193.869  -3.157  99.228  1.00  0.00     0.000 C 
BRANCH  19  20
ATOM     20  C   UNL     1     193.393  -4.449  98.539  1.00  0.00     0.000 C 
BRANCH  20  21
ATOM     21  C   UNL     1     192.236  -5.178  99.252  1.00  0.00     0.000 C 
BRANCH  21  22
ATOM     22  C   UNL     1     192.643  -6.456 100.011  1.00  0.00     0.000 C 
BRANCH  22  23
ATOM     23  C   UNL     1     191.568  -7.023 100.960  1.00  0.00     0.000 C 
BRANCH  23  24
ATOM     24  C   UNL     1     190.277  -6.189 101.058  1.00  0.00    -0.000 C 
BRANCH  24  25
ATOM     25  C   UNL     1     189.007  -7.026 100.821  1.00  0.00    -0.000 C 
BRANCH  25  26
ATOM     26  C   UNL     1     187.991  -6.892 101.965  1.00  0.00    -0.000 C 
BRANCH  26  27
ATOM     27  C   UNL     1     188.566  -7.321 103.327  1.00  0.00    -0.000 C 
BRANCH  27  28
ATOM     28  C   UNL     1     188.601  -6.167 104.342  1.00  0.00    -0.000 C 
BRANCH  28  29
ATOM     29  C   UNL     1     190.033  -5.759 104.723  1.00  0.00    -0.000 C 
BRANCH  29  30
ATOM     30  C   UNL     1     190.063  -4.339 105.306  1.00  0.00    -0.000 C 
BRANCH  30  31
ATOM     31  C   UNL     1     190.730  -4.285 106.690  1.00  0.00    -0.003 C 
ATOM     32  C   UNL     1     190.196  -3.146 107.560  1.00  0.00     0.004 C 
ENDBRANCH  30  31
ENDBRANCH  29  30
ENDBRANCH  28  29
ENDBRANCH  27  28
ENDBRANCH  26  27
ENDBRANCH  25  26
ENDBRANCH  24  25
ENDBRANCH  23  24
ENDBRANCH  22  23
ENDBRANCH  21  22
ENDBRANCH  20  21
ENDBRANCH  19  20
ENDBRANCH  18  19
ENDBRANCH   1  18
TORSDOF 28
ENDMDL
MODEL 7
REMARK VINA RESULT:    -3.991      3.140      5.859
REMARK INTER + INTRA:         -15.594
REMARK INTER:                  -9.415
REMARK INTRA:                  -6.179
REMARK UNBOUND:                -5.071
REMARK SMILES CCCCCCCCCCCCCCCCCCCCCCCCCCCCCC(=O)[O-]
REMARK SMILES IDX 16 1 17 2 18 3 19 4 20 5 21 6 22 7 23 8 24 9 25 10 26 11
REMARK SMILES IDX 27 12 28 13 29 14 30 15 31 16 32 17 15 18 14 19 13 20 12 21
REMARK SMILES IDX 11 22 10 23 9 24 8 25 7 26 6 27 5 28 4 29 3 30 2 31 1 32
REMARK H PARENT
REMARK Flexibility Score: inf
ROOT
ATOM      1  C   UNL     1     191.234  -4.288 102.268  1.00  0.00     0.000 C 
ENDROOT
BRANCH   1   2
ATOM      2  C   UNL     1     191.234  -4.052 103.787  1.00  0.00     0.000 C 
BRANCH   2   3
ATOM      3  C   UNL     1     191.644  -5.324 104.538  1.00  0.00     0.000 C 
BRANCH   3   4
ATOM      4  C   UNL     1     192.924  -5.102 105.355  1.00  0.00     0.000 C 
BRANCH   4   5
ATOM      5  C   UNL     1     193.578  -3.731 105.108  1.00  0.00     0.000 C 
BRANCH   5   6
ATOM      6  C   UNL     1     194.916  -3.782 104.336  1.00  0.00     0.000 C 
BRANCH   6   7
ATOM      7  C   UNL     1     194.993  -4.793 103.168  1.00  0.00     0.000 C 
BRANCH   7   8
ATOM      8  C   UNL     1     195.193  -4.192 101.764  1.00  0.00     0.000 C 
BRANCH   8   9
ATOM      9  C   UNL     1     194.908  -2.685 101.706  1.00  0.00     0.000 C 
BRANCH   9  10
ATOM     10  C   UNL     1     193.773  -2.380 100.718  1.00  0.00     0.000 C 
BRANCH  10  11
ATOM     11  C   UNL     1     192.967  -1.125 101.113  1.00  0.00     0.000 C 
BRANCH  11  12
ATOM     12  C   UNL     1     192.819  -0.931 102.635  1.00  0.00     0.000 C 
BRANCH  12  13
ATOM     13  C   UNL     1     192.682   0.532 103.103  1.00  0.00     0.006 C 
BRANCH  13  14
ATOM     14  C   UNL     1     191.250   0.941 103.490  1.00  0.00     0.053 C 
BRANCH  14  15
ATOM     15  C   UNL     1     191.237   1.945 104.601  1.00  0.00     0.041 C 
ATOM     16  O   UNL     1     190.146   2.390 105.041  1.00  0.00    -0.550 OA
ATOM     17  O   UNL     1     192.432   2.357 105.178  1.00  0.00    -0.550 OA
ENDBRANCH  14  15
ENDBRANCH  13  14
ENDBRANCH  12  13
ENDBRANCH  11  12
ENDBRANCH  10  11
ENDBRANCH   9  10
ENDBRANCH   8   9
ENDBRANCH   7   8
ENDBRANCH   6   7
ENDBRANCH   5   6
ENDBRANCH   4   5
ENDBRANCH   3   4
ENDBRANCH   2   3
ENDBRANCH   1   2
BRANCH   1  18
ATOM     18  C   UNL     1     191.655  -5.725 101.890  1.00  0.00     0.000 C 
BRANCH  18  19
ATOM     19  C   UNL     1     190.890  -6.296 100.682  1.00  0.00     0.000 C 
BRANCH  19  20
ATOM     20  C   UNL     1     189.787  -7.312 101.033  1.00  0.00     0.000 C 
BRANCH  20  21
ATOM     21  C   UNL     1     188.456  -6.691 101.501  1.00  0.00     0.000 C 
BRANCH  21  22
ATOM     22  C   UNL     1     188.309  -6.541 103.027  1.00  0.00     0.000 C 
BRANCH  22  23
ATOM     23  C   UNL     1     188.860  -7.719 103.856  1.00  0.00     0.000 C 
BRANCH  23  24
ATOM     24  C   UNL     1     188.245  -7.874 105.259  1.00  0.00    -0.000 C 
BRANCH  24  25
ATOM     25  C   UNL     1     189.233  -7.523 106.386  1.00  0.00    -0.000 C 
BRANCH  25  26
ATOM     26  C   UNL     1     188.702  -6.418 107.312  1.00  0.00    -0.000 C 
BRANCH  26  27
ATOM     27  C   UNL     1     188.228  -5.171 106.544  1.00  0.00    -0.000 C 
BRANCH  27  28
ATOM     28  C   UNL     1     189.077  -3.929 106.855  1.00  0.00    -0.000 C 
BRANCH  28  29
ATOM     29  C   UNL     1     190.066  -4.162 108.008  1.00  0.00    -0.000 C 
BRANCH  29  30
ATOM     30  C   UNL     1     191.186  -3.113 107.993  1.00  0.00    -0.000 C 
BRANCH  30  31
ATOM     31  C   UNL     1     190.881  -1.939 107.048  1.00  0.00    -0.003 C 
ATOM     32  C   UNL     1     192.033  -0.937 106.959  1.00  0.00     0.004 C 
ENDBRANCH  30  31
ENDBRANCH  29  30
ENDBRANCH  28  29
ENDBRANCH  27  28
ENDBRANCH  26  27
ENDBRANCH  25  26
ENDBRANCH  24  25
ENDBRANCH  23  24
ENDBRANCH  22  23
ENDBRANCH  21  22
ENDBRANCH  20  21
ENDBRANCH  19  20
ENDBRANCH  18  19
ENDBRANCH   1  18
TORSDOF 28
ENDMDL
MODEL 8
REMARK VINA RESULT:    -3.986      3.320      8.036
REMARK INTER + INTRA:         -15.581
REMARK INTER:                 -11.578
REMARK INTRA:                  -4.004
REMARK UNBOUND:                -5.071
REMARK SMILES CCCCCCCCCCCCCCCCCCCCCCCCCCCCCC(=O)[O-]
REMARK SMILES IDX 16 1 17 2 18 3 19 4 20 5 21 6 22 7 23 8 24 9 25 10 26 11
REMARK SMILES IDX 27 12 28 13 29 14 30 15 31 16 32 17 15 18 14 19 13 20 12 21
REMARK SMILES IDX 11 22 10 23 9 24 8 25 7 26 6 27 5 28 4 29 3 30 2 31 1 32
REMARK H PARENT
REMARK Flexibility Score: inf
ROOT
ATOM      1  C   UNL     1     192.125  -3.407 103.921  1.00  0.00     0.000 C 
ENDROOT
BRANCH   1   2
ATOM      2  C   UNL     1     193.590  -3.479 104.381  1.00  0.00     0.000 C 
BRANCH   2   3
ATOM      3  C   UNL     1     194.379  -4.483 103.534  1.00  0.00     0.000 C 
BRANCH   3   4
ATOM      4  C   UNL     1     195.732  -3.905 103.098  1.00  0.00     0.000 C 
BRANCH   4   5
ATOM      5  C   UNL     1     195.758  -2.367 103.062  1.00  0.00     0.000 C 
BRANCH   5   6
ATOM      6  C   UNL     1     195.683  -1.750 101.647  1.00  0.00     0.000 C 
BRANCH   6   7
ATOM      7  C   UNL     1     195.296  -2.715 100.502  1.00  0.00     0.000 C 
BRANCH   7   8
ATOM      8  C   UNL     1     193.802  -2.758 100.128  1.00  0.00     0.000 C 
BRANCH   8   9
ATOM      9  C   UNL     1     193.535  -3.464  98.791  1.00  0.00     0.000 C 
BRANCH   9  10
ATOM     10  C   UNL     1     192.830  -4.810  99.013  1.00  0.00     0.000 C 
BRANCH  10  11
ATOM     11  C   UNL     1     192.284  -4.961 100.448  1.00  0.00     0.000 C 
BRANCH  11  12
ATOM     12  C   UNL     1     192.412  -6.388 101.018  1.00  0.00     0.000 C 
BRANCH  12  13
ATOM     13  C   UNL     1     191.273  -6.826 101.961  1.00  0.00     0.006 C 
BRANCH  13  14
ATOM     14  C   UNL     1     190.057  -5.883 101.966  1.00  0.00     0.053 C 
BRANCH  14  15
ATOM     15  C   UNL     1     188.910  -6.455 102.740  1.00  0.00     0.041 C 
ATOM     16  O   UNL     1     188.519  -5.899 103.798  1.00  0.00    -0.550 OA
ATOM     17  O   UNL     1     188.247  -7.581 102.268  1.00  0.00    -0.550 OA
ENDBRANCH  14  15
ENDBRANCH  13  14
ENDBRANCH  12  13
ENDBRANCH  11  12
ENDBRANCH  10  11
ENDBRANCH   9  10
ENDBRANCH   8   9
ENDBRANCH   7   8
ENDBRANCH   6   7
ENDBRANCH   5   6
ENDBRANCH   4   5
ENDBRANCH   3   4
ENDBRANCH   2   3
ENDBRANCH   1   2
BRANCH   1  18
ATOM     18  C   UNL     1     191.822  -2.142 103.089  1.00  0.00     0.000 C 
BRANCH  18  19
ATOM     19  C   UNL     1     192.538  -0.879 103.601  1.00  0.00     0.000 C 
BRANCH  19  20
ATOM     20  C   UNL     1     191.617   0.326 103.869  1.00  0.00     0.000 C 
BRANCH  20  21
ATOM     21  C   UNL     1     192.337   1.598 104.361  1.00  0.00     0.000 C 
BRANCH  21  22
ATOM     22  C   UNL     1     193.672   1.904 103.655  1.00  0.00     0.000 C 
BRANCH  22  23
ATOM     23  C   UNL     1     193.544   2.434 102.213  1.00  0.00     0.000 C 
BRANCH  23  24
ATOM     24  C   UNL     1     193.538   1.352 101.117  1.00  0.00    -0.000 C 
BRANCH  24  25
ATOM     25  C   UNL     1     192.376   1.518 100.121  1.00  0.00    -0.000 C 
BRANCH  25  26
ATOM     26  C   UNL     1     192.459   2.834  99.332  1.00  0.00    -0.000 C 
BRANCH  26  27
ATOM     27  C   UNL     1     191.235   3.067  98.428  1.00  0.00    -0.000 C 
BRANCH  27  28
ATOM     28  C   UNL     1     190.925   4.559  98.230  1.00  0.00    -0.000 C 
BRANCH  28  29
ATOM     29  C   UNL     1     189.700   4.794  97.332  1.00  0.00    -0.000 C 
BRANCH  29  30
ATOM     30  C   UNL     1     189.493   3.619  96.365  1.00  0.00    -0.000 C 
BRANCH  30  31
ATOM     31  C   UNL     1     189.760   4.007  94.902  1.00  0.00    -0.003 C 
ATOM     32  C   UNL     1     191.168   3.632  94.438  1.00  0.00     0.004 C 
ENDBRANCH  30  31
ENDBRANCH  29  30
ENDBRANCH  28  29
ENDBRANCH  27  28
ENDBRANCH  26  27
ENDBRANCH  25  26
ENDBRANCH  24  25
ENDBRANCH  23  24
ENDBRANCH  22  23
ENDBRANCH  21  22
ENDBRANCH  20  21
ENDBRANCH  19  20
ENDBRANCH  18  19
ENDBRANCH   1  18
TORSDOF 28
ENDMDL
MODEL 9
REMARK VINA RESULT:    -3.980      2.047      8.153
REMARK INTER + INTRA:         -15.565
REMARK INTER:                 -11.188
REMARK INTRA:                  -4.378
REMARK UNBOUND:                -5.071
REMARK SMILES CCCCCCCCCCCCCCCCCCCCCCCCCCCCCC(=O)[O-]
REMARK SMILES IDX 16 1 17 2 18 3 19 4 20 5 21 6 22 7 23 8 24 9 25 10 26 11
REMARK SMILES IDX 27 12 28 13 29 14 30 15 31 16 32 17 15 18 14 19 13 20 12 21
REMARK SMILES IDX 11 22 10 23 9 24 8 25 7 26 6 27 5 28 4 29 3 30 2 31 1 32
REMARK H PARENT
REMARK Flexibility Score: inf
ROOT
ATOM      1  C   UNL     1     191.376  -4.788 101.328  1.00  0.00     0.000 C 
ENDROOT
BRANCH   1   2
ATOM      2  C   UNL     1     191.403  -6.100 100.526  1.00  0.00     0.000 C 
BRANCH   2   3
ATOM      3  C   UNL     1     190.465  -7.139 101.148  1.00  0.00     0.000 C 
BRANCH   3   4
ATOM      4  C   UNL     1     188.993  -6.776 100.909  1.00  0.00     0.000 C 
BRANCH   4   5
ATOM      5  C   UNL     1     188.178  -6.635 102.207  1.00  0.00     0.000 C 
BRANCH   5   6
ATOM      6  C   UNL     1     188.563  -7.631 103.325  1.00  0.00     0.000 C 
BRANCH   6   7
ATOM      7  C   UNL     1     188.647  -7.051 104.757  1.00  0.00     0.000 C 
BRANCH   7   8
ATOM      8  C   UNL     1     189.396  -5.713 104.902  1.00  0.00     0.000 C 
BRANCH   8   9
ATOM      9  C   UNL     1     190.664  -5.821 105.762  1.00  0.00     0.000 C 
BRANCH   9  10
ATOM     10  C   UNL     1     191.885  -5.273 105.008  1.00  0.00     0.000 C 
BRANCH  10  11
ATOM     11  C   UNL     1     192.660  -6.376 104.259  1.00  0.00     0.000 C 
BRANCH  11  12
ATOM     12  C   UNL     1     194.139  -6.029 103.993  1.00  0.00     0.000 C 
BRANCH  12  13
ATOM     13  C   UNL     1     194.593  -6.160 102.526  1.00  0.00     0.006 C 
BRANCH  13  14
ATOM     14  C   UNL     1     195.074  -4.843 101.892  1.00  0.00     0.053 C 
BRANCH  14  15
ATOM     15  C   UNL     1     195.349  -4.996 100.428  1.00  0.00     0.041 C 
ATOM     16  O   UNL     1     195.366  -6.139  99.901  1.00  0.00    -0.550 OA
ATOM     17  O   UNL     1     195.544  -3.871  99.637  1.00  0.00    -0.550 OA
ENDBRANCH  14  15
ENDBRANCH  13  14
ENDBRANCH  12  13
ENDBRANCH  11  12
ENDBRANCH  10  11
ENDBRANCH   9  10
ENDBRANCH   8   9
ENDBRANCH   7   8
ENDBRANCH   6   7
ENDBRANCH   5   6
ENDBRANCH   4   5
ENDBRANCH   3   4
ENDBRANCH   2   3
ENDBRANCH   1   2
BRANCH   1  18
ATOM     18  C   UNL     1     191.935  -3.591 100.529  1.00  0.00     0.000 C 
BRANCH  18  19
ATOM     19  C   UNL     1     192.074  -2.302 101.362  1.00  0.00     0.000 C 
BRANCH  19  20
ATOM     20  C   UNL     1     192.012  -2.504 102.887  1.00  0.00     0.000 C 
BRANCH  20  21
ATOM     21  C   UNL     1     193.008  -1.650 103.697  1.00  0.00     0.000 C 
BRANCH  21  22
ATOM     22  C   UNL     1     192.411  -0.954 104.935  1.00  0.00     0.000 C 
BRANCH  22  23
ATOM     23  C   UNL     1     192.761   0.542 105.077  1.00  0.00     0.000 C 
BRANCH  23  24
ATOM     24  C   UNL     1     192.257   1.441 103.934  1.00  0.00    -0.000 C 
BRANCH  24  25
ATOM     25  C   UNL     1     193.402   2.123 103.163  1.00  0.00    -0.000 C 
BRANCH  25  26
ATOM     26  C   UNL     1     193.550   1.585 101.731  1.00  0.00    -0.000 C 
BRANCH  26  27
ATOM     27  C   UNL     1     192.197   1.270 101.068  1.00  0.00    -0.000 C 
BRANCH  27  28
ATOM     28  C   UNL     1     192.058   1.912  99.679  1.00  0.00    -0.000 C 
BRANCH  28  29
ATOM     29  C   UNL     1     192.796   3.256  99.572  1.00  0.00    -0.000 C 
BRANCH  29  30
ATOM     30  C   UNL     1     192.073   4.206  98.607  1.00  0.00    -0.000 C 
BRANCH  30  31
ATOM     31  C   UNL     1     190.907   3.524  97.873  1.00  0.00    -0.003 C 
ATOM     32  C   UNL     1     191.117   3.459  96.360  1.00  0.00     0.004 C 
ENDBRANCH  30  31
ENDBRANCH  29  30
ENDBRANCH  28  29
ENDBRANCH  27  28
ENDBRANCH  26  27
ENDBRANCH  25  26
ENDBRANCH  24  25
ENDBRANCH  23  24
ENDBRANCH  22  23
ENDBRANCH  21  22
ENDBRANCH  20  21
ENDBRANCH  19  20
ENDBRANCH  18  19
ENDBRANCH   1  18
TORSDOF 28
ENDMDL
