MODEL 1
REMARK VINA RESULT:    -4.262      0.000      0.000
REMARK INTER + INTRA:          -4.387
REMARK INTER:                  -4.387
REMARK INTRA:                   0.000
REMARK UNBOUND:                 0.000
REMARK SMILES CC1(C)[C@@H]2CC[C@@](C)(C2)[C@H]1O
REMARK SMILES IDX 1 1 2 2 4 3 5 4 6 5 7 6 9 7 10 8 8 9 3 10 11 11
REMARK H PARENT 11 12
REMARK Flexibility Score: inf
ROOT
ATOM      1  C   UNL     1     148.746 151.712 146.125  1.00  0.00     0.014 C 
ATOM      2  C   UNL     1     149.899 151.971 145.125  1.00  0.00    -0.006 C 
ATOM      3  C   UNL     1     150.195 150.754 144.183  1.00  0.00    -0.002 C 
ATOM      4  C   UNL     1     150.310 149.440 144.984  1.00  0.00     0.005 C 
ATOM      5  C   UNL     1     151.603 149.641 145.786  1.00  0.00     0.010 C 
ATOM      6  C   UNL     1     152.127 150.997 145.258  1.00  0.00    -0.006 C 
ATOM      7  C   UNL     1     151.655 150.969 143.820  1.00  0.00     0.013 C 
ATOM      8  C   UNL     1     151.268 152.140 145.869  1.00  0.00     0.126 C 
ATOM      9  C   UNL     1     153.644 151.162 145.416  1.00  0.00     0.014 C 
ATOM     10  C   UNL     1     149.502 153.207 144.275  1.00  0.00     0.014 C 
ENDROOT
BRANCH   8  11
ATOM     11  O   UNL     1     151.845 153.399 145.613  1.00  0.00    -0.392 OA
ATOM     12  H   UNL     1     152.515 153.271 144.893  1.00  0.00     0.211 HD
ENDBRANCH   8  11
TORSDOF 1
ENDMDL
MODEL 2
REMARK VINA RESULT:    -3.631      7.144      9.480
REMARK INTER + INTRA:          -3.737
REMARK INTER:                  -3.737
REMARK INTRA:                   0.000
REMARK UNBOUND:                 0.000
REMARK SMILES CC1(C)[C@@H]2CC[C@@](C)(C2)[C@H]1O
REMARK SMILES IDX 1 1 2 2 4 3 5 4 6 5 7 6 9 7 10 8 8 9 3 10 11 11
REMARK H PARENT 11 12
REMARK Flexibility Score: inf
ROOT
ATOM      1  C   UNL     1     149.363 155.700 137.963  1.00  0.00     0.014 C 
ATOM      2  C   UNL     1     148.838 156.453 139.210  1.00  0.00    -0.006 C 
ATOM      3  C   UNL     1     147.274 156.487 139.308  1.00  0.00    -0.002 C 
ATOM      4  C   UNL     1     146.637 156.918 137.970  1.00  0.00     0.005 C 
ATOM      5  C   UNL     1     147.056 158.390 137.851  1.00  0.00     0.010 C 
ATOM      6  C   UNL     1     147.784 158.648 139.191  1.00  0.00    -0.006 C 
ATOM      7  C   UNL     1     147.025 157.738 140.133  1.00  0.00     0.013 C 
ATOM      8  C   UNL     1     149.187 157.979 139.138  1.00  0.00     0.126 C 
ATOM      9  C   UNL     1     147.779 160.125 139.607  1.00  0.00     0.014 C 
ATOM     10  C   UNL     1     149.426 155.743 140.458  1.00  0.00     0.014 C 
ENDROOT
BRANCH   8  11
ATOM     11  O   UNL     1     149.981 158.381 140.231  1.00  0.00    -0.392 OA
ATOM     12  H   UNL     1     150.462 157.575 140.553  1.00  0.00     0.211 HD
ENDBRANCH   8  11
TORSDOF 1
ENDMDL
MODEL 3
REMARK VINA RESULT:    -3.630      7.895      9.379
REMARK INTER + INTRA:          -3.736
REMARK INTER:                  -3.736
REMARK INTRA:                   0.000
REMARK UNBOUND:                 0.000
REMARK SMILES CC1(C)[C@@H]2CC[C@@](C)(C2)[C@H]1O
REMARK SMILES IDX 1 1 2 2 4 3 5 4 6 5 7 6 9 7 10 8 8 9 3 10 11 11
REMARK H PARENT 11 12
REMARK Flexibility Score: inf
ROOT
ATOM      1  C   UNL     1     155.660 151.931 137.925  1.00  0.00     0.014 C 
ATOM      2  C   UNL     1     156.420 152.446 139.172  1.00  0.00    -0.006 C 
ATOM      3  C   UNL     1     156.445 154.009 139.289  1.00  0.00    -0.002 C 
ATOM      4  C   UNL     1     156.860 154.664 137.955  1.00  0.00     0.005 C 
ATOM      5  C   UNL     1     158.334 154.256 137.819  1.00  0.00     0.010 C 
ATOM      6  C   UNL     1     158.608 153.514 139.148  1.00  0.00    -0.006 C 
ATOM      7  C   UNL     1     157.701 154.255 140.106  1.00  0.00     0.013 C 
ATOM      8  C   UNL     1     157.948 152.107 139.084  1.00  0.00     0.126 C 
ATOM      9  C   UNL     1     160.088 153.524 139.552  1.00  0.00     0.014 C 
ATOM     10  C   UNL     1     155.724 151.838 140.418  1.00  0.00     0.014 C 
ENDROOT
BRANCH   8  11
ATOM     11  O   UNL     1     158.364 151.303 140.163  1.00  0.00    -0.392 OA
ATOM     12  H   UNL     1     157.569 150.795 140.470  1.00  0.00     0.211 HD
ENDBRANCH   8  11
TORSDOF 1
ENDMDL
MODEL 4
REMARK VINA RESULT:    -3.622      9.015     10.334
REMARK INTER + INTRA:          -3.728
REMARK INTER:                  -3.728
REMARK INTRA:                   0.000
REMARK UNBOUND:                 0.000
REMARK SMILES CC1(C)[C@@H]2CC[C@@](C)(C2)[C@H]1O
REMARK SMILES IDX 1 1 2 2 4 3 5 4 6 5 7 6 9 7 10 8 8 9 3 10 11 11
REMARK H PARENT 11 12
REMARK Flexibility Score: inf
ROOT
ATOM      1  C   UNL     1     145.604 149.398 137.897  1.00  0.00     0.014 C 
ATOM      2  C   UNL     1     144.855 148.860 139.142  1.00  0.00    -0.006 C 
ATOM      3  C   UNL     1     144.840 147.296 139.236  1.00  0.00    -0.002 C 
ATOM      4  C   UNL     1     144.419 146.657 137.896  1.00  0.00     0.005 C 
ATOM      5  C   UNL     1     142.942 147.059 137.776  1.00  0.00     0.010 C 
ATOM      6  C   UNL     1     142.673 147.780 139.117  1.00  0.00    -0.006 C 
ATOM      7  C   UNL     1     143.591 147.030 140.058  1.00  0.00     0.013 C 
ATOM      8  C   UNL     1     143.325 149.191 139.069  1.00  0.00     0.126 C 
ATOM      9  C   UNL     1     141.196 147.755 139.531  1.00  0.00     0.014 C 
ATOM     10  C   UNL     1     145.556 149.454 140.392  1.00  0.00     0.014 C 
ENDROOT
BRANCH   8  11
ATOM     11  O   UNL     1     142.912 149.977 140.162  1.00  0.00    -0.392 OA
ATOM     12  H   UNL     1     143.046 150.926 139.906  1.00  0.00     0.211 HD
ENDBRANCH   8  11
TORSDOF 1
ENDMDL
MODEL 5
REMARK VINA RESULT:    -3.618      9.096     10.254
REMARK INTER + INTRA:          -3.724
REMARK INTER:                  -3.724
REMARK INTRA:                   0.000
REMARK UNBOUND:                 0.000
REMARK SMILES CC1(C)[C@@H]2CC[C@@](C)(C2)[C@H]1O
REMARK SMILES IDX 1 1 2 2 4 3 5 4 6 5 7 6 9 7 10 8 8 9 3 10 11 11
REMARK H PARENT 11 12
REMARK Flexibility Score: inf
ROOT
ATOM      1  C   UNL     1     151.917 145.590 137.958  1.00  0.00     0.014 C 
ATOM      2  C   UNL     1     152.437 144.818 139.195  1.00  0.00    -0.006 C 
ATOM      3  C   UNL     1     154.000 144.746 139.276  1.00  0.00    -0.002 C 
ATOM      4  C   UNL     1     154.612 144.307 137.930  1.00  0.00     0.005 C 
ATOM      5  C   UNL     1     154.157 142.846 137.808  1.00  0.00     0.010 C 
ATOM      6  C   UNL     1     153.437 142.598 139.154  1.00  0.00    -0.006 C 
ATOM      7  C   UNL     1     154.227 143.485 140.092  1.00  0.00     0.013 C 
ATOM      8  C   UNL     1     152.050 143.301 139.119  1.00  0.00     0.126 C 
ATOM      9  C   UNL     1     153.411 141.120 139.562  1.00  0.00     0.014 C 
ATOM     10  C   UNL     1     151.879 145.535 140.453  1.00  0.00     0.014 C 
ENDROOT
BRANCH   8  11
ATOM     11  O   UNL     1     151.258 142.912 140.218  1.00  0.00    -0.392 OA
ATOM     12  H   UNL     1     150.486 142.407 139.855  1.00  0.00     0.211 HD
ENDBRANCH   8  11
TORSDOF 1
ENDMDL
MODEL 6
REMARK VINA RESULT:    -3.250      8.380      9.745
REMARK INTER + INTRA:          -3.345
REMARK INTER:                  -3.345
REMARK INTRA:                   0.000
REMARK UNBOUND:                 0.000
REMARK SMILES CC1(C)[C@@H]2CC[C@@](C)(C2)[C@H]1O
REMARK SMILES IDX 1 1 2 2 4 3 5 4 6 5 7 6 9 7 10 8 8 9 3 10 11 11
REMARK H PARENT 11 12
REMARK Flexibility Score: inf
ROOT
ATOM      1  C   UNL     1     156.171 152.645 139.688  1.00  0.00     0.014 C 
ATOM      2  C   UNL     1     157.235 153.680 139.248  1.00  0.00    -0.006 C 
ATOM      3  C   UNL     1     158.074 153.224 138.005  1.00  0.00    -0.002 C 
ATOM      4  C   UNL     1     158.599 151.784 138.180  1.00  0.00     0.005 C 
ATOM      5  C   UNL     1     159.623 151.930 139.314  1.00  0.00     0.010 C 
ATOM      6  C   UNL     1     159.638 153.455 139.568  1.00  0.00    -0.006 C 
ATOM      7  C   UNL     1     159.368 153.999 138.182  1.00  0.00     0.013 C 
ATOM      8  C   UNL     1     158.347 153.849 140.339  1.00  0.00     0.126 C 
ATOM      9  C   UNL     1     160.950 153.951 140.191  1.00  0.00     0.014 C 
ATOM     10  C   UNL     1     156.486 154.999 138.920  1.00  0.00     0.014 C 
ENDROOT
BRANCH   8  11
ATOM     11  O   UNL     1     158.420 155.178 140.803  1.00  0.00    -0.392 OA
ATOM     12  H   UNL     1     159.310 155.290 141.225  1.00  0.00     0.211 HD
ENDBRANCH   8  11
TORSDOF 1
ENDMDL
MODEL 7
REMARK VINA RESULT:    -3.230      8.806     10.132
REMARK INTER + INTRA:          -3.324
REMARK INTER:                  -3.324
REMARK INTRA:                   0.000
REMARK UNBOUND:                 0.000
REMARK SMILES CC1(C)[C@@H]2CC[C@@](C)(C2)[C@H]1O
REMARK SMILES IDX 1 1 2 2 4 3 5 4 6 5 7 6 9 7 10 8 8 9 3 10 11 11
REMARK H PARENT 11 12
REMARK Flexibility Score: inf
ROOT
ATOM      1  C   UNL     1     144.498 146.561 136.546  1.00  0.00     0.014 C 
ATOM      2  C   UNL     1     145.032 146.789 137.981  1.00  0.00    -0.006 C 
ATOM      3  C   UNL     1     143.934 146.636 139.089  1.00  0.00    -0.002 C 
ATOM      4  C   UNL     1     142.663 147.434 138.733  1.00  0.00     0.005 C 
ATOM      5  C   UNL     1     143.133 148.892 138.842  1.00  0.00     0.010 C 
ATOM      6  C   UNL     1     144.584 148.746 139.359  1.00  0.00    -0.006 C 
ATOM      7  C   UNL     1     144.482 147.500 140.212  1.00  0.00     0.013 C 
ATOM      8  C   UNL     1     145.490 148.274 138.186  1.00  0.00     0.126 C 
ATOM      9  C   UNL     1     145.084 149.984 140.114  1.00  0.00     0.014 C 
ATOM     10  C   UNL     1     146.165 145.756 138.220  1.00  0.00     0.014 C 
ENDROOT
BRANCH   8  11
ATOM     11  O   UNL     1     146.852 148.353 138.536  1.00  0.00    -0.392 OA
ATOM     12  H   UNL     1     146.903 148.291 139.525  1.00  0.00     0.211 HD
ENDBRANCH   8  11
TORSDOF 1
ENDMDL
MODEL 8
REMARK VINA RESULT:    -3.211      7.361      9.268
REMARK INTER + INTRA:          -3.305
REMARK INTER:                  -3.305
REMARK INTRA:                   0.000
REMARK UNBOUND:                 0.000
REMARK SMILES CC1(C)[C@@H]2CC[C@@](C)(C2)[C@H]1O
REMARK SMILES IDX 1 1 2 2 4 3 5 4 6 5 7 6 9 7 10 8 8 9 3 10 11 11
REMARK H PARENT 11 12
REMARK Flexibility Score: inf
ROOT
ATOM      1  C   UNL     1     146.585 157.025 136.664  1.00  0.00     0.014 C 
ATOM      2  C   UNL     1     146.819 156.390 138.057  1.00  0.00    -0.006 C 
ATOM      3  C   UNL     1     146.692 157.410 139.239  1.00  0.00    -0.002 C 
ATOM      4  C   UNL     1     147.506 158.692 138.963  1.00  0.00     0.005 C 
ATOM      5  C   UNL     1     148.957 158.195 139.025  1.00  0.00     0.010 C 
ATOM      6  C   UNL     1     148.795 156.714 139.441  1.00  0.00    -0.006 C 
ATOM      7  C   UNL     1     147.559 156.774 140.313  1.00  0.00     0.013 C 
ATOM      8  C   UNL     1     148.298 155.898 138.214  1.00  0.00     0.126 C 
ATOM      9  C   UNL     1     150.033 156.146 140.147  1.00  0.00     0.014 C 
ATOM     10  C   UNL     1     145.771 155.258 138.227  1.00  0.00     0.014 C 
ENDROOT
BRANCH   8  11
ATOM     11  O   UNL     1     148.361 154.514 138.468  1.00  0.00    -0.392 OA
ATOM     12  H   UNL     1     148.587 154.071 137.609  1.00  0.00     0.211 HD
ENDBRANCH   8  11
TORSDOF 1
ENDMDL
MODEL 9
REMARK VINA RESULT:    -3.202      8.716     10.062
REMARK INTER + INTRA:          -3.295
REMARK INTER:                  -3.295
REMARK INTRA:                   0.000
REMARK UNBOUND:                 0.000
REMARK SMILES CC1(C)[C@@H]2CC[C@@](C)(C2)[C@H]1O
REMARK SMILES IDX 1 1 2 2 4 3 5 4 6 5 7 6 9 7 10 8 8 9 3 10 11 11
REMARK H PARENT 11 12
REMARK Flexibility Score: inf
ROOT
ATOM      1  C   UNL     1     154.746 144.702 136.481  1.00  0.00     0.014 C 
ATOM      2  C   UNL     1     154.503 145.133 137.948  1.00  0.00    -0.006 C 
ATOM      3  C   UNL     1     154.676 143.966 138.980  1.00  0.00    -0.002 C 
ATOM      4  C   UNL     1     153.904 142.706 138.535  1.00  0.00     0.005 C 
ATOM      5  C   UNL     1     152.437 143.138 138.671  1.00  0.00     0.010 C 
ATOM      6  C   UNL     1     152.553 144.553 139.285  1.00  0.00    -0.006 C 
ATOM      7  C   UNL     1     153.798 144.419 140.134  1.00  0.00     0.013 C 
ATOM      8  C   UNL     1     153.009 145.546 138.178  1.00  0.00     0.126 C 
ATOM      9  C   UNL     1     151.303 144.976 140.067  1.00  0.00     0.014 C 
ATOM     10  C   UNL     1     155.513 146.268 138.266  1.00  0.00     0.014 C 
ENDROOT
BRANCH   8  11
ATOM     11  O   UNL     1     152.901 146.880 138.619  1.00  0.00    -0.392 OA
ATOM     12  H   UNL     1     151.975 147.002 138.950  1.00  0.00     0.211 HD
ENDBRANCH   8  11
TORSDOF 1
ENDMDL
