MODEL 1
REMARK VINA RESULT:    -4.555      0.000      0.000
REMARK INTER + INTRA:          -5.963
REMARK INTER:                  -5.620
REMARK INTRA:                  -0.344
REMARK UNBOUND:                -0.344
REMARK SMILES Oc1cc(O)c2cc(O)c(-c3cc(O)c(O)c(O)c3)[o+]c2c1
REMARK SMILES IDX 10 1 20 2 21 3 22 4 2 5 3 6 4 7 6 8 7 9 8 10 11 11 12 12
REMARK SMILES IDX 13 13 19 14 15 15 17 16 14 17 16 19 18 21 9 23 1 25 5 27
REMARK H PARENT 14 18 16 20 18 22 9 24 1 26 5 28
REMARK Flexibility Score: inf
ROOT
ATOM      1  C   UNL     1      -2.486   9.488   7.515  1.00  0.00     0.402 A 
ATOM      2  O   UNL     1      -1.436   9.383   8.326  1.00  0.00    -0.202 OA
ATOM      3  C   UNL     1      -0.265   9.959   8.081  1.00  0.00     0.368 A 
ATOM      4  C   UNL     1       0.779   9.793   8.995  1.00  0.00     0.162 A 
ATOM      5  C   UNL     1       2.020  10.388   8.766  1.00  0.00     0.128 A 
ATOM      6  C   UNL     1       2.221  11.157   7.614  1.00  0.00     0.093 A 
ATOM      7  C   UNL     1       1.192  11.339   6.682  1.00  0.00     0.136 A 
ATOM      8  C   UNL     1      -0.071  10.733   6.911  1.00  0.00     0.125 A 
ATOM      9  C   UNL     1      -1.156  10.849   6.027  1.00  0.00     0.078 A 
ATOM     10  C   UNL     1      -2.369  10.218   6.317  1.00  0.00     0.223 A 
ENDROOT
BRANCH   1  11
ATOM     11  C   UNL     1      -3.742   8.807   7.903  1.00  0.00     0.091 A 
ATOM     12  C   UNL     1      -4.604   9.421   8.824  1.00  0.00     0.068 A 
ATOM     13  C   UNL     1      -5.807   8.811   9.193  1.00  0.00     0.162 A 
ATOM     14  C   UNL     1      -4.121   7.583   7.324  1.00  0.00     0.068 A 
ATOM     15  C   UNL     1      -6.170   7.577   8.628  1.00  0.00     0.200 A 
ATOM     16  C   UNL     1      -5.325   6.966   7.687  1.00  0.00     0.162 A 
BRANCH  13  17
ATOM     17  O   UNL     1      -6.628   9.447  10.125  1.00  0.00    -0.504 OA
ATOM     18  H   UNL     1      -7.619   9.584   9.965  1.00  0.00     0.293 HD
ENDBRANCH  13  17
BRANCH  15  19
ATOM     19  O   UNL     1      -7.371   6.973   9.005  1.00  0.00    -0.502 OA
ATOM     20  H   UNL     1      -7.403   6.059   9.440  1.00  0.00     0.293 HD
ENDBRANCH  15  19
BRANCH  16  21
ATOM     21  O   UNL     1      -5.687   5.748   7.111  1.00  0.00    -0.504 OA
ATOM     22  H   UNL     1      -6.578   5.309   7.313  1.00  0.00     0.293 HD
ENDBRANCH  16  21
ENDBRANCH   1  11
BRANCH  10  23
ATOM     23  O   UNL     1      -3.430  10.293   5.415  1.00  0.00    -0.500 OA
ATOM     24  H   UNL     1      -3.278  10.444   4.425  1.00  0.00     0.294 HD
ENDBRANCH  10  23
BRANCH   5  25
ATOM     25  O   UNL     1       3.048  10.211   9.689  1.00  0.00    -0.507 OA
ATOM     26  H   UNL     1       2.859  10.109  10.679  1.00  0.00     0.293 HD
ENDBRANCH   5  25
BRANCH   7  27
ATOM     27  O   UNL     1       1.471  12.123   5.559  1.00  0.00    -0.507 OA
ATOM     28  H   UNL     1       2.254  11.974   4.939  1.00  0.00     0.293 HD
ENDBRANCH   7  27
TORSDOF 7
ENDMDL
MODEL 2
REMARK VINA RESULT:    -4.530      1.710      2.885
REMARK INTER + INTRA:          -5.933
REMARK INTER:                  -5.557
REMARK INTRA:                  -0.377
REMARK UNBOUND:                -0.344
REMARK SMILES Oc1cc(O)c2cc(O)c(-c3cc(O)c(O)c(O)c3)[o+]c2c1
REMARK SMILES IDX 10 1 20 2 21 3 22 4 2 5 3 6 4 7 6 8 7 9 8 10 11 11 12 12
REMARK SMILES IDX 13 13 19 14 15 15 17 16 14 17 16 19 18 21 9 23 1 25 5 27
REMARK H PARENT 14 18 16 20 18 22 9 24 1 26 5 28
REMARK Flexibility Score: inf
ROOT
ATOM      1  C   UNL     1      -2.001   9.975   7.083  1.00  0.00     0.402 A 
ATOM      2  O   UNL     1      -1.518  10.364   5.906  1.00  0.00    -0.202 OA
ATOM      3  C   UNL     1      -0.293  10.851   5.747  1.00  0.00     0.368 A 
ATOM      4  C   UNL     1       0.127  11.230   4.468  1.00  0.00     0.162 A 
ATOM      5  C   UNL     1       1.409  11.743   4.270  1.00  0.00     0.128 A 
ATOM      6  C   UNL     1       2.281  11.878   5.356  1.00  0.00     0.093 A 
ATOM      7  C   UNL     1       1.885  11.506   6.647  1.00  0.00     0.136 A 
ATOM      8  C   UNL     1       0.581  10.986   6.853  1.00  0.00     0.125 A 
ATOM      9  C   UNL     1       0.093  10.599   8.112  1.00  0.00     0.078 A 
ATOM     10  C   UNL     1      -1.207  10.101   8.238  1.00  0.00     0.223 A 
ENDROOT
BRANCH   1  11
ATOM     11  C   UNL     1      -3.381   9.438   7.131  1.00  0.00     0.091 A 
ATOM     12  C   UNL     1      -4.468  10.325   7.113  1.00  0.00     0.068 A 
ATOM     13  C   UNL     1      -5.781   9.846   7.137  1.00  0.00     0.162 A 
ATOM     14  C   UNL     1      -3.628   8.055   7.137  1.00  0.00     0.068 A 
ATOM     15  C   UNL     1      -6.023   8.463   7.164  1.00  0.00     0.200 A 
ATOM     16  C   UNL     1      -4.941   7.566   7.159  1.00  0.00     0.162 A 
BRANCH  13  17
ATOM     17  O   UNL     1      -6.834  10.762   7.133  1.00  0.00    -0.504 OA
ATOM     18  H   UNL     1      -6.682  11.757   7.250  1.00  0.00     0.293 HD
ENDBRANCH  13  17
BRANCH  15  19
ATOM     19  O   UNL     1      -7.338   7.993   7.192  1.00  0.00    -0.502 OA
ATOM     20  H   UNL     1      -8.135   8.618   7.187  1.00  0.00     0.293 HD
ENDBRANCH  15  19
BRANCH  16  21
ATOM     21  O   UNL     1      -5.175   6.191   7.172  1.00  0.00    -0.504 OA
ATOM     22  H   UNL     1      -6.077   5.803   6.921  1.00  0.00     0.293 HD
ENDBRANCH  16  21
ENDBRANCH   1  11
BRANCH  10  23
ATOM     23  O   UNL     1      -1.707   9.763   9.495  1.00  0.00    -0.500 OA
ATOM     24  H   UNL     1      -2.061   8.835   9.697  1.00  0.00     0.294 HD
ENDBRANCH  10  23
BRANCH   5  25
ATOM     25  O   UNL     1       1.809  12.116   2.989  1.00  0.00    -0.507 OA
ATOM     26  H   UNL     1       1.140  12.429   2.295  1.00  0.00     0.293 HD
ENDBRANCH   5  25
BRANCH   7  27
ATOM     27  O   UNL     1       2.815  11.668   7.677  1.00  0.00    -0.507 OA
ATOM     28  H   UNL     1       2.624  12.139   8.550  1.00  0.00     0.293 HD
ENDBRANCH   7  27
TORSDOF 7
ENDMDL
MODEL 3
REMARK VINA RESULT:    -4.522      0.189      1.803
REMARK INTER + INTRA:          -5.923
REMARK INTER:                  -5.569
REMARK INTRA:                  -0.353
REMARK UNBOUND:                -0.344
REMARK SMILES Oc1cc(O)c2cc(O)c(-c3cc(O)c(O)c(O)c3)[o+]c2c1
REMARK SMILES IDX 10 1 20 2 21 3 22 4 2 5 3 6 4 7 6 8 7 9 8 10 11 11 12 12
REMARK SMILES IDX 13 13 19 14 15 15 17 16 14 17 16 19 18 21 9 23 1 25 5 27
REMARK H PARENT 14 18 16 20 18 22 9 24 1 26 5 28
REMARK Flexibility Score: inf
ROOT
ATOM      1  C   UNL     1      -2.411   9.507   7.594  1.00  0.00     0.402 A 
ATOM      2  O   UNL     1      -1.388   9.355   8.432  1.00  0.00    -0.202 OA
ATOM      3  C   UNL     1      -0.192   9.895   8.227  1.00  0.00     0.368 A 
ATOM      4  C   UNL     1       0.820   9.681   9.167  1.00  0.00     0.162 A 
ATOM      5  C   UNL     1       2.086  10.236   8.980  1.00  0.00     0.128 A 
ATOM      6  C   UNL     1       2.345  11.013   7.846  1.00  0.00     0.093 A 
ATOM      7  C   UNL     1       1.349  11.243   6.888  1.00  0.00     0.136 A 
ATOM      8  C   UNL     1       0.061  10.677   7.074  1.00  0.00     0.125 A 
ATOM      9  C   UNL     1      -0.995  10.843   6.163  1.00  0.00     0.078 A 
ATOM     10  C   UNL     1      -2.236  10.249   6.411  1.00  0.00     0.223 A 
ENDROOT
BRANCH   1  11
ATOM     11  C   UNL     1      -3.700   8.865   7.938  1.00  0.00     0.091 A 
ATOM     12  C   UNL     1      -4.021   7.619   7.377  1.00  0.00     0.068 A 
ATOM     13  C   UNL     1      -5.221   6.979   7.700  1.00  0.00     0.162 A 
ATOM     14  C   UNL     1      -4.586   9.448   8.860  1.00  0.00     0.068 A 
ATOM     15  C   UNL     1      -6.115   7.576   8.605  1.00  0.00     0.200 A 
ATOM     16  C   UNL     1      -5.791   8.813   9.189  1.00  0.00     0.162 A 
BRANCH  13  17
ATOM     17  O   UNL     1      -5.510   5.749   7.108  1.00  0.00    -0.504 OA
ATOM     18  H   UNL     1      -6.431   5.528   6.748  1.00  0.00     0.293 HD
ENDBRANCH  13  17
BRANCH  15  19
ATOM     19  O   UNL     1      -7.313   6.933   8.918  1.00  0.00    -0.502 OA
ATOM     20  H   UNL     1      -7.461   6.471   9.808  1.00  0.00     0.293 HD
ENDBRANCH  15  19
BRANCH  16  21
ATOM     21  O   UNL     1      -6.666   9.404  10.100  1.00  0.00    -0.504 OA
ATOM     22  H   UNL     1      -7.631   9.104  10.181  1.00  0.00     0.293 HD
ENDBRANCH  16  21
ENDBRANCH   1  11
BRANCH  10  23
ATOM     23  O   UNL     1      -3.269  10.373   5.481  1.00  0.00    -0.500 OA
ATOM     24  H   UNL     1      -4.224  10.553   5.766  1.00  0.00     0.294 HD
ENDBRANCH  10  23
BRANCH   5  25
ATOM     25  O   UNL     1       3.081  10.011   9.928  1.00  0.00    -0.507 OA
ATOM     26  H   UNL     1       4.003   9.686   9.662  1.00  0.00     0.293 HD
ENDBRANCH   5  25
BRANCH   7  27
ATOM     27  O   UNL     1       1.685  12.032   5.786  1.00  0.00    -0.507 OA
ATOM     28  H   UNL     1       2.460  12.680   5.762  1.00  0.00     0.293 HD
ENDBRANCH   7  27
TORSDOF 7
ENDMDL
MODEL 4
REMARK VINA RESULT:    -4.479      1.462      3.116
REMARK INTER + INTRA:          -5.870
REMARK INTER:                  -5.494
REMARK INTRA:                  -0.375
REMARK UNBOUND:                -0.344
REMARK SMILES Oc1cc(O)c2cc(O)c(-c3cc(O)c(O)c(O)c3)[o+]c2c1
REMARK SMILES IDX 10 1 20 2 21 3 22 4 2 5 3 6 4 7 6 8 7 9 8 10 11 11 12 12
REMARK SMILES IDX 13 13 19 14 15 15 17 16 14 17 16 19 18 21 9 23 1 25 5 27
REMARK H PARENT 14 18 16 20 18 22 9 24 1 26 5 28
REMARK Flexibility Score: inf
ROOT
ATOM      1  C   UNL     1      -1.928   9.794   7.557  1.00  0.00     0.402 A 
ATOM      2  O   UNL     1      -1.305  10.196   6.452  1.00  0.00    -0.202 OA
ATOM      3  C   UNL     1      -0.053  10.641   6.442  1.00  0.00     0.368 A 
ATOM      4  C   UNL     1       0.517  11.038   5.229  1.00  0.00     0.162 A 
ATOM      5  C   UNL     1       1.830  11.507   5.187  1.00  0.00     0.128 A 
ATOM      6  C   UNL     1       2.582  11.579   6.365  1.00  0.00     0.093 A 
ATOM      7  C   UNL     1       2.034  11.187   7.593  1.00  0.00     0.136 A 
ATOM      8  C   UNL     1       0.698  10.712   7.640  1.00  0.00     0.125 A 
ATOM      9  C   UNL     1       0.062  10.309   8.826  1.00  0.00     0.078 A 
ATOM     10  C   UNL     1      -1.260   9.857   8.794  1.00  0.00     0.223 A 
ENDROOT
BRANCH   1  11
ATOM     11  C   UNL     1      -3.323   9.309   7.438  1.00  0.00     0.091 A 
ATOM     12  C   UNL     1      -3.567   7.932   7.330  1.00  0.00     0.068 A 
ATOM     13  C   UNL     1      -4.875   7.444   7.238  1.00  0.00     0.162 A 
ATOM     14  C   UNL     1      -4.412  10.195   7.489  1.00  0.00     0.068 A 
ATOM     15  C   UNL     1      -5.960   8.336   7.267  1.00  0.00     0.200 A 
ATOM     16  C   UNL     1      -5.725   9.715   7.399  1.00  0.00     0.162 A 
BRANCH  13  17
ATOM     17  O   UNL     1      -5.075   6.069   7.116  1.00  0.00    -0.504 OA
ATOM     18  H   UNL     1      -4.323   5.402   7.244  1.00  0.00     0.293 HD
ENDBRANCH  13  17
BRANCH  15  19
ATOM     19  O   UNL     1      -7.262   7.841   7.171  1.00  0.00    -0.502 OA
ATOM     20  H   UNL     1      -7.703   7.329   7.926  1.00  0.00     0.293 HD
ENDBRANCH  15  19
BRANCH  16  21
ATOM     21  O   UNL     1      -6.799  10.604   7.443  1.00  0.00    -0.504 OA
ATOM     22  H   UNL     1      -6.830  11.367   8.110  1.00  0.00     0.293 HD
ENDBRANCH  16  21
ENDBRANCH   1  11
BRANCH  10  23
ATOM     23  O   UNL     1      -1.907   9.504   9.979  1.00  0.00    -0.500 OA
ATOM     24  H   UNL     1      -2.075  10.179  10.715  1.00  0.00     0.294 HD
ENDBRANCH  10  23
BRANCH   5  25
ATOM     25  O   UNL     1       2.380  11.900   3.969  1.00  0.00    -0.507 OA
ATOM     26  H   UNL     1       3.156  11.399   3.552  1.00  0.00     0.293 HD
ENDBRANCH   5  25
BRANCH   7  27
ATOM     27  O   UNL     1       2.851  11.285   8.723  1.00  0.00    -0.507 OA
ATOM     28  H   UNL     1       2.843  12.062   9.367  1.00  0.00     0.293 HD
ENDBRANCH   7  27
TORSDOF 7
ENDMDL
MODEL 5
REMARK VINA RESULT:    -4.414      1.690      7.349
REMARK INTER + INTRA:          -5.790
REMARK INTER:                  -5.552
REMARK INTRA:                  -0.237
REMARK UNBOUND:                -0.344
REMARK SMILES Oc1cc(O)c2cc(O)c(-c3cc(O)c(O)c(O)c3)[o+]c2c1
REMARK SMILES IDX 10 1 20 2 21 3 22 4 2 5 3 6 4 7 6 8 7 9 8 10 11 11 12 12
REMARK SMILES IDX 13 13 19 14 15 15 17 16 14 17 16 19 18 21 9 23 1 25 5 27
REMARK H PARENT 14 18 16 20 18 22 9 24 1 26 5 28
REMARK Flexibility Score: inf
ROOT
ATOM      1  C   UNL     1      -2.242  10.291   6.619  1.00  0.00     0.402 A 
ATOM      2  O   UNL     1      -2.851   9.180   6.212  1.00  0.00    -0.202 OA
ATOM      3  C   UNL     1      -3.945   8.695   6.789  1.00  0.00     0.368 A 
ATOM      4  C   UNL     1      -4.515   7.522   6.288  1.00  0.00     0.162 A 
ATOM      5  C   UNL     1      -5.665   6.991   6.872  1.00  0.00     0.128 A 
ATOM      6  C   UNL     1      -6.252   7.636   7.966  1.00  0.00     0.093 A 
ATOM      7  C   UNL     1      -5.701   8.813   8.488  1.00  0.00     0.136 A 
ATOM      8  C   UNL     1      -4.530   9.354   7.897  1.00  0.00     0.125 A 
ATOM      9  C   UNL     1      -3.900  10.522   8.360  1.00  0.00     0.078 A 
ATOM     10  C   UNL     1      -2.744  10.993   7.731  1.00  0.00     0.223 A 
ENDROOT
BRANCH   1  11
ATOM     11  C   UNL     1      -1.034  10.737   5.886  1.00  0.00     0.091 A 
ATOM     12  C   UNL     1      -1.161  11.219   4.575  1.00  0.00     0.068 A 
ATOM     13  C   UNL     1      -0.041  11.666   3.868  1.00  0.00     0.162 A 
ATOM     14  C   UNL     1       0.232  10.741   6.497  1.00  0.00     0.068 A 
ATOM     15  C   UNL     1       1.227  11.648   4.474  1.00  0.00     0.200 A 
ATOM     16  C   UNL     1       1.359  11.188   5.796  1.00  0.00     0.162 A 
BRANCH  13  17
ATOM     17  O   UNL     1      -0.207  12.123   2.560  1.00  0.00    -0.504 OA
ATOM     18  H   UNL     1      -0.166  13.108   2.325  1.00  0.00     0.293 HD
ENDBRANCH  13  17
BRANCH  15  19
ATOM     19  O   UNL     1       2.340  12.092   3.759  1.00  0.00    -0.502 OA
ATOM     20  H   UNL     1       2.440  13.054   3.457  1.00  0.00     0.293 HD
ENDBRANCH  15  19
BRANCH  16  21
ATOM     21  O   UNL     1       2.612  11.181   6.409  1.00  0.00    -0.504 OA
ATOM     22  H   UNL     1       3.172  10.338   6.465  1.00  0.00     0.293 HD
ENDBRANCH  16  21
ENDBRANCH   1  11
BRANCH  10  23
ATOM     23  O   UNL     1      -2.092  12.124   8.221  1.00  0.00    -0.500 OA
ATOM     24  H   UNL     1      -2.311  13.054   7.885  1.00  0.00     0.294 HD
ENDBRANCH  10  23
BRANCH   5  25
ATOM     25  O   UNL     1      -6.217   5.820   6.358  1.00  0.00    -0.507 OA
ATOM     26  H   UNL     1      -6.379   5.009   6.943  1.00  0.00     0.293 HD
ENDBRANCH   5  25
BRANCH   7  27
ATOM     27  O   UNL     1      -6.349   9.398   9.579  1.00  0.00    -0.507 OA
ATOM     28  H   UNL     1      -7.235   9.089   9.949  1.00  0.00     0.293 HD
ENDBRANCH   7  27
TORSDOF 7
ENDMDL
MODEL 6
REMARK VINA RESULT:    -4.260      1.436      7.225
REMARK INTER + INTRA:          -5.599
REMARK INTER:                  -5.391
REMARK INTRA:                  -0.208
REMARK UNBOUND:                -0.344
REMARK SMILES Oc1cc(O)c2cc(O)c(-c3cc(O)c(O)c(O)c3)[o+]c2c1
REMARK SMILES IDX 10 1 20 2 21 3 22 4 2 5 3 6 4 7 6 8 7 9 8 10 11 11 12 12
REMARK SMILES IDX 13 13 19 14 15 15 17 16 14 17 16 19 18 21 9 23 1 25 5 27
REMARK H PARENT 14 18 16 20 18 22 9 24 1 26 5 28
REMARK Flexibility Score: inf
ROOT
ATOM      1  C   UNL     1      -2.299  10.252   7.002  1.00  0.00     0.402 A 
ATOM      2  O   UNL     1      -2.879   9.129   6.586  1.00  0.00    -0.202 OA
ATOM      3  C   UNL     1      -4.004   8.654   7.108  1.00  0.00     0.368 A 
ATOM      4  C   UNL     1      -4.539   7.466   6.601  1.00  0.00     0.162 A 
ATOM      5  C   UNL     1      -5.721   6.944   7.127  1.00  0.00     0.128 A 
ATOM      6  C   UNL     1      -6.376   7.613   8.167  1.00  0.00     0.093 A 
ATOM      7  C   UNL     1      -5.861   8.805   8.692  1.00  0.00     0.136 A 
ATOM      8  C   UNL     1      -4.658   9.337   8.161  1.00  0.00     0.125 A 
ATOM      9  C   UNL     1      -4.061  10.519   8.632  1.00  0.00     0.078 A 
ATOM     10  C   UNL     1      -2.871  10.979   8.063  1.00  0.00     0.223 A 
ENDROOT
BRANCH   1  11
ATOM     11  C   UNL     1      -1.050  10.685   6.334  1.00  0.00     0.091 A 
ATOM     12  C   UNL     1       0.150  10.705   7.061  1.00  0.00     0.068 A 
ATOM     13  C   UNL     1       1.348  11.089   6.451  1.00  0.00     0.162 A 
ATOM     14  C   UNL     1      -1.028  11.021   4.970  1.00  0.00     0.068 A 
ATOM     15  C   UNL     1       1.362  11.446   5.092  1.00  0.00     0.200 A 
ATOM     16  C   UNL     1       0.169  11.406   4.350  1.00  0.00     0.162 A 
BRANCH  13  17
ATOM     17  O   UNL     1       2.517  11.111   7.214  1.00  0.00    -0.504 OA
ATOM     18  H   UNL     1       2.570  11.593   8.103  1.00  0.00     0.293 HD
ENDBRANCH  13  17
BRANCH  15  19
ATOM     19  O   UNL     1       2.561  11.831   4.492  1.00  0.00    -0.502 OA
ATOM     20  H   UNL     1       2.589  12.335   3.613  1.00  0.00     0.293 HD
ENDBRANCH  15  19
BRANCH  16  21
ATOM     21  O   UNL     1       0.178  11.744   2.997  1.00  0.00    -0.504 OA
ATOM     22  H   UNL     1       1.044  11.844   2.480  1.00  0.00     0.293 HD
ENDBRANCH  16  21
ENDBRANCH   1  11
BRANCH  10  23
ATOM     23  O   UNL     1      -2.253  12.125   8.565  1.00  0.00    -0.500 OA
ATOM     24  H   UNL     1      -2.425  12.454   9.507  1.00  0.00     0.294 HD
ENDBRANCH  10  23
BRANCH   5  25
ATOM     25  O   UNL     1      -6.238   5.759   6.610  1.00  0.00    -0.507 OA
ATOM     26  H   UNL     1      -5.782   4.868   6.768  1.00  0.00     0.293 HD
ENDBRANCH   5  25
BRANCH   7  27
ATOM     27  O   UNL     1      -6.577   9.415   9.726  1.00  0.00    -0.507 OA
ATOM     28  H   UNL     1      -6.158   9.793  10.564  1.00  0.00     0.293 HD
ENDBRANCH   7  27
TORSDOF 7
ENDMDL
MODEL 7
REMARK VINA RESULT:    -3.733      1.642      2.458
REMARK INTER + INTRA:          -4.949
REMARK INTER:                  -4.916
REMARK INTRA:                  -0.033
REMARK UNBOUND:                -0.344
REMARK SMILES Oc1cc(O)c2cc(O)c(-c3cc(O)c(O)c(O)c3)[o+]c2c1
REMARK SMILES IDX 10 1 20 2 21 3 22 4 2 5 3 6 4 7 6 8 7 9 8 10 11 11 12 12
REMARK SMILES IDX 13 13 19 14 15 15 17 16 14 17 16 19 18 21 9 23 1 25 5 27
REMARK H PARENT 14 18 16 20 18 22 9 24 1 26 5 28
REMARK Flexibility Score: inf
ROOT
ATOM      1  C   UNL     1      -1.076  10.278   6.690  1.00  0.00     0.402 A 
ATOM      2  O   UNL     1      -0.279  10.106   7.742  1.00  0.00    -0.202 OA
ATOM      3  C   UNL     1       0.994  10.484   7.761  1.00  0.00     0.368 A 
ATOM      4  C   UNL     1       1.751  10.263   8.915  1.00  0.00     0.162 A 
ATOM      5  C   UNL     1       3.090  10.651   8.966  1.00  0.00     0.128 A 
ATOM      6  C   UNL     1       3.679  11.267   7.856  1.00  0.00     0.093 A 
ATOM      7  C   UNL     1       2.943  11.499   6.688  1.00  0.00     0.136 A 
ATOM      8  C   UNL     1       1.582  11.103   6.632  1.00  0.00     0.125 A 
ATOM      9  C   UNL     1       0.770  11.285   5.500  1.00  0.00     0.078 A 
ATOM     10  C   UNL     1      -0.563  10.863   5.517  1.00  0.00     0.223 A 
ENDROOT
BRANCH   1  11
ATOM     11  C   UNL     1      -2.481   9.823   6.793  1.00  0.00     0.091 A 
ATOM     12  C   UNL     1      -2.764   8.589   7.398  1.00  0.00     0.068 A 
ATOM     13  C   UNL     1      -4.083   8.144   7.528  1.00  0.00     0.162 A 
ATOM     14  C   UNL     1      -3.545  10.627   6.350  1.00  0.00     0.068 A 
ATOM     15  C   UNL     1      -5.143   8.941   7.063  1.00  0.00     0.200 A 
ATOM     16  C   UNL     1      -4.870  10.189   6.477  1.00  0.00     0.162 A 
BRANCH  13  17
ATOM     17  O   UNL     1      -4.321   6.904   8.122  1.00  0.00    -0.504 OA
ATOM     18  H   UNL     1      -5.181   6.390   7.970  1.00  0.00     0.293 HD
ENDBRANCH  13  17
BRANCH  15  19
ATOM     19  O   UNL     1      -6.456   8.487   7.194  1.00  0.00    -0.502 OA
ATOM     20  H   UNL     1      -7.116   8.512   6.425  1.00  0.00     0.293 HD
ENDBRANCH  15  19
BRANCH  16  21
ATOM     21  O   UNL     1      -5.918  10.991   6.027  1.00  0.00    -0.504 OA
ATOM     22  H   UNL     1      -5.816  11.594   5.218  1.00  0.00     0.293 HD
ENDBRANCH  16  21
ENDBRANCH   1  11
BRANCH  10  23
ATOM     23  O   UNL     1      -1.354  10.998   4.376  1.00  0.00    -0.500 OA
ATOM     24  H   UNL     1      -2.347  11.185   4.435  1.00  0.00     0.294 HD
ENDBRANCH  10  23
BRANCH   5  25
ATOM     25  O   UNL     1       3.828  10.422  10.125  1.00  0.00    -0.507 OA
ATOM     26  H   UNL     1       3.467  10.665  11.040  1.00  0.00     0.293 HD
ENDBRANCH   5  25
BRANCH   7  27
ATOM     27  O   UNL     1       3.603  12.122   5.625  1.00  0.00    -0.507 OA
ATOM     28  H   UNL     1       3.385  11.970   4.650  1.00  0.00     0.293 HD
ENDBRANCH   7  27
TORSDOF 7
ENDMDL
MODEL 8
REMARK VINA RESULT:    -3.650      1.922      3.071
REMARK INTER + INTRA:          -4.847
REMARK INTER:                  -4.463
REMARK INTRA:                  -0.384
REMARK UNBOUND:                -0.344
REMARK SMILES Oc1cc(O)c2cc(O)c(-c3cc(O)c(O)c(O)c3)[o+]c2c1
REMARK SMILES IDX 10 1 20 2 21 3 22 4 2 5 3 6 4 7 6 8 7 9 8 10 11 11 12 12
REMARK SMILES IDX 13 13 19 14 15 15 17 16 14 17 16 19 18 21 9 23 1 25 5 27
REMARK H PARENT 14 18 16 20 18 22 9 24 1 26 5 28
REMARK Flexibility Score: inf
ROOT
ATOM      1  C   UNL     1      -0.786  10.598   6.862  1.00  0.00     0.402 A 
ATOM      2  O   UNL     1       0.420  10.557   7.425  1.00  0.00    -0.202 OA
ATOM      3  C   UNL     1       1.534  10.895   6.786  1.00  0.00     0.368 A 
ATOM      4  C   UNL     1       2.755  10.822   7.463  1.00  0.00     0.162 A 
ATOM      5  C   UNL     1       3.941  11.173   6.818  1.00  0.00     0.128 A 
ATOM      6  C   UNL     1       3.910  11.601   5.487  1.00  0.00     0.093 A 
ATOM      7  C   UNL     1       2.701  11.683   4.786  1.00  0.00     0.136 A 
ATOM      8  C   UNL     1       1.492  11.325   5.437  1.00  0.00     0.125 A 
ATOM      9  C   UNL     1       0.235  11.364   4.811  1.00  0.00     0.078 A 
ATOM     10  C   UNL     1      -0.912  10.990   5.516  1.00  0.00     0.223 A 
ENDROOT
BRANCH   1  11
ATOM     11  C   UNL     1      -1.955  10.206   7.682  1.00  0.00     0.091 A 
ATOM     12  C   UNL     1      -2.300   8.851   7.788  1.00  0.00     0.068 A 
ATOM     13  C   UNL     1      -3.386   8.449   8.572  1.00  0.00     0.162 A 
ATOM     14  C   UNL     1      -2.695  11.158   8.403  1.00  0.00     0.068 A 
ATOM     15  C   UNL     1      -4.137   9.407   9.274  1.00  0.00     0.200 A 
ATOM     16  C   UNL     1      -3.785  10.765   9.192  1.00  0.00     0.162 A 
BRANCH  13  17
ATOM     17  O   UNL     1      -3.705   7.093   8.639  1.00  0.00    -0.504 OA
ATOM     18  H   UNL     1      -4.664   6.766   8.660  1.00  0.00     0.293 HD
ENDBRANCH  13  17
BRANCH  15  19
ATOM     19  O   UNL     1      -5.223   8.998  10.051  1.00  0.00    -0.502 OA
ATOM     20  H   UNL     1      -5.110   8.420  10.875  1.00  0.00     0.293 HD
ENDBRANCH  15  19
BRANCH  16  21
ATOM     21  O   UNL     1      -4.517  11.719   9.898  1.00  0.00    -0.504 OA
ATOM     22  H   UNL     1      -4.509  12.698   9.634  1.00  0.00     0.293 HD
ENDBRANCH  16  21
ENDBRANCH   1  11
BRANCH  10  23
ATOM     23  O   UNL     1      -2.153  10.981   4.879  1.00  0.00    -0.500 OA
ATOM     24  H   UNL     1      -2.686  11.831   4.739  1.00  0.00     0.294 HD
ENDBRANCH  10  23
BRANCH   5  25
ATOM     25  O   UNL     1       5.147  11.092   7.510  1.00  0.00    -0.507 OA
ATOM     26  H   UNL     1       6.019  10.891   7.034  1.00  0.00     0.293 HD
ENDBRANCH   5  25
BRANCH   7  27
ATOM     27  O   UNL     1       2.753  12.124   3.460  1.00  0.00    -0.507 OA
ATOM     28  H   UNL     1       2.925  11.525   2.666  1.00  0.00     0.293 HD
ENDBRANCH   7  27
TORSDOF 7
ENDMDL
MODEL 9
REMARK VINA RESULT:    -3.612      2.686      7.948
REMARK INTER + INTRA:          -4.800
REMARK INTER:                  -4.691
REMARK INTRA:                  -0.109
REMARK UNBOUND:                -0.344
REMARK SMILES Oc1cc(O)c2cc(O)c(-c3cc(O)c(O)c(O)c3)[o+]c2c1
REMARK SMILES IDX 10 1 20 2 21 3 22 4 2 5 3 6 4 7 6 8 7 9 8 10 11 11 12 12
REMARK SMILES IDX 13 13 19 14 15 15 17 16 14 17 16 19 18 21 9 23 1 25 5 27
REMARK H PARENT 14 18 16 20 18 22 9 24 1 26 5 28
REMARK Flexibility Score: inf
ROOT
ATOM      1  C   UNL     1       1.411  11.076   5.784  1.00  0.00     0.402 A 
ATOM      2  O   UNL     1       0.672  10.619   6.791  1.00  0.00    -0.202 OA
ATOM      3  C   UNL     1      -0.655  10.583   6.764  1.00  0.00     0.368 A 
ATOM      4  C   UNL     1      -1.345  10.081   7.871  1.00  0.00     0.162 A 
ATOM      5  C   UNL     1      -2.739  10.028   7.870  1.00  0.00     0.128 A 
ATOM      6  C   UNL     1      -3.452  10.480   6.754  1.00  0.00     0.093 A 
ATOM      7  C   UNL     1      -2.785  10.988   5.632  1.00  0.00     0.136 A 
ATOM      8  C   UNL     1      -1.368  11.045   5.630  1.00  0.00     0.125 A 
ATOM      9  C   UNL     1      -0.615  11.549   4.556  1.00  0.00     0.078 A 
ATOM     10  C   UNL     1       0.780  11.579   4.630  1.00  0.00     0.223 A 
ENDROOT
BRANCH   1  11
ATOM     11  C   UNL     1       2.885  11.056   5.929  1.00  0.00     0.091 A 
ATOM     12  C   UNL     1       3.469  11.559   7.101  1.00  0.00     0.068 A 
ATOM     13  C   UNL     1       4.856  11.533   7.275  1.00  0.00     0.162 A 
ATOM     14  C   UNL     1       3.710  10.489   4.943  1.00  0.00     0.068 A 
ATOM     15  C   UNL     1       5.680  10.986   6.277  1.00  0.00     0.200 A 
ATOM     16  C   UNL     1       5.101  10.458   5.109  1.00  0.00     0.162 A 
BRANCH  13  17
ATOM     17  O   UNL     1       5.399  12.058   8.449  1.00  0.00    -0.504 OA
ATOM     18  H   UNL     1       6.206  12.671   8.442  1.00  0.00     0.293 HD
ENDBRANCH  13  17
BRANCH  15  19
ATOM     19  O   UNL     1       7.064  10.968   6.457  1.00  0.00    -0.502 OA
ATOM     20  H   UNL     1       7.549  11.683   6.985  1.00  0.00     0.293 HD
ENDBRANCH  15  19
BRANCH  16  21
ATOM     21  O   UNL     1       5.911   9.901   4.121  1.00  0.00    -0.504 OA
ATOM     22  H   UNL     1       6.587   9.175   4.334  1.00  0.00     0.293 HD
ENDBRANCH  16  21
ENDBRANCH   1  11
BRANCH  10  23
ATOM     23  O   UNL     1       1.524  12.125   3.584  1.00  0.00    -0.500 OA
ATOM     24  H   UNL     1       1.952  13.040   3.656  1.00  0.00     0.294 HD
ENDBRANCH  10  23
BRANCH   5  25
ATOM     25  O   UNL     1      -3.407   9.525   8.983  1.00  0.00    -0.507 OA
ATOM     26  H   UNL     1      -4.346   9.825   9.218  1.00  0.00     0.293 HD
ENDBRANCH   5  25
BRANCH   7  27
ATOM     27  O   UNL     1      -3.569  11.415   4.556  1.00  0.00    -0.507 OA
ATOM     28  H   UNL     1      -4.431  10.975   4.269  1.00  0.00     0.293 HD
ENDBRANCH   7  27
TORSDOF 7
ENDMDL
