MODEL 1
REMARK VINA RESULT:    -4.889      0.000      0.000
REMARK INTER + INTRA:          -5.936
REMARK INTER:                  -5.890
REMARK INTRA:                  -0.046
REMARK UNBOUND:                -0.046
REMARK SMILES O=c1c(O)c(-c2ccc(O)c(O)c2)oc2cc(O)cc(O)c12
REMARK SMILES IDX 5 1 3 2 2 3 1 4 22 5 20 6 19 7 17 8 16 9 15 10 14 11 6 12
REMARK SMILES IDX 7 13 8 14 9 15 13 16 11 17 10 18 12 20 4 22 21 24 18 26
REMARK H PARENT 10 19 12 21 4 23 21 25 18 27
REMARK Flexibility Score: inf
ROOT
ATOM      1  C   UNL     1       2.227   7.819  -5.232  1.00  0.00     0.180 A 
ATOM      2  C   UNL     1       3.436   8.147  -5.870  1.00  0.00     0.208 A 
ATOM      3  C   UNL     1       3.643   9.467  -6.299  1.00  0.00     0.238 A 
ATOM      4  O   UNL     1       4.705   9.743  -6.917  1.00  0.00    -0.285 OA
ATOM      5  C   UNL     1       2.647  10.447  -6.070  1.00  0.00     0.111 A 
ATOM      6  C   UNL     1       2.769  11.824  -6.425  1.00  0.00     0.134 A 
ATOM      7  C   UNL     1       1.668  12.677  -6.270  1.00  0.00     0.093 A 
ATOM      8  C   UNL     1       0.475  12.218  -5.710  1.00  0.00     0.123 A 
ATOM      9  C   UNL     1       0.366  10.888  -5.304  1.00  0.00     0.094 A 
ATOM     10  C   UNL     1       1.434  10.005  -5.481  1.00  0.00     0.146 A 
ATOM     11  O   UNL     1       1.285   8.745  -5.091  1.00  0.00    -0.452 OA
ENDROOT
BRANCH   1  12
ATOM     12  C   UNL     1       1.946   6.454  -4.730  1.00  0.00     0.025 A 
ATOM     13  C   UNL     1       2.848   5.785  -3.886  1.00  0.00     0.016 A 
ATOM     14  C   UNL     1       2.550   4.507  -3.404  1.00  0.00     0.051 A 
ATOM     15  C   UNL     1       1.343   3.885  -3.749  1.00  0.00     0.157 A 
ATOM     16  C   UNL     1       0.727   5.835  -5.056  1.00  0.00     0.062 A 
ATOM     17  C   UNL     1       0.426   4.555  -4.577  1.00  0.00     0.158 A 
BRANCH  15  18
ATOM     18  O   UNL     1       1.049   2.610  -3.269  1.00  0.00    -0.504 OA
ATOM     19  H   UNL     1       0.755   2.458  -2.312  1.00  0.00     0.293 HD
ENDBRANCH  15  18
BRANCH  17  20
ATOM     20  O   UNL     1      -0.787   3.967  -4.932  1.00  0.00    -0.504 OA
ATOM     21  H   UNL     1      -1.611   4.036  -4.346  1.00  0.00     0.293 HD
ENDBRANCH  17  20
ENDBRANCH   1  12
BRANCH   2  22
ATOM     22  O   UNL     1       4.396   7.159  -6.106  1.00  0.00    -0.502 OA
ATOM     23  H   UNL     1       4.400   6.275  -5.610  1.00  0.00     0.293 HD
ENDBRANCH   2  22
BRANCH   6  24
ATOM     24  O   UNL     1       3.945  12.406  -6.906  1.00  0.00    -0.507 OA
ATOM     25  H   UNL     1       4.373  12.187  -7.793  1.00  0.00     0.293 HD
ENDBRANCH   6  24
BRANCH   8  26
ATOM     26  O   UNL     1      -0.594  13.099  -5.556  1.00  0.00    -0.508 OA
ATOM     27  H   UNL     1      -0.484  14.096  -5.698  1.00  0.00     0.293 HD
ENDBRANCH   8  26
TORSDOF 6
ENDMDL
MODEL 2
REMARK VINA RESULT:    -4.720      2.420      6.882
REMARK INTER + INTRA:          -5.732
REMARK INTER:                  -5.410
REMARK INTRA:                  -0.322
REMARK UNBOUND:                -0.046
REMARK SMILES O=c1c(O)c(-c2ccc(O)c(O)c2)oc2cc(O)cc(O)c12
REMARK SMILES IDX 5 1 3 2 2 3 1 4 22 5 20 6 19 7 17 8 16 9 15 10 14 11 6 12
REMARK SMILES IDX 7 13 8 14 9 15 13 16 11 17 10 18 12 20 4 22 21 24 18 26
REMARK H PARENT 10 19 12 21 4 23 21 25 18 27
REMARK Flexibility Score: inf
ROOT
ATOM      1  C   UNL     1       1.398  10.537  -4.585  1.00  0.00     0.180 A 
ATOM      2  C   UNL     1       0.861   9.369  -4.015  1.00  0.00     0.208 A 
ATOM      3  C   UNL     1       1.378   8.123  -4.404  1.00  0.00     0.238 A 
ATOM      4  O   UNL     1       0.857   7.079  -3.931  1.00  0.00    -0.285 OA
ATOM      5  C   UNL     1       2.435   8.061  -5.343  1.00  0.00     0.111 A 
ATOM      6  C   UNL     1       3.063   6.854  -5.778  1.00  0.00     0.134 A 
ATOM      7  C   UNL     1       4.010   6.901  -6.808  1.00  0.00     0.093 A 
ATOM      8  C   UNL     1       4.400   8.115  -7.373  1.00  0.00     0.123 A 
ATOM      9  C   UNL     1       3.837   9.306  -6.914  1.00  0.00     0.094 A 
ATOM     10  C   UNL     1       2.862   9.288  -5.913  1.00  0.00     0.146 A 
ATOM     11  O   UNL     1       2.344  10.442  -5.513  1.00  0.00    -0.452 OA
ENDROOT
BRANCH   1  12
ATOM     12  C   UNL     1       0.922  11.888  -4.207  1.00  0.00     0.025 A 
ATOM     13  C   UNL     1       1.566  12.638  -3.210  1.00  0.00     0.016 A 
ATOM     14  C   UNL     1       1.115  13.921  -2.887  1.00  0.00     0.051 A 
ATOM     15  C   UNL     1       0.021  14.477  -3.565  1.00  0.00     0.157 A 
ATOM     16  C   UNL     1      -0.160  12.458  -4.899  1.00  0.00     0.062 A 
ATOM     17  C   UNL     1      -0.617  13.742  -4.578  1.00  0.00     0.158 A 
BRANCH  15  18
ATOM     18  O   UNL     1      -0.429  15.755  -3.240  1.00  0.00    -0.504 OA
ATOM     19  H   UNL     1      -0.784  15.974  -2.316  1.00  0.00     0.293 HD
ENDBRANCH  15  18
BRANCH  17  20
ATOM     20  O   UNL     1      -1.702  14.269  -5.277  1.00  0.00    -0.504 OA
ATOM     21  H   UNL     1      -2.056  15.201  -5.097  1.00  0.00     0.293 HD
ENDBRANCH  17  20
ENDBRANCH   1  12
BRANCH   2  22
ATOM     22  O   UNL     1      -0.198   9.453  -3.107  1.00  0.00    -0.502 OA
ATOM     23  H   UNL     1      -0.906   8.732  -3.030  1.00  0.00     0.293 HD
ENDBRANCH   2  22
BRANCH   6  24
ATOM     24  O   UNL     1       2.813   5.599  -5.217  1.00  0.00    -0.507 OA
ATOM     25  H   UNL     1       2.108   4.954  -5.541  1.00  0.00     0.293 HD
ENDBRANCH   6  24
BRANCH   8  26
ATOM     26  O   UNL     1       5.358   8.126  -8.386  1.00  0.00    -0.508 OA
ATOM     27  H   UNL     1       5.743   8.993  -8.742  1.00  0.00     0.293 HD
ENDBRANCH   8  26
TORSDOF 6
ENDMDL
MODEL 3
REMARK VINA RESULT:    -4.558      2.478      6.591
REMARK INTER + INTRA:          -5.536
REMARK INTER:                  -5.219
REMARK INTRA:                  -0.317
REMARK UNBOUND:                -0.046
REMARK SMILES O=c1c(O)c(-c2ccc(O)c(O)c2)oc2cc(O)cc(O)c12
REMARK SMILES IDX 5 1 3 2 2 3 1 4 22 5 20 6 19 7 17 8 16 9 15 10 14 11 6 12
REMARK SMILES IDX 7 13 8 14 9 15 13 16 11 17 10 18 12 20 4 22 21 24 18 26
REMARK H PARENT 10 19 12 21 4 23 21 25 18 27
REMARK Flexibility Score: inf
ROOT
ATOM      1  C   UNL     1       3.801   8.566  -5.981  1.00  0.00     0.180 A 
ATOM      2  C   UNL     1       3.900   7.749  -7.121  1.00  0.00     0.208 A 
ATOM      3  C   UNL     1       3.026   6.658  -7.254  1.00  0.00     0.238 A 
ATOM      4  O   UNL     1       3.155   5.899  -8.251  1.00  0.00    -0.285 OA
ATOM      5  C   UNL     1       2.055   6.407  -6.256  1.00  0.00     0.111 A 
ATOM      6  C   UNL     1       1.092   5.354  -6.309  1.00  0.00     0.134 A 
ATOM      7  C   UNL     1       0.264   5.120  -5.203  1.00  0.00     0.093 A 
ATOM      8  C   UNL     1       0.319   5.940  -4.076  1.00  0.00     0.123 A 
ATOM      9  C   UNL     1       1.215   7.008  -4.039  1.00  0.00     0.094 A 
ATOM     10  C   UNL     1       2.079   7.245  -5.111  1.00  0.00     0.146 A 
ATOM     11  O   UNL     1       2.924   8.265  -5.031  1.00  0.00    -0.452 OA
ENDROOT
BRANCH   1  12
ATOM     12  C   UNL     1       4.670   9.748  -5.782  1.00  0.00     0.025 A 
ATOM     13  C   UNL     1       5.946   9.631  -5.205  1.00  0.00     0.016 A 
ATOM     14  C   UNL     1       6.758  10.757  -5.050  1.00  0.00     0.051 A 
ATOM     15  C   UNL     1       6.313  12.014  -5.480  1.00  0.00     0.157 A 
ATOM     16  C   UNL     1       4.237  11.007  -6.231  1.00  0.00     0.062 A 
ATOM     17  C   UNL     1       5.047  12.138  -6.076  1.00  0.00     0.158 A 
BRANCH  15  18
ATOM     18  O   UNL     1       7.125  13.137  -5.322  1.00  0.00    -0.504 OA
ATOM     19  H   UNL     1       8.075  13.158  -5.673  1.00  0.00     0.293 HD
ENDBRANCH  15  18
BRANCH  17  20
ATOM     20  O   UNL     1       4.578  13.373  -6.522  1.00  0.00    -0.504 OA
ATOM     21  H   UNL     1       3.974  13.956  -5.954  1.00  0.00     0.293 HD
ENDBRANCH  17  20
ENDBRANCH   1  12
BRANCH   2  22
ATOM     22  O   UNL     1       4.881   8.001  -8.084  1.00  0.00    -0.502 OA
ATOM     23  H   UNL     1       5.364   8.890  -8.147  1.00  0.00     0.293 HD
ENDBRANCH   2  22
BRANCH   6  24
ATOM     24  O   UNL     1       0.892   4.535  -7.423  1.00  0.00    -0.507 OA
ATOM     25  H   UNL     1       0.531   3.594  -7.387  1.00  0.00     0.293 HD
ENDBRANCH   6  24
BRANCH   8  26
ATOM     26  O   UNL     1      -0.531   5.687  -3.001  1.00  0.00    -0.508 OA
ATOM     27  H   UNL     1      -1.082   6.423  -2.576  1.00  0.00     0.293 HD
ENDBRANCH   8  26
TORSDOF 6
ENDMDL
MODEL 4
REMARK VINA RESULT:    -4.430      1.994      6.608
REMARK INTER + INTRA:          -5.382
REMARK INTER:                  -5.213
REMARK INTRA:                  -0.170
REMARK UNBOUND:                -0.046
REMARK SMILES O=c1c(O)c(-c2ccc(O)c(O)c2)oc2cc(O)cc(O)c12
REMARK SMILES IDX 5 1 3 2 2 3 1 4 22 5 20 6 19 7 17 8 16 9 15 10 14 11 6 12
REMARK SMILES IDX 7 13 8 14 9 15 13 16 11 17 10 18 12 20 4 22 21 24 18 26
REMARK H PARENT 10 19 12 21 4 23 21 25 18 27
REMARK Flexibility Score: inf
ROOT
ATOM      1  C   UNL     1       2.030  11.227  -5.197  1.00  0.00     0.180 A 
ATOM      2  C   UNL     1       3.253  11.433  -5.860  1.00  0.00     0.208 A 
ATOM      3  C   UNL     1       3.898  10.337  -6.454  1.00  0.00     0.238 A 
ATOM      4  O   UNL     1       5.019  10.518  -6.998  1.00  0.00    -0.285 OA
ATOM      5  C   UNL     1       3.304   9.053  -6.395  1.00  0.00     0.111 A 
ATOM      6  C   UNL     1       3.850   7.880  -6.999  1.00  0.00     0.134 A 
ATOM      7  C   UNL     1       3.245   6.638  -6.765  1.00  0.00     0.093 A 
ATOM      8  C   UNL     1       2.079   6.537  -6.006  1.00  0.00     0.123 A 
ATOM      9  C   UNL     1       1.504   7.686  -5.461  1.00  0.00     0.094 A 
ATOM     10  C   UNL     1       2.105   8.933  -5.646  1.00  0.00     0.146 A 
ATOM     11  O   UNL     1       1.532   9.999  -5.102  1.00  0.00    -0.452 OA
ENDROOT
BRANCH   1  12
ATOM     12  C   UNL     1       1.279  12.337  -4.567  1.00  0.00     0.025 A 
ATOM     13  C   UNL     1       1.793  13.035  -3.462  1.00  0.00     0.016 A 
ATOM     14  C   UNL     1       1.078  14.095  -2.899  1.00  0.00     0.051 A 
ATOM     15  C   UNL     1      -0.155  14.482  -3.441  1.00  0.00     0.157 A 
ATOM     16  C   UNL     1       0.052  12.742  -5.120  1.00  0.00     0.062 A 
ATOM     17  C   UNL     1      -0.669  13.803  -4.559  1.00  0.00     0.158 A 
BRANCH  15  18
ATOM     18  O   UNL     1      -0.869  15.539  -2.877  1.00  0.00    -0.504 OA
ATOM     19  H   UNL     1      -1.336  15.446  -1.983  1.00  0.00     0.293 HD
ENDBRANCH  15  18
BRANCH  17  20
ATOM     20  O   UNL     1      -1.889  14.168  -5.127  1.00  0.00    -0.504 OA
ATOM     21  H   UNL     1      -1.950  14.837  -5.885  1.00  0.00     0.293 HD
ENDBRANCH  17  20
ENDBRANCH   1  12
BRANCH   2  22
ATOM     22  O   UNL     1       3.832  12.705  -5.886  1.00  0.00    -0.502 OA
ATOM     23  H   UNL     1       3.674  13.358  -6.644  1.00  0.00     0.293 HD
ENDBRANCH   2  22
BRANCH   6  24
ATOM     24  O   UNL     1       4.958   7.883  -7.850  1.00  0.00    -0.507 OA
ATOM     25  H   UNL     1       5.090   7.250  -8.624  1.00  0.00     0.293 HD
ENDBRANCH   6  24
BRANCH   8  26
ATOM     26  O   UNL     1       1.495   5.287  -5.807  1.00  0.00    -0.508 OA
ATOM     27  H   UNL     1       2.013   4.430  -5.960  1.00  0.00     0.293 HD
ENDBRANCH   8  26
TORSDOF 6
ENDMDL
MODEL 5
REMARK VINA RESULT:    -4.409      2.017      3.091
REMARK INTER + INTRA:          -5.358
REMARK INTER:                  -5.127
REMARK INTRA:                  -0.230
REMARK UNBOUND:                -0.046
REMARK SMILES O=c1c(O)c(-c2ccc(O)c(O)c2)oc2cc(O)cc(O)c12
REMARK SMILES IDX 5 1 3 2 2 3 1 4 22 5 20 6 19 7 17 8 16 9 15 10 14 11 6 12
REMARK SMILES IDX 7 13 8 14 9 15 13 16 11 17 10 18 12 20 4 22 21 24 18 26
REMARK H PARENT 10 19 12 21 4 23 21 25 18 27
REMARK Flexibility Score: inf
ROOT
ATOM      1  C   UNL     1       2.085   6.673  -5.019  1.00  0.00     0.180 A 
ATOM      2  C   UNL     1       3.215   6.387  -4.232  1.00  0.00     0.208 A 
ATOM      3  C   UNL     1       4.178   7.389  -4.034  1.00  0.00     0.238 A 
ATOM      4  O   UNL     1       5.213   7.110  -3.374  1.00  0.00    -0.285 OA
ATOM      5  C   UNL     1       3.991   8.669  -4.609  1.00  0.00     0.111 A 
ATOM      6  C   UNL     1       4.882   9.772  -4.439  1.00  0.00     0.134 A 
ATOM      7  C   UNL     1       4.666  10.952  -5.161  1.00  0.00     0.093 A 
ATOM      8  C   UNL     1       3.556  11.093  -5.994  1.00  0.00     0.123 A 
ATOM      9  C   UNL     1       2.646  10.043  -6.121  1.00  0.00     0.094 A 
ATOM     10  C   UNL     1       2.855   8.840  -5.443  1.00  0.00     0.146 A 
ATOM     11  O   UNL     1       1.972   7.862  -5.599  1.00  0.00    -0.452 OA
ENDROOT
BRANCH   1  12
ATOM     12  C   UNL     1       1.016   5.676  -5.253  1.00  0.00     0.025 A 
ATOM     13  C   UNL     1       0.162   5.261  -4.217  1.00  0.00     0.016 A 
ATOM     14  C   UNL     1      -0.856   4.337  -4.466  1.00  0.00     0.051 A 
ATOM     15  C   UNL     1      -1.044   3.824  -5.757  1.00  0.00     0.157 A 
ATOM     16  C   UNL     1       0.809   5.175  -6.549  1.00  0.00     0.062 A 
ATOM     17  C   UNL     1      -0.209   4.248  -6.804  1.00  0.00     0.158 A 
BRANCH  15  18
ATOM     18  O   UNL     1      -2.060   2.901  -6.003  1.00  0.00    -0.504 OA
ATOM     19  H   UNL     1      -3.032   3.182  -6.048  1.00  0.00     0.293 HD
ENDBRANCH  15  18
BRANCH  17  20
ATOM     20  O   UNL     1      -0.375   3.764  -8.100  1.00  0.00    -0.504 OA
ATOM     21  H   UNL     1       0.409   3.624  -8.727  1.00  0.00     0.293 HD
ENDBRANCH  17  20
ENDBRANCH   1  12
BRANCH   2  22
ATOM     22  O   UNL     1       3.390   5.109  -3.693  1.00  0.00    -0.502 OA
ATOM     23  H   UNL     1       4.114   4.477  -4.017  1.00  0.00     0.293 HD
ENDBRANCH   2  22
BRANCH   6  24
ATOM     24  O   UNL     1       5.970   9.768  -3.561  1.00  0.00    -0.507 OA
ATOM     25  H   UNL     1       5.913   9.969  -2.575  1.00  0.00     0.293 HD
ENDBRANCH   6  24
BRANCH   8  26
ATOM     26  O   UNL     1       3.363  12.288  -6.685  1.00  0.00    -0.508 OA
ATOM     27  H   UNL     1       3.875  12.498  -7.534  1.00  0.00     0.293 HD
ENDBRANCH   8  26
TORSDOF 6
ENDMDL
MODEL 6
REMARK VINA RESULT:    -4.364      2.310      6.971
REMARK INTER + INTRA:          -5.303
REMARK INTER:                  -5.136
REMARK INTRA:                  -0.168
REMARK UNBOUND:                -0.046
REMARK SMILES O=c1c(O)c(-c2ccc(O)c(O)c2)oc2cc(O)cc(O)c12
REMARK SMILES IDX 5 1 3 2 2 3 1 4 22 5 20 6 19 7 17 8 16 9 15 10 14 11 6 12
REMARK SMILES IDX 7 13 8 14 9 15 13 16 11 17 10 18 12 20 4 22 21 24 18 26
REMARK H PARENT 10 19 12 21 4 23 21 25 18 27
REMARK Flexibility Score: inf
ROOT
ATOM      1  C   UNL     1       3.360   8.587  -6.006  1.00  0.00     0.180 A 
ATOM      2  C   UNL     1       2.624   8.429  -4.818  1.00  0.00     0.208 A 
ATOM      3  C   UNL     1       1.714   7.365  -4.718  1.00  0.00     0.238 A 
ATOM      4  O   UNL     1       1.019   7.261  -3.673  1.00  0.00    -0.285 OA
ATOM      5  C   UNL     1       1.563   6.463  -5.798  1.00  0.00     0.111 A 
ATOM      6  C   UNL     1       0.700   5.326  -5.789  1.00  0.00     0.134 A 
ATOM      7  C   UNL     1       0.532   4.578  -6.961  1.00  0.00     0.093 A 
ATOM      8  C   UNL     1       1.245   4.885  -8.120  1.00  0.00     0.123 A 
ATOM      9  C   UNL     1       2.137   5.958  -8.122  1.00  0.00     0.094 A 
ATOM     10  C   UNL     1       2.298   6.746  -6.979  1.00  0.00     0.146 A 
ATOM     11  O   UNL     1       3.147   7.764  -7.025  1.00  0.00    -0.452 OA
ENDROOT
BRANCH   1  12
ATOM     12  C   UNL     1       4.356   9.670  -6.177  1.00  0.00     0.025 A 
ATOM     13  C   UNL     1       5.722   9.388  -6.344  1.00  0.00     0.016 A 
ATOM     14  C   UNL     1       6.641  10.424  -6.528  1.00  0.00     0.051 A 
ATOM     15  C   UNL     1       6.206  11.757  -6.561  1.00  0.00     0.157 A 
ATOM     16  C   UNL     1       3.923  11.005  -6.232  1.00  0.00     0.062 A 
ATOM     17  C   UNL     1       4.840  12.047  -6.415  1.00  0.00     0.158 A 
BRANCH  15  18
ATOM     18  O   UNL     1       7.125  12.789  -6.743  1.00  0.00    -0.504 OA
ATOM     19  H   UNL     1       7.528  12.987  -7.651  1.00  0.00     0.293 HD
ENDBRANCH  15  18
BRANCH  17  20
ATOM     20  O   UNL     1       4.374  13.361  -6.451  1.00  0.00    -0.504 OA
ATOM     21  H   UNL     1       4.522  13.962  -7.252  1.00  0.00     0.293 HD
ENDBRANCH  17  20
ENDBRANCH   1  12
BRANCH   2  22
ATOM     22  O   UNL     1       2.773   9.345  -3.772  1.00  0.00    -0.502 OA
ATOM     23  H   UNL     1       3.177   9.089  -2.879  1.00  0.00     0.293 HD
ENDBRANCH   2  22
BRANCH   6  24
ATOM     24  O   UNL     1       0.011   4.877  -4.659  1.00  0.00    -0.507 OA
ATOM     25  H   UNL     1      -0.842   4.340  -4.681  1.00  0.00     0.293 HD
ENDBRANCH   6  24
BRANCH   8  26
ATOM     26  O   UNL     1       1.065   4.109  -9.263  1.00  0.00    -0.508 OA
ATOM     27  H   UNL     1       1.144   4.507 -10.192  1.00  0.00     0.293 HD
ENDBRANCH   8  26
TORSDOF 6
ENDMDL
MODEL 7
REMARK VINA RESULT:    -4.361      1.816      2.398
REMARK INTER + INTRA:          -5.299
REMARK INTER:                  -5.247
REMARK INTRA:                  -0.053
REMARK UNBOUND:                -0.046
REMARK SMILES O=c1c(O)c(-c2ccc(O)c(O)c2)oc2cc(O)cc(O)c12
REMARK SMILES IDX 5 1 3 2 2 3 1 4 22 5 20 6 19 7 17 8 16 9 15 10 14 11 6 12
REMARK SMILES IDX 7 13 8 14 9 15 13 16 11 17 10 18 12 20 4 22 21 24 18 26
REMARK H PARENT 10 19 12 21 4 23 21 25 18 27
REMARK Flexibility Score: inf
ROOT
ATOM      1  C   UNL     1       2.903   8.247  -6.099  1.00  0.00     0.180 A 
ATOM      2  C   UNL     1       4.135   8.051  -6.748  1.00  0.00     0.208 A 
ATOM      3  C   UNL     1       4.977   9.155  -6.957  1.00  0.00     0.238 A 
ATOM      4  O   UNL     1       6.054   8.983  -7.587  1.00  0.00    -0.285 OA
ATOM      5  C   UNL     1       4.586  10.435  -6.500  1.00  0.00     0.111 A 
ATOM      6  C   UNL     1       5.379  11.617  -6.622  1.00  0.00     0.134 A 
ATOM      7  C   UNL     1       4.837  12.854  -6.252  1.00  0.00     0.093 A 
ATOM      8  C   UNL     1       3.557  12.944  -5.704  1.00  0.00     0.123 A 
ATOM      9  C   UNL     1       2.797  11.789  -5.525  1.00  0.00     0.094 A 
ATOM     10  C   UNL     1       3.296  10.545  -5.919  1.00  0.00     0.146 A 
ATOM     11  O   UNL     1       2.536   9.471  -5.741  1.00  0.00    -0.452 OA
ENDROOT
BRANCH   1  12
ATOM     12  C   UNL     1       1.973   7.128  -5.821  1.00  0.00     0.025 A 
ATOM     13  C   UNL     1       1.509   6.289  -6.848  1.00  0.00     0.016 A 
ATOM     14  C   UNL     1       0.651   5.224  -6.558  1.00  0.00     0.051 A 
ATOM     15  C   UNL     1       0.256   4.975  -5.237  1.00  0.00     0.157 A 
ATOM     16  C   UNL     1       1.591   6.861  -4.496  1.00  0.00     0.062 A 
ATOM     17  C   UNL     1       0.731   5.797  -4.201  1.00  0.00     0.158 A 
BRANCH  15  18
ATOM     18  O   UNL     1      -0.602   3.914  -4.950  1.00  0.00    -0.504 OA
ATOM     19  H   UNL     1      -1.570   4.069  -4.694  1.00  0.00     0.293 HD
ENDBRANCH  15  18
BRANCH  17  20
ATOM     20  O   UNL     1       0.362   5.571  -2.875  1.00  0.00    -0.504 OA
ATOM     21  H   UNL     1      -0.552   5.213  -2.624  1.00  0.00     0.293 HD
ENDBRANCH  17  20
ENDBRANCH   1  12
BRANCH   2  22
ATOM     22  O   UNL     1       4.491   6.781  -7.212  1.00  0.00    -0.502 OA
ATOM     23  H   UNL     1       5.340   6.613  -7.739  1.00  0.00     0.293 HD
ENDBRANCH   2  22
BRANCH   6  24
ATOM     24  O   UNL     1       6.702  11.625  -7.071  1.00  0.00    -0.507 OA
ATOM     25  H   UNL     1       6.997  11.932  -7.986  1.00  0.00     0.293 HD
ENDBRANCH   6  24
BRANCH   8  26
ATOM     26  O   UNL     1       3.056  14.190  -5.332  1.00  0.00    -0.508 OA
ATOM     27  H   UNL     1       3.614  15.032  -5.413  1.00  0.00     0.293 HD
ENDBRANCH   8  26
TORSDOF 6
ENDMDL
MODEL 8
REMARK VINA RESULT:    -4.258      2.643      6.326
REMARK INTER + INTRA:          -5.176
REMARK INTER:                  -4.859
REMARK INTRA:                  -0.317
REMARK UNBOUND:                -0.046
REMARK SMILES O=c1c(O)c(-c2ccc(O)c(O)c2)oc2cc(O)cc(O)c12
REMARK SMILES IDX 5 1 3 2 2 3 1 4 22 5 20 6 19 7 17 8 16 9 15 10 14 11 6 12
REMARK SMILES IDX 7 13 8 14 9 15 13 16 11 17 10 18 12 20 4 22 21 24 18 26
REMARK H PARENT 10 19 12 21 4 23 21 25 18 27
REMARK Flexibility Score: inf
ROOT
ATOM      1  C   UNL     1       1.400   9.962  -4.687  1.00  0.00     0.180 A 
ATOM      2  C   UNL     1       2.706  10.075  -4.179  1.00  0.00     0.208 A 
ATOM      3  C   UNL     1       3.671   9.133  -4.567  1.00  0.00     0.238 A 
ATOM      4  O   UNL     1       4.824   9.207  -4.066  1.00  0.00    -0.285 OA
ATOM      5  C   UNL     1       3.324   8.100  -5.470  1.00  0.00     0.111 A 
ATOM      6  C   UNL     1       4.233   7.115  -5.963  1.00  0.00     0.134 A 
ATOM      7  C   UNL     1       3.750   6.062  -6.751  1.00  0.00     0.093 A 
ATOM      8  C   UNL     1       2.406   5.996  -7.117  1.00  0.00     0.123 A 
ATOM      9  C   UNL     1       1.521   6.986  -6.691  1.00  0.00     0.094 A 
ATOM     10  C   UNL     1       1.965   8.028  -5.873  1.00  0.00     0.146 A 
ATOM     11  O   UNL     1       1.089   8.944  -5.481  1.00  0.00    -0.452 OA
ENDROOT
BRANCH   1  12
ATOM     12  C   UNL     1       0.335  10.932  -4.343  1.00  0.00     0.025 A 
ATOM     13  C   UNL     1      -0.544  10.705  -3.270  1.00  0.00     0.016 A 
ATOM     14  C   UNL     1      -1.526  11.646  -2.950  1.00  0.00     0.051 A 
ATOM     15  C   UNL     1      -1.636  12.832  -3.688  1.00  0.00     0.157 A 
ATOM     16  C   UNL     1       0.233  12.132  -5.067  1.00  0.00     0.062 A 
ATOM     17  C   UNL     1      -0.750  13.077  -4.750  1.00  0.00     0.158 A 
BRANCH  15  18
ATOM     18  O   UNL     1      -2.618  13.769  -3.367  1.00  0.00    -0.504 OA
ATOM     19  H   UNL     1      -2.805  14.034  -2.408  1.00  0.00     0.293 HD
ENDBRANCH  15  18
BRANCH  17  20
ATOM     20  O   UNL     1      -0.828  14.250  -5.499  1.00  0.00    -0.504 OA
ATOM     21  H   UNL     1      -0.033  14.617  -6.008  1.00  0.00     0.293 HD
ENDBRANCH  17  20
ENDBRANCH   1  12
BRANCH   2  22
ATOM     22  O   UNL     1       3.021  11.090  -3.270  1.00  0.00    -0.502 OA
ATOM     23  H   UNL     1       2.377  11.840  -3.049  1.00  0.00     0.293 HD
ENDBRANCH   2  22
BRANCH   6  24
ATOM     24  O   UNL     1       5.611   7.140  -5.732  1.00  0.00    -0.507 OA
ATOM     25  H   UNL     1       6.313   6.916  -6.421  1.00  0.00     0.293 HD
ENDBRANCH   6  24
BRANCH   8  26
ATOM     26  O   UNL     1       1.963   4.942  -7.915  1.00  0.00    -0.508 OA
ATOM     27  H   UNL     1       0.978   4.723  -8.005  1.00  0.00     0.293 HD
ENDBRANCH   8  26
TORSDOF 6
ENDMDL
