MODEL 1
REMARK VINA RESULT:    -4.675      0.000      0.000
REMARK INTER + INTRA:          -7.886
REMARK INTER:                  -7.407
REMARK INTRA:                  -0.479
REMARK UNBOUND:                -0.479
REMARK SMILES CCCCCCCCCCCC(=O)[O-]
REMARK SMILES IDX 7 1 8 2 9 3 10 4 11 5 12 6 13 7 14 8 6 9 5 10 4 11 3 12 2 13
REMARK SMILES IDX 1 14
REMARK H PARENT
REMARK Flexibility Score: inf
ROOT
ATOM      1  C   UNL     1     -39.973 -35.560  36.712  1.00  0.00     0.000 C 
ENDROOT
BRANCH   1   2
ATOM      2  C   UNL     1     -41.320 -35.682  35.977  1.00  0.00     0.000 C 
BRANCH   2   3
ATOM      3  C   UNL     1     -42.520 -35.364  36.883  1.00  0.00     0.000 C 
BRANCH   3   4
ATOM      4  C   UNL     1     -43.866 -35.528  36.159  1.00  0.00     0.006 C 
BRANCH   4   5
ATOM      5  C   UNL     1     -45.033 -35.711  37.139  1.00  0.00     0.053 C 
BRANCH   5   6
ATOM      6  C   UNL     1     -45.625 -37.085  37.051  1.00  0.00     0.041 C 
ATOM      7  O   UNL     1     -45.009 -38.002  36.448  1.00  0.00    -0.550 OA
ATOM      8  O   UNL     1     -46.871 -37.343  37.607  1.00  0.00    -0.550 OA
ENDBRANCH   5   6
ENDBRANCH   4   5
ENDBRANCH   3   4
ENDBRANCH   2   3
ENDBRANCH   1   2
BRANCH   1   9
ATOM      9  C   UNL     1     -40.133 -35.137  38.181  1.00  0.00     0.000 C 
BRANCH   9  10
ATOM     10  C   UNL     1     -39.167 -35.882  39.118  1.00  0.00    -0.000 C 
BRANCH  10  11
ATOM     11  C   UNL     1     -39.151 -35.295  40.539  1.00  0.00    -0.000 C 
BRANCH  11  12
ATOM     12  C   UNL     1     -38.562 -36.264  41.575  1.00  0.00    -0.000 C 
BRANCH  12  13
ATOM     13  C   UNL     1     -39.025 -37.701  41.307  1.00  0.00    -0.003 C 
ATOM     14  C   UNL     1     -37.836 -38.652  41.196  1.00  0.00     0.004 C 
ENDBRANCH  12  13
ENDBRANCH  11  12
ENDBRANCH  10  11
ENDBRANCH   9  10
ENDBRANCH   1   9
TORSDOF 10
ENDMDL
MODEL 2
REMARK VINA RESULT:    -4.432      3.524      6.235
REMARK INTER + INTRA:          -7.502
REMARK INTER:                  -6.127
REMARK INTRA:                  -1.374
REMARK UNBOUND:                -0.479
REMARK SMILES CCCCCCCCCCCC(=O)[O-]
REMARK SMILES IDX 7 1 8 2 9 3 10 4 11 5 12 6 13 7 14 8 6 9 5 10 4 11 3 12 2 13
REMARK SMILES IDX 1 14
REMARK H PARENT
REMARK Flexibility Score: inf
ROOT
ATOM      1  C   UNL     1     -44.401 -36.464  36.637  1.00  0.00     0.000 C 
ENDROOT
BRANCH   1   2
ATOM      2  C   UNL     1     -44.842 -34.999  36.812  1.00  0.00     0.000 C 
BRANCH   2   3
ATOM      3  C   UNL     1     -43.949 -34.226  37.796  1.00  0.00     0.000 C 
BRANCH   3   4
ATOM      4  C   UNL     1     -42.794 -35.081  38.343  1.00  0.00     0.006 C 
BRANCH   4   5
ATOM      5  C   UNL     1     -41.423 -34.456  38.053  1.00  0.00     0.053 C 
BRANCH   5   6
ATOM      6  C   UNL     1     -40.625 -35.283  37.091  1.00  0.00     0.041 C 
ATOM      7  O   UNL     1     -41.097 -35.570  35.959  1.00  0.00    -0.550 OA
ATOM      8  O   UNL     1     -39.373 -35.762  37.456  1.00  0.00    -0.550 OA
ENDBRANCH   5   6
ENDBRANCH   4   5
ENDBRANCH   3   4
ENDBRANCH   2   3
ENDBRANCH   1   2
BRANCH   1   9
ATOM      9  C   UNL     1     -45.571 -37.454  36.742  1.00  0.00     0.000 C 
BRANCH   9  10
ATOM     10  C   UNL     1     -46.022 -37.681  38.195  1.00  0.00    -0.000 C 
BRANCH  10  11
ATOM     11  C   UNL     1     -47.412 -37.090  38.482  1.00  0.00    -0.000 C 
BRANCH  11  12
ATOM     12  C   UNL     1     -47.373 -35.953  39.514  1.00  0.00    -0.000 C 
BRANCH  12  13
ATOM     13  C   UNL     1     -46.228 -36.159  40.513  1.00  0.00    -0.003 C 
ATOM     14  C   UNL     1     -45.629 -34.825  40.948  1.00  0.00     0.004 C 
ENDBRANCH  12  13
ENDBRANCH  11  12
ENDBRANCH  10  11
ENDBRANCH   9  10
ENDBRANCH   1   9
TORSDOF 10
ENDMDL
MODEL 3
REMARK VINA RESULT:    -4.414      3.363      6.698
REMARK INTER + INTRA:          -7.474
REMARK INTER:                  -6.930
REMARK INTRA:                  -0.543
REMARK UNBOUND:                -0.479
REMARK SMILES CCCCCCCCCCCC(=O)[O-]
REMARK SMILES IDX 7 1 8 2 9 3 10 4 11 5 12 6 13 7 14 8 6 9 5 10 4 11 3 12 2 13
REMARK SMILES IDX 1 14
REMARK H PARENT
REMARK Flexibility Score: inf
ROOT
ATOM      1  C   UNL     1     -39.931 -35.408  37.119  1.00  0.00     0.000 C 
ENDROOT
BRANCH   1   2
ATOM      2  C   UNL     1     -40.643 -34.721  38.298  1.00  0.00     0.000 C 
BRANCH   2   3
ATOM      3  C   UNL     1     -39.901 -34.911  39.630  1.00  0.00     0.000 C 
BRANCH   3   4
ATOM      4  C   UNL     1     -38.928 -36.102  39.599  1.00  0.00     0.006 C 
BRANCH   4   5
ATOM      5  C   UNL     1     -38.172 -36.268  40.924  1.00  0.00     0.053 C 
BRANCH   5   6
ATOM      6  C   UNL     1     -38.035 -37.709  41.312  1.00  0.00     0.041 C 
ATOM      7  O   UNL     1     -36.935 -38.303  41.161  1.00  0.00    -0.550 OA
ATOM      8  O   UNL     1     -39.129 -38.403  41.811  1.00  0.00    -0.550 OA
ENDBRANCH   5   6
ENDBRANCH   4   5
ENDBRANCH   3   4
ENDBRANCH   2   3
ENDBRANCH   1   2
BRANCH   1   9
ATOM      9  C   UNL     1     -40.911 -36.053  36.126  1.00  0.00     0.000 C 
BRANCH   9  10
ATOM     10  C   UNL     1     -42.276 -35.344  36.101  1.00  0.00    -0.000 C 
BRANCH  10  11
ATOM     11  C   UNL     1     -43.447 -36.308  36.347  1.00  0.00    -0.000 C 
BRANCH  11  12
ATOM     12  C   UNL     1     -44.745 -35.581  36.732  1.00  0.00    -0.000 C 
BRANCH  12  13
ATOM     13  C   UNL     1     -45.852 -36.583  37.082  1.00  0.00    -0.003 C 
ATOM     14  C   UNL     1     -45.389 -38.019  36.852  1.00  0.00     0.004 C 
ENDBRANCH  12  13
ENDBRANCH  11  12
ENDBRANCH  10  11
ENDBRANCH   9  10
ENDBRANCH   1   9
TORSDOF 10
ENDMDL
MODEL 4
REMARK VINA RESULT:    -4.372      2.411      3.329
REMARK INTER + INTRA:          -7.407
REMARK INTER:                  -6.483
REMARK INTRA:                  -0.924
REMARK UNBOUND:                -0.479
REMARK SMILES CCCCCCCCCCCC(=O)[O-]
REMARK SMILES IDX 7 1 8 2 9 3 10 4 11 5 12 6 13 7 14 8 6 9 5 10 4 11 3 12 2 13
REMARK SMILES IDX 1 14
REMARK H PARENT
REMARK Flexibility Score: inf
ROOT
ATOM      1  C   UNL     1     -41.230 -35.765  36.110  1.00  0.00     0.000 C 
ENDROOT
BRANCH   1   2
ATOM      2  C   UNL     1     -42.518 -35.608  36.938  1.00  0.00     0.000 C 
BRANCH   2   3
ATOM      3  C   UNL     1     -43.772 -35.464  36.061  1.00  0.00     0.000 C 
BRANCH   3   4
ATOM      4  C   UNL     1     -45.070 -35.434  36.886  1.00  0.00     0.006 C 
BRANCH   4   5
ATOM      5  C   UNL     1     -45.691 -36.829  37.038  1.00  0.00     0.053 C 
BRANCH   5   6
ATOM      6  C   UNL     1     -46.449 -36.965  38.324  1.00  0.00     0.041 C 
ATOM      7  O   UNL     1     -46.426 -38.051  38.961  1.00  0.00    -0.550 OA
ATOM      8  O   UNL     1     -47.204 -35.903  38.803  1.00  0.00    -0.550 OA
ENDBRANCH   5   6
ENDBRANCH   4   5
ENDBRANCH   3   4
ENDBRANCH   2   3
ENDBRANCH   1   2
BRANCH   1   9
ATOM      9  C   UNL     1     -39.961 -35.467  36.923  1.00  0.00     0.000 C 
BRANCH   9  10
ATOM     10  C   UNL     1     -40.274 -34.941  38.334  1.00  0.00    -0.000 C 
BRANCH  10  11
ATOM     11  C   UNL     1     -40.107 -33.417  38.447  1.00  0.00    -0.000 C 
BRANCH  11  12
ATOM     12  C   UNL     1     -41.403 -32.706  38.866  1.00  0.00    -0.000 C 
BRANCH  12  13
ATOM     13  C   UNL     1     -42.030 -33.386  40.089  1.00  0.00    -0.003 C 
ATOM     14  C   UNL     1     -43.538 -33.549  39.917  1.00  0.00     0.004 C 
ENDBRANCH  12  13
ENDBRANCH  11  12
ENDBRANCH  10  11
ENDBRANCH   9  10
ENDBRANCH   1   9
TORSDOF 10
ENDMDL
MODEL 5
REMARK VINA RESULT:    -4.365      1.459      1.686
REMARK INTER + INTRA:          -7.395
REMARK INTER:                  -6.839
REMARK INTRA:                  -0.556
REMARK UNBOUND:                -0.479
REMARK SMILES CCCCCCCCCCCC(=O)[O-]
REMARK SMILES IDX 7 1 8 2 9 3 10 4 11 5 12 6 13 7 14 8 6 9 5 10 4 11 3 12 2 13
REMARK SMILES IDX 1 14
REMARK H PARENT
REMARK Flexibility Score: inf
ROOT
ATOM      1  C   UNL     1     -40.159 -35.547  36.869  1.00  0.00     0.000 C 
ENDROOT
BRANCH   1   2
ATOM      2  C   UNL     1     -41.485 -35.801  36.129  1.00  0.00     0.000 C 
BRANCH   2   3
ATOM      3  C   UNL     1     -42.715 -35.448  36.980  1.00  0.00     0.000 C 
BRANCH   3   4
ATOM      4  C   UNL     1     -44.013 -35.417  36.155  1.00  0.00     0.006 C 
BRANCH   4   5
ATOM      5  C   UNL     1     -45.210 -35.969  36.941  1.00  0.00     0.053 C 
BRANCH   5   6
ATOM      6  C   UNL     1     -45.963 -34.883  37.647  1.00  0.00     0.041 C 
ATOM      7  O   UNL     1     -46.056 -33.738  37.131  1.00  0.00    -0.550 OA
ATOM      8  O   UNL     1     -46.535 -35.126  38.889  1.00  0.00    -0.550 OA
ENDBRANCH   5   6
ENDBRANCH   4   5
ENDBRANCH   3   4
ENDBRANCH   2   3
ENDBRANCH   1   2
BRANCH   1   9
ATOM      9  C   UNL     1     -40.173 -34.242  37.681  1.00  0.00     0.000 C 
BRANCH   9  10
ATOM     10  C   UNL     1     -39.586 -34.420  39.092  1.00  0.00    -0.000 C 
BRANCH  10  11
ATOM     11  C   UNL     1     -39.704 -35.864  39.603  1.00  0.00    -0.000 C 
BRANCH  11  12
ATOM     12  C   UNL     1     -38.791 -36.146  40.806  1.00  0.00    -0.000 C 
BRANCH  12  13
ATOM     13  C   UNL     1     -37.947 -37.404  40.571  1.00  0.00    -0.003 C 
ATOM     14  C   UNL     1     -38.288 -38.495  41.583  1.00  0.00     0.004 C 
ENDBRANCH  12  13
ENDBRANCH  11  12
ENDBRANCH  10  11
ENDBRANCH   9  10
ENDBRANCH   1   9
TORSDOF 10
ENDMDL
MODEL 6
REMARK VINA RESULT:    -4.312      3.378      5.681
REMARK INTER + INTRA:          -7.311
REMARK INTER:                  -6.432
REMARK INTRA:                  -0.879
REMARK UNBOUND:                -0.479
REMARK SMILES CCCCCCCCCCCC(=O)[O-]
REMARK SMILES IDX 7 1 8 2 9 3 10 4 11 5 12 6 13 7 14 8 6 9 5 10 4 11 3 12 2 13
REMARK SMILES IDX 1 14
REMARK H PARENT
REMARK Flexibility Score: inf
ROOT
ATOM      1  C   UNL     1     -40.294 -34.978  37.110  1.00  0.00     0.000 C 
ENDROOT
BRANCH   1   2
ATOM      2  C   UNL     1     -40.648 -34.308  38.450  1.00  0.00     0.000 C 
BRANCH   2   3
ATOM      3  C   UNL     1     -40.354 -32.800  38.454  1.00  0.00     0.000 C 
BRANCH   3   4
ATOM      4  C   UNL     1     -41.608 -31.954  38.731  1.00  0.00     0.006 C 
BRANCH   4   5
ATOM      5  C   UNL     1     -42.490 -32.568  39.827  1.00  0.00     0.053 C 
BRANCH   5   6
ATOM      6  C   UNL     1     -43.949 -32.386  39.537  1.00  0.00     0.041 C 
ATOM      7  O   UNL     1     -44.790 -32.421  40.474  1.00  0.00    -0.550 OA
ATOM      8  O   UNL     1     -44.381 -32.207  38.230  1.00  0.00    -0.550 OA
ENDBRANCH   5   6
ENDBRANCH   4   5
ENDBRANCH   3   4
ENDBRANCH   2   3
ENDBRANCH   1   2
BRANCH   1   9
ATOM      9  C   UNL     1     -41.521 -35.576  36.402  1.00  0.00     0.000 C 
BRANCH   9  10
ATOM     10  C   UNL     1     -42.834 -35.278  37.145  1.00  0.00    -0.000 C 
BRANCH  10  11
ATOM     11  C   UNL     1     -44.075 -35.529  36.274  1.00  0.00    -0.000 C 
BRANCH  11  12
ATOM     12  C   UNL     1     -45.376 -35.565  37.091  1.00  0.00    -0.000 C 
BRANCH  12  13
ATOM     13  C   UNL     1     -45.820 -37.010  37.351  1.00  0.00    -0.003 C 
ATOM     14  C   UNL     1     -45.047 -37.991  36.475  1.00  0.00     0.004 C 
ENDBRANCH  12  13
ENDBRANCH  11  12
ENDBRANCH  10  11
ENDBRANCH   9  10
ENDBRANCH   1   9
TORSDOF 10
ENDMDL
MODEL 7
REMARK VINA RESULT:    -4.270      2.444      3.754
REMARK INTER + INTRA:          -7.245
REMARK INTER:                  -5.903
REMARK INTRA:                  -1.342
REMARK UNBOUND:                -0.479
REMARK SMILES CCCCCCCCCCCC(=O)[O-]
REMARK SMILES IDX 7 1 8 2 9 3 10 4 11 5 12 6 13 7 14 8 6 9 5 10 4 11 3 12 2 13
REMARK SMILES IDX 1 14
REMARK H PARENT
REMARK Flexibility Score: inf
ROOT
ATOM      1  C   UNL     1     -43.452 -31.896  38.571  1.00  0.00     0.000 C 
ENDROOT
BRANCH   1   2
ATOM      2  C   UNL     1     -44.503 -32.959  38.936  1.00  0.00     0.000 C 
BRANCH   2   3
ATOM      3  C   UNL     1     -45.330 -33.416  37.723  1.00  0.00     0.000 C 
BRANCH   3   4
ATOM      4  C   UNL     1     -44.583 -34.441  36.852  1.00  0.00     0.006 C 
BRANCH   4   5
ATOM      5  C   UNL     1     -44.331 -35.759  37.598  1.00  0.00     0.053 C 
BRANCH   5   6
ATOM      6  C   UNL     1     -45.596 -36.541  37.791  1.00  0.00     0.041 C 
ATOM      7  O   UNL     1     -46.223 -36.986  36.794  1.00  0.00    -0.550 OA
ATOM      8  O   UNL     1     -46.096 -36.751  39.069  1.00  0.00    -0.550 OA
ENDBRANCH   5   6
ENDBRANCH   4   5
ENDBRANCH   3   4
ENDBRANCH   2   3
ENDBRANCH   1   2
BRANCH   1   9
ATOM      9  C   UNL     1     -42.015 -32.356  38.863  1.00  0.00     0.000 C 
BRANCH   9  10
ATOM     10  C   UNL     1     -41.967 -33.629  39.724  1.00  0.00    -0.000 C 
BRANCH  10  11
ATOM     11  C   UNL     1     -40.968 -34.667  39.188  1.00  0.00    -0.000 C 
BRANCH  11  12
ATOM     12  C   UNL     1     -40.351 -34.258  37.842  1.00  0.00    -0.000 C 
BRANCH  12  13
ATOM     13  C   UNL     1     -39.925 -35.492  37.037  1.00  0.00    -0.003 C 
ATOM     14  C   UNL     1     -40.982 -35.870  36.004  1.00  0.00     0.004 C 
ENDBRANCH  12  13
ENDBRANCH  11  12
ENDBRANCH  10  11
ENDBRANCH   9  10
ENDBRANCH   1   9
TORSDOF 10
ENDMDL
MODEL 8
REMARK VINA RESULT:    -4.211      9.167     10.627
REMARK INTER + INTRA:          -7.151
REMARK INTER:                  -5.465
REMARK INTRA:                  -1.686
REMARK UNBOUND:                -0.479
REMARK SMILES CCCCCCCCCCCC(=O)[O-]
REMARK SMILES IDX 7 1 8 2 9 3 10 4 11 5 12 6 13 7 14 8 6 9 5 10 4 11 3 12 2 13
REMARK SMILES IDX 1 14
REMARK H PARENT
REMARK Flexibility Score: inf
ROOT
ATOM      1  C   UNL     1     -39.216 -24.955  41.008  1.00  0.00     0.000 C 
ENDROOT
BRANCH   1   2
ATOM      2  C   UNL     1     -39.175 -26.338  40.333  1.00  0.00     0.000 C 
BRANCH   2   3
ATOM      3  C   UNL     1     -39.742 -27.451  41.229  1.00  0.00     0.000 C 
BRANCH   3   4
ATOM      4  C   UNL     1     -40.590 -28.466  40.443  1.00  0.00     0.006 C 
BRANCH   4   5
ATOM      5  C   UNL     1     -41.919 -28.776  41.144  1.00  0.00     0.053 C 
BRANCH   5   6
ATOM      6  C   UNL     1     -42.731 -29.780  40.383  1.00  0.00     0.041 C 
ATOM      7  O   UNL     1     -43.863 -29.467  39.930  1.00  0.00    -0.550 OA
ATOM      8  O   UNL     1     -42.249 -31.070  40.200  1.00  0.00    -0.550 OA
ENDBRANCH   5   6
ENDBRANCH   4   5
ENDBRANCH   3   4
ENDBRANCH   2   3
ENDBRANCH   1   2
BRANCH   1   9
ATOM      9  C   UNL     1     -40.392 -24.806  41.986  1.00  0.00     0.000 C 
BRANCH   9  10
ATOM     10  C   UNL     1     -41.662 -24.269  41.304  1.00  0.00    -0.000 C 
BRANCH  10  11
ATOM     11  C   UNL     1     -42.845 -25.245  41.406  1.00  0.00    -0.000 C 
BRANCH  11  12
ATOM     12  C   UNL     1     -43.458 -25.580  40.038  1.00  0.00    -0.000 C 
BRANCH  12  13
ATOM     13  C   UNL     1     -42.438 -25.368  38.913  1.00  0.00    -0.003 C 
ATOM     14  C   UNL     1     -42.411 -26.560  37.960  1.00  0.00     0.004 C 
ENDBRANCH  12  13
ENDBRANCH  11  12
ENDBRANCH  10  11
ENDBRANCH   9  10
ENDBRANCH   1   9
TORSDOF 10
ENDMDL
MODEL 9
REMARK VINA RESULT:    -4.173      3.154      4.890
REMARK INTER + INTRA:          -7.092
REMARK INTER:                  -6.523
REMARK INTRA:                  -0.569
REMARK UNBOUND:                -0.479
REMARK SMILES CCCCCCCCCCCC(=O)[O-]
REMARK SMILES IDX 7 1 8 2 9 3 10 4 11 5 12 6 13 7 14 8 6 9 5 10 4 11 3 12 2 13
REMARK SMILES IDX 1 14
REMARK H PARENT
REMARK Flexibility Score: inf
ROOT
ATOM      1  C   UNL     1     -44.785 -36.145  36.846  1.00  0.00     0.000 C 
ENDROOT
BRANCH   1   2
ATOM      2  C   UNL     1     -45.642 -35.150  37.649  1.00  0.00     0.000 C 
BRANCH   2   3
ATOM      3  C   UNL     1     -45.647 -33.742  37.033  1.00  0.00     0.000 C 
BRANCH   3   4
ATOM      4  C   UNL     1     -46.730 -32.835  37.641  1.00  0.00     0.006 C 
BRANCH   4   5
ATOM      5  C   UNL     1     -46.909 -33.077  39.146  1.00  0.00     0.053 C 
BRANCH   5   6
ATOM      6  C   UNL     1     -46.178 -32.056  39.966  1.00  0.00     0.041 C 
ATOM      7  O   UNL     1     -46.148 -30.852  39.598  1.00  0.00    -0.550 OA
ATOM      8  O   UNL     1     -45.506 -32.441  41.118  1.00  0.00    -0.550 OA
ENDBRANCH   5   6
ENDBRANCH   4   5
ENDBRANCH   3   4
ENDBRANCH   2   3
ENDBRANCH   1   2
BRANCH   1   9
ATOM      9  C   UNL     1     -43.615 -35.468  36.115  1.00  0.00     0.000 C 
BRANCH   9  10
ATOM     10  C   UNL     1     -42.311 -35.502  36.931  1.00  0.00    -0.000 C 
BRANCH  10  11
ATOM     11  C   UNL     1     -41.087 -35.858  36.073  1.00  0.00    -0.000 C 
BRANCH  11  12
ATOM     12  C   UNL     1     -39.758 -35.621  36.808  1.00  0.00    -0.000 C 
BRANCH  12  13
ATOM     13  C   UNL     1     -40.003 -35.101  38.230  1.00  0.00    -0.003 C 
ATOM     14  C   UNL     1     -39.237 -35.927  39.259  1.00  0.00     0.004 C 
ENDBRANCH  12  13
ENDBRANCH  11  12
ENDBRANCH  10  11
ENDBRANCH   9  10
ENDBRANCH   1   9
TORSDOF 10
ENDMDL
