MODEL 1
REMARK VINA RESULT:    -5.538      0.000      0.000
REMARK INTER + INTRA:          -6.987
REMARK INTER:                  -6.671
REMARK INTRA:                  -0.316
REMARK UNBOUND:                -0.316
REMARK SMILES O=c1c(O)c(-c2ccc(O)c(O)c2)oc2cc(O)cc(O)c12
REMARK SMILES IDX 5 1 3 2 2 3 1 4 22 5 20 6 19 7 17 8 16 9 15 10 14 11 6 12
REMARK SMILES IDX 7 13 8 14 9 15 13 16 11 17 10 18 12 20 4 22 21 24 18 26
REMARK H PARENT 10 19 12 21 4 23 21 25 18 27
REMARK Flexibility Score: inf
ROOT
ATOM      1  C   UNL     1      35.957 184.952  32.144  1.00  0.00     0.180 A 
ATOM      2  C   UNL     1      35.507 186.000  32.970  1.00  0.00     0.208 A 
ATOM      3  C   UNL     1      36.407 187.016  33.329  1.00  0.00     0.238 A 
ATOM      4  O   UNL     1      36.019 187.953  34.078  1.00  0.00    -0.285 OA
ATOM      5  C   UNL     1      37.730 186.979  32.842  1.00  0.00     0.111 A 
ATOM      6  C   UNL     1      38.698 187.965  33.152  1.00  0.00     0.134 A 
ATOM      7  C   UNL     1      39.991 187.862  32.620  1.00  0.00     0.093 A 
ATOM      8  C   UNL     1      40.336 186.796  31.785  1.00  0.00     0.123 A 
ATOM      9  C   UNL     1      39.385 185.818  31.475  1.00  0.00     0.094 A 
ATOM     10  C   UNL     1      38.090 185.902  31.997  1.00  0.00     0.146 A 
ATOM     11  O   UNL     1      37.207 184.959  31.691  1.00  0.00    -0.452 OA
ENDROOT
BRANCH   1  12
ATOM     12  C   UNL     1      35.073 183.836  31.738  1.00  0.00     0.025 A 
ATOM     13  C   UNL     1      34.515 183.832  30.450  1.00  0.00     0.016 A 
ATOM     14  C   UNL     1      33.694 182.778  30.037  1.00  0.00     0.051 A 
ATOM     15  C   UNL     1      33.435 181.707  30.901  1.00  0.00     0.157 A 
ATOM     16  C   UNL     1      34.826 182.748  32.594  1.00  0.00     0.062 A 
ATOM     17  C   UNL     1      34.005 181.689  32.180  1.00  0.00     0.158 A 
BRANCH  15  18
ATOM     18  O   UNL     1      32.616 180.654  30.494  1.00  0.00    -0.504 OA
ATOM     19  H   UNL     1      31.746 180.820  30.002  1.00  0.00     0.293 HD
ENDBRANCH  15  18
BRANCH  17  20
ATOM     20  O   UNL     1      33.756 180.615  33.032  1.00  0.00    -0.504 OA
ATOM     21  H   UNL     1      32.819 180.394  33.348  1.00  0.00     0.293 HD
ENDBRANCH  17  20
ENDBRANCH   1  12
BRANCH   2  22
ATOM     22  O   UNL     1      34.178 186.040  33.399  1.00  0.00    -0.502 OA
ATOM     23  H   UNL     1      33.398 185.966  32.758  1.00  0.00     0.293 HD
ENDBRANCH   2  22
BRANCH   6  24
ATOM     24  O   UNL     1      38.385 189.041  33.983  1.00  0.00    -0.507 OA
ATOM     25  H   UNL     1      38.640 189.993  33.742  1.00  0.00     0.293 HD
ENDBRANCH   6  24
BRANCH   8  26
ATOM     26  O   UNL     1      41.628 186.719  31.269  1.00  0.00    -0.508 OA
ATOM     27  H   UNL     1      42.396 187.229  31.687  1.00  0.00     0.293 HD
ENDBRANCH   8  26
TORSDOF 6
ENDMDL
MODEL 2
REMARK VINA RESULT:    -5.499      1.675      6.663
REMARK INTER + INTRA:          -6.939
REMARK INTER:                  -6.680
REMARK INTRA:                  -0.259
REMARK UNBOUND:                -0.316
REMARK SMILES O=c1c(O)c(-c2ccc(O)c(O)c2)oc2cc(O)cc(O)c12
REMARK SMILES IDX 5 1 3 2 2 3 1 4 22 5 20 6 19 7 17 8 16 9 15 10 14 11 6 12
REMARK SMILES IDX 7 13 8 14 9 15 13 16 11 17 10 18 12 20 4 22 21 24 18 26
REMARK H PARENT 10 19 12 21 4 23 21 25 18 27
REMARK Flexibility Score: inf
ROOT
ATOM      1  C   UNL     1      36.299 184.813  32.461  1.00  0.00     0.180 A 
ATOM      2  C   UNL     1      35.613 185.393  33.545  1.00  0.00     0.208 A 
ATOM      3  C   UNL     1      34.318 184.943  33.848  1.00  0.00     0.238 A 
ATOM      4  O   UNL     1      33.690 185.463  34.810  1.00  0.00    -0.285 OA
ATOM      5  C   UNL     1      33.741 183.912  33.079  1.00  0.00     0.111 A 
ATOM      6  C   UNL     1      32.444 183.398  33.321  1.00  0.00     0.134 A 
ATOM      7  C   UNL     1      31.944 182.363  32.517  1.00  0.00     0.093 A 
ATOM      8  C   UNL     1      32.713 181.833  31.478  1.00  0.00     0.123 A 
ATOM      9  C   UNL     1      33.995 182.336  31.234  1.00  0.00     0.094 A 
ATOM     10  C   UNL     1      34.511 183.368  32.023  1.00  0.00     0.146 A 
ATOM     11  O   UNL     1      35.729 183.831  31.768  1.00  0.00    -0.452 OA
ENDROOT
BRANCH   1  12
ATOM     12  C   UNL     1      37.659 185.246  32.068  1.00  0.00     0.025 A 
ATOM     13  C   UNL     1      38.763 184.832  32.830  1.00  0.00     0.016 A 
ATOM     14  C   UNL     1      40.058 185.212  32.466  1.00  0.00     0.051 A 
ATOM     15  C   UNL     1      40.268 185.997  31.326  1.00  0.00     0.157 A 
ATOM     16  C   UNL     1      37.878 186.017  30.911  1.00  0.00     0.062 A 
ATOM     17  C   UNL     1      39.177 186.396  30.544  1.00  0.00     0.158 A 
BRANCH  15  18
ATOM     18  O   UNL     1      41.557 186.379  30.960  1.00  0.00    -0.504 OA
ATOM     19  H   UNL     1      42.039 185.941  30.183  1.00  0.00     0.293 HD
ENDBRANCH  15  18
BRANCH  17  20
ATOM     20  O   UNL     1      39.390 187.165  29.402  1.00  0.00    -0.504 OA
ATOM     21  H   UNL     1      39.991 186.845  28.651  1.00  0.00     0.293 HD
ENDBRANCH  17  20
ENDBRANCH   1  12
BRANCH   2  22
ATOM     22  O   UNL     1      36.226 186.380  34.323  1.00  0.00    -0.502 OA
ATOM     23  H   UNL     1      35.770 186.802  35.122  1.00  0.00     0.293 HD
ENDBRANCH   2  22
BRANCH   6  24
ATOM     24  O   UNL     1      31.651 183.906  34.351  1.00  0.00    -0.507 OA
ATOM     25  H   UNL     1      30.699 183.590  34.496  1.00  0.00     0.293 HD
ENDBRANCH   6  24
BRANCH   8  26
ATOM     26  O   UNL     1      32.193 180.805  30.695  1.00  0.00    -0.508 OA
ATOM     27  H   UNL     1      31.237 180.487  30.806  1.00  0.00     0.293 HD
ENDBRANCH   8  26
TORSDOF 6
ENDMDL
MODEL 3
REMARK VINA RESULT:    -5.420      4.920      7.815
REMARK INTER + INTRA:          -6.844
REMARK INTER:                  -6.550
REMARK INTRA:                  -0.294
REMARK UNBOUND:                -0.316
REMARK SMILES O=c1c(O)c(-c2ccc(O)c(O)c2)oc2cc(O)cc(O)c12
REMARK SMILES IDX 5 1 3 2 2 3 1 4 22 5 20 6 19 7 17 8 16 9 15 10 14 11 6 12
REMARK SMILES IDX 7 13 8 14 9 15 13 16 11 17 10 18 12 20 4 22 21 24 18 26
REMARK H PARENT 10 19 12 21 4 23 21 25 18 27
REMARK Flexibility Score: inf
ROOT
ATOM      1  C   UNL     1      41.421 184.107  33.315  1.00  0.00     0.180 A 
ATOM      2  C   UNL     1      42.688 184.380  33.866  1.00  0.00     0.208 A 
ATOM      3  C   UNL     1      43.489 183.308  34.291  1.00  0.00     0.238 A 
ATOM      4  O   UNL     1      44.620 183.541  34.797  1.00  0.00    -0.285 OA
ATOM      5  C   UNL     1      43.020 181.987  34.142  1.00  0.00     0.111 A 
ATOM      6  C   UNL     1      43.766 180.851  34.540  1.00  0.00     0.134 A 
ATOM      7  C   UNL     1      43.235 179.567  34.349  1.00  0.00     0.093 A 
ATOM      8  C   UNL     1      41.976 179.397  33.767  1.00  0.00     0.123 A 
ATOM      9  C   UNL     1      41.234 180.515  33.371  1.00  0.00     0.094 A 
ATOM     10  C   UNL     1      41.746 181.803  33.555  1.00  0.00     0.146 A 
ATOM     11  O   UNL     1      41.020 182.847  33.175  1.00  0.00    -0.452 OA
ENDROOT
BRANCH   1  12
ATOM     12  C   UNL     1      40.512 185.184  32.861  1.00  0.00     0.025 A 
ATOM     13  C   UNL     1      39.762 185.899  33.808  1.00  0.00     0.016 A 
ATOM     14  C   UNL     1      38.913 186.934  33.405  1.00  0.00     0.051 A 
ATOM     15  C   UNL     1      38.817 187.279  32.051  1.00  0.00     0.157 A 
ATOM     16  C   UNL     1      40.428 185.549  31.505  1.00  0.00     0.062 A 
ATOM     17  C   UNL     1      39.579 186.590  31.100  1.00  0.00     0.158 A 
BRANCH  15  18
ATOM     18  O   UNL     1      37.971 188.310  31.644  1.00  0.00    -0.504 OA
ATOM     19  H   UNL     1      38.336 189.177  31.266  1.00  0.00     0.293 HD
ENDBRANCH  15  18
BRANCH  17  20
ATOM     20  O   UNL     1      39.492 186.945  29.756  1.00  0.00    -0.504 OA
ATOM     21  H   UNL     1      38.747 186.599  29.162  1.00  0.00     0.293 HD
ENDBRANCH  17  20
ENDBRANCH   1  12
BRANCH   2  22
ATOM     22  O   UNL     1      43.150 185.696  33.958  1.00  0.00    -0.502 OA
ATOM     23  H   UNL     1      43.173 186.203  34.834  1.00  0.00     0.293 HD
ENDBRANCH   2  22
BRANCH   6  24
ATOM     24  O   UNL     1      45.026 180.988  35.123  1.00  0.00    -0.507 OA
ATOM     25  H   UNL     1      45.624 180.188  35.295  1.00  0.00     0.293 HD
ENDBRANCH   6  24
BRANCH   8  26
ATOM     26  O   UNL     1      41.472 178.110  33.587  1.00  0.00    -0.508 OA
ATOM     27  H   UNL     1      40.621 177.806  34.045  1.00  0.00     0.293 HD
ENDBRANCH   8  26
TORSDOF 6
ENDMDL
MODEL 4
REMARK VINA RESULT:    -5.338      2.810      3.842
REMARK INTER + INTRA:          -6.746
REMARK INTER:                  -6.431
REMARK INTRA:                  -0.315
REMARK UNBOUND:                -0.316
REMARK SMILES O=c1c(O)c(-c2ccc(O)c(O)c2)oc2cc(O)cc(O)c12
REMARK SMILES IDX 5 1 3 2 2 3 1 4 22 5 20 6 19 7 17 8 16 9 15 10 14 11 6 12
REMARK SMILES IDX 7 13 8 14 9 15 13 16 11 17 10 18 12 20 4 22 21 24 18 26
REMARK H PARENT 10 19 12 21 4 23 21 25 18 27
REMARK Flexibility Score: inf
ROOT
ATOM      1  C   UNL     1      38.259 184.844  33.167  1.00  0.00     0.180 A 
ATOM      2  C   UNL     1      38.676 186.173  33.374  1.00  0.00     0.208 A 
ATOM      3  C   UNL     1      40.039 186.431  33.595  1.00  0.00     0.238 A 
ATOM      4  O   UNL     1      40.422 187.615  33.793  1.00  0.00    -0.285 OA
ATOM      5  C   UNL     1      40.959 185.363  33.587  1.00  0.00     0.111 A 
ATOM      6  C   UNL     1      42.349 185.536  33.797  1.00  0.00     0.134 A 
ATOM      7  C   UNL     1      43.202 184.424  33.765  1.00  0.00     0.093 A 
ATOM      8  C   UNL     1      42.695 183.144  33.525  1.00  0.00     0.123 A 
ATOM      9  C   UNL     1      41.324 182.966  33.317  1.00  0.00     0.094 A 
ATOM     10  C   UNL     1      40.456 184.062  33.347  1.00  0.00     0.146 A 
ATOM     11  O   UNL     1      39.158 183.865  33.151  1.00  0.00    -0.452 OA
ENDROOT
BRANCH   1  12
ATOM     12  C   UNL     1      36.838 184.492  32.946  1.00  0.00     0.025 A 
ATOM     13  C   UNL     1      36.039 184.127  34.041  1.00  0.00     0.016 A 
ATOM     14  C   UNL     1      34.689 183.811  33.858  1.00  0.00     0.051 A 
ATOM     15  C   UNL     1      34.117 183.872  32.581  1.00  0.00     0.157 A 
ATOM     16  C   UNL     1      36.253 184.572  31.669  1.00  0.00     0.062 A 
ATOM     17  C   UNL     1      34.899 184.258  31.486  1.00  0.00     0.158 A 
BRANCH  15  18
ATOM     18  O   UNL     1      32.772 183.556  32.395  1.00  0.00    -0.504 OA
ATOM     19  H   UNL     1      32.420 182.621  32.560  1.00  0.00     0.293 HD
ENDBRANCH  15  18
BRANCH  17  20
ATOM     20  O   UNL     1      34.323 184.331  30.219  1.00  0.00    -0.504 OA
ATOM     21  H   UNL     1      34.277 185.205  29.707  1.00  0.00     0.293 HD
ENDBRANCH  17  20
ENDBRANCH   1  12
BRANCH   2  22
ATOM     22  O   UNL     1      37.751 187.220  33.328  1.00  0.00    -0.502 OA
ATOM     23  H   UNL     1      36.894 187.164  32.791  1.00  0.00     0.293 HD
ENDBRANCH   2  22
BRANCH   6  24
ATOM     24  O   UNL     1      42.885 186.802  34.039  1.00  0.00    -0.507 OA
ATOM     25  H   UNL     1      43.521 186.973  34.810  1.00  0.00     0.293 HD
ENDBRANCH   6  24
BRANCH   8  26
ATOM     26  O   UNL     1      43.565 182.056  33.496  1.00  0.00    -0.508 OA
ATOM     27  H   UNL     1      43.316 181.168  33.916  1.00  0.00     0.293 HD
ENDBRANCH   8  26
TORSDOF 6
ENDMDL
MODEL 5
REMARK VINA RESULT:    -5.252      3.167      7.236
REMARK INTER + INTRA:          -6.642
REMARK INTER:                  -6.324
REMARK INTRA:                  -0.318
REMARK UNBOUND:                -0.316
REMARK SMILES O=c1c(O)c(-c2ccc(O)c(O)c2)oc2cc(O)cc(O)c12
REMARK SMILES IDX 5 1 3 2 2 3 1 4 22 5 20 6 19 7 17 8 16 9 15 10 14 11 6 12
REMARK SMILES IDX 7 13 8 14 9 15 13 16 11 17 10 18 12 20 4 22 21 24 18 26
REMARK H PARENT 10 19 12 21 4 23 21 25 18 27
REMARK Flexibility Score: inf
ROOT
ATOM      1  C   UNL     1      40.561 185.467  33.496  1.00  0.00     0.180 A 
ATOM      2  C   UNL     1      40.389 186.849  33.281  1.00  0.00     0.208 A 
ATOM      3  C   UNL     1      39.090 187.354  33.116  1.00  0.00     0.238 A 
ATOM      4  O   UNL     1      38.925 188.587  32.912  1.00  0.00    -0.285 OA
ATOM      5  C   UNL     1      37.987 186.478  33.189  1.00  0.00     0.111 A 
ATOM      6  C   UNL     1      36.646 186.906  33.039  1.00  0.00     0.134 A 
ATOM      7  C   UNL     1      35.603 185.974  33.134  1.00  0.00     0.093 A 
ATOM      8  C   UNL     1      35.873 184.624  33.377  1.00  0.00     0.123 A 
ATOM      9  C   UNL     1      37.196 184.195  33.526  1.00  0.00     0.094 A 
ATOM     10  C   UNL     1      38.250 185.108  33.433  1.00  0.00     0.146 A 
ATOM     11  O   UNL     1      39.497 184.675  33.574  1.00  0.00    -0.452 OA
ENDROOT
BRANCH   1  12
ATOM     12  C   UNL     1      41.900 184.858  33.660  1.00  0.00     0.025 A 
ATOM     13  C   UNL     1      42.358 184.535  34.947  1.00  0.00     0.016 A 
ATOM     14  C   UNL     1      43.610 183.939  35.125  1.00  0.00     0.051 A 
ATOM     15  C   UNL     1      44.414 183.643  34.016  1.00  0.00     0.157 A 
ATOM     16  C   UNL     1      42.702 184.539  32.549  1.00  0.00     0.062 A 
ATOM     17  C   UNL     1      43.957 183.939  32.726  1.00  0.00     0.158 A 
BRANCH  15  18
ATOM     18  O   UNL     1      45.663 183.050  34.189  1.00  0.00    -0.504 OA
ATOM     19  H   UNL     1      45.765 182.046  34.280  1.00  0.00     0.293 HD
ENDBRANCH  15  18
BRANCH  17  20
ATOM     20  O   UNL     1      44.752 183.630  31.625  1.00  0.00    -0.504 OA
ATOM     21  H   UNL     1      45.764 183.639  31.681  1.00  0.00     0.293 HD
ENDBRANCH  17  20
ENDBRANCH   1  12
BRANCH   2  22
ATOM     22  O   UNL     1      41.495 187.704  33.263  1.00  0.00    -0.502 OA
ATOM     23  H   UNL     1      41.413 188.693  33.062  1.00  0.00     0.293 HD
ENDBRANCH   2  22
BRANCH   6  24
ATOM     24  O   UNL     1      36.344 188.246  32.795  1.00  0.00    -0.507 OA
ATOM     25  H   UNL     1      37.025 188.883  32.396  1.00  0.00     0.293 HD
ENDBRANCH   6  24
BRANCH   8  26
ATOM     26  O   UNL     1      34.818 183.719  33.468  1.00  0.00    -0.508 OA
ATOM     27  H   UNL     1      33.874 184.025  33.674  1.00  0.00     0.293 HD
ENDBRANCH   8  26
TORSDOF 6
ENDMDL
MODEL 6
REMARK VINA RESULT:    -5.088      1.659      1.833
REMARK INTER + INTRA:          -6.445
REMARK INTER:                  -6.152
REMARK INTRA:                  -0.292
REMARK UNBOUND:                -0.316
REMARK SMILES O=c1c(O)c(-c2ccc(O)c(O)c2)oc2cc(O)cc(O)c12
REMARK SMILES IDX 5 1 3 2 2 3 1 4 22 5 20 6 19 7 17 8 16 9 15 10 14 11 6 12
REMARK SMILES IDX 7 13 8 14 9 15 13 16 11 17 10 18 12 20 4 22 21 24 18 26
REMARK H PARENT 10 19 12 21 4 23 21 25 18 27
REMARK Flexibility Score: inf
ROOT
ATOM      1  C   UNL     1      37.223 185.055  32.581  1.00  0.00     0.180 A 
ATOM      2  C   UNL     1      36.983 186.301  33.192  1.00  0.00     0.208 A 
ATOM      3  C   UNL     1      38.064 187.007  33.743  1.00  0.00     0.238 A 
ATOM      4  O   UNL     1      37.859 188.118  34.304  1.00  0.00    -0.285 OA
ATOM      5  C   UNL     1      39.364 186.469  33.656  1.00  0.00     0.111 A 
ATOM      6  C   UNL     1      40.508 187.118  34.181  1.00  0.00     0.134 A 
ATOM      7  C   UNL     1      41.770 186.522  34.046  1.00  0.00     0.093 A 
ATOM      8  C   UNL     1      41.912 185.293  33.397  1.00  0.00     0.123 A 
ATOM      9  C   UNL     1      40.786 184.646  32.877  1.00  0.00     0.094 A 
ATOM     10  C   UNL     1      39.519 185.223  33.002  1.00  0.00     0.146 A 
ATOM     11  O   UNL     1      38.465 184.587  32.504  1.00  0.00    -0.452 OA
ENDROOT
BRANCH   1  12
ATOM     12  C   UNL     1      36.133 184.244  31.994  1.00  0.00     0.025 A 
ATOM     13  C   UNL     1      35.650 184.558  30.714  1.00  0.00     0.016 A 
ATOM     14  C   UNL     1      34.636 183.793  30.132  1.00  0.00     0.051 A 
ATOM     15  C   UNL     1      34.103 182.693  30.815  1.00  0.00     0.157 A 
ATOM     16  C   UNL     1      35.609 183.125  32.667  1.00  0.00     0.062 A 
ATOM     17  C   UNL     1      34.593 182.355  32.082  1.00  0.00     0.158 A 
BRANCH  15  18
ATOM     18  O   UNL     1      33.090 181.927  30.238  1.00  0.00    -0.504 OA
ATOM     19  H   UNL     1      32.391 181.462  30.804  1.00  0.00     0.293 HD
ENDBRANCH  15  18
BRANCH  17  20
ATOM     20  O   UNL     1      34.070 181.251  32.753  1.00  0.00    -0.504 OA
ATOM     21  H   UNL     1      33.103 181.223  33.056  1.00  0.00     0.293 HD
ENDBRANCH  17  20
ENDBRANCH   1  12
BRANCH   2  22
ATOM     22  O   UNL     1      35.692 186.836  33.222  1.00  0.00    -0.502 OA
ATOM     23  H   UNL     1      34.876 186.273  33.429  1.00  0.00     0.293 HD
ENDBRANCH   2  22
BRANCH   6  24
ATOM     24  O   UNL     1      40.399 188.347  34.834  1.00  0.00    -0.507 OA
ATOM     25  H   UNL     1      41.204 188.802  35.251  1.00  0.00     0.293 HD
ENDBRANCH   6  24
BRANCH   8  26
ATOM     26  O   UNL     1      43.177 184.723  33.275  1.00  0.00    -0.508 OA
ATOM     27  H   UNL     1      43.827 185.026  32.560  1.00  0.00     0.293 HD
ENDBRANCH   8  26
TORSDOF 6
ENDMDL
MODEL 7
REMARK VINA RESULT:    -5.029      3.432      9.081
REMARK INTER + INTRA:          -6.373
REMARK INTER:                  -6.042
REMARK INTRA:                  -0.331
REMARK UNBOUND:                -0.316
REMARK SMILES O=c1c(O)c(-c2ccc(O)c(O)c2)oc2cc(O)cc(O)c12
REMARK SMILES IDX 5 1 3 2 2 3 1 4 22 5 20 6 19 7 17 8 16 9 15 10 14 11 6 12
REMARK SMILES IDX 7 13 8 14 9 15 13 16 11 17 10 18 12 20 4 22 21 24 18 26
REMARK H PARENT 10 19 12 21 4 23 21 25 18 27
REMARK Flexibility Score: inf
ROOT
ATOM      1  C   UNL     1      32.587 180.994  31.367  1.00  0.00     0.180 A 
ATOM      2  C   UNL     1      31.241 181.291  31.656  1.00  0.00     0.208 A 
ATOM      3  C   UNL     1      30.305 180.244  31.684  1.00  0.00     0.238 A 
ATOM      4  O   UNL     1      29.096 180.500  31.931  1.00  0.00    -0.285 OA
ATOM      5  C   UNL     1      30.732 178.922  31.443  1.00  0.00     0.111 A 
ATOM      6  C   UNL     1      29.855 177.811  31.458  1.00  0.00     0.134 A 
ATOM      7  C   UNL     1      30.359 176.524  31.218  1.00  0.00     0.093 A 
ATOM      8  C   UNL     1      31.719 176.326  30.965  1.00  0.00     0.123 A 
ATOM      9  C   UNL     1      32.590 177.420  30.950  1.00  0.00     0.094 A 
ATOM     10  C   UNL     1      32.108 178.711  31.186  1.00  0.00     0.146 A 
ATOM     11  O   UNL     1      32.955 179.733  31.161  1.00  0.00    -0.452 OA
ENDROOT
BRANCH   1  12
ATOM     12  C   UNL     1      33.627 182.045  31.301  1.00  0.00     0.025 A 
ATOM     13  C   UNL     1      34.361 182.363  32.455  1.00  0.00     0.016 A 
ATOM     14  C   UNL     1      35.362 183.337  32.412  1.00  0.00     0.051 A 
ATOM     15  C   UNL     1      35.655 183.994  31.210  1.00  0.00     0.157 A 
ATOM     16  C   UNL     1      33.940 182.693  30.092  1.00  0.00     0.062 A 
ATOM     17  C   UNL     1      34.946 183.669  30.047  1.00  0.00     0.158 A 
BRANCH  15  18
ATOM     18  O   UNL     1      36.652 184.967  31.162  1.00  0.00    -0.504 OA
ATOM     19  H   UNL     1      36.578 185.829  31.691  1.00  0.00     0.293 HD
ENDBRANCH  15  18
BRANCH  17  20
ATOM     20  O   UNL     1      35.249 184.314  28.850  1.00  0.00    -0.504 OA
ATOM     21  H   UNL     1      35.302 183.809  27.973  1.00  0.00     0.293 HD
ENDBRANCH  17  20
ENDBRANCH   1  12
BRANCH   2  22
ATOM     22  O   UNL     1      30.852 182.603  31.941  1.00  0.00    -0.502 OA
ATOM     23  H   UNL     1      30.426 182.865  32.821  1.00  0.00     0.293 HD
ENDBRANCH   2  22
BRANCH   6  24
ATOM     24  O   UNL     1      28.492 177.975  31.706  1.00  0.00    -0.507 OA
ATOM     25  H   UNL     1      27.939 178.666  31.212  1.00  0.00     0.293 HD
ENDBRANCH   6  24
BRANCH   8  26
ATOM     26  O   UNL     1      32.193 175.037  30.732  1.00  0.00    -0.508 OA
ATOM     27  H   UNL     1      33.082 174.725  31.104  1.00  0.00     0.293 HD
ENDBRANCH   8  26
TORSDOF 6
ENDMDL
MODEL 8
REMARK VINA RESULT:    -4.987      2.436      3.487
REMARK INTER + INTRA:          -6.322
REMARK INTER:                  -5.999
REMARK INTRA:                  -0.324
REMARK UNBOUND:                -0.316
REMARK SMILES O=c1c(O)c(-c2ccc(O)c(O)c2)oc2cc(O)cc(O)c12
REMARK SMILES IDX 5 1 3 2 2 3 1 4 22 5 20 6 19 7 17 8 16 9 15 10 14 11 6 12
REMARK SMILES IDX 7 13 8 14 9 15 13 16 11 17 10 18 12 20 4 22 21 24 18 26
REMARK H PARENT 10 19 12 21 4 23 21 25 18 27
REMARK Flexibility Score: inf
ROOT
ATOM      1  C   UNL     1      37.476 184.860  32.954  1.00  0.00     0.180 A 
ATOM      2  C   UNL     1      37.698 185.324  31.643  1.00  0.00     0.208 A 
ATOM      3  C   UNL     1      38.993 185.720  31.272  1.00  0.00     0.238 A 
ATOM      4  O   UNL     1      39.201 186.148  30.105  1.00  0.00    -0.285 OA
ATOM      5  C   UNL     1      40.044 185.628  32.208  1.00  0.00     0.111 A 
ATOM      6  C   UNL     1      41.378 186.002  31.914  1.00  0.00     0.134 A 
ATOM      7  C   UNL     1      42.370 185.871  32.897  1.00  0.00     0.093 A 
ATOM      8  C   UNL     1      42.056 185.373  34.165  1.00  0.00     0.123 A 
ATOM      9  C   UNL     1      40.740 185.002  34.461  1.00  0.00     0.094 A 
ATOM     10  C   UNL     1      39.737 185.126  33.496  1.00  0.00     0.146 A 
ATOM     11  O   UNL     1      38.495 184.772  33.804  1.00  0.00    -0.452 OA
ENDROOT
BRANCH   1  12
ATOM     12  C   UNL     1      36.136 184.442  33.424  1.00  0.00     0.025 A 
ATOM     13  C   UNL     1      35.279 185.394  33.999  1.00  0.00     0.016 A 
ATOM     14  C   UNL     1      34.001 185.027  34.430  1.00  0.00     0.051 A 
ATOM     15  C   UNL     1      33.557 183.707  34.277  1.00  0.00     0.157 A 
ATOM     16  C   UNL     1      35.677 183.123  33.253  1.00  0.00     0.062 A 
ATOM     17  C   UNL     1      34.394 182.755  33.684  1.00  0.00     0.158 A 
BRANCH  15  18
ATOM     18  O   UNL     1      32.284 183.337  34.707  1.00  0.00    -0.504 OA
ATOM     19  H   UNL     1      31.458 183.847  34.419  1.00  0.00     0.293 HD
ENDBRANCH  15  18
BRANCH  17  20
ATOM     20  O   UNL     1      33.945 181.447  33.520  1.00  0.00    -0.504 OA
ATOM     21  H   UNL     1      33.026 181.244  33.143  1.00  0.00     0.293 HD
ENDBRANCH  17  20
ENDBRANCH   1  12
BRANCH   2  22
ATOM     22  O   UNL     1      36.650 185.360  30.719  1.00  0.00    -0.502 OA
ATOM     23  H   UNL     1      35.679 185.283  30.996  1.00  0.00     0.293 HD
ENDBRANCH   2  22
BRANCH   6  24
ATOM     24  O   UNL     1      41.723 186.501  30.658  1.00  0.00    -0.507 OA
ATOM     25  H   UNL     1      41.077 187.059  30.111  1.00  0.00     0.293 HD
ENDBRANCH   6  24
BRANCH   8  26
ATOM     26  O   UNL     1      43.061 185.252  35.122  1.00  0.00    -0.508 OA
ATOM     27  H   UNL     1      43.516 186.066  35.518  1.00  0.00     0.293 HD
ENDBRANCH   8  26
TORSDOF 6
ENDMDL
MODEL 9
REMARK VINA RESULT:    -4.918      1.576      7.110
REMARK INTER + INTRA:          -6.240
REMARK INTER:                  -6.108
REMARK INTRA:                  -0.132
REMARK UNBOUND:                -0.316
REMARK SMILES O=c1c(O)c(-c2ccc(O)c(O)c2)oc2cc(O)cc(O)c12
REMARK SMILES IDX 5 1 3 2 2 3 1 4 22 5 20 6 19 7 17 8 16 9 15 10 14 11 6 12
REMARK SMILES IDX 7 13 8 14 9 15 13 16 11 17 10 18 12 20 4 22 21 24 18 26
REMARK H PARENT 10 19 12 21 4 23 21 25 18 27
REMARK Flexibility Score: inf
ROOT
ATOM      1  C   UNL     1      36.631 184.737  31.952  1.00  0.00     0.180 A 
ATOM      2  C   UNL     1      36.011 184.572  30.698  1.00  0.00     0.208 A 
ATOM      3  C   UNL     1      35.007 183.600  30.560  1.00  0.00     0.238 A 
ATOM      4  O   UNL     1      34.452 183.435  29.440  1.00  0.00    -0.285 OA
ATOM      5  C   UNL     1      34.628 182.827  31.677  1.00  0.00     0.111 A 
ATOM      6  C   UNL     1      33.623 181.831  31.624  1.00  0.00     0.134 A 
ATOM      7  C   UNL     1      33.296 181.110  32.782  1.00  0.00     0.093 A 
ATOM      8  C   UNL     1      33.951 181.365  33.989  1.00  0.00     0.123 A 
ATOM      9  C   UNL     1      34.945 182.348  34.048  1.00  0.00     0.094 A 
ATOM     10  C   UNL     1      35.286 183.077  32.904  1.00  0.00     0.146 A 
ATOM     11  O   UNL     1      36.236 184.001  32.986  1.00  0.00    -0.452 OA
ENDROOT
BRANCH   1  12
ATOM     12  C   UNL     1      37.709 185.728  32.171  1.00  0.00     0.025 A 
ATOM     13  C   UNL     1      37.562 186.697  33.175  1.00  0.00     0.016 A 
ATOM     14  C   UNL     1      38.576 187.629  33.414  1.00  0.00     0.051 A 
ATOM     15  C   UNL     1      39.758 187.593  32.663  1.00  0.00     0.157 A 
ATOM     16  C   UNL     1      38.907 185.683  31.434  1.00  0.00     0.062 A 
ATOM     17  C   UNL     1      39.926 186.616  31.675  1.00  0.00     0.158 A 
BRANCH  15  18
ATOM     18  O   UNL     1      40.771 188.521  32.897  1.00  0.00    -0.504 OA
ATOM     19  H   UNL     1      40.736 189.157  33.685  1.00  0.00     0.293 HD
ENDBRANCH  15  18
BRANCH  17  20
ATOM     20  O   UNL     1      41.108 186.574  30.939  1.00  0.00    -0.504 OA
ATOM     21  H   UNL     1      41.689 187.396  30.819  1.00  0.00     0.293 HD
ENDBRANCH  17  20
ENDBRANCH   1  12
BRANCH   2  22
ATOM     22  O   UNL     1      36.370 185.385  29.619  1.00  0.00    -0.502 OA
ATOM     23  H   UNL     1      35.687 185.897  29.074  1.00  0.00     0.293 HD
ENDBRANCH   2  22
BRANCH   6  24
ATOM     24  O   UNL     1      32.950 181.552  30.434  1.00  0.00    -0.507 OA
ATOM     25  H   UNL     1      32.841 180.604  30.092  1.00  0.00     0.293 HD
ENDBRANCH   6  24
BRANCH   8  26
ATOM     26  O   UNL     1      33.606 180.636  35.125  1.00  0.00    -0.508 OA
ATOM     27  H   UNL     1      32.906 180.971  35.777  1.00  0.00     0.293 HD
ENDBRANCH   8  26
TORSDOF 6
ENDMDL
