MODEL 1
REMARK VINA RESULT:     1.789      0.000      0.000
REMARK INTER + INTRA:           1.814
REMARK INTER:                   2.155
REMARK INTRA:                  -0.341
REMARK UNBOUND:                -0.341
REMARK SMILES O=c1c(O)c(-c2ccc(O)cc2O)oc2cc(O)cc(O)c12
REMARK SMILES IDX 5 1 3 2 2 3 1 4 22 5 20 6 19 7 17 8 16 9 15 10 14 11 6 12
REMARK SMILES IDX 8 13 7 14 9 15 11 16 12 17 10 18 13 20 4 22 21 24 18 26
REMARK H PARENT 10 19 13 21 4 23 21 25 18 27
REMARK Flexibility Score: inf
ROOT
ATOM      1  C   UNL     1      14.935   5.084  14.810  1.00  0.00     0.184 A 
ATOM      2  C   UNL     1      14.424   6.390  14.850  1.00  0.00     0.208 A 
ATOM      3  C   UNL     1      13.536   6.742  15.877  1.00  0.00     0.238 A 
ATOM      4  O   UNL     1      13.034   7.897  15.874  1.00  0.00    -0.285 OA
ATOM      5  C   UNL     1      13.193   5.790  16.868  1.00  0.00     0.111 A 
ATOM      6  C   UNL     1      12.334   6.049  17.979  1.00  0.00     0.134 A 
ATOM      7  C   UNL     1      11.968   4.998  18.828  1.00  0.00     0.093 A 
ATOM      8  C   UNL     1      12.480   3.714  18.648  1.00  0.00     0.123 A 
ATOM      9  C   UNL     1      13.366   3.462  17.600  1.00  0.00     0.094 A 
ATOM     10  C   UNL     1      13.722   4.482  16.714  1.00  0.00     0.146 A 
ATOM     11  O   UNL     1      14.557   4.197  15.722  1.00  0.00    -0.451 OA
ENDROOT
BRANCH   1  12
ATOM     12  C   UNL     1      15.891   4.664  13.764  1.00  0.00     0.063 A 
ATOM     13  C   UNL     1      18.132   3.930  13.162  1.00  0.00     0.047 A 
ATOM     14  C   UNL     1      17.222   4.382  14.120  1.00  0.00     0.020 A 
ATOM     15  C   UNL     1      17.725   3.744  11.837  1.00  0.00     0.119 A 
ATOM     16  C   UNL     1      16.403   4.018  11.473  1.00  0.00     0.093 A 
ATOM     17  C   UNL     1      15.483   4.483  12.421  1.00  0.00     0.130 A 
BRANCH  15  18
ATOM     18  O   UNL     1      18.623   3.287  10.875  1.00  0.00    -0.508 OA
ATOM     19  H   UNL     1      18.410   3.335   9.885  1.00  0.00     0.293 HD
ENDBRANCH  15  18
BRANCH  17  20
ATOM     20  O   UNL     1      14.187   4.776  11.994  1.00  0.00    -0.507 OA
ATOM     21  H   UNL     1      13.489   5.195  12.594  1.00  0.00     0.293 HD
ENDBRANCH  17  20
ENDBRANCH   1  12
BRANCH   2  22
ATOM     22  O   UNL     1      14.783   7.310  13.860  1.00  0.00    -0.502 OA
ATOM     23  H   UNL     1      14.642   7.129  12.874  1.00  0.00     0.293 HD
ENDBRANCH   2  22
BRANCH   6  24
ATOM     24  O   UNL     1      11.837   7.315  18.305  1.00  0.00    -0.507 OA
ATOM     25  H   UNL     1      12.314   8.185  18.120  1.00  0.00     0.293 HD
ENDBRANCH   6  24
BRANCH   8  26
ATOM     26  O   UNL     1      12.106   2.694  19.522  1.00  0.00    -0.508 OA
ATOM     27  H   UNL     1      11.955   2.870  20.508  1.00  0.00     0.293 HD
ENDBRANCH   8  26
TORSDOF 6
ENDMDL
MODEL 2
REMARK VINA RESULT:     3.946      1.536      3.233
REMARK INTER + INTRA:           4.412
REMARK INTER:                   4.758
REMARK INTRA:                  -0.346
REMARK UNBOUND:                -0.341
REMARK SMILES O=c1c(O)c(-c2ccc(O)cc2O)oc2cc(O)cc(O)c12
REMARK SMILES IDX 5 1 3 2 2 3 1 4 22 5 20 6 19 7 17 8 16 9 15 10 14 11 6 12
REMARK SMILES IDX 8 13 7 14 9 15 11 16 12 17 10 18 13 20 4 22 21 24 18 26
REMARK H PARENT 10 19 13 21 4 23 21 25 18 27
REMARK Flexibility Score: inf
ROOT
ATOM      1  C   UNL     1      15.521   4.991  14.331  1.00  0.00     0.184 A 
ATOM      2  C   UNL     1      15.006   4.204  15.372  1.00  0.00     0.208 A 
ATOM      3  C   UNL     1      14.017   4.743  16.208  1.00  0.00     0.238 A 
ATOM      4  O   UNL     1      13.602   4.055  17.177  1.00  0.00    -0.285 OA
ATOM      5  C   UNL     1      13.534   6.054  15.973  1.00  0.00     0.111 A 
ATOM      6  C   UNL     1      12.503   6.687  16.731  1.00  0.00     0.134 A 
ATOM      7  C   UNL     1      12.191   8.030  16.486  1.00  0.00     0.093 A 
ATOM      8  C   UNL     1      12.825   8.743  15.469  1.00  0.00     0.123 A 
ATOM      9  C   UNL     1      13.792   8.116  14.683  1.00  0.00     0.094 A 
ATOM     10  C   UNL     1      14.152   6.789  14.926  1.00  0.00     0.146 A 
ATOM     11  O   UNL     1      15.087   6.235  14.165  1.00  0.00    -0.451 OA
ENDROOT
BRANCH   1  12
ATOM     12  C   UNL     1      16.548   4.468  13.406  1.00  0.00     0.063 A 
ATOM     13  C   UNL     1      18.808   3.636  13.057  1.00  0.00     0.047 A 
ATOM     14  C   UNL     1      17.835   4.183  13.896  1.00  0.00     0.020 A 
ATOM     15  C   UNL     1      18.508   3.356  11.719  1.00  0.00     0.119 A 
ATOM     16  C   UNL     1      17.230   3.632  11.224  1.00  0.00     0.093 A 
ATOM     17  C   UNL     1      16.248   4.192  12.051  1.00  0.00     0.130 A 
BRANCH  15  18
ATOM     18  O   UNL     1      19.469   2.804  10.875  1.00  0.00    -0.508 OA
ATOM     19  H   UNL     1      19.253   2.553   9.918  1.00  0.00     0.293 HD
ENDBRANCH  15  18
BRANCH  17  20
ATOM     20  O   UNL     1      15.002   4.481  11.493  1.00  0.00    -0.507 OA
ATOM     21  H   UNL     1      14.792   4.349  10.512  1.00  0.00     0.293 HD
ENDBRANCH  17  20
ENDBRANCH   1  12
BRANCH   2  22
ATOM     22  O   UNL     1      15.499   2.912  15.580  1.00  0.00    -0.502 OA
ATOM     23  H   UNL     1      14.940   2.085  15.415  1.00  0.00     0.293 HD
ENDBRANCH   2  22
BRANCH   6  24
ATOM     24  O   UNL     1      11.744   6.040  17.711  1.00  0.00    -0.507 OA
ATOM     25  H   UNL     1      11.722   5.042  17.856  1.00  0.00     0.293 HD
ENDBRANCH   6  24
BRANCH   8  26
ATOM     26  O   UNL     1      12.478  10.074  15.242  1.00  0.00    -0.508 OA
ATOM     27  H   UNL     1      11.785  10.330  14.551  1.00  0.00     0.293 HD
ENDBRANCH   8  26
TORSDOF 6
ENDMDL
MODEL 3
REMARK VINA RESULT:     4.052      1.502      3.217
REMARK INTER + INTRA:           4.540
REMARK INTER:                   4.873
REMARK INTRA:                  -0.333
REMARK UNBOUND:                -0.341
REMARK SMILES O=c1c(O)c(-c2ccc(O)cc2O)oc2cc(O)cc(O)c12
REMARK SMILES IDX 5 1 3 2 2 3 1 4 22 5 20 6 19 7 17 8 16 9 15 10 14 11 6 12
REMARK SMILES IDX 8 13 7 14 9 15 11 16 12 17 10 18 13 20 4 22 21 24 18 26
REMARK H PARENT 10 19 13 21 4 23 21 25 18 27
REMARK Flexibility Score: inf
ROOT
ATOM      1  C   UNL     1      15.469   5.028  14.388  1.00  0.00     0.184 A 
ATOM      2  C   UNL     1      14.956   4.243  15.432  1.00  0.00     0.208 A 
ATOM      3  C   UNL     1      13.974   4.787  16.273  1.00  0.00     0.238 A 
ATOM      4  O   UNL     1      13.561   4.100  17.244  1.00  0.00    -0.285 OA
ATOM      5  C   UNL     1      13.496   6.100  16.040  1.00  0.00     0.111 A 
ATOM      6  C   UNL     1      12.473   6.739  16.804  1.00  0.00     0.134 A 
ATOM      7  C   UNL     1      12.167   8.083  16.561  1.00  0.00     0.093 A 
ATOM      8  C   UNL     1      12.799   8.793  15.540  1.00  0.00     0.123 A 
ATOM      9  C   UNL     1      13.759   8.161  14.749  1.00  0.00     0.094 A 
ATOM     10  C   UNL     1      14.113   6.832  14.991  1.00  0.00     0.146 A 
ATOM     11  O   UNL     1      15.041   6.274  14.224  1.00  0.00    -0.451 OA
ENDROOT
BRANCH   1  12
ATOM     12  C   UNL     1      16.489   4.499  13.458  1.00  0.00     0.063 A 
ATOM     13  C   UNL     1      18.730   3.618  13.103  1.00  0.00     0.047 A 
ATOM     14  C   UNL     1      17.766   4.171  13.949  1.00  0.00     0.020 A 
ATOM     15  C   UNL     1      18.431   3.376  11.758  1.00  0.00     0.119 A 
ATOM     16  C   UNL     1      17.165   3.695  11.261  1.00  0.00     0.093 A 
ATOM     17  C   UNL     1      16.192   4.261  12.095  1.00  0.00     0.130 A 
BRANCH  15  18
ATOM     18  O   UNL     1      19.384   2.819  10.908  1.00  0.00    -0.508 OA
ATOM     19  H   UNL     1      19.572   1.823  10.903  1.00  0.00     0.293 HD
ENDBRANCH  15  18
BRANCH  17  20
ATOM     20  O   UNL     1      14.957   4.594  11.536  1.00  0.00    -0.507 OA
ATOM     21  H   UNL     1      14.083   4.517  12.041  1.00  0.00     0.293 HD
ENDBRANCH  17  20
ENDBRANCH   1  12
BRANCH   2  22
ATOM     22  O   UNL     1      15.443   2.949  15.637  1.00  0.00    -0.502 OA
ATOM     23  H   UNL     1      16.431   2.728  15.600  1.00  0.00     0.293 HD
ENDBRANCH   2  22
BRANCH   6  24
ATOM     24  O   UNL     1      11.715   6.095  17.787  1.00  0.00    -0.507 OA
ATOM     25  H   UNL     1      11.016   6.544  18.359  1.00  0.00     0.293 HD
ENDBRANCH   6  24
BRANCH   8  26
ATOM     26  O   UNL     1      12.458  10.126  15.316  1.00  0.00    -0.508 OA
ATOM     27  H   UNL     1      12.076  10.433  14.430  1.00  0.00     0.293 HD
ENDBRANCH   8  26
TORSDOF 6
ENDMDL
