MODEL 1
REMARK VINA RESULT:    -4.507      0.000      0.000
REMARK INTER + INTRA:          -9.406
REMARK INTER:                  -8.722
REMARK INTRA:                  -0.684
REMARK UNBOUND:                -0.684
REMARK SMILES CCCCCCCCCCCCCCCCCC(=O)[O-]
REMARK SMILES IDX 10 1 11 2 12 3 13 4 14 5 15 6 16 7 17 8 18 9 19 10 20 11
REMARK SMILES IDX 9 12 8 13 7 14 6 15 5 16 4 17 3 18 2 19 1 20
REMARK H PARENT
REMARK Flexibility Score: inf
ROOT
ATOM      1  C   UNL     1      21.183 -20.512 -18.702  1.00  0.00     0.000 C 
ENDROOT
BRANCH   1   2
ATOM      2  C   UNL     1      21.414 -20.081 -17.237  1.00  0.00     0.000 C 
BRANCH   2   3
ATOM      3  C   UNL     1      22.531 -19.038 -17.069  1.00  0.00     0.000 C 
BRANCH   3   4
ATOM      4  C   UNL     1      22.293 -17.768 -17.903  1.00  0.00     0.000 C 
BRANCH   4   5
ATOM      5  C   UNL     1      21.657 -16.635 -17.081  1.00  0.00     0.000 C 
BRANCH   5   6
ATOM      6  C   UNL     1      20.250 -16.995 -16.576  1.00  0.00     0.000 C 
BRANCH   6   7
ATOM      7  C   UNL     1      19.493 -15.788 -15.992  1.00  0.00     0.006 C 
BRANCH   7   8
ATOM      8  C   UNL     1      18.076 -16.121 -15.488  1.00  0.00     0.053 C 
BRANCH   8   9
ATOM      9  C   UNL     1      17.065 -15.086 -15.877  1.00  0.00     0.041 C 
ATOM     10  O   UNL     1      16.379 -15.229 -16.924  1.00  0.00    -0.550 OA
ATOM     11  O   UNL     1      16.902 -13.946 -15.099  1.00  0.00    -0.550 OA
ENDBRANCH   8   9
ENDBRANCH   7   8
ENDBRANCH   6   7
ENDBRANCH   5   6
ENDBRANCH   4   5
ENDBRANCH   3   4
ENDBRANCH   2   3
ENDBRANCH   1   2
BRANCH   1  12
ATOM     12  C   UNL     1      20.742 -21.982 -18.812  1.00  0.00     0.000 C 
BRANCH  12  13
ATOM     13  C   UNL     1      19.512 -22.168 -19.727  1.00  0.00    -0.000 C 
BRANCH  13  14
ATOM     14  C   UNL     1      19.184 -23.640 -20.038  1.00  0.00    -0.000 C 
BRANCH  14  15
ATOM     15  C   UNL     1      17.904 -24.182 -19.374  1.00  0.00    -0.000 C 
BRANCH  15  16
ATOM     16  C   UNL     1      17.119 -23.159 -18.529  1.00  0.00    -0.000 C 
BRANCH  16  17
ATOM     17  C   UNL     1      16.269 -23.819 -17.430  1.00  0.00    -0.000 C 
BRANCH  17  18
ATOM     18  C   UNL     1      14.758 -23.590 -17.624  1.00  0.00    -0.000 C 
BRANCH  18  19
ATOM     19  C   UNL     1      14.179 -24.137 -18.942  1.00  0.00    -0.003 C 
ATOM     20  C   UNL     1      13.804 -23.037 -19.933  1.00  0.00     0.004 C 
ENDBRANCH  18  19
ENDBRANCH  17  18
ENDBRANCH  16  17
ENDBRANCH  15  16
ENDBRANCH  14  15
ENDBRANCH  13  14
ENDBRANCH  12  13
ENDBRANCH   1  12
TORSDOF 16
ENDMDL
MODEL 2
REMARK VINA RESULT:    -4.470      0.955      1.675
REMARK INTER + INTRA:          -9.336
REMARK INTER:                  -8.189
REMARK INTRA:                  -1.147
REMARK UNBOUND:                -0.684
REMARK SMILES CCCCCCCCCCCCCCCCCC(=O)[O-]
REMARK SMILES IDX 10 1 11 2 12 3 13 4 14 5 15 6 16 7 17 8 18 9 19 10 20 11
REMARK SMILES IDX 9 12 8 13 7 14 6 15 5 16 4 17 3 18 2 19 1 20
REMARK H PARENT
REMARK Flexibility Score: inf
ROOT
ATOM      1  C   UNL     1      20.700 -19.869 -18.990  1.00  0.00     0.000 C 
ENDROOT
BRANCH   1   2
ATOM      2  C   UNL     1      21.660 -20.284 -17.854  1.00  0.00     0.000 C 
BRANCH   2   3
ATOM      3  C   UNL     1      21.773 -19.243 -16.728  1.00  0.00     0.000 C 
BRANCH   3   4
ATOM      4  C   UNL     1      22.541 -17.981 -17.157  1.00  0.00     0.000 C 
BRANCH   4   5
ATOM      5  C   UNL     1      21.708 -16.700 -16.986  1.00  0.00     0.000 C 
BRANCH   5   6
ATOM      6  C   UNL     1      20.248 -16.996 -16.602  1.00  0.00     0.000 C 
BRANCH   6   7
ATOM      7  C   UNL     1      19.563 -15.817 -15.887  1.00  0.00     0.006 C 
BRANCH   7   8
ATOM      8  C   UNL     1      18.144 -16.131 -15.379  1.00  0.00     0.053 C 
BRANCH   8   9
ATOM      9  C   UNL     1      17.138 -15.102 -15.796  1.00  0.00     0.041 C 
ATOM     10  O   UNL     1      16.908 -14.104 -15.062  1.00  0.00    -0.550 OA
ATOM     11  O   UNL     1      16.432 -15.260 -16.981  1.00  0.00    -0.550 OA
ENDBRANCH   8   9
ENDBRANCH   7   8
ENDBRANCH   6   7
ENDBRANCH   5   6
ENDBRANCH   4   5
ENDBRANCH   3   4
ENDBRANCH   2   3
ENDBRANCH   1   2
BRANCH   1  12
ATOM     12  C   UNL     1      20.099 -21.085 -19.716  1.00  0.00     0.000 C 
BRANCH  12  13
ATOM     13  C   UNL     1      20.532 -22.427 -19.087  1.00  0.00    -0.000 C 
BRANCH  13  14
ATOM     14  C   UNL     1      20.698 -23.568 -20.108  1.00  0.00    -0.000 C 
BRANCH  14  15
ATOM     15  C   UNL     1      19.392 -24.057 -20.764  1.00  0.00    -0.000 C 
BRANCH  15  16
ATOM     16  C   UNL     1      18.554 -25.030 -19.912  1.00  0.00    -0.000 C 
BRANCH  16  17
ATOM     17  C   UNL     1      17.165 -24.470 -19.560  1.00  0.00    -0.000 C 
BRANCH  17  18
ATOM     18  C   UNL     1      17.201 -23.482 -18.379  1.00  0.00    -0.000 C 
BRANCH  18  19
ATOM     19  C   UNL     1      15.844 -22.851 -18.015  1.00  0.00    -0.003 C 
ATOM     20  C   UNL     1      14.843 -23.863 -17.459  1.00  0.00     0.004 C 
ENDBRANCH  18  19
ENDBRANCH  17  18
ENDBRANCH  16  17
ENDBRANCH  15  16
ENDBRANCH  14  15
ENDBRANCH  13  14
ENDBRANCH  12  13
ENDBRANCH   1  12
TORSDOF 16
ENDMDL
MODEL 3
REMARK VINA RESULT:    -4.325      2.915      7.711
REMARK INTER + INTRA:          -9.054
REMARK INTER:                  -7.940
REMARK INTRA:                  -1.115
REMARK UNBOUND:                -0.684
REMARK SMILES CCCCCCCCCCCCCCCCCC(=O)[O-]
REMARK SMILES IDX 10 1 11 2 12 3 13 4 14 5 15 6 16 7 17 8 18 9 19 10 20 11
REMARK SMILES IDX 9 12 8 13 7 14 6 15 5 16 4 17 3 18 2 19 1 20
REMARK H PARENT
REMARK Flexibility Score: inf
ROOT
ATOM      1  C   UNL     1      21.822 -19.517 -16.957  1.00  0.00     0.000 C 
ENDROOT
BRANCH   1   2
ATOM      2  C   UNL     1      20.988 -19.792 -18.227  1.00  0.00     0.000 C 
BRANCH   2   3
ATOM      3  C   UNL     1      21.316 -21.135 -18.902  1.00  0.00     0.000 C 
BRANCH   3   4
ATOM      4  C   UNL     1      20.103 -22.076 -18.979  1.00  0.00     0.000 C 
BRANCH   4   5
ATOM      5  C   UNL     1      19.095 -21.649 -20.060  1.00  0.00     0.000 C 
BRANCH   5   6
ATOM      6  C   UNL     1      17.815 -22.503 -20.038  1.00  0.00     0.000 C 
BRANCH   6   7
ATOM      7  C   UNL     1      17.623 -23.263 -18.713  1.00  0.00     0.006 C 
BRANCH   7   8
ATOM      8  C   UNL     1      16.514 -24.330 -18.759  1.00  0.00     0.053 C 
BRANCH   8   9
ATOM      9  C   UNL     1      15.221 -23.848 -18.175  1.00  0.00     0.041 C 
ATOM     10  O   UNL     1      14.123 -24.254 -18.640  1.00  0.00    -0.550 OA
ATOM     11  O   UNL     1      15.228 -22.926 -17.136  1.00  0.00    -0.550 OA
ENDBRANCH   8   9
ENDBRANCH   7   8
ENDBRANCH   6   7
ENDBRANCH   5   6
ENDBRANCH   4   5
ENDBRANCH   3   4
ENDBRANCH   2   3
ENDBRANCH   1   2
BRANCH   1  12
ATOM     12  C   UNL     1      23.224 -18.974 -17.289  1.00  0.00     0.000 C 
BRANCH  12  13
ATOM     13  C   UNL     1      23.431 -17.524 -16.801  1.00  0.00    -0.000 C 
BRANCH  13  14
ATOM     14  C   UNL     1      22.474 -16.506 -17.449  1.00  0.00    -0.000 C 
BRANCH  14  15
ATOM     15  C   UNL     1      22.138 -15.276 -16.583  1.00  0.00    -0.000 C 
BRANCH  15  16
ATOM     16  C   UNL     1      20.640 -15.071 -16.287  1.00  0.00    -0.000 C 
BRANCH  16  17
ATOM     17  C   UNL     1      19.864 -16.396 -16.185  1.00  0.00    -0.000 C 
BRANCH  17  18
ATOM     18  C   UNL     1      18.492 -16.235 -15.504  1.00  0.00    -0.000 C 
BRANCH  18  19
ATOM     19  C   UNL     1      17.773 -14.903 -15.790  1.00  0.00    -0.003 C 
ATOM     20  C   UNL     1      16.562 -15.062 -16.707  1.00  0.00     0.004 C 
ENDBRANCH  18  19
ENDBRANCH  17  18
ENDBRANCH  16  17
ENDBRANCH  15  16
ENDBRANCH  14  15
ENDBRANCH  13  14
ENDBRANCH  12  13
ENDBRANCH   1  12
TORSDOF 16
ENDMDL
MODEL 4
REMARK VINA RESULT:    -4.300      1.036      2.379
REMARK INTER + INTRA:          -9.007
REMARK INTER:                  -7.979
REMARK INTRA:                  -1.027
REMARK UNBOUND:                -0.684
REMARK SMILES CCCCCCCCCCCCCCCCCC(=O)[O-]
REMARK SMILES IDX 10 1 11 2 12 3 13 4 14 5 15 6 16 7 17 8 18 9 19 10 20 11
REMARK SMILES IDX 9 12 8 13 7 14 6 15 5 16 4 17 3 18 2 19 1 20
REMARK H PARENT
REMARK Flexibility Score: inf
ROOT
ATOM      1  C   UNL     1      23.427 -19.216 -17.663  1.00  0.00     0.000 C 
ENDROOT
BRANCH   1   2
ATOM      2  C   UNL     1      23.937 -18.321 -16.512  1.00  0.00     0.000 C 
BRANCH   2   3
ATOM      3  C   UNL     1      23.923 -16.819 -16.845  1.00  0.00     0.000 C 
BRANCH   3   4
ATOM      4  C   UNL     1      22.646 -16.384 -17.583  1.00  0.00     0.000 C 
BRANCH   4   5
ATOM      5  C   UNL     1      21.564 -15.856 -16.624  1.00  0.00     0.000 C 
BRANCH   5   6
ATOM      6  C   UNL     1      20.328 -16.769 -16.575  1.00  0.00     0.000 C 
BRANCH   6   7
ATOM      7  C   UNL     1      19.194 -16.199 -15.704  1.00  0.00     0.006 C 
BRANCH   7   8
ATOM      8  C   UNL     1      18.545 -14.925 -16.275  1.00  0.00     0.053 C 
BRANCH   8   9
ATOM      9  C   UNL     1      17.081 -14.833 -15.968  1.00  0.00     0.041 C 
ATOM     10  O   UNL     1      16.682 -14.810 -14.774  1.00  0.00    -0.550 OA
ATOM     11  O   UNL     1      16.154 -14.805 -17.003  1.00  0.00    -0.550 OA
ENDBRANCH   8   9
ENDBRANCH   7   8
ENDBRANCH   6   7
ENDBRANCH   5   6
ENDBRANCH   4   5
ENDBRANCH   3   4
ENDBRANCH   2   3
ENDBRANCH   1   2
BRANCH   1  12
ATOM     12  C   UNL     1      22.110 -19.926 -17.305  1.00  0.00     0.000 C 
BRANCH  12  13
ATOM     13  C   UNL     1      21.030 -19.761 -18.397  1.00  0.00    -0.000 C 
BRANCH  13  14
ATOM     14  C   UNL     1      20.957 -20.940 -19.385  1.00  0.00    -0.000 C 
BRANCH  14  15
ATOM     15  C   UNL     1      20.184 -22.173 -18.880  1.00  0.00    -0.000 C 
BRANCH  15  16
ATOM     16  C   UNL     1      18.895 -22.505 -19.658  1.00  0.00    -0.000 C 
BRANCH  16  17
ATOM     17  C   UNL     1      18.406 -23.943 -19.418  1.00  0.00    -0.000 C 
BRANCH  17  18
ATOM     18  C   UNL     1      16.887 -24.027 -19.183  1.00  0.00    -0.000 C 
BRANCH  18  19
ATOM     19  C   UNL     1      16.430 -23.719 -17.745  1.00  0.00    -0.003 C 
ATOM     20  C   UNL     1      14.911 -23.707 -17.588  1.00  0.00     0.004 C 
ENDBRANCH  18  19
ENDBRANCH  17  18
ENDBRANCH  16  17
ENDBRANCH  15  16
ENDBRANCH  14  15
ENDBRANCH  13  14
ENDBRANCH  12  13
ENDBRANCH   1  12
TORSDOF 16
ENDMDL
MODEL 5
REMARK VINA RESULT:    -4.254     12.169     14.122
REMARK INTER + INTRA:          -8.917
REMARK INTER:                  -7.804
REMARK INTRA:                  -1.113
REMARK UNBOUND:                -0.684
REMARK SMILES CCCCCCCCCCCCCCCCCC(=O)[O-]
REMARK SMILES IDX 10 1 11 2 12 3 13 4 14 5 15 6 16 7 17 8 18 9 19 10 20 11
REMARK SMILES IDX 9 12 8 13 7 14 6 15 5 16 4 17 3 18 2 19 1 20
REMARK H PARENT
REMARK Flexibility Score: inf
ROOT
ATOM      1  C   UNL     1       7.014 -21.110 -16.895  1.00  0.00     0.000 C 
ENDROOT
BRANCH   1   2
ATOM      2  C   UNL     1       5.491 -21.035 -17.140  1.00  0.00     0.000 C 
BRANCH   2   3
ATOM      3  C   UNL     1       5.093 -21.215 -18.614  1.00  0.00     0.000 C 
BRANCH   3   4
ATOM      4  C   UNL     1       6.256 -20.947 -19.584  1.00  0.00     0.000 C 
BRANCH   4   5
ATOM      5  C   UNL     1       5.832 -20.089 -20.788  1.00  0.00     0.000 C 
BRANCH   5   6
ATOM      6  C   UNL     1       4.915 -18.923 -20.383  1.00  0.00     0.000 C 
BRANCH   6   7
ATOM      7  C   UNL     1       5.642 -17.845 -19.558  1.00  0.00     0.006 C 
BRANCH   7   8
ATOM      8  C   UNL     1       6.221 -16.694 -20.401  1.00  0.00     0.053 C 
BRANCH   8   9
ATOM      9  C   UNL     1       6.289 -15.401 -19.646  1.00  0.00     0.041 C 
ATOM     10  O   UNL     1       5.518 -15.192 -18.672  1.00  0.00    -0.550 OA
ATOM     11  O   UNL     1       7.183 -14.413 -20.039  1.00  0.00    -0.550 OA
ENDBRANCH   8   9
ENDBRANCH   7   8
ENDBRANCH   6   7
ENDBRANCH   5   6
ENDBRANCH   4   5
ENDBRANCH   3   4
ENDBRANCH   2   3
ENDBRANCH   1   2
BRANCH   1  12
ATOM     12  C   UNL     1       7.398 -20.643 -15.480  1.00  0.00     0.000 C 
BRANCH  12  13
ATOM     13  C   UNL     1       6.490 -19.506 -14.962  1.00  0.00    -0.000 C 
BRANCH  13  14
ATOM     14  C   UNL     1       5.592 -19.917 -13.780  1.00  0.00    -0.000 C 
BRANCH  14  15
ATOM     15  C   UNL     1       5.831 -21.339 -13.237  1.00  0.00    -0.000 C 
BRANCH  15  16
ATOM     16  C   UNL     1       5.093 -21.674 -11.926  1.00  0.00    -0.000 C 
BRANCH  16  17
ATOM     17  C   UNL     1       5.373 -23.103 -11.431  1.00  0.00    -0.000 C 
BRANCH  17  18
ATOM     18  C   UNL     1       5.637 -23.171  -9.916  1.00  0.00    -0.000 C 
BRANCH  18  19
ATOM     19  C   UNL     1       5.484 -21.834  -9.166  1.00  0.00    -0.003 C 
ATOM     20  C   UNL     1       6.652 -21.536  -8.228  1.00  0.00     0.004 C 
ENDBRANCH  18  19
ENDBRANCH  17  18
ENDBRANCH  16  17
ENDBRANCH  15  16
ENDBRANCH  14  15
ENDBRANCH  13  14
ENDBRANCH  12  13
ENDBRANCH   1  12
TORSDOF 16
ENDMDL
MODEL 6
REMARK VINA RESULT:    -4.134      2.251      3.356
REMARK INTER + INTRA:          -8.686
REMARK INTER:                  -7.377
REMARK INTRA:                  -1.309
REMARK UNBOUND:                -0.684
REMARK SMILES CCCCCCCCCCCCCCCCCC(=O)[O-]
REMARK SMILES IDX 10 1 11 2 12 3 13 4 14 5 15 6 16 7 17 8 18 9 19 10 20 11
REMARK SMILES IDX 9 12 8 13 7 14 6 15 5 16 4 17 3 18 2 19 1 20
REMARK H PARENT
REMARK Flexibility Score: inf
ROOT
ATOM      1  C   UNL     1      20.388 -22.112 -18.878  1.00  0.00     0.000 C 
ENDROOT
BRANCH   1   2
ATOM      2  C   UNL     1      20.201 -20.695 -19.462  1.00  0.00     0.000 C 
BRANCH   2   3
ATOM      3  C   UNL     1      20.975 -19.605 -18.701  1.00  0.00     0.000 C 
BRANCH   3   4
ATOM      4  C   UNL     1      21.986 -20.184 -17.697  1.00  0.00     0.000 C 
BRANCH   4   5
ATOM      5  C   UNL     1      23.361 -19.500 -17.787  1.00  0.00     0.000 C 
BRANCH   5   6
ATOM      6  C   UNL     1      23.614 -18.534 -16.618  1.00  0.00     0.000 C 
BRANCH   6   7
ATOM      7  C   UNL     1      23.949 -17.104 -17.081  1.00  0.00     0.006 C 
BRANCH   7   8
ATOM      8  C   UNL     1      22.788 -16.388 -17.795  1.00  0.00     0.053 C 
BRANCH   8   9
ATOM      9  C   UNL     1      21.694 -15.980 -16.857  1.00  0.00     0.041 C 
ATOM     10  O   UNL     1      21.754 -14.877 -16.250  1.00  0.00    -0.550 OA
ATOM     11  O   UNL     1      20.620 -16.832 -16.627  1.00  0.00    -0.550 OA
ENDBRANCH   8   9
ENDBRANCH   7   8
ENDBRANCH   6   7
ENDBRANCH   5   6
ENDBRANCH   4   5
ENDBRANCH   3   4
ENDBRANCH   2   3
ENDBRANCH   1   2
BRANCH   1  12
ATOM     12  C   UNL     1      19.506 -23.153 -19.588  1.00  0.00     0.000 C 
BRANCH  12  13
ATOM     13  C   UNL     1      17.997 -22.857 -19.438  1.00  0.00    -0.000 C 
BRANCH  13  14
ATOM     14  C   UNL     1      17.198 -24.005 -18.794  1.00  0.00    -0.000 C 
BRANCH  14  15
ATOM     15  C   UNL     1      16.416 -23.626 -17.521  1.00  0.00    -0.000 C 
BRANCH  15  16
ATOM     16  C   UNL     1      14.971 -23.144 -17.758  1.00  0.00    -0.000 C 
BRANCH  16  17
ATOM     17  C   UNL     1      14.265 -23.907 -18.892  1.00  0.00    -0.000 C 
BRANCH  17  18
ATOM     18  C   UNL     1      13.893 -23.002 -20.081  1.00  0.00    -0.000 C 
BRANCH  18  19
ATOM     19  C   UNL     1      14.434 -21.563 -20.000  1.00  0.00    -0.003 C 
ATOM     20  C   UNL     1      13.381 -20.507 -20.334  1.00  0.00     0.004 C 
ENDBRANCH  18  19
ENDBRANCH  17  18
ENDBRANCH  16  17
ENDBRANCH  15  16
ENDBRANCH  14  15
ENDBRANCH  13  14
ENDBRANCH  12  13
ENDBRANCH   1  12
TORSDOF 16
ENDMDL
MODEL 7
REMARK VINA RESULT:    -4.113      1.508      2.128
REMARK INTER + INTRA:          -8.644
REMARK INTER:                  -7.507
REMARK INTRA:                  -1.138
REMARK UNBOUND:                -0.684
REMARK SMILES CCCCCCCCCCCCCCCCCC(=O)[O-]
REMARK SMILES IDX 10 1 11 2 12 3 13 4 14 5 15 6 16 7 17 8 18 9 19 10 20 11
REMARK SMILES IDX 9 12 8 13 7 14 6 15 5 16 4 17 3 18 2 19 1 20
REMARK H PARENT
REMARK Flexibility Score: inf
ROOT
ATOM      1  C   UNL     1      21.160 -19.587 -18.194  1.00  0.00     0.000 C 
ENDROOT
BRANCH   1   2
ATOM      2  C   UNL     1      22.458 -19.550 -17.358  1.00  0.00     0.000 C 
BRANCH   2   3
ATOM      3  C   UNL     1      23.445 -18.456 -17.799  1.00  0.00     0.000 C 
BRANCH   3   4
ATOM      4  C   UNL     1      24.244 -17.866 -16.625  1.00  0.00     0.000 C 
BRANCH   4   5
ATOM      5  C   UNL     1      23.766 -16.456 -16.238  1.00  0.00     0.000 C 
BRANCH   5   6
ATOM      6  C   UNL     1      22.685 -15.921 -17.192  1.00  0.00     0.000 C 
BRANCH   6   7
ATOM      7  C   UNL     1      21.397 -15.495 -16.463  1.00  0.00     0.006 C 
BRANCH   7   8
ATOM      8  C   UNL     1      20.252 -16.520 -16.563  1.00  0.00     0.053 C 
BRANCH   8   9
ATOM      9  C   UNL     1      19.029 -16.097 -15.808  1.00  0.00     0.041 C 
ATOM     10  O   UNL     1      18.659 -16.736 -14.788  1.00  0.00    -0.550 OA
ATOM     11  O   UNL     1      18.279 -15.015 -16.250  1.00  0.00    -0.550 OA
ENDBRANCH   8   9
ENDBRANCH   7   8
ENDBRANCH   6   7
ENDBRANCH   5   6
ENDBRANCH   4   5
ENDBRANCH   3   4
ENDBRANCH   2   3
ENDBRANCH   1   2
BRANCH   1  12
ATOM     12  C   UNL     1      20.822 -21.008 -18.678  1.00  0.00     0.000 C 
BRANCH  12  13
ATOM     13  C   UNL     1      20.335 -21.037 -20.143  1.00  0.00    -0.000 C 
BRANCH  13  14
ATOM     14  C   UNL     1      19.812 -22.412 -20.598  1.00  0.00    -0.000 C 
BRANCH  14  15
ATOM     15  C   UNL     1      18.569 -22.924 -19.845  1.00  0.00    -0.000 C 
BRANCH  15  16
ATOM     16  C   UNL     1      17.262 -22.163 -20.143  1.00  0.00    -0.000 C 
BRANCH  16  17
ATOM     17  C   UNL     1      16.049 -22.745 -19.395  1.00  0.00    -0.000 C 
BRANCH  17  18
ATOM     18  C   UNL     1      16.436 -23.434 -18.073  1.00  0.00    -0.000 C 
BRANCH  18  19
ATOM     19  C   UNL     1      15.255 -23.772 -17.144  1.00  0.00    -0.003 C 
ATOM     20  C   UNL     1      14.674 -22.545 -16.444  1.00  0.00     0.004 C 
ENDBRANCH  18  19
ENDBRANCH  17  18
ENDBRANCH  16  17
ENDBRANCH  15  16
ENDBRANCH  14  15
ENDBRANCH  13  14
ENDBRANCH  12  13
ENDBRANCH   1  12
TORSDOF 16
ENDMDL
MODEL 8
REMARK VINA RESULT:    -4.038      1.400      2.707
REMARK INTER + INTRA:          -8.500
REMARK INTER:                  -7.384
REMARK INTRA:                  -1.116
REMARK UNBOUND:                -0.684
REMARK SMILES CCCCCCCCCCCCCCCCCC(=O)[O-]
REMARK SMILES IDX 10 1 11 2 12 3 13 4 14 5 15 6 16 7 17 8 18 9 19 10 20 11
REMARK SMILES IDX 9 12 8 13 7 14 6 15 5 16 4 17 3 18 2 19 1 20
REMARK H PARENT
REMARK Flexibility Score: inf
ROOT
ATOM      1  C   UNL     1      19.437 -22.131 -19.294  1.00  0.00     0.000 C 
ENDROOT
BRANCH   1   2
ATOM      2  C   UNL     1      20.916 -22.317 -19.697  1.00  0.00     0.000 C 
BRANCH   2   3
ATOM      3  C   UNL     1      21.778 -21.061 -19.484  1.00  0.00     0.000 C 
BRANCH   3   4
ATOM      4  C   UNL     1      21.098 -20.018 -18.581  1.00  0.00     0.000 C 
BRANCH   4   5
ATOM      5  C   UNL     1      21.980 -19.607 -17.390  1.00  0.00     0.000 C 
BRANCH   5   6
ATOM      6  C   UNL     1      21.860 -18.110 -17.061  1.00  0.00     0.000 C 
BRANCH   6   7
ATOM      7  C   UNL     1      20.407 -17.663 -16.814  1.00  0.00     0.006 C 
BRANCH   7   8
ATOM      8  C   UNL     1      20.267 -16.184 -16.409  1.00  0.00     0.053 C 
BRANCH   8   9
ATOM      9  C   UNL     1      18.936 -15.876 -15.793  1.00  0.00     0.041 C 
ATOM     10  O   UNL     1      18.424 -16.666 -14.956  1.00  0.00    -0.550 OA
ATOM     11  O   UNL     1      18.245 -14.730 -16.167  1.00  0.00    -0.550 OA
ENDBRANCH   8   9
ENDBRANCH   7   8
ENDBRANCH   6   7
ENDBRANCH   5   6
ENDBRANCH   4   5
ENDBRANCH   3   4
ENDBRANCH   2   3
ENDBRANCH   1   2
BRANCH   1  12
ATOM     12  C   UNL     1      18.635 -23.439 -19.410  1.00  0.00     0.000 C 
BRANCH  12  13
ATOM     13  C   UNL     1      17.679 -23.445 -20.623  1.00  0.00    -0.000 C 
BRANCH  13  14
ATOM     14  C   UNL     1      17.030 -22.078 -20.911  1.00  0.00    -0.000 C 
BRANCH  14  15
ATOM     15  C   UNL     1      15.494 -22.094 -21.035  1.00  0.00    -0.000 C 
BRANCH  15  16
ATOM     16  C   UNL     1      14.726 -21.893 -19.714  1.00  0.00    -0.000 C 
BRANCH  16  17
ATOM     17  C   UNL     1      13.855 -23.104 -19.338  1.00  0.00    -0.000 C 
BRANCH  17  18
ATOM     18  C   UNL     1      14.649 -24.211 -18.619  1.00  0.00    -0.000 C 
BRANCH  18  19
ATOM     19  C   UNL     1      15.508 -23.733 -17.434  1.00  0.00    -0.003 C 
ATOM     20  C   UNL     1      14.808 -22.684 -16.571  1.00  0.00     0.004 C 
ENDBRANCH  18  19
ENDBRANCH  17  18
ENDBRANCH  16  17
ENDBRANCH  15  16
ENDBRANCH  14  15
ENDBRANCH  13  14
ENDBRANCH  12  13
ENDBRANCH   1  12
TORSDOF 16
ENDMDL
MODEL 9
REMARK VINA RESULT:    -4.008     13.012     14.798
REMARK INTER + INTRA:          -8.441
REMARK INTER:                  -7.386
REMARK INTRA:                  -1.055
REMARK UNBOUND:                -0.684
REMARK SMILES CCCCCCCCCCCCCCCCCC(=O)[O-]
REMARK SMILES IDX 10 1 11 2 12 3 13 4 14 5 15 6 16 7 17 8 18 9 19 10 20 11
REMARK SMILES IDX 9 12 8 13 7 14 6 15 5 16 4 17 3 18 2 19 1 20
REMARK H PARENT
REMARK Flexibility Score: inf
ROOT
ATOM      1  C   UNL     1       6.013 -18.571 -15.965  1.00  0.00     0.000 C 
ENDROOT
BRANCH   1   2
ATOM      2  C   UNL     1       4.925 -17.743 -16.684  1.00  0.00     0.000 C 
BRANCH   2   3
ATOM      3  C   UNL     1       5.489 -16.679 -17.639  1.00  0.00     0.000 C 
BRANCH   3   4
ATOM      4  C   UNL     1       4.894 -16.771 -19.054  1.00  0.00     0.000 C 
BRANCH   4   5
ATOM      5  C   UNL     1       5.828 -17.495 -20.039  1.00  0.00     0.000 C 
BRANCH   5   6
ATOM      6  C   UNL     1       5.188 -18.762 -20.630  1.00  0.00     0.000 C 
BRANCH   6   7
ATOM      7  C   UNL     1       5.888 -20.057 -20.175  1.00  0.00     0.006 C 
BRANCH   7   8
ATOM      8  C   UNL     1       5.308 -20.661 -18.883  1.00  0.00     0.053 C 
BRANCH   8   9
ATOM      9  C   UNL     1       6.142 -21.783 -18.344  1.00  0.00     0.041 C 
ATOM     10  O   UNL     1       7.019 -21.559 -17.468  1.00  0.00    -0.550 OA
ATOM     11  O   UNL     1       5.971 -23.073 -18.830  1.00  0.00    -0.550 OA
ENDBRANCH   8   9
ENDBRANCH   7   8
ENDBRANCH   6   7
ENDBRANCH   5   6
ENDBRANCH   4   5
ENDBRANCH   3   4
ENDBRANCH   2   3
ENDBRANCH   1   2
BRANCH   1  12
ATOM     12  C   UNL     1       5.787 -18.631 -14.444  1.00  0.00     0.000 C 
BRANCH  12  13
ATOM     13  C   UNL     1       4.990 -19.880 -14.010  1.00  0.00    -0.000 C 
BRANCH  13  14
ATOM     14  C   UNL     1       5.867 -21.017 -13.455  1.00  0.00    -0.000 C 
BRANCH  14  15
ATOM     15  C   UNL     1       5.097 -22.190 -12.819  1.00  0.00    -0.000 C 
BRANCH  15  16
ATOM     16  C   UNL     1       5.488 -22.521 -11.365  1.00  0.00    -0.000 C 
BRANCH  16  17
ATOM     17  C   UNL     1       5.896 -23.992 -11.176  1.00  0.00    -0.000 C 
BRANCH  17  18
ATOM     18  C   UNL     1       5.744 -24.473  -9.721  1.00  0.00    -0.000 C 
BRANCH  18  19
ATOM     19  C   UNL     1       5.919 -23.381  -8.650  1.00  0.00    -0.003 C 
ATOM     20  C   UNL     1       5.717 -23.898  -7.228  1.00  0.00     0.004 C 
ENDBRANCH  18  19
ENDBRANCH  17  18
ENDBRANCH  16  17
ENDBRANCH  15  16
ENDBRANCH  14  15
ENDBRANCH  13  14
ENDBRANCH  12  13
ENDBRANCH   1  12
TORSDOF 16
ENDMDL
