MODEL 1
REMARK VINA RESULT:    -4.535      0.000      0.000
REMARK INTER + INTRA:         -10.198
REMARK INTER:                  -8.247
REMARK INTRA:                  -1.951
REMARK UNBOUND:                -1.951
REMARK SMILES CCCCCCCCCCCCCCCC(=O)[O-]
REMARK SMILES IDX 9 1 10 2 11 3 12 4 13 5 14 6 15 7 16 8 17 9 18 10 8 11 7 12
REMARK SMILES IDX 6 13 5 14 4 15 3 16 2 17 1 18
REMARK H PARENT
REMARK Flexibility Score: inf
ROOT
ATOM      1  C   UNL     1       0.433 -24.508 -15.143  1.00  0.00     0.000 C 
ENDROOT
BRANCH   1   2
ATOM      2  C   UNL     1       0.026 -23.368 -16.093  1.00  0.00     0.000 C 
BRANCH   2   3
ATOM      3  C   UNL     1       0.922 -22.121 -15.924  1.00  0.00     0.000 C 
BRANCH   3   4
ATOM      4  C   UNL     1       0.247 -20.972 -15.151  1.00  0.00     0.000 C 
BRANCH   4   5
ATOM      5  C   UNL     1       1.186 -20.175 -14.229  1.00  0.00     0.000 C 
BRANCH   5   6
ATOM      6  C   UNL     1       2.452 -20.963 -13.847  1.00  0.00     0.006 C 
BRANCH   6   7
ATOM      7  C   UNL     1       3.167 -20.351 -12.636  1.00  0.00     0.053 C 
BRANCH   7   8
ATOM      8  C   UNL     1       4.229 -21.263 -12.102  1.00  0.00     0.041 C 
ATOM      9  O   UNL     1       5.427 -21.121 -12.464  1.00  0.00    -0.550 OA
ATOM     10  O   UNL     1       3.890 -22.295 -11.234  1.00  0.00    -0.550 OA
ENDBRANCH   7   8
ENDBRANCH   6   7
ENDBRANCH   5   6
ENDBRANCH   4   5
ENDBRANCH   3   4
ENDBRANCH   2   3
ENDBRANCH   1   2
BRANCH   1  11
ATOM     11  C   UNL     1      -0.685 -24.889 -14.158  1.00  0.00     0.000 C 
BRANCH  11  12
ATOM     12  C   UNL     1      -0.712 -23.979 -12.918  1.00  0.00    -0.000 C 
BRANCH  12  13
ATOM     13  C   UNL     1       0.694 -23.667 -12.379  1.00  0.00    -0.000 C 
BRANCH  13  14
ATOM     14  C   UNL     1       1.292 -24.828 -11.565  1.00  0.00    -0.000 C 
BRANCH  14  15
ATOM     15  C   UNL     1       0.661 -24.954 -10.168  1.00  0.00    -0.000 C 
BRANCH  15  16
ATOM     16  C   UNL     1       0.065 -26.349  -9.914  1.00  0.00    -0.000 C 
BRANCH  16  17
ATOM     17  C   UNL     1       0.206 -27.280 -11.128  1.00  0.00    -0.003 C 
ATOM     18  C   UNL     1      -1.141 -27.676 -11.733  1.00  0.00     0.004 C 
ENDBRANCH  16  17
ENDBRANCH  15  16
ENDBRANCH  14  15
ENDBRANCH  13  14
ENDBRANCH  12  13
ENDBRANCH  11  12
ENDBRANCH   1  11
TORSDOF 14
ENDMDL
MODEL 2
REMARK VINA RESULT:    -4.337      1.620      3.393
REMARK INTER + INTRA:          -9.837
REMARK INTER:                  -7.874
REMARK INTRA:                  -1.963
REMARK UNBOUND:                -1.951
REMARK SMILES CCCCCCCCCCCCCCCC(=O)[O-]
REMARK SMILES IDX 9 1 10 2 11 3 12 4 13 5 14 6 15 7 16 8 17 9 18 10 8 11 7 12
REMARK SMILES IDX 6 13 5 14 4 15 3 16 2 17 1 18
REMARK H PARENT
REMARK Flexibility Score: inf
ROOT
ATOM      1  C   UNL     1      -1.972 -21.264 -13.937  1.00  0.00     0.000 C 
ENDROOT
BRANCH   1   2
ATOM      2  C   UNL     1      -1.574 -19.780 -13.851  1.00  0.00     0.000 C 
BRANCH   2   3
ATOM      3  C   UNL     1      -0.076 -19.597 -13.524  1.00  0.00     0.000 C 
BRANCH   3   4
ATOM      4  C   UNL     1       0.868 -20.082 -14.643  1.00  0.00     0.000 C 
BRANCH   4   5
ATOM      5  C   UNL     1       2.118 -20.831 -14.152  1.00  0.00     0.000 C 
BRANCH   5   6
ATOM      6  C   UNL     1       3.037 -19.951 -13.287  1.00  0.00     0.006 C 
BRANCH   6   7
ATOM      7  C   UNL     1       3.111 -20.446 -11.837  1.00  0.00     0.053 C 
BRANCH   7   8
ATOM      8  C   UNL     1       4.234 -21.418 -11.640  1.00  0.00     0.041 C 
ATOM      9  O   UNL     1       4.192 -22.252 -10.697  1.00  0.00    -0.550 OA
ATOM     10  O   UNL     1       5.346 -21.376 -12.473  1.00  0.00    -0.550 OA
ENDBRANCH   7   8
ENDBRANCH   6   7
ENDBRANCH   5   6
ENDBRANCH   4   5
ENDBRANCH   3   4
ENDBRANCH   2   3
ENDBRANCH   1   2
BRANCH   1  11
ATOM     11  C   UNL     1      -2.421 -21.679 -15.348  1.00  0.00     0.000 C 
BRANCH  11  12
ATOM     12  C   UNL     1      -2.342 -23.200 -15.568  1.00  0.00    -0.000 C 
BRANCH  12  13
ATOM     13  C   UNL     1      -1.147 -23.614 -16.442  1.00  0.00    -0.000 C 
BRANCH  13  14
ATOM     14  C   UNL     1       0.192 -23.565 -15.685  1.00  0.00    -0.000 C 
BRANCH  14  15
ATOM     15  C   UNL     1       0.601 -24.937 -15.125  1.00  0.00    -0.000 C 
BRANCH  15  16
ATOM     16  C   UNL     1       0.252 -25.093 -13.635  1.00  0.00    -0.000 C 
BRANCH  16  17
ATOM     17  C   UNL     1       0.306 -23.759 -12.874  1.00  0.00    -0.003 C 
ATOM     18  C   UNL     1       1.148 -23.836 -11.601  1.00  0.00     0.004 C 
ENDBRANCH  16  17
ENDBRANCH  15  16
ENDBRANCH  14  15
ENDBRANCH  13  14
ENDBRANCH  12  13
ENDBRANCH  11  12
ENDBRANCH   1  11
TORSDOF 14
ENDMDL
MODEL 3
REMARK VINA RESULT:    -4.209      1.128      2.402
REMARK INTER + INTRA:          -9.605
REMARK INTER:                  -8.163
REMARK INTRA:                  -1.442
REMARK UNBOUND:                -1.951
REMARK SMILES CCCCCCCCCCCCCCCC(=O)[O-]
REMARK SMILES IDX 9 1 10 2 11 3 12 4 13 5 14 6 15 7 16 8 17 9 18 10 8 11 7 12
REMARK SMILES IDX 6 13 5 14 4 15 3 16 2 17 1 18
REMARK H PARENT
REMARK Flexibility Score: inf
ROOT
ATOM      1  C   UNL     1       0.809 -21.990 -15.772  1.00  0.00     0.000 C 
ENDROOT
BRANCH   1   2
ATOM      2  C   UNL     1       0.168 -20.872 -14.929  1.00  0.00     0.000 C 
BRANCH   2   3
ATOM      3  C   UNL     1       1.127 -20.341 -13.842  1.00  0.00     0.000 C 
BRANCH   3   4
ATOM      4  C   UNL     1       2.604 -20.713 -14.080  1.00  0.00     0.000 C 
BRANCH   4   5
ATOM      5  C   UNL     1       3.602 -20.036 -13.125  1.00  0.00     0.000 C 
BRANCH   5   6
ATOM      6  C   UNL     1       4.475 -21.049 -12.364  1.00  0.00     0.006 C 
BRANCH   6   7
ATOM      7  C   UNL     1       3.650 -21.913 -11.403  1.00  0.00     0.053 C 
BRANCH   7   8
ATOM      8  C   UNL     1       3.501 -21.262 -10.062  1.00  0.00     0.041 C 
ATOM      9  O   UNL     1       2.545 -21.581  -9.305  1.00  0.00    -0.550 OA
ATOM     10  O   UNL     1       4.393 -20.273  -9.663  1.00  0.00    -0.550 OA
ENDBRANCH   7   8
ENDBRANCH   6   7
ENDBRANCH   5   6
ENDBRANCH   4   5
ENDBRANCH   3   4
ENDBRANCH   2   3
ENDBRANCH   1   2
BRANCH   1  11
ATOM     11  C   UNL     1      -0.115 -23.205 -15.950  1.00  0.00     0.000 C 
BRANCH  11  12
ATOM     12  C   UNL     1       0.408 -24.455 -15.221  1.00  0.00    -0.000 C 
BRANCH  12  13
ATOM     13  C   UNL     1      -0.214 -24.635 -13.827  1.00  0.00    -0.000 C 
BRANCH  13  14
ATOM     14  C   UNL     1       0.663 -24.057 -12.702  1.00  0.00    -0.000 C 
BRANCH  14  15
ATOM     15  C   UNL     1       1.091 -25.125 -11.682  1.00  0.00    -0.000 C 
BRANCH  15  16
ATOM     16  C   UNL     1       0.119 -25.228 -10.494  1.00  0.00    -0.000 C 
BRANCH  16  17
ATOM     17  C   UNL     1      -0.411 -26.656 -10.289  1.00  0.00    -0.003 C 
ATOM     18  C   UNL     1       0.344 -27.694 -11.120  1.00  0.00     0.004 C 
ENDBRANCH  16  17
ENDBRANCH  15  16
ENDBRANCH  14  15
ENDBRANCH  13  14
ENDBRANCH  12  13
ENDBRANCH  11  12
ENDBRANCH   1  11
TORSDOF 14
ENDMDL
MODEL 4
REMARK VINA RESULT:    -4.198     10.370     12.013
REMARK INTER + INTRA:          -9.586
REMARK INTER:                  -7.744
REMARK INTRA:                  -1.841
REMARK UNBOUND:                -1.951
REMARK SMILES CCCCCCCCCCCCCCCC(=O)[O-]
REMARK SMILES IDX 9 1 10 2 11 3 12 4 13 5 14 6 15 7 16 8 17 9 18 10 8 11 7 12
REMARK SMILES IDX 6 13 5 14 4 15 3 16 2 17 1 18
REMARK H PARENT
REMARK Flexibility Score: inf
ROOT
ATOM      1  C   UNL     1      -6.397 -23.134  -7.951  1.00  0.00     0.000 C 
ENDROOT
BRANCH   1   2
ATOM      2  C   UNL     1      -6.671 -21.620  -7.980  1.00  0.00     0.000 C 
BRANCH   2   3
ATOM      3  C   UNL     1      -7.002 -21.060  -6.579  1.00  0.00     0.000 C 
BRANCH   3   4
ATOM      4  C   UNL     1      -6.573 -19.594  -6.379  1.00  0.00     0.000 C 
BRANCH   4   5
ATOM      5  C   UNL     1      -7.573 -18.732  -5.589  1.00  0.00     0.000 C 
BRANCH   5   6
ATOM      6  C   UNL     1      -8.997 -19.315  -5.599  1.00  0.00     0.006 C 
BRANCH   6   7
ATOM      7  C   UNL     1      -9.855 -18.721  -6.723  1.00  0.00     0.053 C 
BRANCH   7   8
ATOM      8  C   UNL     1     -10.527 -19.789  -7.530  1.00  0.00     0.041 C 
ATOM      9  O   UNL     1     -10.521 -19.731  -8.788  1.00  0.00    -0.550 OA
ATOM     10  O   UNL     1     -11.196 -20.828  -6.893  1.00  0.00    -0.550 OA
ENDBRANCH   7   8
ENDBRANCH   6   7
ENDBRANCH   5   6
ENDBRANCH   4   5
ENDBRANCH   3   4
ENDBRANCH   2   3
ENDBRANCH   1   2
BRANCH   1  11
ATOM     11  C   UNL     1      -7.001 -23.824  -6.718  1.00  0.00     0.000 C 
BRANCH  11  12
ATOM     12  C   UNL     1      -5.974 -24.686  -5.962  1.00  0.00    -0.000 C 
BRANCH  12  13
ATOM     13  C   UNL     1      -5.851 -24.300  -4.479  1.00  0.00    -0.000 C 
BRANCH  13  14
ATOM     14  C   UNL     1      -4.420 -23.890  -4.087  1.00  0.00    -0.000 C 
BRANCH  14  15
ATOM     15  C   UNL     1      -3.936 -22.644  -4.847  1.00  0.00    -0.000 C 
BRANCH  15  16
ATOM     16  C   UNL     1      -4.302 -21.335  -4.126  1.00  0.00    -0.000 C 
BRANCH  16  17
ATOM     17  C   UNL     1      -4.988 -21.580  -2.773  1.00  0.00    -0.003 C 
ATOM     18  C   UNL     1      -6.348 -20.891  -2.664  1.00  0.00     0.004 C 
ENDBRANCH  16  17
ENDBRANCH  15  16
ENDBRANCH  14  15
ENDBRANCH  13  14
ENDBRANCH  12  13
ENDBRANCH  11  12
ENDBRANCH   1  11
TORSDOF 14
ENDMDL
MODEL 5
REMARK VINA RESULT:    -4.171      1.638      4.470
REMARK INTER + INTRA:          -9.535
REMARK INTER:                  -7.091
REMARK INTRA:                  -2.445
REMARK UNBOUND:                -1.951
REMARK SMILES CCCCCCCCCCCCCCCC(=O)[O-]
REMARK SMILES IDX 9 1 10 2 11 3 12 4 13 5 14 6 15 7 16 8 17 9 18 10 8 11 7 12
REMARK SMILES IDX 6 13 5 14 4 15 3 16 2 17 1 18
REMARK H PARENT
REMARK Flexibility Score: inf
ROOT
ATOM      1  C   UNL     1      -1.286 -24.907 -13.311  1.00  0.00     0.000 C 
ENDROOT
BRANCH   1   2
ATOM      2  C   UNL     1       0.216 -25.241 -13.267  1.00  0.00     0.000 C 
BRANCH   2   3
ATOM      3  C   UNL     1       0.932 -24.552 -12.085  1.00  0.00     0.000 C 
BRANCH   3   4
ATOM      4  C   UNL     1       0.116 -23.412 -11.444  1.00  0.00     0.000 C 
BRANCH   4   5
ATOM      5  C   UNL     1       0.955 -22.232 -10.925  1.00  0.00     0.000 C 
BRANCH   5   6
ATOM      6  C   UNL     1       2.401 -22.255 -11.449  1.00  0.00     0.006 C 
BRANCH   6   7
ATOM      7  C   UNL     1       2.973 -20.843 -11.623  1.00  0.00     0.053 C 
BRANCH   7   8
ATOM      8  C   UNL     1       4.213 -20.847 -12.464  1.00  0.00     0.041 C 
ATOM      9  O   UNL     1       5.176 -21.603 -12.171  1.00  0.00    -0.550 OA
ATOM     10  O   UNL     1       4.321 -19.985 -13.549  1.00  0.00    -0.550 OA
ENDBRANCH   7   8
ENDBRANCH   6   7
ENDBRANCH   5   6
ENDBRANCH   4   5
ENDBRANCH   3   4
ENDBRANCH   2   3
ENDBRANCH   1   2
BRANCH   1  11
ATOM     11  C   UNL     1      -1.871 -24.984 -14.731  1.00  0.00     0.000 C 
BRANCH  11  12
ATOM     12  C   UNL     1      -2.200 -23.596 -15.308  1.00  0.00    -0.000 C 
BRANCH  12  13
ATOM     13  C   UNL     1      -1.419 -23.287 -16.595  1.00  0.00    -0.000 C 
BRANCH  13  14
ATOM     14  C   UNL     1       0.095 -23.516 -16.443  1.00  0.00    -0.000 C 
BRANCH  14  15
ATOM     15  C   UNL     1       0.881 -22.198 -16.337  1.00  0.00    -0.000 C 
BRANCH  15  16
ATOM     16  C   UNL     1       1.110 -21.765 -14.879  1.00  0.00    -0.000 C 
BRANCH  16  17
ATOM     17  C   UNL     1       0.470 -20.404 -14.561  1.00  0.00    -0.003 C 
ATOM     18  C   UNL     1      -0.780 -20.526 -13.690  1.00  0.00     0.004 C 
ENDBRANCH  16  17
ENDBRANCH  15  16
ENDBRANCH  14  15
ENDBRANCH  13  14
ENDBRANCH  12  13
ENDBRANCH  11  12
ENDBRANCH   1  11
TORSDOF 14
ENDMDL
MODEL 6
REMARK VINA RESULT:    -4.157     10.326     12.028
REMARK INTER + INTRA:          -9.511
REMARK INTER:                  -7.822
REMARK INTRA:                  -1.688
REMARK UNBOUND:                -1.951
REMARK SMILES CCCCCCCCCCCCCCCC(=O)[O-]
REMARK SMILES IDX 9 1 10 2 11 3 12 4 13 5 14 6 15 7 16 8 17 9 18 10 8 11 7 12
REMARK SMILES IDX 6 13 5 14 4 15 3 16 2 17 1 18
REMARK H PARENT
REMARK Flexibility Score: inf
ROOT
ATOM      1  C   UNL     1      -9.041 -26.045 -18.033  1.00  0.00     0.000 C 
ENDROOT
BRANCH   1   2
ATOM      2  C   UNL     1      -8.740 -25.802 -16.543  1.00  0.00     0.000 C 
BRANCH   2   3
ATOM      3  C   UNL     1      -9.422 -24.522 -16.012  1.00  0.00     0.000 C 
BRANCH   3   4
ATOM      4  C   UNL     1      -9.633 -24.519 -14.486  1.00  0.00     0.000 C 
BRANCH   4   5
ATOM      5  C   UNL     1     -10.796 -25.398 -13.994  1.00  0.00     0.000 C 
BRANCH   5   6
ATOM      6  C   UNL     1     -10.367 -26.391 -12.899  1.00  0.00     0.006 C 
BRANCH   6   7
ATOM      7  C   UNL     1      -9.092 -27.153 -13.280  1.00  0.00     0.053 C 
BRANCH   7   8
ATOM      8  C   UNL     1      -8.002 -26.948 -12.274  1.00  0.00     0.041 C 
ATOM      9  O   UNL     1      -8.187 -26.191 -11.284  1.00  0.00    -0.550 OA
ATOM     10  O   UNL     1      -6.766 -27.560 -12.449  1.00  0.00    -0.550 OA
ENDBRANCH   7   8
ENDBRANCH   6   7
ENDBRANCH   5   6
ENDBRANCH   4   5
ENDBRANCH   3   4
ENDBRANCH   2   3
ENDBRANCH   1   2
BRANCH   1  11
ATOM     11  C   UNL     1     -10.157 -27.079 -18.253  1.00  0.00     0.000 C 
BRANCH  11  12
ATOM     12  C   UNL     1     -10.650 -27.704 -16.936  1.00  0.00    -0.000 C 
BRANCH  12  13
ATOM     13  C   UNL     1     -10.880 -29.220 -17.047  1.00  0.00    -0.000 C 
BRANCH  13  14
ATOM     14  C   UNL     1      -9.978 -30.030 -16.098  1.00  0.00    -0.000 C 
BRANCH  14  15
ATOM     15  C   UNL     1      -8.490 -29.927 -16.472  1.00  0.00    -0.000 C 
BRANCH  15  16
ATOM     16  C   UNL     1      -8.229 -30.259 -17.951  1.00  0.00    -0.000 C 
BRANCH  16  17
ATOM     17  C   UNL     1      -7.283 -31.457 -18.127  1.00  0.00    -0.003 C 
ATOM     18  C   UNL     1      -6.806 -32.038 -16.796  1.00  0.00     0.004 C 
ENDBRANCH  16  17
ENDBRANCH  15  16
ENDBRANCH  14  15
ENDBRANCH  13  14
ENDBRANCH  12  13
ENDBRANCH  11  12
ENDBRANCH   1  11
TORSDOF 14
ENDMDL
MODEL 7
REMARK VINA RESULT:    -4.047     10.012     12.060
REMARK INTER + INTRA:          -9.311
REMARK INTER:                  -7.120
REMARK INTRA:                  -2.191
REMARK UNBOUND:                -1.951
REMARK SMILES CCCCCCCCCCCCCCCC(=O)[O-]
REMARK SMILES IDX 9 1 10 2 11 3 12 4 13 5 14 6 15 7 16 8 17 9 18 10 8 11 7 12
REMARK SMILES IDX 6 13 5 14 4 15 3 16 2 17 1 18
REMARK H PARENT
REMARK Flexibility Score: inf
ROOT
ATOM      1  C   UNL     1      -5.880 -21.868  -2.904  1.00  0.00     0.000 C 
ENDROOT
BRANCH   1   2
ATOM      2  C   UNL     1      -6.773 -20.629  -3.095  1.00  0.00     0.000 C 
BRANCH   2   3
ATOM      3  C   UNL     1      -6.945 -20.259  -4.585  1.00  0.00     0.000 C 
BRANCH   3   4
ATOM      4  C   UNL     1      -8.148 -19.337  -4.861  1.00  0.00     0.000 C 
BRANCH   4   5
ATOM      5  C   UNL     1      -8.531 -19.203  -6.345  1.00  0.00     0.000 C 
BRANCH   5   6
ATOM      6  C   UNL     1      -7.718 -20.140  -7.254  1.00  0.00     0.006 C 
BRANCH   6   7
ATOM      7  C   UNL     1      -8.369 -20.312  -8.632  1.00  0.00     0.053 C 
BRANCH   7   8
ATOM      8  C   UNL     1      -9.828 -20.633  -8.520  1.00  0.00     0.041 C 
ATOM      9  O   UNL     1     -10.691 -19.807  -8.922  1.00  0.00    -0.550 OA
ATOM     10  O   UNL     1     -10.237 -21.824  -7.933  1.00  0.00    -0.550 OA
ENDBRANCH   7   8
ENDBRANCH   6   7
ENDBRANCH   5   6
ENDBRANCH   4   5
ENDBRANCH   3   4
ENDBRANCH   2   3
ENDBRANCH   1   2
BRANCH   1  11
ATOM     11  C   UNL     1      -6.503 -23.147  -3.486  1.00  0.00     0.000 C 
BRANCH  11  12
ATOM     12  C   UNL     1      -5.452 -24.086  -4.103  1.00  0.00    -0.000 C 
BRANCH  12  13
ATOM     13  C   UNL     1      -5.765 -24.452  -5.563  1.00  0.00    -0.000 C 
BRANCH  13  14
ATOM     14  C   UNL     1      -5.810 -23.224  -6.490  1.00  0.00    -0.000 C 
BRANCH  14  15
ATOM     15  C   UNL     1      -4.408 -22.747  -6.902  1.00  0.00    -0.000 C 
BRANCH  15  16
ATOM     16  C   UNL     1      -4.196 -21.246  -6.642  1.00  0.00    -0.000 C 
BRANCH  16  17
ATOM     17  C   UNL     1      -3.304 -20.979  -5.420  1.00  0.00    -0.003 C 
ATOM     18  C   UNL     1      -2.455 -22.190  -5.030  1.00  0.00     0.004 C 
ENDBRANCH  16  17
ENDBRANCH  15  16
ENDBRANCH  14  15
ENDBRANCH  13  14
ENDBRANCH  12  13
ENDBRANCH  11  12
ENDBRANCH   1  11
TORSDOF 14
ENDMDL
MODEL 8
REMARK VINA RESULT:    -4.029     10.532     12.301
REMARK INTER + INTRA:          -9.278
REMARK INTER:                  -8.185
REMARK INTRA:                  -1.092
REMARK UNBOUND:                -1.951
REMARK SMILES CCCCCCCCCCCCCCCC(=O)[O-]
REMARK SMILES IDX 9 1 10 2 11 3 12 4 13 5 14 6 15 7 16 8 17 9 18 10 8 11 7 12
REMARK SMILES IDX 6 13 5 14 4 15 3 16 2 17 1 18
REMARK H PARENT
REMARK Flexibility Score: inf
ROOT
ATOM      1  C   UNL     1      -6.294 -15.521 -13.142  1.00  0.00     0.000 C 
ENDROOT
BRANCH   1   2
ATOM      2  C   UNL     1      -7.128 -14.980 -11.968  1.00  0.00     0.000 C 
BRANCH   2   3
ATOM      3  C   UNL     1      -7.406 -16.062 -10.902  1.00  0.00     0.000 C 
BRANCH   3   4
ATOM      4  C   UNL     1      -7.191 -17.502 -11.409  1.00  0.00     0.000 C 
BRANCH   4   5
ATOM      5  C   UNL     1      -7.552 -18.602 -10.396  1.00  0.00     0.000 C 
BRANCH   5   6
ATOM      6  C   UNL     1      -8.589 -18.138  -9.359  1.00  0.00     0.006 C 
BRANCH   6   7
ATOM      7  C   UNL     1      -8.669 -19.088  -8.158  1.00  0.00     0.053 C 
BRANCH   7   8
ATOM      8  C   UNL     1     -10.075 -19.534  -7.897  1.00  0.00     0.041 C 
ATOM      9  O   UNL     1     -10.398 -19.980  -6.764  1.00  0.00    -0.550 OA
ATOM     10  O   UNL     1     -11.020 -19.496  -8.915  1.00  0.00    -0.550 OA
ENDBRANCH   7   8
ENDBRANCH   6   7
ENDBRANCH   5   6
ENDBRANCH   4   5
ENDBRANCH   3   4
ENDBRANCH   2   3
ENDBRANCH   1   2
BRANCH   1  11
ATOM     11  C   UNL     1      -6.142 -14.503 -14.284  1.00  0.00     0.000 C 
BRANCH  11  12
ATOM     12  C   UNL     1      -6.807 -14.977 -15.588  1.00  0.00    -0.000 C 
BRANCH  12  13
ATOM     13  C   UNL     1      -5.865 -15.818 -16.465  1.00  0.00    -0.000 C 
BRANCH  13  14
ATOM     14  C   UNL     1      -6.619 -16.798 -17.381  1.00  0.00    -0.000 C 
BRANCH  14  15
ATOM     15  C   UNL     1      -7.628 -17.665 -16.611  1.00  0.00    -0.000 C 
BRANCH  15  16
ATOM     16  C   UNL     1      -6.946 -18.766 -15.781  1.00  0.00    -0.000 C 
BRANCH  16  17
ATOM     17  C   UNL     1      -7.935 -19.839 -15.300  1.00  0.00    -0.003 C 
ATOM     18  C   UNL     1      -7.725 -20.226 -13.836  1.00  0.00     0.004 C 
ENDBRANCH  16  17
ENDBRANCH  15  16
ENDBRANCH  14  15
ENDBRANCH  13  14
ENDBRANCH  12  13
ENDBRANCH  11  12
ENDBRANCH   1  11
TORSDOF 14
ENDMDL
MODEL 9
REMARK VINA RESULT:    -3.991     11.306     13.591
REMARK INTER + INTRA:          -9.208
REMARK INTER:                  -7.528
REMARK INTRA:                  -1.680
REMARK UNBOUND:                -1.951
REMARK SMILES CCCCCCCCCCCCCCCC(=O)[O-]
REMARK SMILES IDX 9 1 10 2 11 3 12 4 13 5 14 6 15 7 16 8 17 9 18 10 8 11 7 12
REMARK SMILES IDX 6 13 5 14 4 15 3 16 2 17 1 18
REMARK H PARENT
REMARK Flexibility Score: inf
ROOT
ATOM      1  C   UNL     1      -8.874 -25.416 -19.004  1.00  0.00     0.000 C 
ENDROOT
BRANCH   1   2
ATOM      2  C   UNL     1     -10.164 -26.255 -19.045  1.00  0.00     0.000 C 
BRANCH   2   3
ATOM      3  C   UNL     1      -9.871 -27.770 -19.113  1.00  0.00     0.000 C 
BRANCH   3   4
ATOM      4  C   UNL     1      -9.675 -28.427 -17.733  1.00  0.00     0.000 C 
BRANCH   4   5
ATOM      5  C   UNL     1     -10.835 -28.212 -16.746  1.00  0.00     0.000 C 
BRANCH   5   6
ATOM      6  C   UNL     1     -11.648 -29.494 -16.496  1.00  0.00     0.006 C 
BRANCH   6   7
ATOM      7  C   UNL     1     -10.747 -30.726 -16.345  1.00  0.00     0.053 C 
BRANCH   7   8
ATOM      8  C   UNL     1     -11.421 -31.969 -16.841  1.00  0.00     0.041 C 
ATOM      9  O   UNL     1     -10.765 -32.834 -17.479  1.00  0.00    -0.550 OA
ATOM     10  O   UNL     1     -12.784 -32.153 -16.636  1.00  0.00    -0.550 OA
ENDBRANCH   7   8
ENDBRANCH   6   7
ENDBRANCH   5   6
ENDBRANCH   4   5
ENDBRANCH   3   4
ENDBRANCH   2   3
ENDBRANCH   1   2
BRANCH   1  11
ATOM     11  C   UNL     1      -8.409 -25.108 -17.572  1.00  0.00     0.000 C 
BRANCH  11  12
ATOM     12  C   UNL     1      -9.570 -24.691 -16.652  1.00  0.00    -0.000 C 
BRANCH  12  13
ATOM     13  C   UNL     1      -9.238 -24.858 -15.161  1.00  0.00    -0.000 C 
BRANCH  13  14
ATOM     14  C   UNL     1     -10.464 -25.248 -14.316  1.00  0.00    -0.000 C 
BRANCH  14  15
ATOM     15  C   UNL     1     -10.249 -26.555 -13.536  1.00  0.00    -0.000 C 
BRANCH  15  16
ATOM     16  C   UNL     1      -8.819 -27.104 -13.689  1.00  0.00    -0.000 C 
BRANCH  16  17
ATOM     17  C   UNL     1      -8.130 -27.336 -12.335  1.00  0.00    -0.003 C 
ATOM     18  C   UNL     1      -7.769 -26.032 -11.622  1.00  0.00     0.004 C 
ENDBRANCH  16  17
ENDBRANCH  15  16
ENDBRANCH  14  15
ENDBRANCH  13  14
ENDBRANCH  12  13
ENDBRANCH  11  12
ENDBRANCH   1  11
TORSDOF 14
ENDMDL
