MODEL 1
REMARK VINA RESULT:    -3.666      0.000      0.000
REMARK INTER + INTRA:          -8.073
REMARK INTER:                  -6.238
REMARK INTRA:                  -1.835
REMARK UNBOUND:                -1.835
REMARK SMILES CCCCCCCCCCCCCC(=O)[O-]
REMARK SMILES IDX 8 1 9 2 10 3 11 4 12 5 13 6 14 7 15 8 16 9 7 10 6 11 5 12
REMARK SMILES IDX 4 13 3 14 2 15 1 16
REMARK H PARENT
REMARK Flexibility Score: inf
ROOT
ATOM      1  C   UNL     1      27.564  -0.006  10.110  1.00  0.00     0.000 C 
ENDROOT
BRANCH   1   2
ATOM      2  C   UNL     1      28.413  -0.474   8.923  1.00  0.00     0.000 C 
BRANCH   2   3
ATOM      3  C   UNL     1      28.529  -2.006   8.901  1.00  0.00     0.000 C 
BRANCH   3   4
ATOM      4  C   UNL     1      27.649  -2.652   7.819  1.00  0.00     0.000 C 
BRANCH   4   5
ATOM      5  C   UNL     1      28.471  -3.312   6.702  1.00  0.00     0.006 C 
BRANCH   5   6
ATOM      6  C   UNL     1      27.884  -2.984   5.325  1.00  0.00     0.053 C 
BRANCH   6   7
ATOM      7  C   UNL     1      27.646  -4.238   4.545  1.00  0.00     0.041 C 
ATOM      8  O   UNL     1      27.523  -4.192   3.292  1.00  0.00    -0.550 OA
ATOM      9  O   UNL     1      27.510  -5.453   5.205  1.00  0.00    -0.550 OA
ENDBRANCH   6   7
ENDBRANCH   5   6
ENDBRANCH   4   5
ENDBRANCH   3   4
ENDBRANCH   2   3
ENDBRANCH   1   2
BRANCH   1  10
ATOM     10  C   UNL     1      26.326   0.766   9.634  1.00  0.00     0.000 C 
BRANCH  10  11
ATOM     11  C   UNL     1      25.263  -0.191   9.075  1.00  0.00    -0.000 C 
BRANCH  11  12
ATOM     12  C   UNL     1      24.573   0.359   7.817  1.00  0.00    -0.000 C 
BRANCH  12  13
ATOM     13  C   UNL     1      25.528   1.180   6.933  1.00  0.00    -0.000 C 
BRANCH  13  14
ATOM     14  C   UNL     1      26.228   0.328   5.857  1.00  0.00    -0.000 C 
BRANCH  14  15
ATOM     15  C   UNL     1      27.698   0.702   5.587  1.00  0.00    -0.003 C 
ATOM     16  C   UNL     1      28.093   2.049   6.190  1.00  0.00     0.004 C 
ENDBRANCH  14  15
ENDBRANCH  13  14
ENDBRANCH  12  13
ENDBRANCH  11  12
ENDBRANCH  10  11
ENDBRANCH   1  10
TORSDOF 12
ENDMDL
MODEL 2
REMARK VINA RESULT:    -3.630     10.840     12.235
REMARK INTER + INTRA:          -8.012
REMARK INTER:                  -6.382
REMARK INTRA:                  -1.630
REMARK UNBOUND:                -1.835
REMARK SMILES CCCCCCCCCCCCCC(=O)[O-]
REMARK SMILES IDX 8 1 9 2 10 3 11 4 12 5 13 6 14 7 15 8 16 9 7 10 6 11 5 12
REMARK SMILES IDX 4 13 3 14 2 15 1 16
REMARK H PARENT
REMARK Flexibility Score: inf
ROOT
ATOM      1  C   UNL     1      25.681  -5.314  18.166  1.00  0.00     0.000 C 
ENDROOT
BRANCH   1   2
ATOM      2  C   UNL     1      25.419  -6.621  17.409  1.00  0.00     0.000 C 
BRANCH   2   3
ATOM      3  C   UNL     1      24.423  -6.402  16.259  1.00  0.00     0.000 C 
BRANCH   3   4
ATOM      4  C   UNL     1      24.844  -7.117  14.966  1.00  0.00     0.000 C 
BRANCH   4   5
ATOM      5  C   UNL     1      24.502  -8.614  14.979  1.00  0.00     0.006 C 
BRANCH   5   6
ATOM      6  C   UNL     1      23.109  -8.852  15.570  1.00  0.00     0.053 C 
BRANCH   6   7
ATOM      7  C   UNL     1      23.175  -9.850  16.683  1.00  0.00     0.041 C 
ATOM      8  O   UNL     1      24.287 -10.178  17.177  1.00  0.00    -0.550 OA
ATOM      9  O   UNL     1      22.013 -10.457  17.143  1.00  0.00    -0.550 OA
ENDBRANCH   6   7
ENDBRANCH   5   6
ENDBRANCH   4   5
ENDBRANCH   3   4
ENDBRANCH   2   3
ENDBRANCH   1   2
BRANCH   1  10
ATOM     10  C   UNL     1      25.737  -4.121  17.204  1.00  0.00     0.000 C 
BRANCH  10  11
ATOM     11  C   UNL     1      25.201  -2.847  17.875  1.00  0.00    -0.000 C 
BRANCH  11  12
ATOM     12  C   UNL     1      23.949  -2.291  17.179  1.00  0.00    -0.000 C 
BRANCH  12  13
ATOM     13  C   UNL     1      22.727  -3.212  17.340  1.00  0.00    -0.000 C 
BRANCH  13  14
ATOM     14  C   UNL     1      22.179  -3.232  18.781  1.00  0.00    -0.000 C 
BRANCH  14  15
ATOM     15  C   UNL     1      22.270  -4.596  19.491  1.00  0.00    -0.003 C 
ATOM     16  C   UNL     1      21.703  -5.744  18.657  1.00  0.00     0.004 C 
ENDBRANCH  14  15
ENDBRANCH  13  14
ENDBRANCH  12  13
ENDBRANCH  11  12
ENDBRANCH  10  11
ENDBRANCH   1  10
TORSDOF 12
ENDMDL
MODEL 3
REMARK VINA RESULT:    -3.593      0.881      1.816
REMARK INTER + INTRA:          -7.950
REMARK INTER:                  -6.128
REMARK INTRA:                  -1.821
REMARK UNBOUND:                -1.835
REMARK SMILES CCCCCCCCCCCCCC(=O)[O-]
REMARK SMILES IDX 8 1 9 2 10 3 11 4 12 5 13 6 14 7 15 8 16 9 7 10 6 11 5 12
REMARK SMILES IDX 4 13 3 14 2 15 1 16
REMARK H PARENT
REMARK Flexibility Score: inf
ROOT
ATOM      1  C   UNL     1      28.806  -1.434   7.891  1.00  0.00     0.000 C 
ENDROOT
BRANCH   1   2
ATOM      2  C   UNL     1      28.764  -2.842   8.495  1.00  0.00     0.000 C 
BRANCH   2   3
ATOM      3  C   UNL     1      27.936  -3.793   7.617  1.00  0.00     0.000 C 
BRANCH   3   4
ATOM      4  C   UNL     1      26.563  -3.213   7.246  1.00  0.00     0.000 C 
BRANCH   4   5
ATOM      5  C   UNL     1      26.331  -3.164   5.728  1.00  0.00     0.006 C 
BRANCH   5   6
ATOM      6  C   UNL     1      27.643  -3.380   4.967  1.00  0.00     0.053 C 
BRANCH   6   7
ATOM      7  C   UNL     1      27.565  -4.616   4.128  1.00  0.00     0.041 C 
ATOM      8  O   UNL     1      27.361  -4.530   2.888  1.00  0.00    -0.550 OA
ATOM      9  O   UNL     1      27.666  -5.868   4.722  1.00  0.00    -0.550 OA
ENDBRANCH   6   7
ENDBRANCH   5   6
ENDBRANCH   4   5
ENDBRANCH   3   4
ENDBRANCH   2   3
ENDBRANCH   1   2
BRANCH   1  10
ATOM     10  C   UNL     1      28.819  -0.362   8.988  1.00  0.00     0.000 C 
BRANCH  10  11
ATOM     11  C   UNL     1      27.459  -0.287   9.700  1.00  0.00    -0.000 C 
BRANCH  11  12
ATOM     12  C   UNL     1      26.545   0.803   9.120  1.00  0.00    -0.000 C 
BRANCH  12  13
ATOM     13  C   UNL     1      25.634   0.273   7.998  1.00  0.00    -0.000 C 
BRANCH  13  14
ATOM     14  C   UNL     1      25.728   1.109   6.707  1.00  0.00    -0.000 C 
BRANCH  14  15
ATOM     15  C   UNL     1      26.701   0.560   5.647  1.00  0.00    -0.003 C 
ATOM     16  C   UNL     1      27.984   1.382   5.530  1.00  0.00     0.004 C 
ENDBRANCH  14  15
ENDBRANCH  13  14
ENDBRANCH  12  13
ENDBRANCH  11  12
ENDBRANCH  10  11
ENDBRANCH   1  10
TORSDOF 12
ENDMDL
MODEL 4
REMARK VINA RESULT:    -3.568     10.767     12.482
REMARK INTER + INTRA:          -7.906
REMARK INTER:                  -6.251
REMARK INTRA:                  -1.655
REMARK UNBOUND:                -1.835
REMARK SMILES CCCCCCCCCCCCCC(=O)[O-]
REMARK SMILES IDX 8 1 9 2 10 3 11 4 12 5 13 6 14 7 15 8 16 9 7 10 6 11 5 12
REMARK SMILES IDX 4 13 3 14 2 15 1 16
REMARK H PARENT
REMARK Flexibility Score: inf
ROOT
ATOM      1  C   UNL     1      23.759  -1.871  18.621  1.00  0.00     0.000 C 
ENDROOT
BRANCH   1   2
ATOM      2  C   UNL     1      25.181  -2.068  18.085  1.00  0.00     0.000 C 
BRANCH   2   3
ATOM      3  C   UNL     1      25.368  -3.489  17.530  1.00  0.00     0.000 C 
BRANCH   3   4
ATOM      4  C   UNL     1      25.113  -4.576  18.585  1.00  0.00     0.000 C 
BRANCH   4   5
ATOM      5  C   UNL     1      24.840  -5.953  17.962  1.00  0.00     0.006 C 
BRANCH   5   6
ATOM      6  C   UNL     1      25.009  -5.909  16.441  1.00  0.00     0.053 C 
BRANCH   6   7
ATOM      7  C   UNL     1      24.741  -7.254  15.844  1.00  0.00     0.041 C 
ATOM      8  O   UNL     1      24.387  -8.215  16.578  1.00  0.00    -0.550 OA
ATOM      9  O   UNL     1      24.930  -7.462  14.483  1.00  0.00    -0.550 OA
ENDBRANCH   6   7
ENDBRANCH   5   6
ENDBRANCH   4   5
ENDBRANCH   3   4
ENDBRANCH   2   3
ENDBRANCH   1   2
BRANCH   1  10
ATOM     10  C   UNL     1      22.722  -2.003  17.498  1.00  0.00     0.000 C 
BRANCH  10  11
ATOM     11  C   UNL     1      21.650  -3.043  17.860  1.00  0.00    -0.000 C 
BRANCH  11  12
ATOM     12  C   UNL     1      21.522  -3.261  19.376  1.00  0.00    -0.000 C 
BRANCH  12  13
ATOM     13  C   UNL     1      21.591  -4.748  19.765  1.00  0.00    -0.000 C 
BRANCH  13  14
ATOM     14  C   UNL     1      20.214  -5.439  19.732  1.00  0.00    -0.000 C 
BRANCH  14  15
ATOM     15  C   UNL     1      20.139  -6.695  18.844  1.00  0.00    -0.003 C 
ATOM     16  C   UNL     1      21.252  -6.756  17.799  1.00  0.00     0.004 C 
ENDBRANCH  14  15
ENDBRANCH  13  14
ENDBRANCH  12  13
ENDBRANCH  11  12
ENDBRANCH  10  11
ENDBRANCH   1  10
TORSDOF 12
ENDMDL
MODEL 5
REMARK VINA RESULT:    -3.547      2.861      4.244
REMARK INTER + INTRA:          -7.870
REMARK INTER:                  -5.831
REMARK INTRA:                  -2.039
REMARK UNBOUND:                -1.835
REMARK SMILES CCCCCCCCCCCCCC(=O)[O-]
REMARK SMILES IDX 8 1 9 2 10 3 11 4 12 5 13 6 14 7 15 8 16 9 7 10 6 11 5 12
REMARK SMILES IDX 4 13 3 14 2 15 1 16
REMARK H PARENT
REMARK Flexibility Score: inf
ROOT
ATOM      1  C   UNL     1      28.248  -1.140  10.604  1.00  0.00     0.000 C 
ENDROOT
BRANCH   1   2
ATOM      2  C   UNL     1      28.604  -1.885   9.312  1.00  0.00     0.000 C 
BRANCH   2   3
ATOM      3  C   UNL     1      28.627  -0.924   8.112  1.00  0.00     0.000 C 
BRANCH   3   4
ATOM      4  C   UNL     1      27.844  -1.465   6.906  1.00  0.00     0.000 C 
BRANCH   4   5
ATOM      5  C   UNL     1      27.581  -0.390   5.840  1.00  0.00     0.006 C 
BRANCH   5   6
ATOM      6  C   UNL     1      27.861   1.010   6.395  1.00  0.00     0.053 C 
BRANCH   6   7
ATOM      7  C   UNL     1      26.824   1.979   5.922  1.00  0.00     0.041 C 
ATOM      8  O   UNL     1      26.443   2.917   6.671  1.00  0.00    -0.550 OA
ATOM      9  O   UNL     1      26.239   1.817   4.672  1.00  0.00    -0.550 OA
ENDBRANCH   6   7
ENDBRANCH   5   6
ENDBRANCH   4   5
ENDBRANCH   3   4
ENDBRANCH   2   3
ENDBRANCH   1   2
BRANCH   1  10
ATOM     10  C   UNL     1      27.283   0.020  10.325  1.00  0.00     0.000 C 
BRANCH  10  11
ATOM     11  C   UNL     1      25.945  -0.192  11.051  1.00  0.00    -0.000 C 
BRANCH  11  12
ATOM     12  C   UNL     1      24.738   0.250  10.209  1.00  0.00    -0.000 C 
BRANCH  12  13
ATOM     13  C   UNL     1      25.071   0.355   8.710  1.00  0.00    -0.000 C 
BRANCH  13  14
ATOM     14  C   UNL     1      24.260  -0.629   7.846  1.00  0.00    -0.000 C 
BRANCH  14  15
ATOM     15  C   UNL     1      23.962  -1.985   8.512  1.00  0.00    -0.003 C 
ATOM     16  C   UNL     1      25.111  -2.983   8.379  1.00  0.00     0.004 C 
ENDBRANCH  14  15
ENDBRANCH  13  14
ENDBRANCH  12  13
ENDBRANCH  11  12
ENDBRANCH  10  11
ENDBRANCH   1  10
TORSDOF 12
ENDMDL
MODEL 6
REMARK VINA RESULT:    -3.519      1.241      1.583
REMARK INTER + INTRA:          -7.824
REMARK INTER:                  -5.770
REMARK INTRA:                  -2.054
REMARK UNBOUND:                -1.835
REMARK SMILES CCCCCCCCCCCCCC(=O)[O-]
REMARK SMILES IDX 8 1 9 2 10 3 11 4 12 5 13 6 14 7 15 8 16 9 7 10 6 11 5 12
REMARK SMILES IDX 4 13 3 14 2 15 1 16
REMARK H PARENT
REMARK Flexibility Score: inf
ROOT
ATOM      1  C   UNL     1      26.084  -0.224  10.510  1.00  0.00     0.000 C 
ENDROOT
BRANCH   1   2
ATOM      2  C   UNL     1      27.534   0.096  10.129  1.00  0.00     0.000 C 
BRANCH   2   3
ATOM      3  C   UNL     1      28.340  -1.193   9.903  1.00  0.00     0.000 C 
BRANCH   3   4
ATOM      4  C   UNL     1      28.886  -1.306   8.471  1.00  0.00     0.000 C 
BRANCH   4   5
ATOM      5  C   UNL     1      28.803  -2.736   7.917  1.00  0.00     0.006 C 
BRANCH   5   6
ATOM      6  C   UNL     1      27.344  -3.169   7.736  1.00  0.00     0.053 C 
BRANCH   6   7
ATOM      7  C   UNL     1      27.048  -3.426   6.293  1.00  0.00     0.041 C 
ATOM      8  O   UNL     1      27.974  -3.389   5.439  1.00  0.00    -0.550 OA
ATOM      9  O   UNL     1      25.742  -3.658   5.881  1.00  0.00    -0.550 OA
ENDBRANCH   6   7
ENDBRANCH   5   6
ENDBRANCH   4   5
ENDBRANCH   3   4
ENDBRANCH   2   3
ENDBRANCH   1   2
BRANCH   1  10
ATOM     10  C   UNL     1      25.106   0.305   9.452  1.00  0.00     0.000 C 
BRANCH  10  11
ATOM     11  C   UNL     1      24.573  -0.839   8.576  1.00  0.00    -0.000 C 
BRANCH  11  12
ATOM     12  C   UNL     1      24.599  -0.499   7.077  1.00  0.00    -0.000 C 
BRANCH  12  13
ATOM     13  C   UNL     1      25.634   0.587   6.737  1.00  0.00    -0.000 C 
BRANCH  13  14
ATOM     14  C   UNL     1      26.733   0.086   5.779  1.00  0.00    -0.000 C 
BRANCH  14  15
ATOM     15  C   UNL     1      27.896   1.070   5.554  1.00  0.00    -0.003 C 
ATOM     16  C   UNL     1      27.957   2.176   6.607  1.00  0.00     0.004 C 
ENDBRANCH  14  15
ENDBRANCH  13  14
ENDBRANCH  12  13
ENDBRANCH  11  12
ENDBRANCH  10  11
ENDBRANCH   1  10
TORSDOF 12
ENDMDL
MODEL 7
REMARK VINA RESULT:    -3.514      3.124      5.852
REMARK INTER + INTRA:          -7.814
REMARK INTER:                  -6.284
REMARK INTRA:                  -1.530
REMARK UNBOUND:                -1.835
REMARK SMILES CCCCCCCCCCCCCC(=O)[O-]
REMARK SMILES IDX 8 1 9 2 10 3 11 4 12 5 13 6 14 7 15 8 16 9 7 10 6 11 5 12
REMARK SMILES IDX 4 13 3 14 2 15 1 16
REMARK H PARENT
REMARK Flexibility Score: inf
ROOT
ATOM      1  C   UNL     1      26.878  -1.035   6.322  1.00  0.00     0.000 C 
ENDROOT
BRANCH   1   2
ATOM      2  C   UNL     1      27.972   0.033   6.444  1.00  0.00     0.000 C 
BRANCH   2   3
ATOM      3  C   UNL     1      27.747   1.168   5.432  1.00  0.00     0.000 C 
BRANCH   3   4
ATOM      4  C   UNL     1      26.646   2.145   5.872  1.00  0.00     0.000 C 
BRANCH   4   5
ATOM      5  C   UNL     1      26.787   2.574   7.340  1.00  0.00     0.006 C 
BRANCH   5   6
ATOM      6  C   UNL     1      25.487   2.326   8.110  1.00  0.00     0.053 C 
BRANCH   6   7
ATOM      7  C   UNL     1      25.684   1.263   9.144  1.00  0.00     0.041 C 
ATOM      8  O   UNL     1      26.843   0.977   9.546  1.00  0.00    -0.550 OA
ATOM      9  O   UNL     1      24.593   0.552   9.628  1.00  0.00    -0.550 OA
ENDBRANCH   6   7
ENDBRANCH   5   6
ENDBRANCH   4   5
ENDBRANCH   3   4
ENDBRANCH   2   3
ENDBRANCH   1   2
BRANCH   1  10
ATOM     10  C   UNL     1      26.860  -1.949   7.553  1.00  0.00     0.000 C 
BRANCH  10  11
ATOM     11  C   UNL     1      28.283  -2.186   8.083  1.00  0.00    -0.000 C 
BRANCH  11  12
ATOM     12  C   UNL     1      28.974  -3.383   7.413  1.00  0.00    -0.000 C 
BRANCH  12  13
ATOM     13  C   UNL     1      28.147  -4.677   7.519  1.00  0.00    -0.000 C 
BRANCH  13  14
ATOM     14  C   UNL     1      27.975  -5.390   6.165  1.00  0.00    -0.000 C 
BRANCH  14  15
ATOM     15  C   UNL     1      26.962  -4.734   5.209  1.00  0.00    -0.003 C 
ATOM     16  C   UNL     1      27.622  -4.070   4.001  1.00  0.00     0.004 C 
ENDBRANCH  14  15
ENDBRANCH  13  14
ENDBRANCH  12  13
ENDBRANCH  11  12
ENDBRANCH  10  11
ENDBRANCH   1  10
TORSDOF 12
ENDMDL
MODEL 8
REMARK VINA RESULT:    -3.483      3.134      4.597
REMARK INTER + INTRA:          -7.761
REMARK INTER:                  -6.044
REMARK INTRA:                  -1.717
REMARK UNBOUND:                -1.835
REMARK SMILES CCCCCCCCCCCCCC(=O)[O-]
REMARK SMILES IDX 8 1 9 2 10 3 11 4 12 5 13 6 14 7 15 8 16 9 7 10 6 11 5 12
REMARK SMILES IDX 4 13 3 14 2 15 1 16
REMARK H PARENT
REMARK Flexibility Score: inf
ROOT
ATOM      1  C   UNL     1      27.474  -0.080  10.854  1.00  0.00     0.000 C 
ENDROOT
BRANCH   1   2
ATOM      2  C   UNL     1      26.024  -0.488  10.569  1.00  0.00     0.000 C 
BRANCH   2   3
ATOM      3  C   UNL     1      25.324   0.555   9.682  1.00  0.00     0.000 C 
BRANCH   3   4
ATOM      4  C   UNL     1      24.258  -0.067   8.767  1.00  0.00     0.000 C 
BRANCH   4   5
ATOM      5  C   UNL     1      23.938   0.812   7.549  1.00  0.00     0.006 C 
BRANCH   5   6
ATOM      6  C   UNL     1      23.838  -0.033   6.275  1.00  0.00     0.053 C 
BRANCH   6   7
ATOM      7  C   UNL     1      22.477   0.095   5.667  1.00  0.00     0.041 C 
ATOM      8  O   UNL     1      21.495  -0.506   6.177  1.00  0.00    -0.550 OA
ATOM      9  O   UNL     1      22.301   0.837   4.506  1.00  0.00    -0.550 OA
ENDBRANCH   6   7
ENDBRANCH   5   6
ENDBRANCH   4   5
ENDBRANCH   3   4
ENDBRANCH   2   3
ENDBRANCH   1   2
BRANCH   1  10
ATOM     10  C   UNL     1      28.457  -1.138  10.337  1.00  0.00     0.000 C 
BRANCH  10  11
ATOM     11  C   UNL     1      28.978  -0.769   8.939  1.00  0.00    -0.000 C 
BRANCH  11  12
ATOM     12  C   UNL     1      28.415  -1.679   7.837  1.00  0.00    -0.000 C 
BRANCH  12  13
ATOM     13  C   UNL     1      27.428  -0.944   6.913  1.00  0.00    -0.000 C 
BRANCH  13  14
ATOM     14  C   UNL     1      27.647   0.581   6.895  1.00  0.00    -0.000 C 
BRANCH  14  15
ATOM     15  C   UNL     1      27.848   1.192   5.496  1.00  0.00    -0.003 C 
ATOM     16  C   UNL     1      26.792   2.239   5.143  1.00  0.00     0.004 C 
ENDBRANCH  14  15
ENDBRANCH  13  14
ENDBRANCH  12  13
ENDBRANCH  11  12
ENDBRANCH  10  11
ENDBRANCH   1  10
TORSDOF 12
ENDMDL
MODEL 9
REMARK VINA RESULT:    -3.452      1.886      3.475
REMARK INTER + INTRA:          -7.710
REMARK INTER:                  -5.816
REMARK INTRA:                  -1.894
REMARK UNBOUND:                -1.835
REMARK SMILES CCCCCCCCCCCCCC(=O)[O-]
REMARK SMILES IDX 8 1 9 2 10 3 11 4 12 5 13 6 14 7 15 8 16 9 7 10 6 11 5 12
REMARK SMILES IDX 4 13 3 14 2 15 1 16
REMARK H PARENT
REMARK Flexibility Score: inf
ROOT
ATOM      1  C   UNL     1      27.641   1.215   5.516  1.00  0.00     0.000 C 
ENDROOT
BRANCH   1   2
ATOM      2  C   UNL     1      28.001   0.216   6.622  1.00  0.00     0.000 C 
BRANCH   2   3
ATOM      3  C   UNL     1      27.577  -1.209   6.234  1.00  0.00     0.000 C 
BRANCH   3   4
ATOM      4  C   UNL     1      26.124  -1.522   6.624  1.00  0.00     0.000 C 
BRANCH   4   5
ATOM      5  C   UNL     1      26.000  -2.790   7.482  1.00  0.00     0.006 C 
BRANCH   5   6
ATOM      6  C   UNL     1      27.380  -3.381   7.787  1.00  0.00     0.053 C 
BRANCH   6   7
ATOM      7  C   UNL     1      27.452  -4.806   7.337  1.00  0.00     0.041 C 
ATOM      8  O   UNL     1      26.396  -5.445   7.085  1.00  0.00    -0.550 OA
ATOM      9  O   UNL     1      28.681  -5.445   7.245  1.00  0.00    -0.550 OA
ENDBRANCH   6   7
ENDBRANCH   5   6
ENDBRANCH   4   5
ENDBRANCH   3   4
ENDBRANCH   2   3
ENDBRANCH   1   2
BRANCH   1  10
ATOM     10  C   UNL     1      26.633   2.256   6.020  1.00  0.00     0.000 C 
BRANCH  10  11
ATOM     11  C   UNL     1      26.649   2.340   7.554  1.00  0.00    -0.000 C 
BRANCH  11  12
ATOM     12  C   UNL     1      25.262   2.116   8.175  1.00  0.00    -0.000 C 
BRANCH  12  13
ATOM     13  C   UNL     1      25.265   1.002   9.237  1.00  0.00    -0.000 C 
BRANCH  13  14
ATOM     14  C   UNL     1      26.669   0.724   9.808  1.00  0.00    -0.000 C 
BRANCH  14  15
ATOM     15  C   UNL     1      26.849  -0.668  10.441  1.00  0.00    -0.003 C 
ATOM     16  C   UNL     1      28.315  -1.060  10.619  1.00  0.00     0.004 C 
ENDBRANCH  14  15
ENDBRANCH  13  14
ENDBRANCH  12  13
ENDBRANCH  11  12
ENDBRANCH  10  11
ENDBRANCH   1  10
TORSDOF 12
ENDMDL
