MODEL 1
REMARK VINA RESULT:     1.148      0.000      0.000
REMARK INTER + INTRA:           6.429
REMARK INTER:                   2.625
REMARK INTRA:                   3.804
REMARK UNBOUND:                 3.804
REMARK SMILES CCCCCCCCCCCCCCCCCCCCCCCC(=O)[O-]
REMARK SMILES IDX 13 1 14 2 15 3 16 4 17 5 18 6 19 7 20 8 21 9 22 10 23 11
REMARK SMILES IDX 24 12 25 13 26 14 12 15 11 16 10 17 9 18 8 19 7 20 6 21 5 22
REMARK SMILES IDX 4 23 3 24 2 25 1 26
REMARK H PARENT
REMARK Flexibility Score: inf
ROOT
ATOM      1  C   UNL     1      -9.421  13.630 -14.684  1.00  0.00     0.000 C 
ENDROOT
BRANCH   1   2
ATOM      2  C   UNL     1      -8.392  14.663 -15.180  1.00  0.00     0.000 C 
BRANCH   2   3
ATOM      3  C   UNL     1      -9.000  15.761 -16.069  1.00  0.00     0.000 C 
BRANCH   3   4
ATOM      4  C   UNL     1      -8.921  17.154 -15.422  1.00  0.00     0.000 C 
BRANCH   4   5
ATOM      5  C   UNL     1      -7.894  18.061 -16.123  1.00  0.00     0.000 C 
BRANCH   5   6
ATOM      6  C   UNL     1      -6.435  17.615 -15.904  1.00  0.00     0.000 C 
BRANCH   6   7
ATOM      7  C   UNL     1      -6.181  17.007 -14.511  1.00  0.00     0.000 C 
BRANCH   7   8
ATOM      8  C   UNL     1      -5.876  18.078 -13.453  1.00  0.00     0.000 C 
BRANCH   8   9
ATOM      9  C   UNL     1      -5.956  19.486 -14.058  1.00  0.00     0.000 C 
BRANCH   9  10
ATOM     10  C   UNL     1      -6.664  20.457 -13.100  1.00  0.00     0.006 C 
BRANCH  10  11
ATOM     11  C   UNL     1      -7.888  21.125 -13.744  1.00  0.00     0.053 C 
BRANCH  11  12
ATOM     12  C   UNL     1      -7.919  20.930 -15.230  1.00  0.00     0.041 C 
ATOM     13  O   UNL     1      -8.990  20.599 -15.804  1.00  0.00    -0.550 OA
ATOM     14  O   UNL     1      -6.758  21.091 -15.977  1.00  0.00    -0.550 OA
ENDBRANCH  11  12
ENDBRANCH  10  11
ENDBRANCH   9  10
ENDBRANCH   8   9
ENDBRANCH   7   8
ENDBRANCH   6   7
ENDBRANCH   5   6
ENDBRANCH   4   5
ENDBRANCH   3   4
ENDBRANCH   2   3
ENDBRANCH   1   2
BRANCH   1  15
ATOM     15  C   UNL     1      -8.835  12.207 -14.613  1.00  0.00     0.000 C 
BRANCH  15  16
ATOM     16  C   UNL     1      -8.087  11.806 -15.895  1.00  0.00     0.000 C 
BRANCH  16  17
ATOM     17  C   UNL     1      -6.814  12.637 -16.125  1.00  0.00     0.000 C 
BRANCH  17  18
ATOM     18  C   UNL     1      -5.943  12.757 -14.861  1.00  0.00    -0.000 C 
BRANCH  18  19
ATOM     19  C   UNL     1      -5.890  11.499 -13.971  1.00  0.00    -0.000 C 
BRANCH  19  20
ATOM     20  C   UNL     1      -6.500  11.666 -12.568  1.00  0.00    -0.000 C 
BRANCH  20  21
ATOM     21  C   UNL     1      -7.617  12.717 -12.524  1.00  0.00    -0.000 C 
BRANCH  21  22
ATOM     22  C   UNL     1      -7.320  13.788 -11.465  1.00  0.00    -0.000 C 
BRANCH  22  23
ATOM     23  C   UNL     1      -8.465  14.817 -11.338  1.00  0.00    -0.000 C 
BRANCH  23  24
ATOM     24  C   UNL     1      -8.099  16.210 -11.877  1.00  0.00    -0.000 C 
BRANCH  24  25
ATOM     25  C   UNL     1      -9.223  17.238 -11.676  1.00  0.00    -0.003 C 
ATOM     26  C   UNL     1      -9.547  17.957 -12.984  1.00  0.00     0.004 C 
ENDBRANCH  24  25
ENDBRANCH  23  24
ENDBRANCH  22  23
ENDBRANCH  21  22
ENDBRANCH  20  21
ENDBRANCH  19  20
ENDBRANCH  18  19
ENDBRANCH  17  18
ENDBRANCH  16  17
ENDBRANCH  15  16
ENDBRANCH   1  15
TORSDOF 22
ENDMDL
MODEL 2
REMARK VINA RESULT:     2.772      1.475      3.814
REMARK INTER + INTRA:          10.141
REMARK INTER:                   3.561
REMARK INTRA:                   6.580
REMARK UNBOUND:                 3.804
REMARK SMILES CCCCCCCCCCCCCCCCCCCCCCCC(=O)[O-]
REMARK SMILES IDX 13 1 14 2 15 3 16 4 17 5 18 6 19 7 20 8 21 9 22 10 23 11
REMARK SMILES IDX 24 12 25 13 26 14 12 15 11 16 10 17 9 18 8 19 7 20 6 21 5 22
REMARK SMILES IDX 4 23 3 24 2 25 1 26
REMARK H PARENT
REMARK Flexibility Score: inf
ROOT
ATOM      1  C   UNL     1     -10.242  16.085 -12.873  1.00  0.00     0.000 C 
ENDROOT
BRANCH   1   2
ATOM      2  C   UNL     1      -9.313  15.132 -13.648  1.00  0.00     0.000 C 
BRANCH   2   3
ATOM      3  C   UNL     1      -9.758  14.882 -15.099  1.00  0.00     0.000 C 
BRANCH   3   4
ATOM      4  C   UNL     1      -8.716  15.359 -16.125  1.00  0.00     0.000 C 
BRANCH   4   5
ATOM      5  C   UNL     1      -8.316  16.829 -15.903  1.00  0.00     0.000 C 
BRANCH   5   6
ATOM      6  C   UNL     1      -7.033  16.993 -15.065  1.00  0.00     0.000 C 
BRANCH   6   7
ATOM      7  C   UNL     1      -5.875  17.654 -15.838  1.00  0.00     0.000 C 
BRANCH   7   8
ATOM      8  C   UNL     1      -6.131  19.144 -16.108  1.00  0.00     0.000 C 
BRANCH   8   9
ATOM      9  C   UNL     1      -7.623  19.478 -15.981  1.00  0.00     0.000 C 
BRANCH   9  10
ATOM     10  C   UNL     1      -7.826  20.943 -15.564  1.00  0.00     0.006 C 
BRANCH  10  11
ATOM     11  C   UNL     1      -8.494  21.071 -14.187  1.00  0.00     0.053 C 
BRANCH  11  12
ATOM     12  C   UNL     1      -8.137  19.933 -13.280  1.00  0.00     0.041 C 
ATOM     13  O   UNL     1      -6.942  19.752 -12.928  1.00  0.00    -0.550 OA
ATOM     14  O   UNL     1      -9.124  19.058 -12.842  1.00  0.00    -0.550 OA
ENDBRANCH  11  12
ENDBRANCH  10  11
ENDBRANCH   9  10
ENDBRANCH   8   9
ENDBRANCH   7   8
ENDBRANCH   6   7
ENDBRANCH   5   6
ENDBRANCH   4   5
ENDBRANCH   3   4
ENDBRANCH   2   3
ENDBRANCH   1   2
BRANCH   1  15
ATOM     15  C   UNL     1      -9.615  16.572 -11.554  1.00  0.00     0.000 C 
BRANCH  15  16
ATOM     16  C   UNL     1      -8.136  16.174 -11.415  1.00  0.00     0.000 C 
BRANCH  16  17
ATOM     17  C   UNL     1      -7.795  14.882 -12.176  1.00  0.00     0.000 C 
BRANCH  17  18
ATOM     18  C   UNL     1      -7.423  13.718 -11.239  1.00  0.00    -0.000 C 
BRANCH  18  19
ATOM     19  C   UNL     1      -7.091  12.384 -11.940  1.00  0.00    -0.000 C 
BRANCH  19  20
ATOM     20  C   UNL     1      -6.903  12.476 -13.464  1.00  0.00    -0.000 C 
BRANCH  20  21
ATOM     21  C   UNL     1      -6.169  13.751 -13.899  1.00  0.00    -0.000 C 
BRANCH  21  22
ATOM     22  C   UNL     1      -5.948  13.765 -15.418  1.00  0.00    -0.000 C 
BRANCH  22  23
ATOM     23  C   UNL     1      -5.887  12.341 -16.012  1.00  0.00    -0.000 C 
BRANCH  23  24
ATOM     24  C   UNL     1      -7.264  11.665 -16.124  1.00  0.00    -0.000 C 
BRANCH  24  25
ATOM     25  C   UNL     1      -8.379  12.473 -15.444  1.00  0.00    -0.003 C 
ATOM     26  C   UNL     1      -9.753  11.890 -15.769  1.00  0.00     0.004 C 
ENDBRANCH  24  25
ENDBRANCH  23  24
ENDBRANCH  22  23
ENDBRANCH  21  22
ENDBRANCH  20  21
ENDBRANCH  19  20
ENDBRANCH  18  19
ENDBRANCH  17  18
ENDBRANCH  16  17
ENDBRANCH  15  16
ENDBRANCH   1  15
TORSDOF 22
ENDMDL
