MODEL 1
REMARK VINA RESULT:    14.244      0.000      0.000
REMARK INTER + INTRA:          29.419
REMARK INTER:                  30.899
REMARK INTRA:                  -1.480
REMARK UNBOUND:                -1.480
REMARK SMILES CCCCCCCCCCCCCCCCCCCCCC(=O)[O-]
REMARK SMILES IDX 12 1 11 2 10 3 9 4 8 5 7 6 6 7 5 8 4 9 3 10 2 11 1 12 13 13
REMARK SMILES IDX 14 14 15 15 16 16 17 17 18 18 19 19 20 20 21 21 22 22 23 23
REMARK SMILES IDX 24 24
REMARK H PARENT
REMARK Flexibility Score: inf
ROOT
ATOM      1  C   UNL     1     -33.499  10.692  19.684  1.00  0.00     0.000 C 
ENDROOT
BRANCH   1   2
ATOM      2  C   UNL     1     -34.020  10.666  21.134  1.00  0.00     0.000 C 
BRANCH   2   3
ATOM      3  C   UNL     1     -34.197  12.071  21.733  1.00  0.00     0.000 C 
BRANCH   3   4
ATOM      4  C   UNL     1     -34.543  12.040  23.230  1.00  0.00    -0.000 C 
BRANCH   4   5
ATOM      5  C   UNL     1     -33.938  10.832  23.959  1.00  0.00    -0.000 C 
BRANCH   5   6
ATOM      6  C   UNL     1     -34.563  10.664  25.349  1.00  0.00    -0.000 C 
BRANCH   6   7
ATOM      7  C   UNL     1     -33.594   9.960  26.310  1.00  0.00    -0.000 C 
BRANCH   7   8
ATOM      8  C   UNL     1     -33.716   8.426  26.261  1.00  0.00    -0.000 C 
BRANCH   8   9
ATOM      9  C   UNL     1     -34.834   7.889  25.342  1.00  0.00    -0.000 C 
BRANCH   9  10
ATOM     10  C   UNL     1     -34.586   6.482  24.767  1.00  0.00    -0.000 C 
BRANCH  10  11
ATOM     11  C   UNL     1     -34.889   6.390  23.264  1.00  0.00    -0.003 C 
ATOM     12  C   UNL     1     -34.120   7.451  22.481  1.00  0.00     0.004 C 
ENDBRANCH  10  11
ENDBRANCH   9  10
ENDBRANCH   8   9
ENDBRANCH   7   8
ENDBRANCH   6   7
ENDBRANCH   5   6
ENDBRANCH   4   5
ENDBRANCH   3   4
ENDBRANCH   2   3
ENDBRANCH   1   2
BRANCH   1  13
ATOM     13  C   UNL     1     -32.360  11.708  19.456  1.00  0.00     0.000 C 
BRANCH  13  14
ATOM     14  C   UNL     1     -32.523  12.478  18.135  1.00  0.00     0.000 C 
BRANCH  14  15
ATOM     15  C   UNL     1     -33.751  12.029  17.325  1.00  0.00     0.000 C 
BRANCH  15  16
ATOM     16  C   UNL     1     -34.698  13.185  16.938  1.00  0.00     0.000 C 
BRANCH  16  17
ATOM     17  C   UNL     1     -34.285  14.523  17.578  1.00  0.00     0.000 C 
BRANCH  17  18
ATOM     18  C   UNL     1     -34.974  15.729  16.913  1.00  0.00     0.000 C 
BRANCH  18  19
ATOM     19  C   UNL     1     -35.255  16.896  17.880  1.00  0.00     0.000 C 
BRANCH  19  20
ATOM     20  C   UNL     1     -36.736  16.981  18.283  1.00  0.00     0.006 C 
BRANCH  20  21
ATOM     21  C   UNL     1     -37.477  15.693  17.916  1.00  0.00     0.053 C 
BRANCH  21  22
ATOM     22  C   UNL     1     -38.843  15.682  18.528  1.00  0.00     0.041 C 
ATOM     23  O   UNL     1     -39.075  14.978  19.546  1.00  0.00    -0.550 OA
ATOM     24  O   UNL     1     -39.877  16.392  17.930  1.00  0.00    -0.550 OA
ENDBRANCH  21  22
ENDBRANCH  20  21
ENDBRANCH  19  20
ENDBRANCH  18  19
ENDBRANCH  17  18
ENDBRANCH  16  17
ENDBRANCH  15  16
ENDBRANCH  14  15
ENDBRANCH  13  14
ENDBRANCH   1  13
TORSDOF 20
ENDMDL
MODEL 2
REMARK VINA RESULT:    14.247      0.973      2.568
REMARK INTER + INTRA:          29.425
REMARK INTER:                  30.643
REMARK INTRA:                  -1.218
REMARK UNBOUND:                -1.480
REMARK SMILES CCCCCCCCCCCCCCCCCCCCCC(=O)[O-]
REMARK SMILES IDX 12 1 11 2 10 3 9 4 8 5 7 6 6 7 5 8 4 9 3 10 2 11 1 12 13 13
REMARK SMILES IDX 14 14 15 15 16 16 17 17 18 18 19 19 20 20 21 21 22 22 23 23
REMARK SMILES IDX 24 24
REMARK H PARENT
REMARK Flexibility Score: inf
ROOT
ATOM      1  C   UNL     1     -33.868  11.589  20.402  1.00  0.00     0.000 C 
ENDROOT
BRANCH   1   2
ATOM      2  C   UNL     1     -34.189  10.223  21.036  1.00  0.00     0.000 C 
BRANCH   2   3
ATOM      3  C   UNL     1     -33.088   9.177  20.800  1.00  0.00     0.000 C 
BRANCH   3   4
ATOM      4  C   UNL     1     -33.088   8.063  21.858  1.00  0.00    -0.000 C 
BRANCH   4   5
ATOM      5  C   UNL     1     -34.471   7.831  22.484  1.00  0.00    -0.000 C 
BRANCH   5   6
ATOM      6  C   UNL     1     -34.616   6.383  22.967  1.00  0.00    -0.000 C 
BRANCH   6   7
ATOM      7  C   UNL     1     -34.797   6.324  24.491  1.00  0.00    -0.000 C 
BRANCH   7   8
ATOM      8  C   UNL     1     -35.739   7.420  25.021  1.00  0.00    -0.000 C 
BRANCH   8   9
ATOM      9  C   UNL     1     -35.129   8.340  26.100  1.00  0.00    -0.000 C 
BRANCH   9  10
ATOM     10  C   UNL     1     -34.863   9.788  25.649  1.00  0.00    -0.000 C 
BRANCH  10  11
ATOM     11  C   UNL     1     -33.473  10.295  26.059  1.00  0.00    -0.003 C 
ATOM     12  C   UNL     1     -32.865   9.415  27.149  1.00  0.00     0.004 C 
ENDBRANCH  10  11
ENDBRANCH   9  10
ENDBRANCH   8   9
ENDBRANCH   7   8
ENDBRANCH   6   7
ENDBRANCH   5   6
ENDBRANCH   4   5
ENDBRANCH   3   4
ENDBRANCH   2   3
ENDBRANCH   1   2
BRANCH   1  13
ATOM     13  C   UNL     1     -32.737  11.532  19.352  1.00  0.00     0.000 C 
BRANCH  13  14
ATOM     14  C   UNL     1     -32.814  12.695  18.350  1.00  0.00     0.000 C 
BRANCH  14  15
ATOM     15  C   UNL     1     -33.680  12.374  17.121  1.00  0.00     0.000 C 
BRANCH  15  16
ATOM     16  C   UNL     1     -34.604  13.533  16.688  1.00  0.00     0.000 C 
BRANCH  16  17
ATOM     17  C   UNL     1     -34.593  14.699  17.695  1.00  0.00     0.000 C 
BRANCH  17  18
ATOM     18  C   UNL     1     -34.939  16.046  17.035  1.00  0.00     0.000 C 
BRANCH  18  19
ATOM     19  C   UNL     1     -35.333  17.148  18.038  1.00  0.00     0.000 C 
BRANCH  19  20
ATOM     20  C   UNL     1     -36.855  17.251  18.230  1.00  0.00     0.006 C 
BRANCH  20  21
ATOM     21  C   UNL     1     -37.547  15.951  17.810  1.00  0.00     0.053 C 
BRANCH  21  22
ATOM     22  C   UNL     1     -38.843  15.789  18.541  1.00  0.00     0.041 C 
ATOM     23  O   UNL     1     -38.898  15.089  19.586  1.00  0.00    -0.550 OA
ATOM     24  O   UNL     1     -40.005  16.351  18.026  1.00  0.00    -0.550 OA
ENDBRANCH  21  22
ENDBRANCH  20  21
ENDBRANCH  19  20
ENDBRANCH  18  19
ENDBRANCH  17  18
ENDBRANCH  16  17
ENDBRANCH  15  16
ENDBRANCH  14  15
ENDBRANCH  13  14
ENDBRANCH   1  13
TORSDOF 20
ENDMDL
MODEL 3
REMARK VINA RESULT:    14.284      3.061      9.449
REMARK INTER + INTRA:          29.505
REMARK INTER:                  30.804
REMARK INTRA:                  -1.299
REMARK UNBOUND:                -1.480
REMARK SMILES CCCCCCCCCCCCCCCCCCCCCC(=O)[O-]
REMARK SMILES IDX 12 1 11 2 10 3 9 4 8 5 7 6 6 7 5 8 4 9 3 10 2 11 1 12 13 13
REMARK SMILES IDX 14 14 15 15 16 16 17 17 18 18 19 19 20 20 21 21 22 22 23 23
REMARK SMILES IDX 24 24
REMARK H PARENT
REMARK Flexibility Score: inf
ROOT
ATOM      1  C   UNL     1     -32.522  11.569  19.398  1.00  0.00     0.000 C 
ENDROOT
BRANCH   1   2
ATOM      2  C   UNL     1     -32.579  12.607  18.261  1.00  0.00     0.000 C 
BRANCH   2   3
ATOM      3  C   UNL     1     -33.518  12.193  17.117  1.00  0.00     0.000 C 
BRANCH   3   4
ATOM      4  C   UNL     1     -34.398  13.351  16.621  1.00  0.00    -0.000 C 
BRANCH   4   5
ATOM      5  C   UNL     1     -34.462  14.522  17.613  1.00  0.00    -0.000 C 
BRANCH   5   6
ATOM      6  C   UNL     1     -35.120  15.748  16.968  1.00  0.00    -0.000 C 
BRANCH   6   7
ATOM      7  C   UNL     1     -35.251  16.899  17.976  1.00  0.00    -0.000 C 
BRANCH   7   8
ATOM      8  C   UNL     1     -36.711  17.176  18.377  1.00  0.00    -0.000 C 
BRANCH   8   9
ATOM      9  C   UNL     1     -37.747  16.196  17.789  1.00  0.00    -0.000 C 
BRANCH   9  10
ATOM     10  C   UNL     1     -38.647  15.497  18.825  1.00  0.00    -0.000 C 
BRANCH  10  11
ATOM     11  C   UNL     1     -40.133  15.848  18.658  1.00  0.00    -0.003 C 
ATOM     12  C   UNL     1     -40.375  16.618  17.362  1.00  0.00     0.004 C 
ENDBRANCH  10  11
ENDBRANCH   9  10
ENDBRANCH   8   9
ENDBRANCH   7   8
ENDBRANCH   6   7
ENDBRANCH   5   6
ENDBRANCH   4   5
ENDBRANCH   3   4
ENDBRANCH   2   3
ENDBRANCH   1   2
BRANCH   1  13
ATOM     13  C   UNL     1     -33.706  11.668  20.384  1.00  0.00     0.000 C 
BRANCH  13  14
ATOM     14  C   UNL     1     -34.386  10.309  20.614  1.00  0.00     0.000 C 
BRANCH  14  15
ATOM     15  C   UNL     1     -33.430   9.246  21.181  1.00  0.00     0.000 C 
BRANCH  15  16
ATOM     16  C   UNL     1     -33.957   8.548  22.453  1.00  0.00     0.000 C 
BRANCH  16  17
ATOM     17  C   UNL     1     -34.394   7.096  22.188  1.00  0.00     0.000 C 
BRANCH  17  18
ATOM     18  C   UNL     1     -34.474   6.262  23.480  1.00  0.00     0.000 C 
BRANCH  18  19
ATOM     19  C   UNL     1     -35.404   6.864  24.552  1.00  0.00     0.000 C 
BRANCH  19  20
ATOM     20  C   UNL     1     -34.627   7.470  25.732  1.00  0.00     0.006 C 
BRANCH  20  21
ATOM     21  C   UNL     1     -35.126   8.883  26.045  1.00  0.00     0.053 C 
BRANCH  21  22
ATOM     22  C   UNL     1     -33.974   9.836  26.135  1.00  0.00     0.041 C 
ATOM     23  O   UNL     1     -33.926  10.844  25.381  1.00  0.00    -0.550 OA
ATOM     24  O   UNL     1     -32.920   9.571  27.001  1.00  0.00    -0.550 OA
ENDBRANCH  21  22
ENDBRANCH  20  21
ENDBRANCH  19  20
ENDBRANCH  18  19
ENDBRANCH  17  18
ENDBRANCH  16  17
ENDBRANCH  15  16
ENDBRANCH  14  15
ENDBRANCH  13  14
ENDBRANCH   1  13
TORSDOF 20
ENDMDL
MODEL 4
REMARK VINA RESULT:    14.587      5.706      9.142
REMARK INTER + INTRA:          30.161
REMARK INTER:                  31.267
REMARK INTRA:                  -1.106
REMARK UNBOUND:                -1.480
REMARK SMILES CCCCCCCCCCCCCCCCCCCCCC(=O)[O-]
REMARK SMILES IDX 12 1 11 2 10 3 9 4 8 5 7 6 6 7 5 8 4 9 3 10 2 11 1 12 13 13
REMARK SMILES IDX 14 14 15 15 16 16 17 17 18 18 19 19 20 20 21 21 22 22 23 23
REMARK SMILES IDX 24 24
REMARK H PARENT
REMARK Flexibility Score: inf
ROOT
ATOM      1  C   UNL     1     -31.747  12.220  18.707  1.00  0.00     0.000 C 
ENDROOT
BRANCH   1   2
ATOM      2  C   UNL     1     -33.286  12.225  18.787  1.00  0.00     0.000 C 
BRANCH   2   3
ATOM      3  C   UNL     1     -33.959  12.064  17.415  1.00  0.00     0.000 C 
BRANCH   3   4
ATOM      4  C   UNL     1     -34.263  13.410  16.739  1.00  0.00    -0.000 C 
BRANCH   4   5
ATOM      5  C   UNL     1     -34.516  14.541  17.746  1.00  0.00    -0.000 C 
BRANCH   5   6
ATOM      6  C   UNL     1     -35.058  15.789  17.040  1.00  0.00    -0.000 C 
BRANCH   6   7
ATOM      7  C   UNL     1     -34.980  17.021  17.954  1.00  0.00    -0.000 C 
BRANCH   7   8
ATOM      8  C   UNL     1     -36.362  17.486  18.447  1.00  0.00    -0.000 C 
BRANCH   8   9
ATOM      9  C   UNL     1     -37.561  16.716  17.853  1.00  0.00    -0.000 C 
BRANCH   9  10
ATOM     10  C   UNL     1     -38.083  15.554  18.716  1.00  0.00    -0.000 C 
BRANCH  10  11
ATOM     11  C   UNL     1     -39.617  15.501  18.782  1.00  0.00    -0.003 C 
ATOM     12  C   UNL     1     -40.245  16.387  17.708  1.00  0.00     0.004 C 
ENDBRANCH  10  11
ENDBRANCH   9  10
ENDBRANCH   8   9
ENDBRANCH   7   8
ENDBRANCH   6   7
ENDBRANCH   5   6
ENDBRANCH   4   5
ENDBRANCH   3   4
ENDBRANCH   2   3
ENDBRANCH   1   2
BRANCH   1  13
ATOM     13  C   UNL     1     -31.205  12.109  17.266  1.00  0.00     0.000 C 
BRANCH  13  14
ATOM     14  C   UNL     1     -30.363  13.332  16.866  1.00  0.00     0.000 C 
BRANCH  14  15
ATOM     15  C   UNL     1     -28.854  13.037  16.830  1.00  0.00     0.000 C 
BRANCH  15  16
ATOM     16  C   UNL     1     -28.013  14.165  16.193  1.00  0.00     0.000 C 
BRANCH  16  17
ATOM     17  C   UNL     1     -27.700  15.297  17.188  1.00  0.00     0.000 C 
BRANCH  17  18
ATOM     18  C   UNL     1     -26.305  15.151  17.823  1.00  0.00     0.000 C 
BRANCH  18  19
ATOM     19  C   UNL     1     -26.023  16.166  18.948  1.00  0.00     0.000 C 
BRANCH  19  20
ATOM     20  C   UNL     1     -26.166  15.546  20.348  1.00  0.00     0.006 C 
BRANCH  20  21
ATOM     21  C   UNL     1     -26.998  16.448  21.262  1.00  0.00     0.053 C 
BRANCH  21  22
ATOM     22  C   UNL     1     -27.731  15.629  22.279  1.00  0.00     0.041 C 
ATOM     23  O   UNL     1     -28.139  16.159  23.345  1.00  0.00    -0.550 OA
ATOM     24  O   UNL     1     -27.899  14.264  22.080  1.00  0.00    -0.550 OA
ENDBRANCH  21  22
ENDBRANCH  20  21
ENDBRANCH  19  20
ENDBRANCH  18  19
ENDBRANCH  17  18
ENDBRANCH  16  17
ENDBRANCH  15  16
ENDBRANCH  14  15
ENDBRANCH  13  14
ENDBRANCH   1  13
TORSDOF 20
ENDMDL
MODEL 5
REMARK VINA RESULT:    14.680      0.916      2.473
REMARK INTER + INTRA:          30.364
REMARK INTER:                  31.174
REMARK INTRA:                  -0.810
REMARK UNBOUND:                -1.480
REMARK SMILES CCCCCCCCCCCCCCCCCCCCCC(=O)[O-]
REMARK SMILES IDX 12 1 11 2 10 3 9 4 8 5 7 6 6 7 5 8 4 9 3 10 2 11 1 12 13 13
REMARK SMILES IDX 14 14 15 15 16 16 17 17 18 18 19 19 20 20 21 21 22 22 23 23
REMARK SMILES IDX 24 24
REMARK H PARENT
REMARK Flexibility Score: inf
ROOT
ATOM      1  C   UNL     1     -33.141  11.115  19.114  1.00  0.00     0.000 C 
ENDROOT
BRANCH   1   2
ATOM      2  C   UNL     1     -33.870  11.722  20.327  1.00  0.00     0.000 C 
BRANCH   2   3
ATOM      3  C   UNL     1     -34.086  10.712  21.465  1.00  0.00     0.000 C 
BRANCH   3   4
ATOM      4  C   UNL     1     -33.564   9.309  21.123  1.00  0.00    -0.000 C 
BRANCH   4   5
ATOM      5  C   UNL     1     -33.548   8.363  22.333  1.00  0.00    -0.000 C 
BRANCH   5   6
ATOM      6  C   UNL     1     -34.605   7.264  22.181  1.00  0.00    -0.000 C 
BRANCH   6   7
ATOM      7  C   UNL     1     -34.627   6.343  23.410  1.00  0.00    -0.000 C 
BRANCH   7   8
ATOM      8  C   UNL     1     -35.479   6.908  24.562  1.00  0.00    -0.000 C 
BRANCH   8   9
ATOM      9  C   UNL     1     -34.690   7.680  25.640  1.00  0.00    -0.000 C 
BRANCH   9  10
ATOM     10  C   UNL     1     -35.290   9.042  26.038  1.00  0.00    -0.000 C 
BRANCH  10  11
ATOM     11  C   UNL     1     -34.341  10.217  25.757  1.00  0.00    -0.003 C 
ATOM     12  C   UNL     1     -32.985  10.001  26.425  1.00  0.00     0.004 C 
ENDBRANCH  10  11
ENDBRANCH   9  10
ENDBRANCH   8   9
ENDBRANCH   7   8
ENDBRANCH   6   7
ENDBRANCH   5   6
ENDBRANCH   4   5
ENDBRANCH   3   4
ENDBRANCH   2   3
ENDBRANCH   1   2
BRANCH   1  13
ATOM     13  C   UNL     1     -32.044  12.032  18.531  1.00  0.00     0.000 C 
BRANCH  13  14
ATOM     14  C   UNL     1     -32.512  12.765  17.262  1.00  0.00     0.000 C 
BRANCH  14  15
ATOM     15  C   UNL     1     -34.012  12.575  16.977  1.00  0.00     0.000 C 
BRANCH  15  16
ATOM     16  C   UNL     1     -34.743  13.878  16.589  1.00  0.00     0.000 C 
BRANCH  16  17
ATOM     17  C   UNL     1     -34.727  14.919  17.723  1.00  0.00     0.000 C 
BRANCH  17  18
ATOM     18  C   UNL     1     -34.835  16.362  17.196  1.00  0.00     0.000 C 
BRANCH  18  19
ATOM     19  C   UNL     1     -35.491  17.341  18.190  1.00  0.00     0.000 C 
BRANCH  19  20
ATOM     20  C   UNL     1     -37.025  17.244  18.185  1.00  0.00     0.006 C 
BRANCH  20  21
ATOM     21  C   UNL     1     -37.479  15.782  18.163  1.00  0.00     0.053 C 
BRANCH  21  22
ATOM     22  C   UNL     1     -38.912  15.673  18.585  1.00  0.00     0.041 C 
ATOM     23  O   UNL     1     -39.797  16.355  18.004  1.00  0.00    -0.550 OA
ATOM     24  O   UNL     1     -39.257  14.872  19.666  1.00  0.00    -0.550 OA
ENDBRANCH  21  22
ENDBRANCH  20  21
ENDBRANCH  19  20
ENDBRANCH  18  19
ENDBRANCH  17  18
ENDBRANCH  16  17
ENDBRANCH  15  16
ENDBRANCH  14  15
ENDBRANCH  13  14
ENDBRANCH   1  13
TORSDOF 20
ENDMDL
MODEL 6
REMARK VINA RESULT:    14.866      3.286      9.468
REMARK INTER + INTRA:          30.768
REMARK INTER:                  31.597
REMARK INTRA:                  -0.829
REMARK UNBOUND:                -1.480
REMARK SMILES CCCCCCCCCCCCCCCCCCCCCC(=O)[O-]
REMARK SMILES IDX 12 1 11 2 10 3 9 4 8 5 7 6 6 7 5 8 4 9 3 10 2 11 1 12 13 13
REMARK SMILES IDX 14 14 15 15 16 16 17 17 18 18 19 19 20 20 21 21 22 22 23 23
REMARK SMILES IDX 24 24
REMARK H PARENT
REMARK Flexibility Score: inf
ROOT
ATOM      1  C   UNL     1     -33.239  10.567  19.955  1.00  0.00     0.000 C 
ENDROOT
BRANCH   1   2
ATOM      2  C   UNL     1     -32.907  11.986  19.456  1.00  0.00     0.000 C 
BRANCH   2   3
ATOM      3  C   UNL     1     -32.601  12.037  17.950  1.00  0.00     0.000 C 
BRANCH   3   4
ATOM      4  C   UNL     1     -33.860  12.231  17.093  1.00  0.00    -0.000 C 
BRANCH   4   5
ATOM      5  C   UNL     1     -33.969  13.644  16.498  1.00  0.00    -0.000 C 
BRANCH   5   6
ATOM      6  C   UNL     1     -34.548  14.625  17.525  1.00  0.00    -0.000 C 
BRANCH   6   7
ATOM      7  C   UNL     1     -35.237  15.809  16.831  1.00  0.00    -0.000 C 
BRANCH   7   8
ATOM      8  C   UNL     1     -35.546  16.967  17.797  1.00  0.00    -0.000 C 
BRANCH   8   9
ATOM      9  C   UNL     1     -36.969  16.959  18.393  1.00  0.00    -0.000 C 
BRANCH   9  10
ATOM     10  C   UNL     1     -37.733  15.631  18.241  1.00  0.00    -0.000 C 
BRANCH  10  11
ATOM     11  C   UNL     1     -39.223  15.756  18.590  1.00  0.00    -0.003 C 
ATOM     12  C   UNL     1     -39.970  16.564  17.531  1.00  0.00     0.004 C 
ENDBRANCH  10  11
ENDBRANCH   9  10
ENDBRANCH   8   9
ENDBRANCH   7   8
ENDBRANCH   6   7
ENDBRANCH   5   6
ENDBRANCH   4   5
ENDBRANCH   3   4
ENDBRANCH   2   3
ENDBRANCH   1   2
BRANCH   1  13
ATOM     13  C   UNL     1     -34.057  10.549  21.264  1.00  0.00     0.000 C 
BRANCH  13  14
ATOM     14  C   UNL     1     -34.264  11.959  21.841  1.00  0.00     0.000 C 
BRANCH  14  15
ATOM     15  C   UNL     1     -34.589  11.951  23.345  1.00  0.00     0.000 C 
BRANCH  15  16
ATOM     16  C   UNL     1     -33.900  10.811  24.125  1.00  0.00     0.000 C 
BRANCH  16  17
ATOM     17  C   UNL     1     -34.139  10.910  25.643  1.00  0.00     0.000 C 
BRANCH  17  18
ATOM     18  C   UNL     1     -33.157  10.041  26.450  1.00  0.00     0.000 C 
BRANCH  18  19
ATOM     19  C   UNL     1     -33.688   8.627  26.762  1.00  0.00     0.000 C 
BRANCH  19  20
ATOM     20  C   UNL     1     -34.712   8.142  25.724  1.00  0.00     0.006 C 
BRANCH  20  21
ATOM     21  C   UNL     1     -34.278   6.809  25.110  1.00  0.00     0.053 C 
BRANCH  21  22
ATOM     22  C   UNL     1     -35.085   6.509  23.885  1.00  0.00     0.041 C 
ATOM     23  O   UNL     1     -36.332   6.362  23.969  1.00  0.00    -0.550 OA
ATOM     24  O   UNL     1     -34.449   6.321  22.664  1.00  0.00    -0.550 OA
ENDBRANCH  21  22
ENDBRANCH  20  21
ENDBRANCH  19  20
ENDBRANCH  18  19
ENDBRANCH  17  18
ENDBRANCH  16  17
ENDBRANCH  15  16
ENDBRANCH  14  15
ENDBRANCH  13  14
ENDBRANCH   1  13
TORSDOF 20
ENDMDL
MODEL 7
REMARK VINA RESULT:    15.015      4.594      7.359
REMARK INTER + INTRA:          31.091
REMARK INTER:                  32.178
REMARK INTRA:                  -1.087
REMARK UNBOUND:                -1.480
REMARK SMILES CCCCCCCCCCCCCCCCCCCCCC(=O)[O-]
REMARK SMILES IDX 12 1 11 2 10 3 9 4 8 5 7 6 6 7 5 8 4 9 3 10 2 11 1 12 13 13
REMARK SMILES IDX 14 14 15 15 16 16 17 17 18 18 19 19 20 20 21 21 22 22 23 23
REMARK SMILES IDX 24 24
REMARK H PARENT
REMARK Flexibility Score: inf
ROOT
ATOM      1  C   UNL     1     -31.802  11.817  18.394  1.00  0.00     0.000 C 
ENDROOT
BRANCH   1   2
ATOM      2  C   UNL     1     -31.144  12.494  17.177  1.00  0.00     0.000 C 
BRANCH   2   3
ATOM      3  C   UNL     1     -29.778  13.119  17.503  1.00  0.00     0.000 C 
BRANCH   3   4
ATOM      4  C   UNL     1     -28.912  13.343  16.254  1.00  0.00    -0.000 C 
BRANCH   4   5
ATOM      5  C   UNL     1     -27.965  14.544  16.389  1.00  0.00    -0.000 C 
BRANCH   5   6
ATOM      6  C   UNL     1     -27.588  14.779  17.856  1.00  0.00    -0.000 C 
BRANCH   6   7
ATOM      7  C   UNL     1     -26.218  15.464  17.973  1.00  0.00    -0.000 C 
BRANCH   7   8
ATOM      8  C   UNL     1     -26.137  16.435  19.164  1.00  0.00    -0.000 C 
BRANCH   8   9
ATOM      9  C   UNL     1     -26.118  15.765  20.554  1.00  0.00    -0.000 C 
BRANCH   9  10
ATOM     10  C   UNL     1     -26.821  16.558  21.671  1.00  0.00    -0.000 C 
BRANCH  10  11
ATOM     11  C   UNL     1     -27.966  15.774  22.330  1.00  0.00    -0.003 C 
ATOM     12  C   UNL     1     -27.708  14.270  22.271  1.00  0.00     0.004 C 
ENDBRANCH  10  11
ENDBRANCH   9  10
ENDBRANCH   8   9
ENDBRANCH   7   8
ENDBRANCH   6   7
ENDBRANCH   5   6
ENDBRANCH   4   5
ENDBRANCH   3   4
ENDBRANCH   2   3
ENDBRANCH   1   2
BRANCH   1  13
ATOM     13  C   UNL     1     -33.257  12.271  18.641  1.00  0.00     0.000 C 
BRANCH  13  14
ATOM     14  C   UNL     1     -33.914  12.835  17.371  1.00  0.00     0.000 C 
BRANCH  14  15
ATOM     15  C   UNL     1     -34.318  14.313  17.510  1.00  0.00     0.000 C 
BRANCH  15  16
ATOM     16  C   UNL     1     -34.735  14.973  16.177  1.00  0.00     0.000 C 
BRANCH  16  17
ATOM     17  C   UNL     1     -35.131  16.450  16.353  1.00  0.00     0.000 C 
BRANCH  17  18
ATOM     18  C   UNL     1     -34.636  17.035  17.689  1.00  0.00     0.000 C 
BRANCH  18  19
ATOM     19  C   UNL     1     -35.771  17.504  18.621  1.00  0.00     0.000 C 
BRANCH  19  20
ATOM     20  C   UNL     1     -37.163  17.131  18.086  1.00  0.00     0.006 C 
BRANCH  20  21
ATOM     21  C   UNL     1     -37.503  15.676  18.417  1.00  0.00     0.053 C 
BRANCH  21  22
ATOM     22  C   UNL     1     -38.970  15.529  18.683  1.00  0.00     0.041 C 
ATOM     23  O   UNL     1     -39.797  16.279  18.101  1.00  0.00    -0.550 OA
ATOM     24  O   UNL     1     -39.415  14.613  19.628  1.00  0.00    -0.550 OA
ENDBRANCH  21  22
ENDBRANCH  20  21
ENDBRANCH  19  20
ENDBRANCH  18  19
ENDBRANCH  17  18
ENDBRANCH  16  17
ENDBRANCH  15  16
ENDBRANCH  14  15
ENDBRANCH  13  14
ENDBRANCH   1  13
TORSDOF 20
ENDMDL
MODEL 8
REMARK VINA RESULT:    15.922      2.859      9.507
REMARK INTER + INTRA:          33.058
REMARK INTER:                  34.478
REMARK INTRA:                  -1.420
REMARK UNBOUND:                -1.480
REMARK SMILES CCCCCCCCCCCCCCCCCCCCCC(=O)[O-]
REMARK SMILES IDX 12 1 11 2 10 3 9 4 8 5 7 6 6 7 5 8 4 9 3 10 2 11 1 12 13 13
REMARK SMILES IDX 14 14 15 15 16 16 17 17 18 18 19 19 20 20 21 21 22 22 23 23
REMARK SMILES IDX 24 24
REMARK H PARENT
REMARK Flexibility Score: inf
ROOT
ATOM      1  C   UNL     1     -34.001  11.036  21.224  1.00  0.00     0.000 C 
ENDROOT
BRANCH   1   2
ATOM      2  C   UNL     1     -33.634  11.940  20.032  1.00  0.00     0.000 C 
BRANCH   2   3
ATOM      3  C   UNL     1     -32.360  11.485  19.303  1.00  0.00     0.000 C 
BRANCH   3   4
ATOM      4  C   UNL     1     -32.345  11.890  17.821  1.00  0.00    -0.000 C 
BRANCH   4   5
ATOM      5  C   UNL     1     -33.724  12.330  17.306  1.00  0.00    -0.000 C 
BRANCH   5   6
ATOM      6  C   UNL     1     -33.692  13.791  16.841  1.00  0.00    -0.000 C 
BRANCH   6   7
ATOM      7  C   UNL     1     -34.660  14.654  17.663  1.00  0.00    -0.000 C 
BRANCH   7   8
ATOM      8  C   UNL     1     -35.122  15.914  16.908  1.00  0.00    -0.000 C 
BRANCH   8   9
ATOM      9  C   UNL     1     -35.312  17.169  17.786  1.00  0.00    -0.000 C 
BRANCH   9  10
ATOM     10  C   UNL     1     -36.673  17.267  18.499  1.00  0.00    -0.000 C 
BRANCH  10  11
ATOM     11  C   UNL     1     -37.741  16.356  17.875  1.00  0.00    -0.003 C 
ATOM     12  C   UNL     1     -38.405  15.480  18.935  1.00  0.00     0.004 C 
ENDBRANCH  10  11
ENDBRANCH   9  10
ENDBRANCH   8   9
ENDBRANCH   7   8
ENDBRANCH   6   7
ENDBRANCH   5   6
ENDBRANCH   4   5
ENDBRANCH   3   4
ENDBRANCH   2   3
ENDBRANCH   1   2
BRANCH   1  13
ATOM     13  C   UNL     1     -34.252   9.565  20.829  1.00  0.00     0.000 C 
BRANCH  13  14
ATOM     14  C   UNL     1     -33.764   8.582  21.906  1.00  0.00     0.000 C 
BRANCH  14  15
ATOM     15  C   UNL     1     -34.802   7.497  22.243  1.00  0.00     0.000 C 
BRANCH  15  16
ATOM     16  C   UNL     1     -34.281   6.419  23.218  1.00  0.00     0.000 C 
BRANCH  16  17
ATOM     17  C   UNL     1     -34.674   6.709  24.678  1.00  0.00     0.000 C 
BRANCH  17  18
ATOM     18  C   UNL     1     -33.654   6.143  25.684  1.00  0.00     0.000 C 
BRANCH  18  19
ATOM     19  C   UNL     1     -32.779   7.220  26.356  1.00  0.00     0.000 C 
BRANCH  19  20
ATOM     20  C   UNL     1     -33.615   8.291  27.076  1.00  0.00     0.006 C 
BRANCH  20  21
ATOM     21  C   UNL     1     -33.259   9.692  26.571  1.00  0.00     0.053 C 
BRANCH  21  22
ATOM     22  C   UNL     1     -34.378  10.251  25.749  1.00  0.00     0.041 C 
ATOM     23  O   UNL     1     -34.129  10.990  24.760  1.00  0.00    -0.550 OA
ATOM     24  O   UNL     1     -35.696  10.016  26.120  1.00  0.00    -0.550 OA
ENDBRANCH  21  22
ENDBRANCH  20  21
ENDBRANCH  19  20
ENDBRANCH  18  19
ENDBRANCH  17  18
ENDBRANCH  16  17
ENDBRANCH  15  16
ENDBRANCH  14  15
ENDBRANCH  13  14
ENDBRANCH   1  13
TORSDOF 20
ENDMDL
MODEL 9
REMARK VINA RESULT:    16.057      3.774      9.295
REMARK INTER + INTRA:          33.351
REMARK INTER:                  33.809
REMARK INTRA:                  -0.458
REMARK UNBOUND:                -1.480
REMARK SMILES CCCCCCCCCCCCCCCCCCCCCC(=O)[O-]
REMARK SMILES IDX 12 1 11 2 10 3 9 4 8 5 7 6 6 7 5 8 4 9 3 10 2 11 1 12 13 13
REMARK SMILES IDX 14 14 15 15 16 16 17 17 18 18 19 19 20 20 21 21 22 22 23 23
REMARK SMILES IDX 24 24
REMARK H PARENT
REMARK Flexibility Score: inf
ROOT
ATOM      1  C   UNL     1     -32.521  11.866  17.652  1.00  0.00     0.000 C 
ENDROOT
BRANCH   1   2
ATOM      2  C   UNL     1     -33.011  13.041  16.784  1.00  0.00     0.000 C 
BRANCH   2   3
ATOM      3  C   UNL     1     -34.513  13.325  16.951  1.00  0.00     0.000 C 
BRANCH   3   4
ATOM      4  C   UNL     1     -34.791  14.657  17.664  1.00  0.00    -0.000 C 
BRANCH   4   5
ATOM      5  C   UNL     1     -35.125  15.798  16.692  1.00  0.00    -0.000 C 
BRANCH   5   6
ATOM      6  C   UNL     1     -34.815  17.160  17.323  1.00  0.00    -0.000 C 
BRANCH   6   7
ATOM      7  C   UNL     1     -35.720  17.427  18.535  1.00  0.00    -0.000 C 
BRANCH   7   8
ATOM      8  C   UNL     1     -37.209  17.181  18.231  1.00  0.00    -0.000 C 
BRANCH   8   9
ATOM      9  C   UNL     1     -37.690  15.731  18.451  1.00  0.00    -0.000 C 
BRANCH   9  10
ATOM     10  C   UNL     1     -39.210  15.520  18.323  1.00  0.00    -0.000 C 
BRANCH  10  11
ATOM     11  C   UNL     1     -39.953  16.789  17.879  1.00  0.00    -0.003 C 
ATOM     12  C   UNL     1     -41.032  16.462  16.849  1.00  0.00     0.004 C 
ENDBRANCH  10  11
ENDBRANCH   9  10
ENDBRANCH   8   9
ENDBRANCH   7   8
ENDBRANCH   6   7
ENDBRANCH   5   6
ENDBRANCH   4   5
ENDBRANCH   3   4
ENDBRANCH   2   3
ENDBRANCH   1   2
BRANCH   1  13
ATOM     13  C   UNL     1     -32.313  12.239  19.135  1.00  0.00     0.000 C 
BRANCH  13  14
ATOM     14  C   UNL     1     -33.574  11.991  19.979  1.00  0.00     0.000 C 
BRANCH  14  15
ATOM     15  C   UNL     1     -33.906  10.497  20.138  1.00  0.00     0.000 C 
BRANCH  15  16
ATOM     16  C   UNL     1     -34.160  10.066  21.599  1.00  0.00     0.000 C 
BRANCH  16  17
ATOM     17  C   UNL     1     -34.315  11.270  22.547  1.00  0.00     0.000 C 
BRANCH  17  18
ATOM     18  C   UNL     1     -33.690  11.011  23.930  1.00  0.00     0.000 C 
BRANCH  18  19
ATOM     19  C   UNL     1     -34.588  11.435  25.109  1.00  0.00     0.000 C 
BRANCH  19  20
ATOM     20  C   UNL     1     -35.141  10.231  25.889  1.00  0.00     0.006 C 
BRANCH  20  21
ATOM     21  C   UNL     1     -34.179   9.042  25.812  1.00  0.00     0.053 C 
BRANCH  21  22
ATOM     22  C   UNL     1     -33.169   9.115  26.914  1.00  0.00     0.041 C 
ATOM     23  O   UNL     1     -32.942   8.106  27.633  1.00  0.00    -0.550 OA
ATOM     24  O   UNL     1     -32.532  10.318  27.193  1.00  0.00    -0.550 OA
ENDBRANCH  21  22
ENDBRANCH  20  21
ENDBRANCH  19  20
ENDBRANCH  18  19
ENDBRANCH  17  18
ENDBRANCH  16  17
ENDBRANCH  15  16
ENDBRANCH  14  15
ENDBRANCH  13  14
ENDBRANCH   1  13
TORSDOF 20
ENDMDL
