MODEL 1
REMARK VINA RESULT:    -7.163      0.000      0.000
REMARK INTER + INTRA:          -8.808
REMARK INTER:                  -8.628
REMARK INTRA:                  -0.180
REMARK UNBOUND:                -0.180
REMARK SMILES O=c1c(O)c(-c2ccc(O)c(O)c2)oc2cc(O)cc(O)c12
REMARK SMILES IDX 5 1 3 2 2 3 1 4 22 5 20 6 19 7 17 8 16 9 15 10 14 11 6 12
REMARK SMILES IDX 7 13 8 14 9 15 13 16 11 17 10 18 12 20 4 22 21 24 18 26
REMARK H PARENT 10 19 12 21 4 23 21 25 18 27
REMARK Flexibility Score: inf
ROOT
ATOM      1  C   UNL     1      14.788  20.447  21.624  1.00  0.00     0.180 A 
ATOM      2  C   UNL     1      13.524  20.827  21.140  1.00  0.00     0.208 A 
ATOM      3  C   UNL     1      12.376  20.286  21.738  1.00  0.00     0.238 A 
ATOM      4  O   UNL     1      11.249  20.589  21.265  1.00  0.00    -0.285 OA
ATOM      5  C   UNL     1      12.504  19.383  22.821  1.00  0.00     0.111 A 
ATOM      6  C   UNL     1      11.407  18.806  23.528  1.00  0.00     0.134 A 
ATOM      7  C   UNL     1      11.651  17.825  24.498  1.00  0.00     0.093 A 
ATOM      8  C   UNL     1      12.951  17.450  24.832  1.00  0.00     0.123 A 
ATOM      9  C   UNL     1      14.033  18.053  24.189  1.00  0.00     0.094 A 
ATOM     10  C   UNL     1      13.821  19.008  23.192  1.00  0.00     0.146 A 
ATOM     11  O   UNL     1      14.877  19.549  22.597  1.00  0.00    -0.452 OA
ENDROOT
BRANCH   1  12
ATOM     12  C   UNL     1      16.045  20.994  21.062  1.00  0.00     0.025 A 
ATOM     13  C   UNL     1      16.348  22.365  21.145  1.00  0.00     0.016 A 
ATOM     14  C   UNL     1      17.551  22.855  20.629  1.00  0.00     0.051 A 
ATOM     15  C   UNL     1      18.473  21.983  20.035  1.00  0.00     0.157 A 
ATOM     16  C   UNL     1      16.982  20.122  20.484  1.00  0.00     0.062 A 
ATOM     17  C   UNL     1      18.188  20.610  19.966  1.00  0.00     0.158 A 
BRANCH  15  18
ATOM     18  O   UNL     1      19.671  22.476  19.520  1.00  0.00    -0.504 OA
ATOM     19  H   UNL     1      19.692  23.060  18.693  1.00  0.00     0.293 HD
ENDBRANCH  15  18
BRANCH  17  20
ATOM     20  O   UNL     1      19.087  19.715  19.387  1.00  0.00    -0.504 OA
ATOM     21  H   UNL     1      20.068  19.698  19.641  1.00  0.00     0.293 HD
ENDBRANCH  17  20
ENDBRANCH   1  12
BRANCH   2  22
ATOM     22  O   UNL     1      13.422  21.703  20.055  1.00  0.00    -0.502 OA
ATOM     23  H   UNL     1      14.235  22.095  19.595  1.00  0.00     0.293 HD
ENDBRANCH   2  22
BRANCH   6  24
ATOM     24  O   UNL     1      10.072  19.175  23.335  1.00  0.00    -0.507 OA
ATOM     25  H   UNL     1       9.771  20.020  22.875  1.00  0.00     0.293 HD
ENDBRANCH   6  24
BRANCH   8  26
ATOM     26  O   UNL     1      13.157  16.483  25.813  1.00  0.00    -0.508 OA
ATOM     27  H   UNL     1      13.072  15.494  25.609  1.00  0.00     0.293 HD
ENDBRANCH   8  26
TORSDOF 6
ENDMDL
MODEL 2
REMARK VINA RESULT:    -7.107      4.878      7.933
REMARK INTER + INTRA:          -8.741
REMARK INTER:                  -8.449
REMARK INTRA:                  -0.292
REMARK UNBOUND:                -0.180
REMARK SMILES O=c1c(O)c(-c2ccc(O)c(O)c2)oc2cc(O)cc(O)c12
REMARK SMILES IDX 5 1 3 2 2 3 1 4 22 5 20 6 19 7 17 8 16 9 15 10 14 11 6 12
REMARK SMILES IDX 7 13 8 14 9 15 13 16 11 17 10 18 12 20 4 22 21 24 18 26
REMARK H PARENT 10 19 12 21 4 23 21 25 18 27
REMARK Flexibility Score: inf
ROOT
ATOM      1  C   UNL     1      16.535  18.132  25.502  1.00  0.00     0.180 A 
ATOM      2  C   UNL     1      17.534  17.358  24.884  1.00  0.00     0.208 A 
ATOM      3  C   UNL     1      18.866  17.512  25.298  1.00  0.00     0.238 A 
ATOM      4  O   UNL     1      19.762  16.856  24.704  1.00  0.00    -0.285 OA
ATOM      5  C   UNL     1      19.183  18.425  26.333  1.00  0.00     0.111 A 
ATOM      6  C   UNL     1      20.493  18.631  26.858  1.00  0.00     0.134 A 
ATOM      7  C   UNL     1      20.709  19.653  27.791  1.00  0.00     0.093 A 
ATOM      8  C   UNL     1      19.654  20.431  28.266  1.00  0.00     0.123 A 
ATOM      9  C   UNL     1      18.358  20.197  27.803  1.00  0.00     0.094 A 
ATOM     10  C   UNL     1      18.116  19.209  26.846  1.00  0.00     0.146 A 
ATOM     11  O   UNL     1      16.871  19.026  26.424  1.00  0.00    -0.452 OA
ENDROOT
BRANCH   1  12
ATOM     12  C   UNL     1      15.105  18.008  25.138  1.00  0.00     0.025 A 
ATOM     13  C   UNL     1      14.324  16.930  25.594  1.00  0.00     0.016 A 
ATOM     14  C   UNL     1      12.971  16.847  25.258  1.00  0.00     0.051 A 
ATOM     15  C   UNL     1      12.373  17.844  24.474  1.00  0.00     0.157 A 
ATOM     16  C   UNL     1      14.496  19.014  24.371  1.00  0.00     0.062 A 
ATOM     17  C   UNL     1      13.140  18.934  24.031  1.00  0.00     0.158 A 
BRANCH  15  18
ATOM     18  O   UNL     1      11.023  17.756  24.139  1.00  0.00    -0.504 OA
ATOM     19  H   UNL     1      10.314  18.259  24.660  1.00  0.00     0.293 HD
ENDBRANCH  15  18
BRANCH  17  20
ATOM     20  O   UNL     1      12.575  19.946  23.256  1.00  0.00    -0.504 OA
ATOM     21  H   UNL     1      11.862  19.756  22.562  1.00  0.00     0.293 HD
ENDBRANCH  17  20
ENDBRANCH   1  12
BRANCH   2  22
ATOM     22  O   UNL     1      17.202  16.480  23.849  1.00  0.00    -0.502 OA
ATOM     23  H   UNL     1      17.879  15.852  23.432  1.00  0.00     0.293 HD
ENDBRANCH   2  22
BRANCH   6  24
ATOM     24  O   UNL     1      21.602  17.850  26.520  1.00  0.00    -0.507 OA
ATOM     25  H   UNL     1      22.202  18.017  25.727  1.00  0.00     0.293 HD
ENDBRANCH   6  24
BRANCH   8  26
ATOM     26  O   UNL     1      19.903  21.428  29.205  1.00  0.00    -0.508 OA
ATOM     27  H   UNL     1      20.606  22.141  29.049  1.00  0.00     0.293 HD
ENDBRANCH   8  26
TORSDOF 6
ENDMDL
MODEL 3
REMARK VINA RESULT:    -7.047      4.120      6.090
REMARK INTER + INTRA:          -8.669
REMARK INTER:                  -8.391
REMARK INTRA:                  -0.277
REMARK UNBOUND:                -0.180
REMARK SMILES O=c1c(O)c(-c2ccc(O)c(O)c2)oc2cc(O)cc(O)c12
REMARK SMILES IDX 5 1 3 2 2 3 1 4 22 5 20 6 19 7 17 8 16 9 15 10 14 11 6 12
REMARK SMILES IDX 7 13 8 14 9 15 13 16 11 17 10 18 12 20 4 22 21 24 18 26
REMARK H PARENT 10 19 12 21 4 23 21 25 18 27
REMARK Flexibility Score: inf
ROOT
ATOM      1  C   UNL     1      18.110  18.645  20.031  1.00  0.00     0.180 A 
ATOM      2  C   UNL     1      18.023  17.905  18.839  1.00  0.00     0.208 A 
ATOM      3  C   UNL     1      18.263  16.523  18.878  1.00  0.00     0.238 A 
ATOM      4  O   UNL     1      18.236  15.874  17.798  1.00  0.00    -0.285 OA
ATOM      5  C   UNL     1      18.570  15.894  20.108  1.00  0.00     0.111 A 
ATOM      6  C   UNL     1      18.791  14.494  20.270  1.00  0.00     0.134 A 
ATOM      7  C   UNL     1      19.217  14.001  21.510  1.00  0.00     0.093 A 
ATOM      8  C   UNL     1      19.366  14.847  22.608  1.00  0.00     0.123 A 
ATOM      9  C   UNL     1      19.094  16.209  22.476  1.00  0.00     0.094 A 
ATOM     10  C   UNL     1      18.702  16.736  21.244  1.00  0.00     0.146 A 
ATOM     11  O   UNL     1      18.464  18.039  21.157  1.00  0.00    -0.452 OA
ENDROOT
BRANCH   1  12
ATOM     12  C   UNL     1      17.846  20.102  20.075  1.00  0.00     0.025 A 
ATOM     13  C   UNL     1      18.798  21.032  19.621  1.00  0.00     0.016 A 
ATOM     14  C   UNL     1      18.518  22.401  19.650  1.00  0.00     0.051 A 
ATOM     15  C   UNL     1      17.280  22.860  20.118  1.00  0.00     0.157 A 
ATOM     16  C   UNL     1      16.599  20.567  20.524  1.00  0.00     0.062 A 
ATOM     17  C   UNL     1      16.315  21.937  20.555  1.00  0.00     0.158 A 
BRANCH  15  18
ATOM     18  O   UNL     1      17.005  24.226  20.147  1.00  0.00    -0.504 OA
ATOM     19  H   UNL     1      17.696  24.912  19.869  1.00  0.00     0.293 HD
ENDBRANCH  15  18
BRANCH  17  20
ATOM     20  O   UNL     1      15.071  22.360  21.021  1.00  0.00    -0.504 OA
ATOM     21  H   UNL     1      14.667  22.001  21.877  1.00  0.00     0.293 HD
ENDBRANCH  17  20
ENDBRANCH   1  12
BRANCH   2  22
ATOM     22  O   UNL     1      17.740  18.549  17.631  1.00  0.00    -0.502 OA
ATOM     23  H   UNL     1      18.415  19.139  17.158  1.00  0.00     0.293 HD
ENDBRANCH   2  22
BRANCH   6  24
ATOM     24  O   UNL     1      18.583  13.549  19.261  1.00  0.00    -0.507 OA
ATOM     25  H   UNL     1      18.997  12.630  19.240  1.00  0.00     0.293 HD
ENDBRANCH   6  24
BRANCH   8  26
ATOM     26  O   UNL     1      19.776  14.320  23.831  1.00  0.00    -0.508 OA
ATOM     27  H   UNL     1      20.314  13.463  23.885  1.00  0.00     0.293 HD
ENDBRANCH   8  26
TORSDOF 6
ENDMDL
MODEL 4
REMARK VINA RESULT:    -6.925      4.348      6.467
REMARK INTER + INTRA:          -8.522
REMARK INTER:                  -8.270
REMARK INTRA:                  -0.252
REMARK UNBOUND:                -0.180
REMARK SMILES O=c1c(O)c(-c2ccc(O)c(O)c2)oc2cc(O)cc(O)c12
REMARK SMILES IDX 5 1 3 2 2 3 1 4 22 5 20 6 19 7 17 8 16 9 15 10 14 11 6 12
REMARK SMILES IDX 7 13 8 14 9 15 13 16 11 17 10 18 12 20 4 22 21 24 18 26
REMARK H PARENT 10 19 12 21 4 23 21 25 18 27
REMARK Flexibility Score: inf
ROOT
ATOM      1  C   UNL     1      17.294  19.278  19.043  1.00  0.00     0.180 A 
ATOM      2  C   UNL     1      18.144  18.218  19.404  1.00  0.00     0.208 A 
ATOM      3  C   UNL     1      17.946  16.958  18.818  1.00  0.00     0.238 A 
ATOM      4  O   UNL     1      18.676  15.999  19.185  1.00  0.00    -0.285 OA
ATOM      5  C   UNL     1      16.912  16.776  17.869  1.00  0.00     0.111 A 
ATOM      6  C   UNL     1      16.647  15.553  17.183  1.00  0.00     0.134 A 
ATOM      7  C   UNL     1      15.517  15.452  16.362  1.00  0.00     0.093 A 
ATOM      8  C   UNL     1      14.681  16.548  16.151  1.00  0.00     0.123 A 
ATOM      9  C   UNL     1      14.965  17.766  16.769  1.00  0.00     0.094 A 
ATOM     10  C   UNL     1      16.064  17.887  17.622  1.00  0.00     0.146 A 
ATOM     11  O   UNL     1      16.293  19.060  18.200  1.00  0.00    -0.452 OA
ENDROOT
BRANCH   1  12
ATOM     12  C   UNL     1      17.456  20.641  19.599  1.00  0.00     0.025 A 
ATOM     13  C   UNL     1      18.536  21.461  19.225  1.00  0.00     0.016 A 
ATOM     14  C   UNL     1      18.655  22.753  19.744  1.00  0.00     0.051 A 
ATOM     15  C   UNL     1      17.691  23.251  20.630  1.00  0.00     0.157 A 
ATOM     16  C   UNL     1      16.482  21.153  20.471  1.00  0.00     0.062 A 
ATOM     17  C   UNL     1      16.598  22.447  20.993  1.00  0.00     0.158 A 
BRANCH  15  18
ATOM     18  O   UNL     1      17.814  24.540  21.147  1.00  0.00    -0.504 OA
ATOM     19  H   UNL     1      17.016  25.159  21.222  1.00  0.00     0.293 HD
ENDBRANCH  15  18
BRANCH  17  20
ATOM     20  O   UNL     1      15.618  22.915  21.868  1.00  0.00    -0.504 OA
ATOM     21  H   UNL     1      15.850  23.423  22.713  1.00  0.00     0.293 HD
ENDBRANCH  17  20
ENDBRANCH   1  12
BRANCH   2  22
ATOM     22  O   UNL     1      19.145  18.414  20.360  1.00  0.00    -0.502 OA
ATOM     23  H   UNL     1      19.820  19.166  20.293  1.00  0.00     0.293 HD
ENDBRANCH   2  22
BRANCH   6  24
ATOM     24  O   UNL     1      17.471  14.425  17.252  1.00  0.00    -0.507 OA
ATOM     25  H   UNL     1      17.655  13.800  16.483  1.00  0.00     0.293 HD
ENDBRANCH   6  24
BRANCH   8  26
ATOM     26  O   UNL     1      13.574  16.416  15.315  1.00  0.00    -0.508 OA
ATOM     27  H   UNL     1      13.643  15.968  14.409  1.00  0.00     0.293 HD
ENDBRANCH   8  26
TORSDOF 6
ENDMDL
MODEL 5
REMARK VINA RESULT:    -6.863      4.657      7.816
REMARK INTER + INTRA:          -8.447
REMARK INTER:                  -8.226
REMARK INTRA:                  -0.221
REMARK UNBOUND:                -0.180
REMARK SMILES O=c1c(O)c(-c2ccc(O)c(O)c2)oc2cc(O)cc(O)c12
REMARK SMILES IDX 5 1 3 2 2 3 1 4 22 5 20 6 19 7 17 8 16 9 15 10 14 11 6 12
REMARK SMILES IDX 7 13 8 14 9 15 13 16 11 17 10 18 12 20 4 22 21 24 18 26
REMARK H PARENT 10 19 12 21 4 23 21 25 18 27
REMARK Flexibility Score: inf
ROOT
ATOM      1  C   UNL     1      16.584  17.563  24.989  1.00  0.00     0.180 A 
ATOM      2  C   UNL     1      17.371  18.358  25.840  1.00  0.00     0.208 A 
ATOM      3  C   UNL     1      18.745  18.091  25.941  1.00  0.00     0.238 A 
ATOM      4  O   UNL     1      19.435  18.771  26.745  1.00  0.00    -0.285 OA
ATOM      5  C   UNL     1      19.318  17.044  25.180  1.00  0.00     0.111 A 
ATOM      6  C   UNL     1      20.706  16.712  25.174  1.00  0.00     0.134 A 
ATOM      7  C   UNL     1      21.141  15.574  24.483  1.00  0.00     0.093 A 
ATOM      8  C   UNL     1      20.250  14.795  23.745  1.00  0.00     0.123 A 
ATOM      9  C   UNL     1      18.900  15.146  23.695  1.00  0.00     0.094 A 
ATOM     10  C   UNL     1      18.430  16.254  24.403  1.00  0.00     0.146 A 
ATOM     11  O   UNL     1      17.137  16.547  24.338  1.00  0.00    -0.452 OA
ENDROOT
BRANCH   1  12
ATOM     12  C   UNL     1      15.132  17.799  24.810  1.00  0.00     0.025 A 
ATOM     13  C   UNL     1      14.176  16.926  25.358  1.00  0.00     0.016 A 
ATOM     14  C   UNL     1      12.812  17.182  25.196  1.00  0.00     0.051 A 
ATOM     15  C   UNL     1      12.383  18.319  24.499  1.00  0.00     0.157 A 
ATOM     16  C   UNL     1      14.697  18.948  24.130  1.00  0.00     0.062 A 
ATOM     17  C   UNL     1      13.331  19.208  23.966  1.00  0.00     0.158 A 
BRANCH  15  18
ATOM     18  O   UNL     1      11.021  18.570  24.339  1.00  0.00    -0.504 OA
ATOM     19  H   UNL     1      10.588  18.584  23.423  1.00  0.00     0.293 HD
ENDBRANCH  15  18
BRANCH  17  20
ATOM     20  O   UNL     1      12.937  20.352  23.273  1.00  0.00    -0.504 OA
ATOM     21  H   UNL     1      12.120  20.363  22.674  1.00  0.00     0.293 HD
ENDBRANCH  17  20
ENDBRANCH   1  12
BRANCH   2  22
ATOM     22  O   UNL     1      16.781  19.372  26.599  1.00  0.00    -0.502 OA
ATOM     23  H   UNL     1      16.838  20.350  26.338  1.00  0.00     0.293 HD
ENDBRANCH   2  22
BRANCH   6  24
ATOM     24  O   UNL     1      21.694  17.475  25.804  1.00  0.00    -0.507 OA
ATOM     25  H   UNL     1      21.514  18.230  26.447  1.00  0.00     0.293 HD
ENDBRANCH   6  24
BRANCH   8  26
ATOM     26  O   UNL     1      20.720  13.679  23.057  1.00  0.00    -0.508 OA
ATOM     27  H   UNL     1      21.149  13.761  22.143  1.00  0.00     0.293 HD
ENDBRANCH   8  26
TORSDOF 6
ENDMDL
MODEL 6
REMARK VINA RESULT:    -6.847      4.154      7.263
REMARK INTER + INTRA:          -8.428
REMARK INTER:                  -8.114
REMARK INTRA:                  -0.314
REMARK UNBOUND:                -0.180
REMARK SMILES O=c1c(O)c(-c2ccc(O)c(O)c2)oc2cc(O)cc(O)c12
REMARK SMILES IDX 5 1 3 2 2 3 1 4 22 5 20 6 19 7 17 8 16 9 15 10 14 11 6 12
REMARK SMILES IDX 7 13 8 14 9 15 13 16 11 17 10 18 12 20 4 22 21 24 18 26
REMARK H PARENT 10 19 12 21 4 23 21 25 18 27
REMARK Flexibility Score: inf
ROOT
ATOM      1  C   UNL     1      17.661  18.962  18.875  1.00  0.00     0.180 A 
ATOM      2  C   UNL     1      18.064  17.870  19.664  1.00  0.00     0.208 A 
ATOM      3  C   UNL     1      18.209  16.611  19.059  1.00  0.00     0.238 A 
ATOM      4  O   UNL     1      18.519  15.627  19.780  1.00  0.00    -0.285 OA
ATOM      5  C   UNL     1      17.965  16.463  17.673  1.00  0.00     0.111 A 
ATOM      6  C   UNL     1      18.121  15.243  16.949  1.00  0.00     0.134 A 
ATOM      7  C   UNL     1      17.725  15.181  15.606  1.00  0.00     0.093 A 
ATOM      8  C   UNL     1      17.243  16.310  14.945  1.00  0.00     0.123 A 
ATOM      9  C   UNL     1      17.144  17.523  15.628  1.00  0.00     0.094 A 
ATOM     10  C   UNL     1      17.496  17.608  16.977  1.00  0.00     0.146 A 
ATOM     11  O   UNL     1      17.376  18.777  17.592  1.00  0.00    -0.452 OA
ENDROOT
BRANCH   1  12
ATOM     12  C   UNL     1      17.510  20.325  19.435  1.00  0.00     0.025 A 
ATOM     13  C   UNL     1      18.538  21.279  19.326  1.00  0.00     0.016 A 
ATOM     14  C   UNL     1      18.364  22.566  19.841  1.00  0.00     0.051 A 
ATOM     15  C   UNL     1      17.158  22.924  20.459  1.00  0.00     0.157 A 
ATOM     16  C   UNL     1      16.297  20.695  20.037  1.00  0.00     0.062 A 
ATOM     17  C   UNL     1      16.119  21.984  20.554  1.00  0.00     0.158 A 
BRANCH  15  18
ATOM     18  O   UNL     1      16.989  24.209  20.973  1.00  0.00    -0.504 OA
ATOM     19  H   UNL     1      17.727  24.676  21.486  1.00  0.00     0.293 HD
ENDBRANCH  15  18
BRANCH  17  20
ATOM     20  O   UNL     1      14.905  22.310  21.157  1.00  0.00    -0.504 OA
ATOM     21  H   UNL     1      14.737  22.160  22.145  1.00  0.00     0.293 HD
ENDBRANCH  17  20
ENDBRANCH   1  12
BRANCH   2  22
ATOM     22  O   UNL     1      18.279  18.035  21.035  1.00  0.00    -0.502 OA
ATOM     23  H   UNL     1      17.603  17.740  21.730  1.00  0.00     0.293 HD
ENDBRANCH   2  22
BRANCH   6  24
ATOM     24  O   UNL     1      18.678  14.080  17.489  1.00  0.00    -0.507 OA
ATOM     25  H   UNL     1      19.654  13.833  17.438  1.00  0.00     0.293 HD
ENDBRANCH   6  24
BRANCH   8  26
ATOM     26  O   UNL     1      16.874  16.217  13.605  1.00  0.00    -0.508 OA
ATOM     27  H   UNL     1      16.415  16.983  13.127  1.00  0.00     0.293 HD
ENDBRANCH   8  26
TORSDOF 6
ENDMDL
MODEL 7
REMARK VINA RESULT:    -6.823      1.627      2.093
REMARK INTER + INTRA:          -8.399
REMARK INTER:                  -8.086
REMARK INTRA:                  -0.313
REMARK UNBOUND:                -0.180
REMARK SMILES O=c1c(O)c(-c2ccc(O)c(O)c2)oc2cc(O)cc(O)c12
REMARK SMILES IDX 5 1 3 2 2 3 1 4 22 5 20 6 19 7 17 8 16 9 15 10 14 11 6 12
REMARK SMILES IDX 7 13 8 14 9 15 13 16 11 17 10 18 12 20 4 22 21 24 18 26
REMARK H PARENT 10 19 12 21 4 23 21 25 18 27
REMARK Flexibility Score: inf
ROOT
ATOM      1  C   UNL     1      14.280  21.242  22.338  1.00  0.00     0.180 A 
ATOM      2  C   UNL     1      13.254  21.074  21.391  1.00  0.00     0.208 A 
ATOM      3  C   UNL     1      12.382  19.982  21.519  1.00  0.00     0.238 A 
ATOM      4  O   UNL     1      11.499  19.807  20.638  1.00  0.00    -0.285 OA
ATOM      5  C   UNL     1      12.536  19.080  22.599  1.00  0.00     0.111 A 
ATOM      6  C   UNL     1      11.684  17.962  22.849  1.00  0.00     0.134 A 
ATOM      7  C   UNL     1      12.008  17.062  23.872  1.00  0.00     0.093 A 
ATOM      8  C   UNL     1      13.114  17.275  24.695  1.00  0.00     0.123 A 
ATOM      9  C   UNL     1      13.919  18.398  24.498  1.00  0.00     0.094 A 
ATOM     10  C   UNL     1      13.642  19.294  23.463  1.00  0.00     0.146 A 
ATOM     11  O   UNL     1      14.439  20.343  23.302  1.00  0.00    -0.452 OA
ENDROOT
BRANCH   1  12
ATOM     12  C   UNL     1      15.223  22.383  22.284  1.00  0.00     0.025 A 
ATOM     13  C   UNL     1      15.019  23.538  23.060  1.00  0.00     0.016 A 
ATOM     14  C   UNL     1      15.936  24.591  23.011  1.00  0.00     0.051 A 
ATOM     15  C   UNL     1      17.074  24.502  22.199  1.00  0.00     0.157 A 
ATOM     16  C   UNL     1      16.376  22.290  21.488  1.00  0.00     0.062 A 
ATOM     17  C   UNL     1      17.296  23.344  21.436  1.00  0.00     0.158 A 
BRANCH  15  18
ATOM     18  O   UNL     1      17.985  25.557  22.152  1.00  0.00    -0.504 OA
ATOM     19  H   UNL     1      18.547  25.735  21.327  1.00  0.00     0.293 HD
ENDBRANCH  15  18
BRANCH  17  20
ATOM     20  O   UNL     1      18.422  23.221  20.623  1.00  0.00    -0.504 OA
ATOM     21  H   UNL     1      18.671  23.926  19.939  1.00  0.00     0.293 HD
ENDBRANCH  17  20
ENDBRANCH   1  12
BRANCH   2  22
ATOM     22  O   UNL     1      13.135  21.964  20.320  1.00  0.00    -0.502 OA
ATOM     23  H   UNL     1      13.793  22.719  20.165  1.00  0.00     0.293 HD
ENDBRANCH   2  22
BRANCH   6  24
ATOM     24  O   UNL     1      10.504  17.707  22.144  1.00  0.00    -0.507 OA
ATOM     25  H   UNL     1      10.276  16.829  21.705  1.00  0.00     0.293 HD
ENDBRANCH   6  24
BRANCH   8  26
ATOM     26  O   UNL     1      13.398  16.368  25.713  1.00  0.00    -0.508 OA
ATOM     27  H   UNL     1      14.246  16.436  26.263  1.00  0.00     0.293 HD
ENDBRANCH   8  26
TORSDOF 6
ENDMDL
MODEL 8
REMARK VINA RESULT:    -6.675      4.054      6.400
REMARK INTER + INTRA:          -8.221
REMARK INTER:                  -7.894
REMARK INTRA:                  -0.327
REMARK UNBOUND:                -0.180
REMARK SMILES O=c1c(O)c(-c2ccc(O)c(O)c2)oc2cc(O)cc(O)c12
REMARK SMILES IDX 5 1 3 2 2 3 1 4 22 5 20 6 19 7 17 8 16 9 15 10 14 11 6 12
REMARK SMILES IDX 7 13 8 14 9 15 13 16 11 17 10 18 12 20 4 22 21 24 18 26
REMARK H PARENT 10 19 12 21 4 23 21 25 18 27
REMARK Flexibility Score: inf
ROOT
ATOM      1  C   UNL     1      16.951  18.435  17.815  1.00  0.00     0.180 A 
ATOM      2  C   UNL     1      15.571  18.394  18.084  1.00  0.00     0.208 A 
ATOM      3  C   UNL     1      15.015  19.363  18.934  1.00  0.00     0.238 A 
ATOM      4  O   UNL     1      13.789  19.289  19.213  1.00  0.00    -0.285 OA
ATOM      5  C   UNL     1      15.841  20.367  19.494  1.00  0.00     0.111 A 
ATOM      6  C   UNL     1      15.376  21.422  20.336  1.00  0.00     0.134 A 
ATOM      7  C   UNL     1      16.302  22.283  20.938  1.00  0.00     0.093 A 
ATOM      8  C   UNL     1      17.667  22.170  20.676  1.00  0.00     0.123 A 
ATOM      9  C   UNL     1      18.126  21.180  19.806  1.00  0.00     0.094 A 
ATOM     10  C   UNL     1      17.231  20.283  19.219  1.00  0.00     0.146 A 
ATOM     11  O   UNL     1      17.710  19.349  18.407  1.00  0.00    -0.452 OA
ENDROOT
BRANCH   1  12
ATOM     12  C   UNL     1      17.606  17.463  16.909  1.00  0.00     0.025 A 
ATOM     13  C   UNL     1      17.622  17.658  15.516  1.00  0.00     0.016 A 
ATOM     14  C   UNL     1      18.267  16.740  14.683  1.00  0.00     0.051 A 
ATOM     15  C   UNL     1      18.917  15.625  15.227  1.00  0.00     0.157 A 
ATOM     16  C   UNL     1      18.277  16.355  17.451  1.00  0.00     0.062 A 
ATOM     17  C   UNL     1      18.924  15.434  16.619  1.00  0.00     0.158 A 
BRANCH  15  18
ATOM     18  O   UNL     1      19.558  14.711  14.392  1.00  0.00    -0.504 OA
ATOM     19  H   UNL     1      20.239  14.052  14.751  1.00  0.00     0.293 HD
ENDBRANCH  15  18
BRANCH  17  20
ATOM     20  O   UNL     1      19.567  14.338  17.193  1.00  0.00    -0.504 OA
ATOM     21  H   UNL     1      19.279  13.385  17.004  1.00  0.00     0.293 HD
ENDBRANCH  17  20
ENDBRANCH   1  12
BRANCH   2  22
ATOM     22  O   UNL     1      14.779  17.380  17.538  1.00  0.00    -0.502 OA
ATOM     23  H   UNL     1      14.854  16.414  17.834  1.00  0.00     0.293 HD
ENDBRANCH   2  22
BRANCH   6  24
ATOM     24  O   UNL     1      14.026  21.680  20.590  1.00  0.00    -0.507 OA
ATOM     25  H   UNL     1      13.549  21.450  21.448  1.00  0.00     0.293 HD
ENDBRANCH   6  24
BRANCH   8  26
ATOM     26  O   UNL     1      18.558  23.054  21.280  1.00  0.00    -0.508 OA
ATOM     27  H   UNL     1      18.297  23.596  22.095  1.00  0.00     0.293 HD
ENDBRANCH   8  26
TORSDOF 6
ENDMDL
MODEL 9
REMARK VINA RESULT:    -6.663      2.988      5.505
REMARK INTER + INTRA:          -8.207
REMARK INTER:                  -7.892
REMARK INTRA:                  -0.315
REMARK UNBOUND:                -0.180
REMARK SMILES O=c1c(O)c(-c2ccc(O)c(O)c2)oc2cc(O)cc(O)c12
REMARK SMILES IDX 5 1 3 2 2 3 1 4 22 5 20 6 19 7 17 8 16 9 15 10 14 11 6 12
REMARK SMILES IDX 7 13 8 14 9 15 13 16 11 17 10 18 12 20 4 22 21 24 18 26
REMARK H PARENT 10 19 12 21 4 23 21 25 18 27
REMARK Flexibility Score: inf
ROOT
ATOM      1  C   UNL     1      14.983  18.165  24.515  1.00  0.00     0.180 A 
ATOM      2  C   UNL     1      13.768  17.523  24.809  1.00  0.00     0.208 A 
ATOM      3  C   UNL     1      12.617  17.883  24.089  1.00  0.00     0.238 A 
ATOM      4  O   UNL     1      11.521  17.342  24.394  1.00  0.00    -0.285 OA
ATOM      5  C   UNL     1      12.698  18.867  23.076  1.00  0.00     0.111 A 
ATOM      6  C   UNL     1      11.605  19.280  22.257  1.00  0.00     0.134 A 
ATOM      7  C   UNL     1      11.770  20.355  21.375  1.00  0.00     0.093 A 
ATOM      8  C   UNL     1      13.004  20.988  21.234  1.00  0.00     0.123 A 
ATOM      9  C   UNL     1      14.096  20.553  21.986  1.00  0.00     0.094 A 
ATOM     10  C   UNL     1      13.954  19.507  22.900  1.00  0.00     0.146 A 
ATOM     11  O   UNL     1      15.014  19.131  23.604  1.00  0.00    -0.452 OA
ENDROOT
BRANCH   1  12
ATOM     12  C   UNL     1      16.244  17.823  25.213  1.00  0.00     0.025 A 
ATOM     13  C   UNL     1      16.670  18.537  26.347  1.00  0.00     0.016 A 
ATOM     14  C   UNL     1      17.851  18.181  27.003  1.00  0.00     0.051 A 
ATOM     15  C   UNL     1      18.616  17.099  26.546  1.00  0.00     0.157 A 
ATOM     16  C   UNL     1      17.004  16.727  24.772  1.00  0.00     0.062 A 
ATOM     17  C   UNL     1      18.187  16.367  25.427  1.00  0.00     0.158 A 
BRANCH  15  18
ATOM     18  O   UNL     1      19.795  16.748  27.203  1.00  0.00    -0.504 OA
ATOM     19  H   UNL     1      19.805  16.527  28.192  1.00  0.00     0.293 HD
ENDBRANCH  15  18
BRANCH  17  20
ATOM     20  O   UNL     1      18.922  15.281  24.951  1.00  0.00    -0.504 OA
ATOM     21  H   UNL     1      18.830  14.946  23.999  1.00  0.00     0.293 HD
ENDBRANCH  17  20
ENDBRANCH   1  12
BRANCH   2  22
ATOM     22  O   UNL     1      13.706  16.569  25.829  1.00  0.00    -0.502 OA
ATOM     23  H   UNL     1      14.480  16.399  26.461  1.00  0.00     0.293 HD
ENDBRANCH   2  22
BRANCH   6  24
ATOM     24  O   UNL     1      10.354  18.655  22.253  1.00  0.00    -0.507 OA
ATOM     25  H   UNL     1      10.005  18.071  21.509  1.00  0.00     0.293 HD
ENDBRANCH   6  24
BRANCH   8  26
ATOM     26  O   UNL     1      13.136  22.044  20.335  1.00  0.00    -0.508 OA
ATOM     27  H   UNL     1      14.017  22.242  19.876  1.00  0.00     0.293 HD
ENDBRANCH   8  26
TORSDOF 6
ENDMDL
