MODEL 1
REMARK VINA RESULT:    -6.744      0.000      0.000
REMARK INTER + INTRA:          -8.235
REMARK INTER:                  -7.927
REMARK INTRA:                  -0.308
REMARK UNBOUND:                -0.308
REMARK SMILES O=c1cc(-c2ccc(O)c(O)c2)oc2cc(O)cc(O)c12
REMARK SMILES IDX 4 1 3 2 2 3 1 4 21 5 19 6 18 7 16 8 15 9 14 10 13 11 5 12
REMARK SMILES IDX 6 13 7 14 8 15 12 16 10 17 9 18 11 20 20 22 17 24
REMARK H PARENT 9 19 11 21 20 23 17 25
REMARK Flexibility Score: inf
ROOT
ATOM      1  C   UNL     1     123.549 117.669 104.175  1.00  0.00     0.138 A 
ATOM      2  C   UNL     1     124.342 117.358 105.292  1.00  0.00     0.100 A 
ATOM      3  C   UNL     1     123.731 117.138 106.527  1.00  0.00     0.197 A 
ATOM      4  O   UNL     1     124.452 116.861 107.524  1.00  0.00    -0.289 OA
ATOM      5  C   UNL     1     122.330 117.235 106.638  1.00  0.00     0.107 A 
ATOM      6  C   UNL     1     121.634 117.028 107.852  1.00  0.00     0.134 A 
ATOM      7  C   UNL     1     120.236 117.148 107.880  1.00  0.00     0.093 A 
ATOM      8  C   UNL     1     119.525 117.474 106.722  1.00  0.00     0.123 A 
ATOM      9  C   UNL     1     120.209 117.681 105.520  1.00  0.00     0.094 A 
ATOM     10  C   UNL     1     121.601 117.563 105.470  1.00  0.00     0.146 A 
ATOM     11  O   UNL     1     122.228 117.763 104.316  1.00  0.00    -0.456 OA
ENDROOT
BRANCH   1  12
ATOM     12  C   UNL     1     124.142 117.914 102.835  1.00  0.00     0.021 A 
ATOM     13  C   UNL     1     125.459 118.393 102.687  1.00  0.00     0.016 A 
ATOM     14  C   UNL     1     125.995 118.605 101.415  1.00  0.00     0.051 A 
ATOM     15  C   UNL     1     125.236 118.338 100.272  1.00  0.00     0.157 A 
ATOM     16  C   UNL     1     123.389 117.633 101.682  1.00  0.00     0.062 A 
ATOM     17  C   UNL     1     123.927 117.847 100.405  1.00  0.00     0.158 A 
BRANCH  15  18
ATOM     18  O   UNL     1     125.800 118.561  99.016  1.00  0.00    -0.504 OA
ATOM     19  H   UNL     1     126.793 118.459  98.847  1.00  0.00     0.293 HD
ENDBRANCH  15  18
BRANCH  17  20
ATOM     20  O   UNL     1     123.165 117.574  99.269  1.00  0.00    -0.504 OA
ATOM     21  H   UNL     1     122.760 116.659  99.109  1.00  0.00     0.293 HD
ENDBRANCH  17  20
ENDBRANCH   1  12
BRANCH   6  22
ATOM     22  O   UNL     1     122.316 116.702 109.025  1.00  0.00    -0.507 OA
ATOM     23  H   UNL     1     123.187 117.154 109.277  1.00  0.00     0.293 HD
ENDBRANCH   6  22
BRANCH   8  24
ATOM     24  O   UNL     1     118.137 117.588 106.778  1.00  0.00    -0.508 OA
ATOM     25  H   UNL     1     117.686 118.487 106.900  1.00  0.00     0.293 HD
ENDBRANCH   8  24
TORSDOF 5
ENDMDL
MODEL 2
REMARK VINA RESULT:    -6.629      6.125     10.084
REMARK INTER + INTRA:          -8.100
REMARK INTER:                  -7.823
REMARK INTRA:                  -0.277
REMARK UNBOUND:                -0.308
REMARK SMILES O=c1cc(-c2ccc(O)c(O)c2)oc2cc(O)cc(O)c12
REMARK SMILES IDX 4 1 3 2 2 3 1 4 21 5 19 6 18 7 16 8 15 9 14 10 13 11 5 12
REMARK SMILES IDX 6 13 7 14 8 15 12 16 10 17 9 18 11 20 20 22 17 24
REMARK H PARENT 9 19 11 21 20 23 17 25
REMARK Flexibility Score: inf
ROOT
ATOM      1  C   UNL     1     128.207 114.599 100.915  1.00  0.00     0.138 A 
ATOM      2  C   UNL     1     127.784 113.274 100.719  1.00  0.00     0.100 A 
ATOM      3  C   UNL     1     128.632 112.370 100.077  1.00  0.00     0.197 A 
ATOM      4  O   UNL     1     128.242 111.183  99.905  1.00  0.00    -0.289 OA
ATOM      5  C   UNL     1     129.898 112.799  99.633  1.00  0.00     0.107 A 
ATOM      6  C   UNL     1     130.817 111.948  98.975  1.00  0.00     0.134 A 
ATOM      7  C   UNL     1     132.058 112.454  98.558  1.00  0.00     0.093 A 
ATOM      8  C   UNL     1     132.394 113.792  98.784  1.00  0.00     0.123 A 
ATOM      9  C   UNL     1     131.488 114.638  99.432  1.00  0.00     0.094 A 
ATOM     10  C   UNL     1     130.248 114.152  99.857  1.00  0.00     0.146 A 
ATOM     11  O   UNL     1     129.405 114.974 100.473  1.00  0.00    -0.456 OA
ENDROOT
BRANCH   1  12
ATOM     12  C   UNL     1     127.348 115.605 101.589  1.00  0.00     0.021 A 
ATOM     13  C   UNL     1     126.088 115.966 101.072  1.00  0.00     0.016 A 
ATOM     14  C   UNL     1     125.295 116.907 101.733  1.00  0.00     0.051 A 
ATOM     15  C   UNL     1     125.738 117.499 102.919  1.00  0.00     0.157 A 
ATOM     16  C   UNL     1     127.781 116.192 102.790  1.00  0.00     0.062 A 
ATOM     17  C   UNL     1     126.986 117.138 103.453  1.00  0.00     0.158 A 
BRANCH  15  18
ATOM     18  O   UNL     1     124.924 118.436 103.555  1.00  0.00    -0.504 OA
ATOM     19  H   UNL     1     124.721 118.388 104.546  1.00  0.00     0.293 HD
ENDBRANCH  15  18
BRANCH  17  20
ATOM     20  O   UNL     1     127.432 117.721 104.639  1.00  0.00    -0.504 OA
ATOM     21  H   UNL     1     128.393 118.023 104.754  1.00  0.00     0.293 HD
ENDBRANCH  17  20
ENDBRANCH   1  12
BRANCH   6  22
ATOM     22  O   UNL     1     130.510 110.608  98.735  1.00  0.00    -0.507 OA
ATOM     23  H   UNL     1     129.720 110.337  98.162  1.00  0.00     0.293 HD
ENDBRANCH   6  22
BRANCH   8  24
ATOM     24  O   UNL     1     133.632 114.270  98.358  1.00  0.00    -0.508 OA
ATOM     25  H   UNL     1     133.977 114.085  97.424  1.00  0.00     0.293 HD
ENDBRANCH   8  24
TORSDOF 5
ENDMDL
MODEL 3
REMARK VINA RESULT:    -6.607      1.555      6.704
REMARK INTER + INTRA:          -8.074
REMARK INTER:                  -7.788
REMARK INTRA:                  -0.286
REMARK UNBOUND:                -0.308
REMARK SMILES O=c1cc(-c2ccc(O)c(O)c2)oc2cc(O)cc(O)c12
REMARK SMILES IDX 4 1 3 2 2 3 1 4 21 5 19 6 18 7 16 8 15 9 14 10 13 11 5 12
REMARK SMILES IDX 6 13 7 14 8 15 12 16 10 17 9 18 11 20 20 22 17 24
REMARK H PARENT 9 19 11 21 20 23 17 25
REMARK Flexibility Score: inf
ROOT
ATOM      1  C   UNL     1     122.395 117.690 105.233  1.00  0.00     0.138 A 
ATOM      2  C   UNL     1     123.499 117.578 106.095  1.00  0.00     0.100 A 
ATOM      3  C   UNL     1     124.780 117.451 105.556  1.00  0.00     0.197 A 
ATOM      4  O   UNL     1     125.765 117.350 106.337  1.00  0.00    -0.289 OA
ATOM      5  C   UNL     1     124.948 117.433 104.157  1.00  0.00     0.107 A 
ATOM      6  C   UNL     1     126.210 117.308 103.530  1.00  0.00     0.134 A 
ATOM      7  C   UNL     1     126.292 117.293 102.129  1.00  0.00     0.093 A 
ATOM      8  C   UNL     1     125.139 117.398 101.347  1.00  0.00     0.123 A 
ATOM      9  C   UNL     1     123.889 117.520 101.961  1.00  0.00     0.094 A 
ATOM     10  C   UNL     1     123.786 117.539 103.356  1.00  0.00     0.146 A 
ATOM     11  O   UNL     1     122.587 117.658 103.916  1.00  0.00    -0.456 OA
ENDROOT
BRANCH   1  12
ATOM     12  C   UNL     1     121.009 117.825 105.749  1.00  0.00     0.021 A 
ATOM     13  C   UNL     1     120.008 118.489 105.013  1.00  0.00     0.016 A 
ATOM     14  C   UNL     1     118.709 118.592 105.518  1.00  0.00     0.051 A 
ATOM     15  C   UNL     1     118.384 118.032 106.756  1.00  0.00     0.157 A 
ATOM     16  C   UNL     1     120.671 117.252 106.987  1.00  0.00     0.062 A 
ATOM     17  C   UNL     1     119.369 117.356 107.495  1.00  0.00     0.158 A 
BRANCH  15  18
ATOM     18  O   UNL     1     117.079 118.154 107.233  1.00  0.00    -0.504 OA
ATOM     19  H   UNL     1     116.843 118.769 108.002  1.00  0.00     0.293 HD
ENDBRANCH  15  18
BRANCH  17  20
ATOM     20  O   UNL     1     119.050 116.791 108.729  1.00  0.00    -0.504 OA
ATOM     21  H   UNL     1     118.669 117.348 109.486  1.00  0.00     0.293 HD
ENDBRANCH  17  20
ENDBRANCH   1  12
BRANCH   6  22
ATOM     22  O   UNL     1     127.379 117.201 104.285  1.00  0.00    -0.507 OA
ATOM     23  H   UNL     1     128.266 117.555 103.946  1.00  0.00     0.293 HD
ENDBRANCH   6  22
BRANCH   8  24
ATOM     24  O   UNL     1     125.249 117.379  99.958  1.00  0.00    -0.508 OA
ATOM     25  H   UNL     1     126.147 117.463  99.497  1.00  0.00     0.293 HD
ENDBRANCH   8  24
TORSDOF 5
ENDMDL
MODEL 4
REMARK VINA RESULT:    -6.595      2.443      4.277
REMARK INTER + INTRA:          -8.059
REMARK INTER:                  -7.772
REMARK INTRA:                  -0.288
REMARK UNBOUND:                -0.308
REMARK SMILES O=c1cc(-c2ccc(O)c(O)c2)oc2cc(O)cc(O)c12
REMARK SMILES IDX 4 1 3 2 2 3 1 4 21 5 19 6 18 7 16 8 15 9 14 10 13 11 5 12
REMARK SMILES IDX 6 13 7 14 8 15 12 16 10 17 9 18 11 20 20 22 17 24
REMARK H PARENT 9 19 11 21 20 23 17 25
REMARK Flexibility Score: inf
ROOT
ATOM      1  C   UNL     1     124.441 117.390 100.948  1.00  0.00     0.138 A 
ATOM      2  C   UNL     1     125.824 117.394 101.193  1.00  0.00     0.100 A 
ATOM      3  C   UNL     1     126.287 117.471 102.506  1.00  0.00     0.197 A 
ATOM      4  O   UNL     1     127.531 117.475 102.716  1.00  0.00    -0.289 OA
ATOM      5  C   UNL     1     125.364 117.549 103.567  1.00  0.00     0.107 A 
ATOM      6  C   UNL     1     125.750 117.630 104.926  1.00  0.00     0.134 A 
ATOM      7  C   UNL     1     124.767 117.710 105.925  1.00  0.00     0.093 A 
ATOM      8  C   UNL     1     123.410 117.713 105.590  1.00  0.00     0.123 A 
ATOM      9  C   UNL     1     123.023 117.634 104.248  1.00  0.00     0.094 A 
ATOM     10  C   UNL     1     123.987 117.552 103.239  1.00  0.00     0.146 A 
ATOM     11  O   UNL     1     123.595 117.476 101.972  1.00  0.00    -0.456 OA
ENDROOT
BRANCH   1  12
ATOM     12  C   UNL     1     123.889 117.311  99.571  1.00  0.00     0.021 A 
ATOM     13  C   UNL     1     124.287 116.303  98.672  1.00  0.00     0.016 A 
ATOM     14  C   UNL     1     123.744 116.247  97.386  1.00  0.00     0.051 A 
ATOM     15  C   UNL     1     122.792 117.185  96.977  1.00  0.00     0.157 A 
ATOM     16  C   UNL     1     122.920 118.243  99.159  1.00  0.00     0.062 A 
ATOM     17  C   UNL     1     122.375 118.187  97.868  1.00  0.00     0.158 A 
BRANCH  15  18
ATOM     18  O   UNL     1     122.269 117.102  95.687  1.00  0.00    -0.504 OA
ATOM     19  H   UNL     1     122.269 116.236  95.161  1.00  0.00     0.293 HD
ENDBRANCH  15  18
BRANCH  17  20
ATOM     20  O   UNL     1     121.422 119.124  97.469  1.00  0.00    -0.504 OA
ATOM     21  H   UNL     1     120.551 119.243  97.972  1.00  0.00     0.293 HD
ENDBRANCH  17  20
ENDBRANCH   1  12
BRANCH   6  22
ATOM     22  O   UNL     1     127.097 117.630 105.291  1.00  0.00    -0.507 OA
ATOM     23  H   UNL     1     127.478 116.934 105.922  1.00  0.00     0.293 HD
ENDBRANCH   6  22
BRANCH   8  24
ATOM     24  O   UNL     1     122.455 117.794 106.601  1.00  0.00    -0.508 OA
ATOM     25  H   UNL     1     122.673 118.199 107.504  1.00  0.00     0.293 HD
ENDBRANCH   8  24
TORSDOF 5
ENDMDL
MODEL 5
REMARK VINA RESULT:    -6.279      4.660      6.243
REMARK INTER + INTRA:          -7.688
REMARK INTER:                  -7.399
REMARK INTRA:                  -0.290
REMARK UNBOUND:                -0.308
REMARK SMILES O=c1cc(-c2ccc(O)c(O)c2)oc2cc(O)cc(O)c12
REMARK SMILES IDX 4 1 3 2 2 3 1 4 21 5 19 6 18 7 16 8 15 9 14 10 13 11 5 12
REMARK SMILES IDX 6 13 7 14 8 15 12 16 10 17 9 18 11 20 20 22 17 24
REMARK H PARENT 9 19 11 21 20 23 17 25
REMARK Flexibility Score: inf
ROOT
ATOM      1  C   UNL     1     127.612 115.395 101.569  1.00  0.00     0.138 A 
ATOM      2  C   UNL     1     127.877 116.031 102.793  1.00  0.00     0.100 A 
ATOM      3  C   UNL     1     126.871 116.771 103.415  1.00  0.00     0.197 A 
ATOM      4  O   UNL     1     127.119 117.339 104.513  1.00  0.00    -0.289 OA
ATOM      5  C   UNL     1     125.605 116.874 102.805  1.00  0.00     0.107 A 
ATOM      6  C   UNL     1     124.531 117.603 103.368  1.00  0.00     0.134 A 
ATOM      7  C   UNL     1     123.301 117.662 102.695  1.00  0.00     0.093 A 
ATOM      8  C   UNL     1     123.127 117.008 101.472  1.00  0.00     0.123 A 
ATOM      9  C   UNL     1     124.186 116.286 100.911  1.00  0.00     0.094 A 
ATOM     10  C   UNL     1     125.418 116.215 101.567  1.00  0.00     0.146 A 
ATOM     11  O   UNL     1     126.408 115.521 101.015  1.00  0.00    -0.456 OA
ENDROOT
BRANCH   1  12
ATOM     12  C   UNL     1     128.644 114.596 100.861  1.00  0.00     0.021 A 
ATOM     13  C   UNL     1     129.951 115.083 100.666  1.00  0.00     0.016 A 
ATOM     14  C   UNL     1     130.905 114.305 100.005  1.00  0.00     0.051 A 
ATOM     15  C   UNL     1     130.577 113.031  99.535  1.00  0.00     0.157 A 
ATOM     16  C   UNL     1     128.325 113.308 100.398  1.00  0.00     0.062 A 
ATOM     17  C   UNL     1     129.281 112.527  99.734  1.00  0.00     0.158 A 
BRANCH  15  18
ATOM     18  O   UNL     1     131.551 112.279  98.878  1.00  0.00    -0.504 OA
ATOM     19  H   UNL     1     131.346 111.379  98.460  1.00  0.00     0.293 HD
ENDBRANCH  15  18
BRANCH  17  20
ATOM     20  O   UNL     1     128.949 111.254  99.271  1.00  0.00    -0.504 OA
ATOM     21  H   UNL     1     127.991 110.998  99.063  1.00  0.00     0.293 HD
ENDBRANCH  17  20
ENDBRANCH   1  12
BRANCH   6  22
ATOM     22  O   UNL     1     124.675 118.267 104.588  1.00  0.00    -0.507 OA
ATOM     23  H   UNL     1     124.149 117.992 105.409  1.00  0.00     0.293 HD
ENDBRANCH   6  22
BRANCH   8  24
ATOM     24  O   UNL     1     121.896 117.083 100.823  1.00  0.00    -0.508 OA
ATOM     25  H   UNL     1     121.711 117.789 100.121  1.00  0.00     0.293 HD
ENDBRANCH   8  24
TORSDOF 5
ENDMDL
MODEL 6
REMARK VINA RESULT:    -6.243      4.099      6.120
REMARK INTER + INTRA:          -7.646
REMARK INTER:                  -7.330
REMARK INTRA:                  -0.316
REMARK UNBOUND:                -0.308
REMARK SMILES O=c1cc(-c2ccc(O)c(O)c2)oc2cc(O)cc(O)c12
REMARK SMILES IDX 4 1 3 2 2 3 1 4 21 5 19 6 18 7 16 8 15 9 14 10 13 11 5 12
REMARK SMILES IDX 6 13 7 14 8 15 12 16 10 17 9 18 11 20 20 22 17 24
REMARK H PARENT 9 19 11 21 20 23 17 25
REMARK Flexibility Score: inf
ROOT
ATOM      1  C   UNL     1     126.986 115.823 101.534  1.00  0.00     0.138 A 
ATOM      2  C   UNL     1     125.760 115.921 100.855  1.00  0.00     0.100 A 
ATOM      3  C   UNL     1     124.668 116.510 101.492  1.00  0.00     0.197 A 
ATOM      4  O   UNL     1     123.571 116.593 100.875  1.00  0.00    -0.289 OA
ATOM      5  C   UNL     1     124.807 116.995 102.808  1.00  0.00     0.107 A 
ATOM      6  C   UNL     1     123.752 117.606 103.524  1.00  0.00     0.134 A 
ATOM      7  C   UNL     1     123.971 118.058 104.835  1.00  0.00     0.093 A 
ATOM      8  C   UNL     1     125.222 117.909 105.440  1.00  0.00     0.123 A 
ATOM      9  C   UNL     1     126.269 117.305 104.736  1.00  0.00     0.094 A 
ATOM     10  C   UNL     1     126.071 116.850 103.429  1.00  0.00     0.146 A 
ATOM     11  O   UNL     1     127.082 116.281 102.780  1.00  0.00    -0.456 OA
ENDROOT
BRANCH   1  12
ATOM     12  C   UNL     1     128.182 115.204 100.907  1.00  0.00     0.021 A 
ATOM     13  C   UNL     1     128.090 114.460  99.714  1.00  0.00     0.016 A 
ATOM     14  C   UNL     1     129.233 113.898  99.141  1.00  0.00     0.051 A 
ATOM     15  C   UNL     1     130.484 114.072  99.739  1.00  0.00     0.157 A 
ATOM     16  C   UNL     1     129.445 115.387 101.496  1.00  0.00     0.062 A 
ATOM     17  C   UNL     1     130.592 114.822 100.922  1.00  0.00     0.158 A 
BRANCH  15  18
ATOM     18  O   UNL     1     131.606 113.497  99.143  1.00  0.00    -0.504 OA
ATOM     19  H   UNL     1     132.539 113.864  99.288  1.00  0.00     0.293 HD
ENDBRANCH  15  18
BRANCH  17  20
ATOM     20  O   UNL     1     131.838 115.003 101.522  1.00  0.00    -0.504 OA
ATOM     21  H   UNL     1     132.280 115.914 101.565  1.00  0.00     0.293 HD
ENDBRANCH  17  20
ENDBRANCH   1  12
BRANCH   6  22
ATOM     22  O   UNL     1     122.491 117.768 102.947  1.00  0.00    -0.507 OA
ATOM     23  H   UNL     1     121.655 117.861 103.512  1.00  0.00     0.293 HD
ENDBRANCH   6  22
BRANCH   8  24
ATOM     24  O   UNL     1     125.413 118.365 106.742  1.00  0.00    -0.508 OA
ATOM     25  H   UNL     1     125.655 119.330 106.934  1.00  0.00     0.293 HD
ENDBRANCH   8  24
TORSDOF 5
ENDMDL
MODEL 7
REMARK VINA RESULT:    -6.233      5.506      9.330
REMARK INTER + INTRA:          -7.634
REMARK INTER:                  -7.360
REMARK INTRA:                  -0.275
REMARK UNBOUND:                -0.308
REMARK SMILES O=c1cc(-c2ccc(O)c(O)c2)oc2cc(O)cc(O)c12
REMARK SMILES IDX 4 1 3 2 2 3 1 4 21 5 19 6 18 7 16 8 15 9 14 10 13 11 5 12
REMARK SMILES IDX 6 13 7 14 8 15 12 16 10 17 9 18 11 20 20 22 17 24
REMARK H PARENT 9 19 11 21 20 23 17 25
REMARK Flexibility Score: inf
ROOT
ATOM      1  C   UNL     1     128.162 115.381 101.490  1.00  0.00     0.138 A 
ATOM      2  C   UNL     1     129.517 115.751 101.500  1.00  0.00     0.100 A 
ATOM      3  C   UNL     1     130.442 114.988 100.787  1.00  0.00     0.197 A 
ATOM      4  O   UNL     1     131.656 115.327 100.803  1.00  0.00    -0.289 OA
ATOM      5  C   UNL     1     130.006 113.856 100.070  1.00  0.00     0.107 A 
ATOM      6  C   UNL     1     130.877 113.029  99.322  1.00  0.00     0.134 A 
ATOM      7  C   UNL     1     130.364 111.915  98.640  1.00  0.00     0.093 A 
ATOM      8  C   UNL     1     129.001 111.613  98.694  1.00  0.00     0.123 A 
ATOM      9  C   UNL     1     128.135 112.426  99.433  1.00  0.00     0.094 A 
ATOM     10  C   UNL     1     128.627 113.541 100.118  1.00  0.00     0.146 A 
ATOM     11  O   UNL     1     127.784 114.299 100.812  1.00  0.00    -0.456 OA
ENDROOT
BRANCH   1  12
ATOM     12  C   UNL     1     127.132 116.153 102.232  1.00  0.00     0.021 A 
ATOM     13  C   UNL     1     125.899 116.495 101.643  1.00  0.00     0.016 A 
ATOM     14  C   UNL     1     124.945 117.213 102.368  1.00  0.00     0.051 A 
ATOM     15  C   UNL     1     125.198 117.596 103.688  1.00  0.00     0.157 A 
ATOM     16  C   UNL     1     127.375 116.528 103.564  1.00  0.00     0.062 A 
ATOM     17  C   UNL     1     126.418 117.250 104.292  1.00  0.00     0.158 A 
BRANCH  15  18
ATOM     18  O   UNL     1     124.225 118.313 104.385  1.00  0.00    -0.504 OA
ATOM     19  H   UNL     1     123.309 117.928 104.578  1.00  0.00     0.293 HD
ENDBRANCH  15  18
BRANCH  17  20
ATOM     20  O   UNL     1     126.676 117.625 105.610  1.00  0.00    -0.504 OA
ATOM     21  H   UNL     1     126.234 118.436 106.028  1.00  0.00     0.293 HD
ENDBRANCH  17  20
ENDBRANCH   1  12
BRANCH   6  22
ATOM     22  O   UNL     1     132.243 113.306  99.250  1.00  0.00    -0.507 OA
ATOM     23  H   UNL     1     132.926 112.749  99.750  1.00  0.00     0.293 HD
ENDBRANCH   6  22
BRANCH   8  24
ATOM     24  O   UNL     1     128.518 110.500  98.008  1.00  0.00    -0.508 OA
ATOM     25  H   UNL     1     127.524 110.344  97.888  1.00  0.00     0.293 HD
ENDBRANCH   8  24
TORSDOF 5
ENDMDL
MODEL 8
REMARK VINA RESULT:    -6.223      3.304      5.808
REMARK INTER + INTRA:          -7.622
REMARK INTER:                  -7.337
REMARK INTRA:                  -0.285
REMARK UNBOUND:                -0.308
REMARK SMILES O=c1cc(-c2ccc(O)c(O)c2)oc2cc(O)cc(O)c12
REMARK SMILES IDX 4 1 3 2 2 3 1 4 21 5 19 6 18 7 16 8 15 9 14 10 13 11 5 12
REMARK SMILES IDX 6 13 7 14 8 15 12 16 10 17 9 18 11 20 20 22 17 24
REMARK H PARENT 9 19 11 21 20 23 17 25
REMARK Flexibility Score: inf
ROOT
ATOM      1  C   UNL     1     123.317 117.269 101.146  1.00  0.00     0.138 A 
ATOM      2  C   UNL     1     122.920 117.679 102.430  1.00  0.00     0.100 A 
ATOM      3  C   UNL     1     123.849 117.672 103.470  1.00  0.00     0.197 A 
ATOM      4  O   UNL     1     123.483 118.040 104.620  1.00  0.00    -0.289 OA
ATOM      5  C   UNL     1     125.170 117.251 103.221  1.00  0.00     0.107 A 
ATOM      6  C   UNL     1     126.173 117.214 104.219  1.00  0.00     0.134 A 
ATOM      7  C   UNL     1     127.465 116.776 103.890  1.00  0.00     0.093 A 
ATOM      8  C   UNL     1     127.771 116.374 102.587  1.00  0.00     0.123 A 
ATOM      9  C   UNL     1     126.784 116.407 101.597  1.00  0.00     0.094 A 
ATOM     10  C   UNL     1     125.491 116.842 101.904  1.00  0.00     0.146 A 
ATOM     11  O   UNL     1     124.570 116.867 100.946  1.00  0.00    -0.456 OA
ENDROOT
BRANCH   1  12
ATOM     12  C   UNL     1     122.371 117.254 100.001  1.00  0.00     0.021 A 
ATOM     13  C   UNL     1     121.128 116.596 100.078  1.00  0.00     0.016 A 
ATOM     14  C   UNL     1     120.253 116.607  98.988  1.00  0.00     0.051 A 
ATOM     15  C   UNL     1     120.597 117.276  97.810  1.00  0.00     0.157 A 
ATOM     16  C   UNL     1     122.705 117.937  98.819  1.00  0.00     0.062 A 
ATOM     17  C   UNL     1     121.828 117.947  97.724  1.00  0.00     0.158 A 
BRANCH  15  18
ATOM     18  O   UNL     1     119.703 117.267  96.740  1.00  0.00    -0.504 OA
ATOM     19  H   UNL     1     119.419 118.118  96.269  1.00  0.00     0.293 HD
ENDBRANCH  15  18
BRANCH  17  20
ATOM     20  O   UNL     1     122.176 118.620  96.554  1.00  0.00    -0.504 OA
ATOM     21  H   UNL     1     121.475 118.920  95.885  1.00  0.00     0.293 HD
ENDBRANCH  17  20
ENDBRANCH   1  12
BRANCH   6  22
ATOM     22  O   UNL     1     125.897 117.609 105.529  1.00  0.00    -0.507 OA
ATOM     23  H   UNL     1     126.610 117.597 106.249  1.00  0.00     0.293 HD
ENDBRANCH   6  22
BRANCH   8  24
ATOM     24  O   UNL     1     129.062 115.942 102.288  1.00  0.00    -0.508 OA
ATOM     25  H   UNL     1     129.247 114.988 102.002  1.00  0.00     0.293 HD
ENDBRANCH   8  24
TORSDOF 5
ENDMDL
