MODEL 1
REMARK VINA RESULT:   103.702      0.000      0.000
REMARK INTER + INTRA:         113.084
REMARK INTER:                 112.795
REMARK INTRA:                   0.289
REMARK UNBOUND:                 0.289
REMARK SMILES C[C@H]1[C@H](C)CC[C@@]2(C(=O)[O-])CC[C@]3(C)C(=CC[C@H]4[C@@]5(C)CC[C@H](O)C(C)(C)[C@H]5CC[C@]43C)[C@@H]12
REMARK SMILES IDX 7 1 6 2 11 3 33 4 5 5 12 6 15 7 2 8 3 9 13 10 16 11 1 12
REMARK SMILES IDX 4 13 14 14 31 15 17 16 18 17 30 18 32 19 19 20 29 21 28 22
REMARK SMILES IDX 21 23 20 24 25 25 22 26 23 27 26 28 27 29 8 30 9 31 10 32
REMARK SMILES IDX 24 33
REMARK H PARENT 24 34
REMARK Flexibility Score: inf
ROOT
ATOM      1  C   UNL     1      -0.623  59.798  -5.839  1.00  0.00     0.017 C 
ATOM      2  C   UNL     1       0.618  58.875  -5.993  1.00  0.00     0.014 C 
ATOM      3  C   UNL     1      -1.586  59.223  -4.761  1.00  0.00     0.014 C 
ATOM      4  C   UNL     1      -0.123  61.239  -5.470  1.00  0.00     0.030 C 
ATOM      5  C   UNL     1       1.553  59.350  -7.118  1.00  0.00     0.004 C 
ATOM      6  C   UNL     1      -1.185  59.472  -3.292  1.00  0.00     0.013 C 
ATOM      7  C   UNL     1       0.270  61.321  -3.970  1.00  0.00    -0.063 C 
ATOM      8  C   UNL     1       0.888  61.769  -6.552  1.00  0.00    -0.003 C 
ATOM      9  C   UNL     1       2.061  60.787  -6.887  1.00  0.00    -0.011 C 
ATOM     10  C   UNL     1      -0.821  60.956  -2.948  1.00  0.00    -0.006 C 
ATOM     11  C   UNL     1       1.554  61.426  -3.586  1.00  0.00    -0.027 C 
ATOM     12  C   UNL     1       1.346  63.221  -6.288  1.00  0.00     0.008 C 
ATOM     13  C   UNL     1       2.850  61.250  -8.125  1.00  0.00     0.008 C 
ATOM     14  C   UNL     1      -2.070  61.868  -3.203  1.00  0.00     0.017 C 
ATOM     15  C   UNL     1      -0.351  61.104  -1.396  1.00  0.00    -0.020 C 
ATOM     16  C   UNL     1       2.034  61.421  -2.178  1.00  0.00     0.032 C 
ATOM     17  C   UNL     1       1.136  60.614  -1.202  1.00  0.00     0.006 C 
ATOM     18  C   UNL     1      -0.415  62.594  -0.921  1.00  0.00     0.008 C 
ATOM     19  C   UNL     1      -1.341  60.285  -0.509  1.00  0.00     0.012 C 
ATOM     20  C   UNL     1       1.671  60.639   0.323  1.00  0.00    -0.025 C 
ATOM     21  C   UNL     1       0.513  62.996   0.256  1.00  0.00     0.005 C 
ATOM     22  C   UNL     1       1.059  61.851   1.163  1.00  0.00     0.003 C 
ATOM     23  C   UNL     1       3.246  60.640   0.400  1.00  0.00     0.010 C 
ATOM     24  C   UNL     1       1.265  59.281   0.992  1.00  0.00     0.012 C 
ATOM     25  C   UNL     1       2.012  62.402   2.318  1.00  0.00    -0.006 C 
ATOM     26  C   UNL     1       3.875  62.032   0.506  1.00  0.00     0.033 C 
ATOM     27  C   UNL     1       3.430  62.807   1.761  1.00  0.00     0.120 C 
ATOM     28  C   UNL     1       2.138  61.348   3.461  1.00  0.00     0.014 C 
ATOM     29  C   UNL     1       1.395  63.659   2.999  1.00  0.00     0.014 C 
ENDROOT
BRANCH   1  30
ATOM     30  C   UNL     1      -1.433  59.816  -7.135  1.00  0.00     0.048 C 
ATOM     31  O   UNL     1      -1.081  59.115  -8.125  1.00  0.00    -0.550 OA
ATOM     32  O   UNL     1      -2.640  60.502  -7.200  1.00  0.00    -0.550 OA
ENDBRANCH   1  30
BRANCH  27  33
ATOM     33  O   UNL     1       4.422  62.671   2.752  1.00  0.00    -0.393 OA
ATOM     34  H   UNL     1       5.017  63.464   2.681  1.00  0.00     0.210 HD
ENDBRANCH  27  33
TORSDOF 2
ENDMDL
MODEL 2
REMARK VINA RESULT:   105.533      6.439      9.849
REMARK INTER + INTRA:         115.076
REMARK INTER:                 114.964
REMARK INTRA:                   0.113
REMARK UNBOUND:                 0.289
REMARK SMILES C[C@H]1[C@H](C)CC[C@@]2(C(=O)[O-])CC[C@]3(C)C(=CC[C@H]4[C@@]5(C)CC[C@H](O)C(C)(C)[C@H]5CC[C@]43C)[C@@H]12
REMARK SMILES IDX 7 1 6 2 11 3 33 4 5 5 12 6 15 7 2 8 3 9 13 10 16 11 1 12
REMARK SMILES IDX 4 13 14 14 31 15 17 16 18 17 30 18 32 19 19 20 29 21 28 22
REMARK SMILES IDX 21 23 20 24 25 25 22 26 23 27 26 28 27 29 8 30 9 31 10 32
REMARK SMILES IDX 24 33
REMARK H PARENT 24 34
REMARK Flexibility Score: inf
ROOT
ATOM      1  C   UNL     1       4.144  66.608  -4.998  1.00  0.00     0.017 C 
ATOM      2  C   UNL     1       4.509  66.970  -6.465  1.00  0.00     0.014 C 
ATOM      3  C   UNL     1       4.067  67.898  -4.133  1.00  0.00     0.014 C 
ATOM      4  C   UNL     1       2.785  65.825  -5.007  1.00  0.00     0.030 C 
ATOM      5  C   UNL     1       4.693  65.719  -7.339  1.00  0.00     0.004 C 
ATOM      6  C   UNL     1       2.778  68.732  -4.274  1.00  0.00     0.013 C 
ATOM      7  C   UNL     1       1.588  66.797  -5.187  1.00  0.00    -0.063 C 
ATOM      8  C   UNL     1       2.882  64.557  -5.933  1.00  0.00    -0.003 C 
ATOM      9  C   UNL     1       3.429  64.838  -7.373  1.00  0.00    -0.011 C 
ATOM     10  C   UNL     1       1.445  67.919  -4.144  1.00  0.00    -0.006 C 
ATOM     11  C   UNL     1       0.884  66.838  -6.332  1.00  0.00    -0.027 C 
ATOM     12  C   UNL     1       1.599  63.695  -5.910  1.00  0.00     0.008 C 
ATOM     13  C   UNL     1       3.742  63.532  -8.124  1.00  0.00     0.008 C 
ATOM     14  C   UNL     1       1.372  67.271  -2.719  1.00  0.00     0.017 C 
ATOM     15  C   UNL     1       0.146  68.874  -4.372  1.00  0.00    -0.020 C 
ATOM     16  C   UNL     1      -0.218  67.793  -6.630  1.00  0.00     0.032 C 
ATOM     17  C   UNL     1      -0.089  69.160  -5.905  1.00  0.00     0.006 C 
ATOM     18  C   UNL     1      -1.156  68.205  -3.819  1.00  0.00     0.008 C 
ATOM     19  C   UNL     1       0.370  70.197  -3.574  1.00  0.00     0.012 C 
ATOM     20  C   UNL     1      -1.307  70.171  -6.234  1.00  0.00    -0.025 C 
ATOM     21  C   UNL     1      -2.500  68.659  -4.449  1.00  0.00     0.005 C 
ATOM     22  C   UNL     1      -2.515  70.024  -5.202  1.00  0.00     0.003 C 
ATOM     23  C   UNL     1      -1.814  70.026  -7.720  1.00  0.00     0.010 C 
ATOM     24  C   UNL     1      -0.741  71.632  -6.174  1.00  0.00     0.012 C 
ATOM     25  C   UNL     1      -3.951  70.357  -5.814  1.00  0.00    -0.006 C 
ATOM     26  C   UNL     1      -2.998  69.071  -7.895  1.00  0.00     0.033 C 
ATOM     27  C   UNL     1      -4.248  69.500  -7.104  1.00  0.00     0.120 C 
ATOM     28  C   UNL     1      -4.067  71.883  -6.115  1.00  0.00     0.014 C 
ATOM     29  C   UNL     1      -5.079  70.066  -4.782  1.00  0.00     0.014 C 
ENDROOT
BRANCH   1  30
ATOM     30  C   UNL     1       5.255  65.766  -4.371  1.00  0.00     0.048 C 
ATOM     31  O   UNL     1       4.988  64.682  -3.781  1.00  0.00    -0.550 OA
ATOM     32  O   UNL     1       6.589  66.114  -4.551  1.00  0.00    -0.550 OA
ENDBRANCH   1  30
BRANCH  27  33
ATOM     33  O   UNL     1      -5.124  70.180  -7.973  1.00  0.00    -0.393 OA
ATOM     34  H   UNL     1      -5.977  70.316  -7.482  1.00  0.00     0.210 HD
ENDBRANCH  27  33
TORSDOF 2
ENDMDL
