MODEL 1
REMARK VINA RESULT:    -4.069      0.000      0.000
REMARK INTER + INTRA:          -4.903
REMARK INTER:                  -4.782
REMARK INTRA:                  -0.121
REMARK UNBOUND:                -0.121
REMARK SMILES O=C([O-])C=Cc1ccc(O)c(O)c1
REMARK SMILES IDX 6 1 13 2 7 3 11 4 8 5 9 6 5 7 4 8 2 9 1 10 3 11 12 12 10 14
REMARK H PARENT 12 13 10 15
REMARK Flexibility Score: inf
ROOT
ATOM      1  C   UNL     1      48.944  13.731  -3.595  1.00  0.00    -0.022 A 
ATOM      2  C   UNL     1      48.300  14.970  -3.782  1.00  0.00     0.058 A 
ATOM      3  C   UNL     1      50.206  13.529  -4.175  1.00  0.00     0.012 A 
ATOM      4  C   UNL     1      48.921  15.993  -4.516  1.00  0.00     0.157 A 
ATOM      5  C   UNL     1      50.826  14.547  -4.904  1.00  0.00     0.051 A 
ATOM      6  C   UNL     1      50.191  15.779  -5.075  1.00  0.00     0.157 A 
ENDROOT
BRANCH   1   7
ATOM      7  C   UNL     1      48.323  12.615  -2.837  1.00  0.00     0.010 C 
ATOM      8  C   UNL     1      47.547  12.789  -1.758  1.00  0.00     0.025 C 
BRANCH   8   9
ATOM      9  C   UNL     1      46.958  11.657  -1.024  1.00  0.00     0.064 C 
ATOM     10  O   UNL     1      45.735  11.374  -1.131  1.00  0.00    -0.545 OA
ATOM     11  O   UNL     1      47.765  10.887  -0.196  1.00  0.00    -0.545 OA
ENDBRANCH   8   9
ENDBRANCH   1   7
BRANCH   4  12
ATOM     12  O   UNL     1      48.277  17.217  -4.695  1.00  0.00    -0.504 OA
ATOM     13  H   UNL     1      47.266  17.291  -4.699  1.00  0.00     0.293 HD
ENDBRANCH   4  12
BRANCH   6  14
ATOM     14  O   UNL     1      50.835  16.777  -5.806  1.00  0.00    -0.504 OA
ATOM     15  H   UNL     1      51.432  17.468  -5.365  1.00  0.00     0.293 HD
ENDBRANCH   6  14
TORSDOF 4
ENDMDL
MODEL 2
REMARK VINA RESULT:    -4.009      6.977      8.909
REMARK INTER + INTRA:          -4.833
REMARK INTER:                  -4.711
REMARK INTRA:                  -0.122
REMARK UNBOUND:                -0.121
REMARK SMILES O=C([O-])C=Cc1ccc(O)c(O)c1
REMARK SMILES IDX 6 1 13 2 7 3 11 4 8 5 9 6 5 7 4 8 2 9 1 10 3 11 12 12 10 14
REMARK H PARENT 12 13 10 15
REMARK Flexibility Score: inf
ROOT
ATOM      1  C   UNL     1      42.993  19.268  -3.465  1.00  0.00    -0.022 A 
ATOM      2  C   UNL     1      42.607  18.523  -2.332  1.00  0.00     0.058 A 
ATOM      3  C   UNL     1      42.611  20.616  -3.552  1.00  0.00     0.012 A 
ATOM      4  C   UNL     1      41.875  19.127  -1.298  1.00  0.00     0.157 A 
ATOM      5  C   UNL     1      41.884  21.218  -2.522  1.00  0.00     0.051 A 
ATOM      6  C   UNL     1      41.516  20.481  -1.393  1.00  0.00     0.157 A 
ENDROOT
BRANCH   1   7
ATOM      7  C   UNL     1      43.757  18.672  -4.589  1.00  0.00     0.010 C 
ATOM      8  C   UNL     1      44.514  17.572  -4.475  1.00  0.00     0.025 C 
BRANCH   8   9
ATOM      9  C   UNL     1      45.269  17.016  -5.611  1.00  0.00     0.064 C 
ATOM     10  O   UNL     1      44.955  15.909  -6.124  1.00  0.00    -0.545 OA
ATOM     11  O   UNL     1      46.348  17.724  -6.125  1.00  0.00    -0.545 OA
ENDBRANCH   8   9
ENDBRANCH   1   7
BRANCH   4  12
ATOM     12  O   UNL     1      41.500  18.383  -0.180  1.00  0.00    -0.504 OA
ATOM     13  H   UNL     1      41.584  17.373  -0.160  1.00  0.00     0.293 HD
ENDBRANCH   4  12
BRANCH   6  14
ATOM     14  O   UNL     1      40.792  21.108  -0.380  1.00  0.00    -0.504 OA
ATOM     15  H   UNL     1      41.246  21.572   0.398  1.00  0.00     0.293 HD
ENDBRANCH   6  14
TORSDOF 4
ENDMDL
MODEL 3
REMARK VINA RESULT:    -3.993      1.047      2.161
REMARK INTER + INTRA:          -4.813
REMARK INTER:                  -4.690
REMARK INTRA:                  -0.124
REMARK UNBOUND:                -0.121
REMARK SMILES O=C([O-])C=Cc1ccc(O)c(O)c1
REMARK SMILES IDX 6 1 13 2 7 3 11 4 8 5 9 6 5 7 4 8 2 9 1 10 3 11 12 12 10 14
REMARK H PARENT 12 13 10 15
REMARK Flexibility Score: inf
ROOT
ATOM      1  C   UNL     1      48.485  14.109  -3.508  1.00  0.00    -0.022 A 
ATOM      2  C   UNL     1      49.727  13.571  -3.899  1.00  0.00     0.058 A 
ATOM      3  C   UNL     1      48.186  15.438  -3.848  1.00  0.00     0.012 A 
ATOM      4  C   UNL     1      50.638  14.343  -4.637  1.00  0.00     0.157 A 
ATOM      5  C   UNL     1      49.091  16.207  -4.583  1.00  0.00     0.051 A 
ATOM      6  C   UNL     1      50.315  15.665  -4.982  1.00  0.00     0.157 A 
ENDROOT
BRANCH   1   7
ATOM      7  C   UNL     1      47.493  13.337  -2.718  1.00  0.00     0.010 C 
ATOM      8  C   UNL     1      47.825  12.411  -1.807  1.00  0.00     0.025 C 
BRANCH   8   9
ATOM      9  C   UNL     1      46.813  11.656  -1.051  1.00  0.00     0.064 C 
ATOM     10  O   UNL     1      47.087  11.128   0.060  1.00  0.00    -0.545 OA
ATOM     11  O   UNL     1      45.533  11.519  -1.572  1.00  0.00    -0.545 OA
ENDBRANCH   8   9
ENDBRANCH   1   7
BRANCH   4  12
ATOM     12  O   UNL     1      51.864  13.801  -5.022  1.00  0.00    -0.504 OA
ATOM     13  H   UNL     1      51.976  13.308  -5.900  1.00  0.00     0.293 HD
ENDBRANCH   4  12
BRANCH   6  14
ATOM     14  O   UNL     1      51.199  16.456  -5.717  1.00  0.00    -0.504 OA
ATOM     15  H   UNL     1      51.389  17.420  -5.471  1.00  0.00     0.293 HD
ENDBRANCH   6  14
TORSDOF 4
ENDMDL
MODEL 4
REMARK VINA RESULT:    -3.948      7.519      8.987
REMARK INTER + INTRA:          -4.761
REMARK INTER:                  -4.636
REMARK INTRA:                  -0.125
REMARK UNBOUND:                -0.121
REMARK SMILES O=C([O-])C=Cc1ccc(O)c(O)c1
REMARK SMILES IDX 6 1 13 2 7 3 11 4 8 5 9 6 5 7 4 8 2 9 1 10 3 11 12 12 10 14
REMARK H PARENT 12 13 10 15
REMARK Flexibility Score: inf
ROOT
ATOM      1  C   UNL     1      42.485  18.820  -2.409  1.00  0.00    -0.022 A 
ATOM      2  C   UNL     1      41.110  18.525  -2.321  1.00  0.00     0.058 A 
ATOM      3  C   UNL     1      42.984  19.934  -1.715  1.00  0.00     0.012 A 
ATOM      4  C   UNL     1      40.259  19.317  -1.534  1.00  0.00     0.157 A 
ATOM      5  C   UNL     1      42.139  20.722  -0.930  1.00  0.00     0.051 A 
ATOM      6  C   UNL     1      40.779  20.417  -0.833  1.00  0.00     0.157 A 
ENDROOT
BRANCH   1   7
ATOM      7  C   UNL     1      43.422  18.020  -3.236  1.00  0.00     0.010 C 
ATOM      8  C   UNL     1      44.153  17.003  -2.760  1.00  0.00     0.025 C 
BRANCH   8   9
ATOM      9  C   UNL     1      45.082  16.239  -3.609  1.00  0.00     0.064 C 
ATOM     10  O   UNL     1      44.854  15.036  -3.910  1.00  0.00    -0.545 OA
ATOM     11  O   UNL     1      46.234  16.852  -4.085  1.00  0.00    -0.545 OA
ENDBRANCH   8   9
ENDBRANCH   1   7
BRANCH   4  12
ATOM     12  O   UNL     1      38.900  19.016  -1.452  1.00  0.00    -0.504 OA
ATOM     13  H   UNL     1      38.287  19.098  -2.255  1.00  0.00     0.293 HD
ENDBRANCH   4  12
BRANCH   6  14
ATOM     14  O   UNL     1      39.959  21.221  -0.041  1.00  0.00    -0.504 OA
ATOM     15  H   UNL     1      39.216  21.786  -0.436  1.00  0.00     0.293 HD
ENDBRANCH   6  14
TORSDOF 4
ENDMDL
MODEL 5
REMARK VINA RESULT:    -3.919      3.063      4.281
REMARK INTER + INTRA:          -4.727
REMARK INTER:                  -4.604
REMARK INTRA:                  -0.124
REMARK UNBOUND:                -0.121
REMARK SMILES O=C([O-])C=Cc1ccc(O)c(O)c1
REMARK SMILES IDX 6 1 13 2 7 3 11 4 8 5 9 6 5 7 4 8 2 9 1 10 3 11 12 12 10 14
REMARK H PARENT 12 13 10 15
REMARK Flexibility Score: inf
ROOT
ATOM      1  C   UNL     1      47.372  15.526  -3.872  1.00  0.00    -0.022 A 
ATOM      2  C   UNL     1      47.680  14.270  -3.311  1.00  0.00     0.058 A 
ATOM      3  C   UNL     1      48.379  16.229  -4.552  1.00  0.00     0.012 A 
ATOM      4  C   UNL     1      48.965  13.722  -3.452  1.00  0.00     0.157 A 
ATOM      5  C   UNL     1      49.657  15.684  -4.694  1.00  0.00     0.051 A 
ATOM      6  C   UNL     1      49.955  14.432  -4.151  1.00  0.00     0.157 A 
ENDROOT
BRANCH   1   7
ATOM      7  C   UNL     1      46.033  16.152  -3.740  1.00  0.00     0.010 C 
ATOM      8  C   UNL     1      45.106  15.749  -2.858  1.00  0.00     0.025 C 
BRANCH   8   9
ATOM      9  C   UNL     1      43.783  16.387  -2.764  1.00  0.00     0.064 C 
ATOM     10  O   UNL     1      42.768  15.735  -2.400  1.00  0.00    -0.545 OA
ATOM     11  O   UNL     1      43.649  17.732  -3.085  1.00  0.00    -0.545 OA
ENDBRANCH   8   9
ENDBRANCH   1   7
BRANCH   4  12
ATOM     12  O   UNL     1      49.260  12.478  -2.896  1.00  0.00    -0.504 OA
ATOM     13  H   UNL     1      49.862  12.386  -2.086  1.00  0.00     0.293 HD
ENDBRANCH   4  12
BRANCH   6  14
ATOM     14  O   UNL     1      51.239  13.912  -4.310  1.00  0.00    -0.504 OA
ATOM     15  H   UNL     1      51.890  13.839  -3.536  1.00  0.00     0.293 HD
ENDBRANCH   6  14
TORSDOF 4
ENDMDL
MODEL 6
REMARK VINA RESULT:    -3.872      5.770      7.541
REMARK INTER + INTRA:          -4.671
REMARK INTER:                  -4.550
REMARK INTRA:                  -0.122
REMARK UNBOUND:                -0.121
REMARK SMILES O=C([O-])C=Cc1ccc(O)c(O)c1
REMARK SMILES IDX 6 1 13 2 7 3 11 4 8 5 9 6 5 7 4 8 2 9 1 10 3 11 12 12 10 14
REMARK H PARENT 12 13 10 15
REMARK Flexibility Score: inf
ROOT
ATOM      1  C   UNL     1      43.708  17.301  -3.112  1.00  0.00    -0.022 A 
ATOM      2  C   UNL     1      42.883  16.471  -2.327  1.00  0.00     0.058 A 
ATOM      3  C   UNL     1      43.341  18.643  -3.294  1.00  0.00     0.012 A 
ATOM      4  C   UNL     1      41.728  16.985  -1.718  1.00  0.00     0.157 A 
ATOM      5  C   UNL     1      42.192  19.156  -2.686  1.00  0.00     0.051 A 
ATOM      6  C   UNL     1      41.385  18.334  -1.896  1.00  0.00     0.157 A 
ENDROOT
BRANCH   1   7
ATOM      7  C   UNL     1      44.933  16.802  -3.785  1.00  0.00     0.010 C 
ATOM      8  C   UNL     1      45.579  15.685  -3.423  1.00  0.00     0.025 C 
BRANCH   8   9
ATOM      9  C   UNL     1      46.800  15.227  -4.108  1.00  0.00     0.064 C 
ATOM     10  O   UNL     1      46.784  14.221  -4.868  1.00  0.00    -0.545 OA
ATOM     11  O   UNL     1      47.991  15.913  -3.912  1.00  0.00    -0.545 OA
ENDBRANCH   8   9
ENDBRANCH   1   7
BRANCH   4  12
ATOM     12  O   UNL     1      40.919  16.156  -0.940  1.00  0.00    -0.504 OA
ATOM     13  H   UNL     1      41.310  15.527  -0.248  1.00  0.00     0.293 HD
ENDBRANCH   4  12
BRANCH   6  14
ATOM     14  O   UNL     1      40.245  18.874  -1.301  1.00  0.00    -0.504 OA
ATOM     15  H   UNL     1      39.567  18.298  -0.816  1.00  0.00     0.293 HD
ENDBRANCH   6  14
TORSDOF 4
ENDMDL
MODEL 7
REMARK VINA RESULT:    -3.776      3.144      3.998
REMARK INTER + INTRA:          -4.559
REMARK INTER:                  -4.407
REMARK INTRA:                  -0.152
REMARK UNBOUND:                -0.121
REMARK SMILES O=C([O-])C=Cc1ccc(O)c(O)c1
REMARK SMILES IDX 6 1 13 2 7 3 11 4 8 5 9 6 5 7 4 8 2 9 1 10 3 11 12 12 10 14
REMARK H PARENT 12 13 10 15
REMARK Flexibility Score: inf
ROOT
ATOM      1  C   UNL     1      48.886  15.731  -4.598  1.00  0.00    -0.022 A 
ATOM      2  C   UNL     1      49.999  16.438  -5.094  1.00  0.00     0.058 A 
ATOM      3  C   UNL     1      49.010  14.354  -4.359  1.00  0.00     0.012 A 
ATOM      4  C   UNL     1      51.218  15.780  -5.321  1.00  0.00     0.157 A 
ATOM      5  C   UNL     1      50.223  13.698  -4.583  1.00  0.00     0.051 A 
ATOM      6  C   UNL     1      51.329  14.405  -5.060  1.00  0.00     0.157 A 
ENDROOT
BRANCH   1   7
ATOM      7  C   UNL     1      47.573  16.380  -4.353  1.00  0.00     0.010 C 
ATOM      8  C   UNL     1      46.518  15.747  -3.822  1.00  0.00     0.025 C 
BRANCH   8   9
ATOM      9  C   UNL     1      45.226  16.420  -3.604  1.00  0.00     0.064 C 
ATOM     10  O   UNL     1      44.717  17.158  -4.490  1.00  0.00    -0.545 OA
ATOM     11  O   UNL     1      44.558  16.241  -2.400  1.00  0.00    -0.545 OA
ENDBRANCH   8   9
ENDBRANCH   1   7
BRANCH   4  12
ATOM     12  O   UNL     1      52.316  16.489  -5.810  1.00  0.00    -0.504 OA
ATOM     13  H   UNL     1      52.225  17.150  -6.573  1.00  0.00     0.293 HD
ENDBRANCH   4  12
BRANCH   6  14
ATOM     14  O   UNL     1      52.528  13.725  -5.273  1.00  0.00    -0.504 OA
ATOM     15  H   UNL     1      52.836  13.455  -6.200  1.00  0.00     0.293 HD
ENDBRANCH   6  14
TORSDOF 4
ENDMDL
MODEL 8
REMARK VINA RESULT:    -3.747      3.300      5.207
REMARK INTER + INTRA:          -4.525
REMARK INTER:                  -4.377
REMARK INTRA:                  -0.148
REMARK UNBOUND:                -0.121
REMARK SMILES O=C([O-])C=Cc1ccc(O)c(O)c1
REMARK SMILES IDX 6 1 13 2 7 3 11 4 8 5 9 6 5 7 4 8 2 9 1 10 3 11 12 12 10 14
REMARK H PARENT 12 13 10 15
REMARK Flexibility Score: inf
ROOT
ATOM      1  C   UNL     1      46.548  14.619  -3.121  1.00  0.00    -0.022 A 
ATOM      2  C   UNL     1      47.888  14.659  -3.553  1.00  0.00     0.058 A 
ATOM      3  C   UNL     1      46.100  13.497  -2.405  1.00  0.00     0.012 A 
ATOM      4  C   UNL     1      48.767  13.607  -3.252  1.00  0.00     0.157 A 
ATOM      5  C   UNL     1      46.974  12.450  -2.103  1.00  0.00     0.051 A 
ATOM      6  C   UNL     1      48.307  12.501  -2.520  1.00  0.00     0.157 A 
ENDROOT
BRANCH   1   7
ATOM      7  C   UNL     1      45.578  15.701  -3.424  1.00  0.00     0.010 C 
ATOM      8  C   UNL     1      44.561  16.037  -2.618  1.00  0.00     0.025 C 
BRANCH   8   9
ATOM      9  C   UNL     1      43.611  17.109  -2.958  1.00  0.00     0.064 C 
ATOM     10  O   UNL     1      43.805  17.864  -3.949  1.00  0.00    -0.545 OA
ATOM     11  O   UNL     1      42.481  17.295  -2.173  1.00  0.00    -0.545 OA
ENDBRANCH   8   9
ENDBRANCH   1   7
BRANCH   4  12
ATOM     12  O   UNL     1      50.092  13.657  -3.681  1.00  0.00    -0.504 OA
ATOM     13  H   UNL     1      50.345  14.047  -4.582  1.00  0.00     0.293 HD
ENDBRANCH   4  12
BRANCH   6  14
ATOM     14  O   UNL     1      49.157  11.441  -2.202  1.00  0.00    -0.504 OA
ATOM     15  H   UNL     1      50.012  11.265  -2.717  1.00  0.00     0.293 HD
ENDBRANCH   6  14
TORSDOF 4
ENDMDL
MODEL 9
REMARK VINA RESULT:    -3.646      2.020      2.933
REMARK INTER + INTRA:          -4.406
REMARK INTER:                  -4.284
REMARK INTRA:                  -0.123
REMARK UNBOUND:                -0.121
REMARK SMILES O=C([O-])C=Cc1ccc(O)c(O)c1
REMARK SMILES IDX 6 1 13 2 7 3 11 4 8 5 9 6 5 7 4 8 2 9 1 10 3 11 12 12 10 14
REMARK H PARENT 12 13 10 15
REMARK Flexibility Score: inf
ROOT
ATOM      1  C   UNL     1      50.231  13.862  -4.975  1.00  0.00    -0.022 A 
ATOM      2  C   UNL     1      50.658  15.205  -4.989  1.00  0.00     0.058 A 
ATOM      3  C   UNL     1      51.132  12.861  -5.371  1.00  0.00     0.012 A 
ATOM      4  C   UNL     1      51.969  15.533  -5.369  1.00  0.00     0.157 A 
ATOM      5  C   UNL     1      52.437  13.186  -5.747  1.00  0.00     0.051 A 
ATOM      6  C   UNL     1      52.862  14.517  -5.746  1.00  0.00     0.157 A 
ENDROOT
BRANCH   1   7
ATOM      7  C   UNL     1      48.852  13.466  -4.592  1.00  0.00     0.010 C 
ATOM      8  C   UNL     1      48.346  13.628  -3.362  1.00  0.00     0.025 C 
BRANCH   8   9
ATOM      9  C   UNL     1      46.977  13.212  -3.016  1.00  0.00     0.064 C 
ATOM     10  O   UNL     1      46.735  12.584  -1.950  1.00  0.00    -0.545 OA
ATOM     11  O   UNL     1      45.932  13.515  -3.879  1.00  0.00    -0.545 OA
ENDBRANCH   8   9
ENDBRANCH   1   7
BRANCH   4  12
ATOM     12  O   UNL     1      52.383  16.864  -5.378  1.00  0.00    -0.504 OA
ATOM     13  H   UNL     1      52.680  17.334  -4.530  1.00  0.00     0.293 HD
ENDBRANCH   4  12
BRANCH   6  14
ATOM     14  O   UNL     1      54.171  14.811  -6.125  1.00  0.00    -0.504 OA
ATOM     15  H   UNL     1      54.632  14.327  -6.886  1.00  0.00     0.293 HD
ENDBRANCH   6  14
TORSDOF 4
ENDMDL
