MODEL 1
REMARK VINA RESULT:    -5.152      0.000      0.000
REMARK INTER + INTRA:         -17.636
REMARK INTER:                 -13.584
REMARK INTRA:                  -4.052
REMARK UNBOUND:                -4.052
REMARK SMILES CCCCCCCCCCCCCCCCCCCCCCCCCCCCCC(=O)[O-]
REMARK SMILES IDX 16 1 17 2 18 3 19 4 20 5 21 6 22 7 23 8 24 9 25 10 26 11
REMARK SMILES IDX 27 12 28 13 29 14 30 15 31 16 32 17 15 18 14 19 13 20 12 21
REMARK SMILES IDX 11 22 10 23 9 24 8 25 7 26 6 27 5 28 4 29 3 30 2 31 1 32
REMARK H PARENT
REMARK Flexibility Score: inf
ROOT
ATOM      1  C   UNL     1     208.275 207.920 156.871  1.00  0.00     0.000 C 
ENDROOT
BRANCH   1   2
ATOM      2  C   UNL     1     209.066 207.911 158.196  1.00  0.00     0.000 C 
BRANCH   2   3
ATOM      3  C   UNL     1     209.036 206.538 158.885  1.00  0.00     0.000 C 
BRANCH   3   4
ATOM      4  C   UNL     1     207.758 205.769 158.515  1.00  0.00     0.000 C 
BRANCH   4   5
ATOM      5  C   UNL     1     206.911 205.386 159.742  1.00  0.00     0.000 C 
BRANCH   5   6
ATOM      6  C   UNL     1     206.520 203.897 159.828  1.00  0.00     0.000 C 
BRANCH   6   7
ATOM      7  C   UNL     1     205.904 203.306 158.544  1.00  0.00     0.000 C 
BRANCH   7   8
ATOM      8  C   UNL     1     206.046 201.782 158.400  1.00  0.00     0.000 C 
BRANCH   8   9
ATOM      9  C   UNL     1     206.663 201.362 157.055  1.00  0.00     0.000 C 
BRANCH   9  10
ATOM     10  C   UNL     1     206.306 202.347 155.922  1.00  0.00     0.000 C 
BRANCH  10  11
ATOM     11  C   UNL     1     207.522 202.809 155.100  1.00  0.00     0.000 C 
BRANCH  11  12
ATOM     12  C   UNL     1     208.688 203.295 155.976  1.00  0.00     0.000 C 
BRANCH  12  13
ATOM     13  C   UNL     1     209.858 202.297 155.994  1.00  0.00     0.006 C 
BRANCH  13  14
ATOM     14  C   UNL     1     210.316 201.912 154.581  1.00  0.00     0.053 C 
BRANCH  14  15
ATOM     15  C   UNL     1     211.770 202.213 154.396  1.00  0.00     0.041 C 
ATOM     16  O   UNL     1     212.641 201.391 154.783  1.00  0.00    -0.550 OA
ATOM     17  O   UNL     1     212.164 203.395 153.777  1.00  0.00    -0.550 OA
ENDBRANCH  14  15
ENDBRANCH  13  14
ENDBRANCH  12  13
ENDBRANCH  11  12
ENDBRANCH  10  11
ENDBRANCH   9  10
ENDBRANCH   8   9
ENDBRANCH   7   8
ENDBRANCH   6   7
ENDBRANCH   5   6
ENDBRANCH   4   5
ENDBRANCH   3   4
ENDBRANCH   2   3
ENDBRANCH   1   2
BRANCH   1  18
ATOM     18  C   UNL     1     209.101 207.470 155.655  1.00  0.00     0.000 C 
BRANCH  18  19
ATOM     19  C   UNL     1     208.226 206.948 154.504  1.00  0.00     0.000 C 
BRANCH  19  20
ATOM     20  C   UNL     1     206.906 206.332 154.995  1.00  0.00     0.000 C 
BRANCH  20  21
ATOM     21  C   UNL     1     205.674 206.928 154.297  1.00  0.00     0.000 C 
BRANCH  21  22
ATOM     22  C   UNL     1     204.612 207.348 155.320  1.00  0.00     0.000 C 
BRANCH  22  23
ATOM     23  C   UNL     1     204.216 206.167 156.218  1.00  0.00     0.000 C 
BRANCH  23  24
ATOM     24  C   UNL     1     204.205 206.528 157.715  1.00  0.00    -0.000 C 
BRANCH  24  25
ATOM     25  C   UNL     1     205.004 207.791 158.086  1.00  0.00    -0.000 C 
BRANCH  25  26
ATOM     26  C   UNL     1     204.468 208.493 159.344  1.00  0.00    -0.000 C 
BRANCH  26  27
ATOM     27  C   UNL     1     204.795 209.992 159.319  1.00  0.00    -0.000 C 
BRANCH  27  28
ATOM     28  C   UNL     1     203.538 210.882 159.311  1.00  0.00    -0.000 C 
BRANCH  28  29
ATOM     29  C   UNL     1     202.338 210.328 160.100  1.00  0.00    -0.000 C 
BRANCH  29  30
ATOM     30  C   UNL     1     201.298 211.409 160.448  1.00  0.00    -0.000 C 
BRANCH  30  31
ATOM     31  C   UNL     1     201.033 211.505 161.959  1.00  0.00    -0.003 C 
ATOM     32  C   UNL     1     199.568 211.260 162.320  1.00  0.00     0.004 C 
ENDBRANCH  30  31
ENDBRANCH  29  30
ENDBRANCH  28  29
ENDBRANCH  27  28
ENDBRANCH  26  27
ENDBRANCH  25  26
ENDBRANCH  24  25
ENDBRANCH  23  24
ENDBRANCH  22  23
ENDBRANCH  21  22
ENDBRANCH  20  21
ENDBRANCH  19  20
ENDBRANCH  18  19
ENDBRANCH   1  18
TORSDOF 28
ENDMDL
MODEL 2
REMARK VINA RESULT:    -5.020      3.765      7.872
REMARK INTER + INTRA:         -17.287
REMARK INTER:                 -12.341
REMARK INTRA:                  -4.947
REMARK UNBOUND:                -4.052
REMARK SMILES CCCCCCCCCCCCCCCCCCCCCCCCCCCCCC(=O)[O-]
REMARK SMILES IDX 16 1 17 2 18 3 19 4 20 5 21 6 22 7 23 8 24 9 25 10 26 11
REMARK SMILES IDX 27 12 28 13 29 14 30 15 31 16 32 17 15 18 14 19 13 20 12 21
REMARK SMILES IDX 11 22 10 23 9 24 8 25 7 26 6 27 5 28 4 29 3 30 2 31 1 32
REMARK H PARENT
REMARK Flexibility Score: inf
ROOT
ATOM      1  C   UNL     1     206.430 202.182 156.189  1.00  0.00     0.000 C 
ENDROOT
BRANCH   1   2
ATOM      2  C   UNL     1     206.802 201.236 157.351  1.00  0.00     0.000 C 
BRANCH   2   3
ATOM      3  C   UNL     1     205.946 201.483 158.602  1.00  0.00     0.000 C 
BRANCH   3   4
ATOM      4  C   UNL     1     205.594 202.972 158.739  1.00  0.00     0.000 C 
BRANCH   4   5
ATOM      5  C   UNL     1     206.535 203.728 159.694  1.00  0.00     0.000 C 
BRANCH   5   6
ATOM      6  C   UNL     1     206.838 205.186 159.297  1.00  0.00     0.000 C 
BRANCH   6   7
ATOM      7  C   UNL     1     208.168 205.398 158.546  1.00  0.00     0.000 C 
BRANCH   7   8
ATOM      8  C   UNL     1     208.596 206.867 158.390  1.00  0.00     0.000 C 
BRANCH   8   9
ATOM      9  C   UNL     1     207.406 207.841 158.392  1.00  0.00     0.000 C 
BRANCH   9  10
ATOM     10  C   UNL     1     207.740 209.163 157.668  1.00  0.00     0.000 C 
BRANCH  10  11
ATOM     11  C   UNL     1     206.513 210.059 157.424  1.00  0.00     0.000 C 
BRANCH  11  12
ATOM     12  C   UNL     1     205.201 209.425 157.913  1.00  0.00     0.000 C 
BRANCH  12  13
ATOM     13  C   UNL     1     204.498 210.289 158.975  1.00  0.00     0.006 C 
BRANCH  13  14
ATOM     14  C   UNL     1     203.643 209.451 159.935  1.00  0.00     0.053 C 
BRANCH  14  15
ATOM     15  C   UNL     1     202.246 209.981 159.999  1.00  0.00     0.041 C 
ATOM     16  O   UNL     1     202.044 211.215 160.149  1.00  0.00    -0.550 OA
ATOM     17  O   UNL     1     201.165 209.116 159.873  1.00  0.00    -0.550 OA
ENDBRANCH  14  15
ENDBRANCH  13  14
ENDBRANCH  12  13
ENDBRANCH  11  12
ENDBRANCH  10  11
ENDBRANCH   9  10
ENDBRANCH   8   9
ENDBRANCH   7   8
ENDBRANCH   6   7
ENDBRANCH   5   6
ENDBRANCH   4   5
ENDBRANCH   3   4
ENDBRANCH   2   3
ENDBRANCH   1   2
BRANCH   1  18
ATOM     18  C   UNL     1     207.623 202.979 155.636  1.00  0.00     0.000 C 
BRANCH  18  19
ATOM     19  C   UNL     1     208.673 202.082 154.961  1.00  0.00     0.000 C 
BRANCH  19  20
ATOM     20  C   UNL     1     210.068 202.223 155.594  1.00  0.00     0.000 C 
BRANCH  20  21
ATOM     21  C   UNL     1     211.203 202.121 154.564  1.00  0.00     0.000 C 
BRANCH  21  22
ATOM     22  C   UNL     1     211.914 203.469 154.394  1.00  0.00     0.000 C 
BRANCH  22  23
ATOM     23  C   UNL     1     211.190 204.575 155.176  1.00  0.00     0.000 C 
BRANCH  23  24
ATOM     24  C   UNL     1     211.224 205.938 154.459  1.00  0.00    -0.000 C 
BRANCH  24  25
ATOM     25  C   UNL     1     210.654 207.115 155.272  1.00  0.00    -0.000 C 
BRANCH  25  26
ATOM     26  C   UNL     1     209.300 207.611 154.742  1.00  0.00    -0.000 C 
BRANCH  26  27
ATOM     27  C   UNL     1     208.176 206.630 155.099  1.00  0.00    -0.000 C 
BRANCH  27  28
ATOM     28  C   UNL     1     206.985 206.698 154.124  1.00  0.00    -0.000 C 
BRANCH  28  29
ATOM     29  C   UNL     1     205.605 206.862 154.787  1.00  0.00    -0.000 C 
BRANCH  29  30
ATOM     30  C   UNL     1     205.298 205.759 155.814  1.00  0.00    -0.000 C 
BRANCH  30  31
ATOM     31  C   UNL     1     204.389 206.251 156.952  1.00  0.00    -0.003 C 
ATOM     32  C   UNL     1     203.183 205.340 157.182  1.00  0.00     0.004 C 
ENDBRANCH  30  31
ENDBRANCH  29  30
ENDBRANCH  28  29
ENDBRANCH  27  28
ENDBRANCH  26  27
ENDBRANCH  25  26
ENDBRANCH  24  25
ENDBRANCH  23  24
ENDBRANCH  22  23
ENDBRANCH  21  22
ENDBRANCH  20  21
ENDBRANCH  19  20
ENDBRANCH  18  19
ENDBRANCH   1  18
TORSDOF 28
ENDMDL
MODEL 3
REMARK VINA RESULT:    -4.947      1.042      3.667
REMARK INTER + INTRA:         -17.097
REMARK INTER:                 -13.003
REMARK INTRA:                  -4.094
REMARK UNBOUND:                -4.052
REMARK SMILES CCCCCCCCCCCCCCCCCCCCCCCCCCCCCC(=O)[O-]
REMARK SMILES IDX 16 1 17 2 18 3 19 4 20 5 21 6 22 7 23 8 24 9 25 10 26 11
REMARK SMILES IDX 27 12 28 13 29 14 30 15 31 16 32 17 15 18 14 19 13 20 12 21
REMARK SMILES IDX 11 22 10 23 9 24 8 25 7 26 6 27 5 28 4 29 3 30 2 31 1 32
REMARK H PARENT
REMARK Flexibility Score: inf
ROOT
ATOM      1  C   UNL     1     206.204 203.779 159.047  1.00  0.00     0.000 C 
ENDROOT
BRANCH   1   2
ATOM      2  C   UNL     1     204.885 203.939 158.262  1.00  0.00     0.000 C 
BRANCH   2   3
ATOM      3  C   UNL     1     204.620 205.398 157.857  1.00  0.00     0.000 C 
BRANCH   3   4
ATOM      4  C   UNL     1     203.321 205.513 157.044  1.00  0.00     0.000 C 
BRANCH   4   5
ATOM      5  C   UNL     1     203.386 206.603 155.960  1.00  0.00     0.000 C 
BRANCH   5   6
ATOM      6  C   UNL     1     204.784 207.207 155.720  1.00  0.00     0.000 C 
BRANCH   6   7
ATOM      7  C   UNL     1     205.368 206.967 154.313  1.00  0.00     0.000 C 
BRANCH   7   8
ATOM      8  C   UNL     1     206.753 206.299 154.293  1.00  0.00     0.000 C 
BRANCH   8   9
ATOM      9  C   UNL     1     206.944 205.279 155.428  1.00  0.00     0.000 C 
BRANCH   9  10
ATOM     10  C   UNL     1     206.587 203.845 154.982  1.00  0.00     0.000 C 
BRANCH  10  11
ATOM     11  C   UNL     1     207.341 202.752 155.760  1.00  0.00     0.000 C 
BRANCH  11  12
ATOM     12  C   UNL     1     208.462 202.096 154.938  1.00  0.00     0.000 C 
BRANCH  12  13
ATOM     13  C   UNL     1     209.782 202.006 155.722  1.00  0.00     0.006 C 
BRANCH  13  14
ATOM     14  C   UNL     1     210.758 203.131 155.352  1.00  0.00     0.053 C 
BRANCH  14  15
ATOM     15  C   UNL     1     211.893 202.600 154.535  1.00  0.00     0.041 C 
ATOM     16  O   UNL     1     212.397 201.479 154.806  1.00  0.00    -0.550 OA
ATOM     17  O   UNL     1     212.381 203.333 153.458  1.00  0.00    -0.550 OA
ENDBRANCH  14  15
ENDBRANCH  13  14
ENDBRANCH  12  13
ENDBRANCH  11  12
ENDBRANCH  10  11
ENDBRANCH   9  10
ENDBRANCH   8   9
ENDBRANCH   7   8
ENDBRANCH   6   7
ENDBRANCH   5   6
ENDBRANCH   4   5
ENDBRANCH   3   4
ENDBRANCH   2   3
ENDBRANCH   1   2
BRANCH   1  18
ATOM     18  C   UNL     1     206.654 205.061 159.767  1.00  0.00     0.000 C 
BRANCH  18  19
ATOM     19  C   UNL     1     208.170 205.292 159.673  1.00  0.00     0.000 C 
BRANCH  19  20
ATOM     20  C   UNL     1     208.578 206.030 158.387  1.00  0.00     0.000 C 
BRANCH  20  21
ATOM     21  C   UNL     1     208.970 207.495 158.639  1.00  0.00     0.000 C 
BRANCH  21  22
ATOM     22  C   UNL     1     208.624 208.371 157.429  1.00  0.00     0.000 C 
BRANCH  22  23
ATOM     23  C   UNL     1     207.115 208.645 157.361  1.00  0.00     0.000 C 
BRANCH  23  24
ATOM     24  C   UNL     1     206.735 210.044 157.881  1.00  0.00    -0.000 C 
BRANCH  24  25
ATOM     25  C   UNL     1     205.391 210.118 158.629  1.00  0.00    -0.000 C 
BRANCH  25  26
ATOM     26  C   UNL     1     204.873 208.740 159.070  1.00  0.00    -0.000 C 
BRANCH  26  27
ATOM     27  C   UNL     1     203.489 208.855 159.724  1.00  0.00    -0.000 C 
BRANCH  27  28
ATOM     28  C   UNL     1     202.954 210.300 159.750  1.00  0.00    -0.000 C 
BRANCH  28  29
ATOM     29  C   UNL     1     201.595 210.481 160.450  1.00  0.00    -0.000 C 
BRANCH  29  30
ATOM     30  C   UNL     1     201.475 211.827 161.187  1.00  0.00    -0.000 C 
BRANCH  30  31
ATOM     31  C   UNL     1     200.382 211.811 162.267  1.00  0.00    -0.003 C 
ATOM     32  C   UNL     1     199.250 210.834 161.950  1.00  0.00     0.004 C 
ENDBRANCH  30  31
ENDBRANCH  29  30
ENDBRANCH  28  29
ENDBRANCH  27  28
ENDBRANCH  26  27
ENDBRANCH  25  26
ENDBRANCH  24  25
ENDBRANCH  23  24
ENDBRANCH  22  23
ENDBRANCH  21  22
ENDBRANCH  20  21
ENDBRANCH  19  20
ENDBRANCH  18  19
ENDBRANCH   1  18
TORSDOF 28
ENDMDL
MODEL 4
REMARK VINA RESULT:    -4.897      4.023      9.173
REMARK INTER + INTRA:         -16.963
REMARK INTER:                 -12.700
REMARK INTRA:                  -4.264
REMARK UNBOUND:                -4.052
REMARK SMILES CCCCCCCCCCCCCCCCCCCCCCCCCCCCCC(=O)[O-]
REMARK SMILES IDX 16 1 17 2 18 3 19 4 20 5 21 6 22 7 23 8 24 9 25 10 26 11
REMARK SMILES IDX 27 12 28 13 29 14 30 15 31 16 32 17 15 18 14 19 13 20 12 21
REMARK SMILES IDX 11 22 10 23 9 24 8 25 7 26 6 27 5 28 4 29 3 30 2 31 1 32
REMARK H PARENT
REMARK Flexibility Score: inf
ROOT
ATOM      1  C   UNL     1     208.614 208.065 157.367  1.00  0.00     0.000 C 
ENDROOT
BRANCH   1   2
ATOM      2  C   UNL     1     209.545 207.542 156.253  1.00  0.00     0.000 C 
BRANCH   2   3
ATOM      3  C   UNL     1     208.763 207.010 155.041  1.00  0.00     0.000 C 
BRANCH   3   4
ATOM      4  C   UNL     1     207.373 206.511 155.463  1.00  0.00     0.000 C 
BRANCH   4   5
ATOM      5  C   UNL     1     206.485 206.121 154.268  1.00  0.00     0.000 C 
BRANCH   5   6
ATOM      6  C   UNL     1     205.212 206.972 154.093  1.00  0.00     0.000 C 
BRANCH   6   7
ATOM      7  C   UNL     1     204.598 207.510 155.402  1.00  0.00     0.000 C 
BRANCH   7   8
ATOM      8  C   UNL     1     203.863 206.459 156.251  1.00  0.00     0.000 C 
BRANCH   8   9
ATOM      9  C   UNL     1     203.949 206.742 157.760  1.00  0.00     0.000 C 
BRANCH   9  10
ATOM     10  C   UNL     1     205.104 207.707 158.103  1.00  0.00     0.000 C 
BRANCH  10  11
ATOM     11  C   UNL     1     204.829 208.583 159.337  1.00  0.00     0.000 C 
BRANCH  11  12
ATOM     12  C   UNL     1     204.906 210.088 159.032  1.00  0.00     0.000 C 
BRANCH  12  13
ATOM     13  C   UNL     1     203.581 210.811 159.331  1.00  0.00     0.006 C 
BRANCH  13  14
ATOM     14  C   UNL     1     202.547 209.885 159.985  1.00  0.00     0.053 C 
BRANCH  14  15
ATOM     15  C   UNL     1     201.386 210.672 160.505  1.00  0.00     0.041 C 
ATOM     16  O   UNL     1     200.246 210.143 160.580  1.00  0.00    -0.550 OA
ATOM     17  O   UNL     1     201.566 211.985 160.926  1.00  0.00    -0.550 OA
ENDBRANCH  14  15
ENDBRANCH  13  14
ENDBRANCH  12  13
ENDBRANCH  11  12
ENDBRANCH  10  11
ENDBRANCH   9  10
ENDBRANCH   8   9
ENDBRANCH   7   8
ENDBRANCH   6   7
ENDBRANCH   5   6
ENDBRANCH   4   5
ENDBRANCH   3   4
ENDBRANCH   2   3
ENDBRANCH   1   2
BRANCH   1  18
ATOM     18  C   UNL     1     208.821 207.367 158.722  1.00  0.00     0.000 C 
BRANCH  18  19
ATOM     19  C   UNL     1     208.672 205.840 158.631  1.00  0.00     0.000 C 
BRANCH  19  20
ATOM     20  C   UNL     1     208.110 205.221 159.922  1.00  0.00     0.000 C 
BRANCH  20  21
ATOM     21  C   UNL     1     206.665 204.725 159.766  1.00  0.00     0.000 C 
BRANCH  21  22
ATOM     22  C   UNL     1     206.331 204.458 158.293  1.00  0.00     0.000 C 
BRANCH  22  23
ATOM     23  C   UNL     1     205.373 203.267 158.154  1.00  0.00     0.000 C 
BRANCH  23  24
ATOM     24  C   UNL     1     206.021 201.925 158.543  1.00  0.00    -0.000 C 
BRANCH  24  25
ATOM     25  C   UNL     1     206.827 201.242 157.423  1.00  0.00    -0.000 C 
BRANCH  25  26
ATOM     26  C   UNL     1     206.455 201.749 156.021  1.00  0.00    -0.000 C 
BRANCH  26  27
ATOM     27  C   UNL     1     207.672 202.364 155.317  1.00  0.00    -0.000 C 
BRANCH  27  28
ATOM     28  C   UNL     1     208.420 203.389 156.191  1.00  0.00    -0.000 C 
BRANCH  28  29
ATOM     29  C   UNL     1     209.922 203.537 155.888  1.00  0.00    -0.000 C 
BRANCH  29  30
ATOM     30  C   UNL     1     210.604 202.194 155.569  1.00  0.00    -0.000 C 
BRANCH  30  31
ATOM     31  C   UNL     1     211.702 202.331 154.502  1.00  0.00    -0.003 C 
ATOM     32  C   UNL     1     212.752 201.223 154.587  1.00  0.00     0.004 C 
ENDBRANCH  30  31
ENDBRANCH  29  30
ENDBRANCH  28  29
ENDBRANCH  27  28
ENDBRANCH  26  27
ENDBRANCH  25  26
ENDBRANCH  24  25
ENDBRANCH  23  24
ENDBRANCH  22  23
ENDBRANCH  21  22
ENDBRANCH  20  21
ENDBRANCH  19  20
ENDBRANCH  18  19
ENDBRANCH   1  18
TORSDOF 28
ENDMDL
MODEL 5
REMARK VINA RESULT:    -4.884      2.470      4.683
REMARK INTER + INTRA:         -16.929
REMARK INTER:                 -11.895
REMARK INTRA:                  -5.034
REMARK UNBOUND:                -4.052
REMARK SMILES CCCCCCCCCCCCCCCCCCCCCCCCCCCCCC(=O)[O-]
REMARK SMILES IDX 16 1 17 2 18 3 19 4 20 5 21 6 22 7 23 8 24 9 25 10 26 11
REMARK SMILES IDX 27 12 28 13 29 14 30 15 31 16 32 17 15 18 14 19 13 20 12 21
REMARK SMILES IDX 11 22 10 23 9 24 8 25 7 26 6 27 5 28 4 29 3 30 2 31 1 32
REMARK H PARENT
REMARK Flexibility Score: inf
ROOT
ATOM      1  C   UNL     1     205.633 205.254 158.872  1.00  0.00     0.000 C 
ENDROOT
BRANCH   1   2
ATOM      2  C   UNL     1     204.443 204.328 158.546  1.00  0.00     0.000 C 
BRANCH   2   3
ATOM      3  C   UNL     1     203.861 204.594 157.149  1.00  0.00     0.000 C 
BRANCH   3   4
ATOM      4  C   UNL     1     203.224 205.990 157.078  1.00  0.00     0.000 C 
BRANCH   4   5
ATOM      5  C   UNL     1     203.600 206.758 155.798  1.00  0.00     0.000 C 
BRANCH   5   6
ATOM      6  C   UNL     1     205.088 207.142 155.679  1.00  0.00     0.000 C 
BRANCH   6   7
ATOM      7  C   UNL     1     205.743 206.814 154.322  1.00  0.00     0.000 C 
BRANCH   7   8
ATOM      8  C   UNL     1     206.704 205.614 154.340  1.00  0.00     0.000 C 
BRANCH   8   9
ATOM      9  C   UNL     1     207.495 205.500 155.654  1.00  0.00     0.000 C 
BRANCH   9  10
ATOM     10  C   UNL     1     207.585 204.041 156.150  1.00  0.00     0.000 C 
BRANCH  10  11
ATOM     11  C   UNL     1     206.982 203.019 155.171  1.00  0.00     0.000 C 
BRANCH  11  12
ATOM     12  C   UNL     1     206.130 201.948 155.872  1.00  0.00     0.000 C 
BRANCH  12  13
ATOM     13  C   UNL     1     206.864 201.307 157.062  1.00  0.00     0.006 C 
BRANCH  13  14
ATOM     14  C   UNL     1     206.039 201.364 158.355  1.00  0.00     0.053 C 
BRANCH  14  15
ATOM     15  C   UNL     1     206.428 200.254 159.279  1.00  0.00     0.041 C 
ATOM     16  O   UNL     1     207.136 199.301 158.861  1.00  0.00    -0.550 OA
ATOM     17  O   UNL     1     206.024 200.280 160.610  1.00  0.00    -0.550 OA
ENDBRANCH  14  15
ENDBRANCH  13  14
ENDBRANCH  12  13
ENDBRANCH  11  12
ENDBRANCH  10  11
ENDBRANCH   9  10
ENDBRANCH   8   9
ENDBRANCH   7   8
ENDBRANCH   6   7
ENDBRANCH   5   6
ENDBRANCH   4   5
ENDBRANCH   3   4
ENDBRANCH   2   3
ENDBRANCH   1   2
BRANCH   1  18
ATOM     18  C   UNL     1     206.720 204.586 159.730  1.00  0.00     0.000 C 
BRANCH  18  19
ATOM     19  C   UNL     1     208.070 205.317 159.652  1.00  0.00     0.000 C 
BRANCH  19  20
ATOM     20  C   UNL     1     207.957 206.702 158.994  1.00  0.00     0.000 C 
BRANCH  20  21
ATOM     21  C   UNL     1     209.295 207.208 158.435  1.00  0.00     0.000 C 
BRANCH  21  22
ATOM     22  C   UNL     1     209.144 208.608 157.829  1.00  0.00     0.000 C 
BRANCH  22  23
ATOM     23  C   UNL     1     207.689 208.875 157.416  1.00  0.00     0.000 C 
BRANCH  23  24
ATOM     24  C   UNL     1     207.175 210.250 157.880  1.00  0.00    -0.000 C 
BRANCH  24  25
ATOM     25  C   UNL     1     205.739 210.255 158.435  1.00  0.00    -0.000 C 
BRANCH  25  26
ATOM     26  C   UNL     1     205.112 208.853 158.493  1.00  0.00    -0.000 C 
BRANCH  26  27
ATOM     27  C   UNL     1     204.350 208.644 159.807  1.00  0.00    -0.000 C 
BRANCH  27  28
ATOM     28  C   UNL     1     202.859 209.019 159.706  1.00  0.00    -0.000 C 
BRANCH  28  29
ATOM     29  C   UNL     1     202.511 210.447 160.163  1.00  0.00    -0.000 C 
BRANCH  29  30
ATOM     30  C   UNL     1     201.042 210.596 160.598  1.00  0.00    -0.000 C 
BRANCH  30  31
ATOM     31  C   UNL     1     200.865 211.618 161.732  1.00  0.00    -0.003 C 
ATOM     32  C   UNL     1     199.661 211.313 162.623  1.00  0.00     0.004 C 
ENDBRANCH  30  31
ENDBRANCH  29  30
ENDBRANCH  28  29
ENDBRANCH  27  28
ENDBRANCH  26  27
ENDBRANCH  25  26
ENDBRANCH  24  25
ENDBRANCH  23  24
ENDBRANCH  22  23
ENDBRANCH  21  22
ENDBRANCH  20  21
ENDBRANCH  19  20
ENDBRANCH  18  19
ENDBRANCH   1  18
TORSDOF 28
ENDMDL
MODEL 6
REMARK VINA RESULT:    -4.855      3.726      8.289
REMARK INTER + INTRA:         -16.854
REMARK INTER:                 -12.401
REMARK INTRA:                  -4.453
REMARK UNBOUND:                -4.052
REMARK SMILES CCCCCCCCCCCCCCCCCCCCCCCCCCCCCC(=O)[O-]
REMARK SMILES IDX 16 1 17 2 18 3 19 4 20 5 21 6 22 7 23 8 24 9 25 10 26 11
REMARK SMILES IDX 27 12 28 13 29 14 30 15 31 16 32 17 15 18 14 19 13 20 12 21
REMARK SMILES IDX 11 22 10 23 9 24 8 25 7 26 6 27 5 28 4 29 3 30 2 31 1 32
REMARK H PARENT
REMARK Flexibility Score: inf
ROOT
ATOM      1  C   UNL     1     208.068 206.135 156.427  1.00  0.00     0.000 C 
ENDROOT
BRANCH   1   2
ATOM      2  C   UNL     1     208.412 205.255 157.648  1.00  0.00     0.000 C 
BRANCH   2   3
ATOM      3  C   UNL     1     208.211 205.998 158.978  1.00  0.00     0.000 C 
BRANCH   3   4
ATOM      4  C   UNL     1     206.893 205.576 159.647  1.00  0.00     0.000 C 
BRANCH   4   5
ATOM      5  C   UNL     1     206.251 204.343 158.985  1.00  0.00     0.000 C 
BRANCH   5   6
ATOM      6  C   UNL     1     204.762 204.500 158.616  1.00  0.00     0.000 C 
BRANCH   6   7
ATOM      7  C   UNL     1     204.469 204.590 157.105  1.00  0.00     0.000 C 
BRANCH   7   8
ATOM      8  C   UNL     1     204.002 205.972 156.618  1.00  0.00     0.000 C 
BRANCH   8   9
ATOM      9  C   UNL     1     205.160 206.856 156.124  1.00  0.00     0.000 C 
BRANCH   9  10
ATOM     10  C   UNL     1     204.750 208.340 156.018  1.00  0.00     0.000 C 
BRANCH  10  11
ATOM     11  C   UNL     1     205.622 209.283 156.867  1.00  0.00     0.000 C 
BRANCH  11  12
ATOM     12  C   UNL     1     205.836 208.772 158.301  1.00  0.00     0.000 C 
BRANCH  12  13
ATOM     13  C   UNL     1     204.525 208.719 159.102  1.00  0.00     0.006 C 
BRANCH  13  14
ATOM     14  C   UNL     1     203.999 210.118 159.452  1.00  0.00     0.053 C 
BRANCH  14  15
ATOM     15  C   UNL     1     202.566 210.053 159.878  1.00  0.00     0.041 C 
ATOM     16  O   UNL     1     201.952 208.954 159.867  1.00  0.00    -0.550 OA
ATOM     17  O   UNL     1     201.913 211.203 160.308  1.00  0.00    -0.550 OA
ENDBRANCH  14  15
ENDBRANCH  13  14
ENDBRANCH  12  13
ENDBRANCH  11  12
ENDBRANCH  10  11
ENDBRANCH   9  10
ENDBRANCH   8   9
ENDBRANCH   7   8
ENDBRANCH   6   7
ENDBRANCH   5   6
ENDBRANCH   4   5
ENDBRANCH   3   4
ENDBRANCH   2   3
ENDBRANCH   1   2
BRANCH   1  18
ATOM     18  C   UNL     1     208.814 207.480 156.406  1.00  0.00     0.000 C 
BRANCH  18  19
ATOM     19  C   UNL     1     209.676 207.658 155.146  1.00  0.00     0.000 C 
BRANCH  19  20
ATOM     20  C   UNL     1     211.135 207.220 155.358  1.00  0.00     0.000 C 
BRANCH  20  21
ATOM     21  C   UNL     1     211.544 206.050 154.452  1.00  0.00     0.000 C 
BRANCH  21  22
ATOM     22  C   UNL     1     211.226 204.704 155.115  1.00  0.00     0.000 C 
BRANCH  22  23
ATOM     23  C   UNL     1     211.827 203.540 154.314  1.00  0.00     0.000 C 
BRANCH  23  24
ATOM     24  C   UNL     1     211.239 202.173 154.708  1.00  0.00    -0.000 C 
BRANCH  24  25
ATOM     25  C   UNL     1     210.003 202.236 155.624  1.00  0.00    -0.000 C 
BRANCH  25  26
ATOM     26  C   UNL     1     208.697 201.883 154.895  1.00  0.00    -0.000 C 
BRANCH  26  27
ATOM     27  C   UNL     1     207.499 202.601 155.532  1.00  0.00    -0.000 C 
BRANCH  27  28
ATOM     28  C   UNL     1     206.416 201.632 156.041  1.00  0.00    -0.000 C 
BRANCH  28  29
ATOM     29  C   UNL     1     206.439 201.361 157.555  1.00  0.00    -0.000 C 
BRANCH  29  30
ATOM     30  C   UNL     1     206.795 199.903 157.899  1.00  0.00    -0.000 C 
BRANCH  30  31
ATOM     31  C   UNL     1     206.824 199.646 159.414  1.00  0.00    -0.003 C 
ATOM     32  C   UNL     1     206.103 200.731 160.213  1.00  0.00     0.004 C 
ENDBRANCH  30  31
ENDBRANCH  29  30
ENDBRANCH  28  29
ENDBRANCH  27  28
ENDBRANCH  26  27
ENDBRANCH  25  26
ENDBRANCH  24  25
ENDBRANCH  23  24
ENDBRANCH  22  23
ENDBRANCH  21  22
ENDBRANCH  20  21
ENDBRANCH  19  20
ENDBRANCH  18  19
ENDBRANCH   1  18
TORSDOF 28
ENDMDL
MODEL 7
REMARK VINA RESULT:    -4.844      1.079      3.047
REMARK INTER + INTRA:         -16.824
REMARK INTER:                 -11.578
REMARK INTRA:                  -5.246
REMARK UNBOUND:                -4.052
REMARK SMILES CCCCCCCCCCCCCCCCCCCCCCCCCCCCCC(=O)[O-]
REMARK SMILES IDX 16 1 17 2 18 3 19 4 20 5 21 6 22 7 23 8 24 9 25 10 26 11
REMARK SMILES IDX 27 12 28 13 29 14 30 15 31 16 32 17 15 18 14 19 13 20 12 21
REMARK SMILES IDX 11 22 10 23 9 24 8 25 7 26 6 27 5 28 4 29 3 30 2 31 1 32
REMARK H PARENT
REMARK Flexibility Score: inf
ROOT
ATOM      1  C   UNL     1     207.985 205.281 159.797  1.00  0.00     0.000 C 
ENDROOT
BRANCH   1   2
ATOM      2  C   UNL     1     208.510 205.861 158.467  1.00  0.00     0.000 C 
BRANCH   2   3
ATOM      3  C   UNL     1     208.976 207.318 158.610  1.00  0.00     0.000 C 
BRANCH   3   4
ATOM      4  C   UNL     1     209.417 207.888 157.253  1.00  0.00     0.000 C 
BRANCH   4   5
ATOM      5  C   UNL     1     209.387 206.842 156.124  1.00  0.00     0.000 C 
BRANCH   5   6
ATOM      6  C   UNL     1     208.785 207.333 154.793  1.00  0.00     0.000 C 
BRANCH   6   7
ATOM      7  C   UNL     1     207.455 206.665 154.390  1.00  0.00     0.000 C 
BRANCH   7   8
ATOM      8  C   UNL     1     207.082 205.420 155.211  1.00  0.00     0.000 C 
BRANCH   8   9
ATOM      9  C   UNL     1     206.424 204.318 154.364  1.00  0.00     0.000 C 
BRANCH   9  10
ATOM     10  C   UNL     1     206.333 202.979 155.126  1.00  0.00     0.000 C 
BRANCH  10  11
ATOM     11  C   UNL     1     207.660 202.201 155.166  1.00  0.00     0.000 C 
BRANCH  11  12
ATOM     12  C   UNL     1     208.557 202.608 156.346  1.00  0.00     0.000 C 
BRANCH  12  13
ATOM     13  C   UNL     1     209.991 202.939 155.899  1.00  0.00     0.006 C 
BRANCH  13  14
ATOM     14  C   UNL     1     210.399 202.174 154.633  1.00  0.00     0.053 C 
BRANCH  14  15
ATOM     15  C   UNL     1     211.877 202.255 154.419  1.00  0.00     0.041 C 
ATOM     16  O   UNL     1     212.638 201.388 154.923  1.00  0.00    -0.550 OA
ATOM     17  O   UNL     1     212.415 203.278 153.646  1.00  0.00    -0.550 OA
ENDBRANCH  14  15
ENDBRANCH  13  14
ENDBRANCH  12  13
ENDBRANCH  11  12
ENDBRANCH  10  11
ENDBRANCH   9  10
ENDBRANCH   8   9
ENDBRANCH   7   8
ENDBRANCH   6   7
ENDBRANCH   5   6
ENDBRANCH   4   5
ENDBRANCH   3   4
ENDBRANCH   2   3
ENDBRANCH   1   2
BRANCH   1  18
ATOM     18  C   UNL     1     206.488 204.931 159.771  1.00  0.00     0.000 C 
BRANCH  18  19
ATOM     19  C   UNL     1     206.025 204.411 158.401  1.00  0.00     0.000 C 
BRANCH  19  20
ATOM     20  C   UNL     1     204.503 204.205 158.329  1.00  0.00     0.000 C 
BRANCH  20  21
ATOM     21  C   UNL     1     203.881 204.796 157.054  1.00  0.00     0.000 C 
BRANCH  21  22
ATOM     22  C   UNL     1     203.648 206.304 157.205  1.00  0.00     0.000 C 
BRANCH  22  23
ATOM     23  C   UNL     1     203.920 207.037 155.883  1.00  0.00     0.000 C 
BRANCH  23  24
ATOM     24  C   UNL     1     204.858 208.248 156.049  1.00  0.00    -0.000 C 
BRANCH  24  25
ATOM     25  C   UNL     1     205.748 208.214 157.305  1.00  0.00    -0.000 C 
BRANCH  25  26
ATOM     26  C   UNL     1     206.183 209.612 157.772  1.00  0.00    -0.000 C 
BRANCH  26  27
ATOM     27  C   UNL     1     205.161 210.209 158.748  1.00  0.00    -0.000 C 
BRANCH  27  28
ATOM     28  C   UNL     1     204.583 209.169 159.727  1.00  0.00    -0.000 C 
BRANCH  28  29
ATOM     29  C   UNL     1     203.049 209.046 159.721  1.00  0.00    -0.000 C 
BRANCH  29  30
ATOM     30  C   UNL     1     202.337 210.411 159.753  1.00  0.00    -0.000 C 
BRANCH  30  31
ATOM     31  C   UNL     1     201.130 210.422 160.703  1.00  0.00    -0.003 C 
ATOM     32  C   UNL     1     201.146 211.609 161.667  1.00  0.00     0.004 C 
ENDBRANCH  30  31
ENDBRANCH  29  30
ENDBRANCH  28  29
ENDBRANCH  27  28
ENDBRANCH  26  27
ENDBRANCH  25  26
ENDBRANCH  24  25
ENDBRANCH  23  24
ENDBRANCH  22  23
ENDBRANCH  21  22
ENDBRANCH  20  21
ENDBRANCH  19  20
ENDBRANCH  18  19
ENDBRANCH   1  18
TORSDOF 28
ENDMDL
MODEL 8
REMARK VINA RESULT:    -4.836      1.971      4.118
REMARK INTER + INTRA:         -16.804
REMARK INTER:                 -12.331
REMARK INTRA:                  -4.472
REMARK UNBOUND:                -4.052
REMARK SMILES CCCCCCCCCCCCCCCCCCCCCCCCCCCCCC(=O)[O-]
REMARK SMILES IDX 16 1 17 2 18 3 19 4 20 5 21 6 22 7 23 8 24 9 25 10 26 11
REMARK SMILES IDX 27 12 28 13 29 14 30 15 31 16 32 17 15 18 14 19 13 20 12 21
REMARK SMILES IDX 11 22 10 23 9 24 8 25 7 26 6 27 5 28 4 29 3 30 2 31 1 32
REMARK H PARENT
REMARK Flexibility Score: inf
ROOT
ATOM      1  C   UNL     1     206.976 205.105 159.780  1.00  0.00     0.000 C 
ENDROOT
BRANCH   1   2
ATOM      2  C   UNL     1     208.359 205.263 159.112  1.00  0.00     0.000 C 
BRANCH   2   3
ATOM      3  C   UNL     1     208.925 206.682 159.271  1.00  0.00     0.000 C 
BRANCH   3   4
ATOM      4  C   UNL     1     208.985 207.402 157.915  1.00  0.00     0.000 C 
BRANCH   4   5
ATOM      5  C   UNL     1     208.439 206.550 156.756  1.00  0.00     0.000 C 
BRANCH   5   6
ATOM      6  C   UNL     1     208.856 207.016 155.347  1.00  0.00     0.000 C 
BRANCH   6   7
ATOM      7  C   UNL     1     210.312 207.509 155.223  1.00  0.00     0.000 C 
BRANCH   7   8
ATOM      8  C   UNL     1     211.293 206.485 154.630  1.00  0.00     0.000 C 
BRANCH   8   9
ATOM      9  C   UNL     1     211.124 205.077 155.226  1.00  0.00     0.000 C 
BRANCH   9  10
ATOM     10  C   UNL     1     211.754 203.990 154.329  1.00  0.00     0.000 C 
BRANCH  10  11
ATOM     11  C   UNL     1     211.329 202.560 154.704  1.00  0.00     0.000 C 
BRANCH  11  12
ATOM     12  C   UNL     1     210.264 202.521 155.811  1.00  0.00     0.000 C 
BRANCH  12  13
ATOM     13  C   UNL     1     208.881 202.116 155.274  1.00  0.00     0.006 C 
BRANCH  13  14
ATOM     14  C   UNL     1     207.736 202.689 156.120  1.00  0.00     0.053 C 
BRANCH  14  15
ATOM     15  C   UNL     1     206.628 203.184 155.245  1.00  0.00     0.041 C 
ATOM     16  O   UNL     1     206.767 204.249 154.590  1.00  0.00    -0.550 OA
ATOM     17  O   UNL     1     205.447 202.457 155.137  1.00  0.00    -0.550 OA
ENDBRANCH  14  15
ENDBRANCH  13  14
ENDBRANCH  12  13
ENDBRANCH  11  12
ENDBRANCH  10  11
ENDBRANCH   9  10
ENDBRANCH   8   9
ENDBRANCH   7   8
ENDBRANCH   6   7
ENDBRANCH   5   6
ENDBRANCH   4   5
ENDBRANCH   3   4
ENDBRANCH   2   3
ENDBRANCH   1   2
BRANCH   1  18
ATOM     18  C   UNL     1     206.370 203.701 159.620  1.00  0.00     0.000 C 
BRANCH  18  19
ATOM     19  C   UNL     1     205.239 203.659 158.580  1.00  0.00     0.000 C 
BRANCH  19  20
ATOM     20  C   UNL     1     205.040 205.005 157.864  1.00  0.00     0.000 C 
BRANCH  20  21
ATOM     21  C   UNL     1     203.635 205.159 157.263  1.00  0.00     0.000 C 
BRANCH  21  22
ATOM     22  C   UNL     1     203.586 206.331 156.275  1.00  0.00     0.000 C 
BRANCH  22  23
ATOM     23  C   UNL     1     204.987 206.914 156.043  1.00  0.00     0.000 C 
BRANCH  23  24
ATOM     24  C   UNL     1     204.986 208.449 155.919  1.00  0.00    -0.000 C 
BRANCH  24  25
ATOM     25  C   UNL     1     205.753 209.193 157.027  1.00  0.00    -0.000 C 
BRANCH  25  26
ATOM     26  C   UNL     1     205.729 208.455 158.375  1.00  0.00    -0.000 C 
BRANCH  26  27
ATOM     27  C   UNL     1     204.590 208.971 159.264  1.00  0.00    -0.000 C 
BRANCH  27  28
ATOM     28  C   UNL     1     204.224 210.441 158.984  1.00  0.00    -0.000 C 
BRANCH  28  29
ATOM     29  C   UNL     1     203.016 210.977 159.772  1.00  0.00    -0.000 C 
BRANCH  29  30
ATOM     30  C   UNL     1     201.977 209.887 160.092  1.00  0.00    -0.000 C 
BRANCH  30  31
ATOM     31  C   UNL     1     200.703 210.459 160.733  1.00  0.00    -0.003 C 
ATOM     32  C   UNL     1     200.994 211.576 161.735  1.00  0.00     0.004 C 
ENDBRANCH  30  31
ENDBRANCH  29  30
ENDBRANCH  28  29
ENDBRANCH  27  28
ENDBRANCH  26  27
ENDBRANCH  25  26
ENDBRANCH  24  25
ENDBRANCH  23  24
ENDBRANCH  22  23
ENDBRANCH  21  22
ENDBRANCH  20  21
ENDBRANCH  19  20
ENDBRANCH  18  19
ENDBRANCH   1  18
TORSDOF 28
ENDMDL
MODEL 9
REMARK VINA RESULT:    -4.790      4.030      7.914
REMARK INTER + INTRA:         -16.683
REMARK INTER:                 -12.158
REMARK INTRA:                  -4.524
REMARK UNBOUND:                -4.052
REMARK SMILES CCCCCCCCCCCCCCCCCCCCCCCCCCCCCC(=O)[O-]
REMARK SMILES IDX 16 1 17 2 18 3 19 4 20 5 21 6 22 7 23 8 24 9 25 10 26 11
REMARK SMILES IDX 27 12 28 13 29 14 30 15 31 16 32 17 15 18 14 19 13 20 12 21
REMARK SMILES IDX 11 22 10 23 9 24 8 25 7 26 6 27 5 28 4 29 3 30 2 31 1 32
REMARK H PARENT
REMARK Flexibility Score: inf
ROOT
ATOM      1  C   UNL     1     211.708 203.603 154.635  1.00  0.00     0.000 C 
ENDROOT
BRANCH   1   2
ATOM      2  C   UNL     1     210.936 204.794 155.240  1.00  0.00     0.000 C 
BRANCH   2   3
ATOM      3  C   UNL     1     211.279 206.123 154.550  1.00  0.00     0.000 C 
BRANCH   3   4
ATOM      4  C   UNL     1     210.798 207.316 155.390  1.00  0.00     0.000 C 
BRANCH   4   5
ATOM      5  C   UNL     1     209.265 207.386 155.514  1.00  0.00     0.000 C 
BRANCH   5   6
ATOM      6  C   UNL     1     208.713 207.166 156.937  1.00  0.00     0.000 C 
BRANCH   6   7
ATOM      7  C   UNL     1     209.031 208.290 157.943  1.00  0.00     0.000 C 
BRANCH   7   8
ATOM      8  C   UNL     1     207.853 209.227 158.261  1.00  0.00     0.000 C 
BRANCH   8   9
ATOM      9  C   UNL     1     207.097 209.687 157.003  1.00  0.00     0.000 C 
BRANCH   9  10
ATOM     10  C   UNL     1     205.587 209.860 157.267  1.00  0.00     0.000 C 
BRANCH  10  11
ATOM     11  C   UNL     1     205.229 209.953 158.760  1.00  0.00     0.000 C 
BRANCH  11  12
ATOM     12  C   UNL     1     204.592 208.665 159.306  1.00  0.00     0.000 C 
BRANCH  12  13
ATOM     13  C   UNL     1     203.144 208.885 159.776  1.00  0.00     0.006 C 
BRANCH  13  14
ATOM     14  C   UNL     1     202.830 210.368 160.021  1.00  0.00     0.053 C 
BRANCH  14  15
ATOM     15  C   UNL     1     201.448 210.532 160.569  1.00  0.00     0.041 C 
ATOM     16  O   UNL     1     200.550 209.697 160.281  1.00  0.00    -0.550 OA
ATOM     17  O   UNL     1     201.154 211.596 161.415  1.00  0.00    -0.550 OA
ENDBRANCH  14  15
ENDBRANCH  13  14
ENDBRANCH  12  13
ENDBRANCH  11  12
ENDBRANCH  10  11
ENDBRANCH   9  10
ENDBRANCH   8   9
ENDBRANCH   7   8
ENDBRANCH   6   7
ENDBRANCH   5   6
ENDBRANCH   4   5
ENDBRANCH   3   4
ENDBRANCH   2   3
ENDBRANCH   1   2
BRANCH   1  18
ATOM     18  C   UNL     1     211.041 202.241 154.890  1.00  0.00     0.000 C 
BRANCH  18  19
ATOM     19  C   UNL     1     209.773 202.354 155.750  1.00  0.00     0.000 C 
BRANCH  19  20
ATOM     20  C   UNL     1     208.509 201.887 155.009  1.00  0.00     0.000 C 
BRANCH  20  21
ATOM     21  C   UNL     1     207.213 202.304 155.719  1.00  0.00     0.000 C 
BRANCH  21  22
ATOM     22  C   UNL     1     206.446 203.346 154.896  1.00  0.00     0.000 C 
BRANCH  22  23
ATOM     23  C   UNL     1     206.820 204.772 155.328  1.00  0.00     0.000 C 
BRANCH  23  24
ATOM     24  C   UNL     1     206.417 205.838 154.292  1.00  0.00    -0.000 C 
BRANCH  24  25
ATOM     25  C   UNL     1     205.230 206.728 154.702  1.00  0.00    -0.000 C 
BRANCH  25  26
ATOM     26  C   UNL     1     205.000 206.761 156.221  1.00  0.00    -0.000 C 
BRANCH  26  27
ATOM     27  C   UNL     1     203.565 206.347 156.571  1.00  0.00    -0.000 C 
BRANCH  27  28
ATOM     28  C   UNL     1     203.469 204.912 157.124  1.00  0.00    -0.000 C 
BRANCH  28  29
ATOM     29  C   UNL     1     204.141 204.691 158.491  1.00  0.00    -0.000 C 
BRANCH  29  30
ATOM     30  C   UNL     1     205.349 203.740 158.419  1.00  0.00    -0.000 C 
BRANCH  30  31
ATOM     31  C   UNL     1     206.450 204.110 159.425  1.00  0.00    -0.003 C 
ATOM     32  C   UNL     1     206.629 205.620 159.578  1.00  0.00     0.004 C 
ENDBRANCH  30  31
ENDBRANCH  29  30
ENDBRANCH  28  29
ENDBRANCH  27  28
ENDBRANCH  26  27
ENDBRANCH  25  26
ENDBRANCH  24  25
ENDBRANCH  23  24
ENDBRANCH  22  23
ENDBRANCH  21  22
ENDBRANCH  20  21
ENDBRANCH  19  20
ENDBRANCH  18  19
ENDBRANCH   1  18
TORSDOF 28
ENDMDL
