MODEL 1
REMARK VINA RESULT:    -6.427      0.000      0.000
REMARK INTER + INTRA:          -7.991
REMARK INTER:                  -7.742
REMARK INTRA:                  -0.249
REMARK UNBOUND:                -0.249
REMARK SMILES O=c1c(O)c(-c2ccc(O)c(O)c2)oc2cc(O)cc(O)c12
REMARK SMILES IDX 5 1 3 2 2 3 1 4 22 5 20 6 19 7 17 8 16 9 15 10 14 11 6 12
REMARK SMILES IDX 7 13 8 14 9 15 13 16 11 17 10 18 12 20 4 22 21 24 18 26
REMARK H PARENT 10 19 12 21 4 23 21 25 18 27
REMARK Flexibility Score: inf
ROOT
ATOM      1  C   UNL     1     -14.411  36.587  -2.874  1.00  0.00     0.180 A 
ATOM      2  C   UNL     1     -14.424  35.229  -2.506  1.00  0.00     0.208 A 
ATOM      3  C   UNL     1     -13.272  34.456  -2.720  1.00  0.00     0.238 A 
ATOM      4  O   UNL     1     -13.270  33.240  -2.383  1.00  0.00    -0.285 OA
ATOM      5  C   UNL     1     -12.138  35.045  -3.315  1.00  0.00     0.111 A 
ATOM      6  C   UNL     1     -10.939  34.336  -3.568  1.00  0.00     0.134 A 
ATOM      7  C   UNL     1      -9.857  34.992  -4.172  1.00  0.00     0.093 A 
ATOM      8  C   UNL     1      -9.951  36.343  -4.528  1.00  0.00     0.123 A 
ATOM      9  C   UNL     1     -11.130  37.046  -4.279  1.00  0.00     0.094 A 
ATOM     10  C   UNL     1     -12.219  36.410  -3.676  1.00  0.00     0.146 A 
ATOM     11  O   UNL     1     -13.328  37.106  -3.446  1.00  0.00    -0.452 OA
ENDROOT
BRANCH   1  12
ATOM     12  C   UNL     1     -15.578  37.472  -2.663  1.00  0.00     0.025 A 
ATOM     13  C   UNL     1     -15.560  38.401  -1.611  1.00  0.00     0.016 A 
ATOM     14  C   UNL     1     -16.659  39.233  -1.382  1.00  0.00     0.051 A 
ATOM     15  C   UNL     1     -17.796  39.140  -2.189  1.00  0.00     0.157 A 
ATOM     16  C   UNL     1     -16.732  37.367  -3.462  1.00  0.00     0.062 A 
ATOM     17  C   UNL     1     -17.837  38.199  -3.231  1.00  0.00     0.158 A 
BRANCH  15  18
ATOM     18  O   UNL     1     -18.878  39.985  -1.937  1.00  0.00    -0.504 OA
ATOM     19  H   UNL     1     -19.354  40.483  -2.678  1.00  0.00     0.293 HD
ENDBRANCH  15  18
BRANCH  17  20
ATOM     20  O   UNL     1     -18.974  38.092  -4.031  1.00  0.00    -0.504 OA
ATOM     21  H   UNL     1     -19.902  38.245  -3.657  1.00  0.00     0.293 HD
ENDBRANCH  17  20
ENDBRANCH   1  12
BRANCH   2  22
ATOM     22  O   UNL     1     -15.577  34.656  -1.963  1.00  0.00    -0.502 OA
ATOM     23  H   UNL     1     -16.278  34.202  -2.535  1.00  0.00     0.293 HD
ENDBRANCH   2  22
BRANCH   6  24
ATOM     24  O   UNL     1     -10.817  32.988  -3.226  1.00  0.00    -0.507 OA
ATOM     25  H   UNL     1     -10.415  32.311  -3.864  1.00  0.00     0.293 HD
ENDBRANCH   6  24
BRANCH   8  26
ATOM     26  O   UNL     1      -8.876  36.994  -5.129  1.00  0.00    -0.508 OA
ATOM     27  H   UNL     1      -8.937  37.357  -6.073  1.00  0.00     0.293 HD
ENDBRANCH   8  26
TORSDOF 6
ENDMDL
MODEL 2
REMARK VINA RESULT:    -6.205     10.121     13.362
REMARK INTER + INTRA:          -7.724
REMARK INTER:                  -7.495
REMARK INTRA:                  -0.229
REMARK UNBOUND:                -0.249
REMARK SMILES O=c1c(O)c(-c2ccc(O)c(O)c2)oc2cc(O)cc(O)c12
REMARK SMILES IDX 5 1 3 2 2 3 1 4 22 5 20 6 19 7 17 8 16 9 15 10 14 11 6 12
REMARK SMILES IDX 7 13 8 14 9 15 13 16 11 17 10 18 12 20 4 22 21 24 18 26
REMARK H PARENT 10 19 12 21 4 23 21 25 18 27
REMARK Flexibility Score: inf
ROOT
ATOM      1  C   UNL     1     -25.320  39.036  -5.999  1.00  0.00     0.180 A 
ATOM      2  C   UNL     1     -26.269  38.275  -6.708  1.00  0.00     0.208 A 
ATOM      3  C   UNL     1     -27.222  37.536  -5.989  1.00  0.00     0.238 A 
ATOM      4  O   UNL     1     -28.084  36.861  -6.615  1.00  0.00    -0.285 OA
ATOM      5  C   UNL     1     -27.198  37.554  -4.579  1.00  0.00     0.111 A 
ATOM      6  C   UNL     1     -28.120  36.835  -3.780  1.00  0.00     0.134 A 
ATOM      7  C   UNL     1     -28.024  36.896  -2.383  1.00  0.00     0.093 A 
ATOM      8  C   UNL     1     -27.026  37.662  -1.769  1.00  0.00     0.123 A 
ATOM      9  C   UNL     1     -26.116  38.372  -2.553  1.00  0.00     0.094 A 
ATOM     10  C   UNL     1     -26.195  38.325  -3.948  1.00  0.00     0.146 A 
ATOM     11  O   UNL     1     -25.319  39.016  -4.669  1.00  0.00    -0.452 OA
ENDROOT
BRANCH   1  12
ATOM     12  C   UNL     1     -24.296  39.855  -6.684  1.00  0.00     0.025 A 
ATOM     13  C   UNL     1     -24.685  41.017  -7.370  1.00  0.00     0.016 A 
ATOM     14  C   UNL     1     -23.738  41.795  -8.040  1.00  0.00     0.051 A 
ATOM     15  C   UNL     1     -22.392  41.418  -8.049  1.00  0.00     0.157 A 
ATOM     16  C   UNL     1     -22.944  39.467  -6.711  1.00  0.00     0.062 A 
ATOM     17  C   UNL     1     -21.992  40.246  -7.386  1.00  0.00     0.158 A 
BRANCH  15  18
ATOM     18  O   UNL     1     -21.469  42.216  -8.724  1.00  0.00    -0.504 OA
ATOM     19  H   UNL     1     -20.731  42.712  -8.240  1.00  0.00     0.293 HD
ENDBRANCH  15  18
BRANCH  17  20
ATOM     20  O   UNL     1     -20.653  39.857  -7.402  1.00  0.00    -0.504 OA
ATOM     21  H   UNL     1     -20.014  40.185  -8.115  1.00  0.00     0.293 HD
ENDBRANCH  17  20
ENDBRANCH   1  12
BRANCH   2  22
ATOM     22  O   UNL     1     -26.241  38.236  -8.105  1.00  0.00    -0.502 OA
ATOM     23  H   UNL     1     -26.732  37.529  -8.637  1.00  0.00     0.293 HD
ENDBRANCH   2  22
BRANCH   6  24
ATOM     24  O   UNL     1     -29.125  36.062  -4.363  1.00  0.00    -0.507 OA
ATOM     25  H   UNL     1     -28.993  35.077  -4.563  1.00  0.00     0.293 HD
ENDBRANCH   6  24
BRANCH   8  26
ATOM     26  O   UNL     1     -26.930  37.722  -0.381  1.00  0.00    -0.508 OA
ATOM     27  H   UNL     1     -26.046  37.586   0.096  1.00  0.00     0.293 HD
ENDBRANCH   8  26
TORSDOF 6
ENDMDL
MODEL 3
REMARK VINA RESULT:    -6.038      1.167      2.958
REMARK INTER + INTRA:          -7.523
REMARK INTER:                  -7.224
REMARK INTRA:                  -0.300
REMARK UNBOUND:                -0.249
REMARK SMILES O=c1c(O)c(-c2ccc(O)c(O)c2)oc2cc(O)cc(O)c12
REMARK SMILES IDX 5 1 3 2 2 3 1 4 22 5 20 6 19 7 17 8 16 9 15 10 14 11 6 12
REMARK SMILES IDX 7 13 8 14 9 15 13 16 11 17 10 18 12 20 4 22 21 24 18 26
REMARK H PARENT 10 19 12 21 4 23 21 25 18 27
REMARK Flexibility Score: inf
ROOT
ATOM      1  C   UNL     1     -13.956  37.809  -3.367  1.00  0.00     0.180 A 
ATOM      2  C   UNL     1     -13.035  38.627  -4.048  1.00  0.00     0.208 A 
ATOM      3  C   UNL     1     -11.788  38.091  -4.408  1.00  0.00     0.238 A 
ATOM      4  O   UNL     1     -10.959  38.812  -5.028  1.00  0.00    -0.285 OA
ATOM      5  C   UNL     1     -11.476  36.759  -4.065  1.00  0.00     0.111 A 
ATOM      6  C   UNL     1     -10.242  36.145  -4.387  1.00  0.00     0.134 A 
ATOM      7  C   UNL     1     -10.004  34.818  -4.002  1.00  0.00     0.093 A 
ATOM      8  C   UNL     1     -10.977  34.094  -3.302  1.00  0.00     0.123 A 
ATOM      9  C   UNL     1     -12.194  34.695  -2.983  1.00  0.00     0.094 A 
ATOM     10  C   UNL     1     -12.452  36.016  -3.359  1.00  0.00     0.146 A 
ATOM     11  O   UNL     1     -13.622  36.562  -3.047  1.00  0.00    -0.452 OA
ENDROOT
BRANCH   1  12
ATOM     12  C   UNL     1     -15.297  38.294  -2.971  1.00  0.00     0.025 A 
ATOM     13  C   UNL     1     -15.442  39.041  -1.792  1.00  0.00     0.016 A 
ATOM     14  C   UNL     1     -16.702  39.492  -1.389  1.00  0.00     0.051 A 
ATOM     15  C   UNL     1     -17.836  39.192  -2.148  1.00  0.00     0.157 A 
ATOM     16  C   UNL     1     -16.444  37.976  -3.723  1.00  0.00     0.062 A 
ATOM     17  C   UNL     1     -17.709  38.425  -3.318  1.00  0.00     0.158 A 
BRANCH  15  18
ATOM     18  O   UNL     1     -19.080  39.657  -1.722  1.00  0.00    -0.504 OA
ATOM     19  H   UNL     1     -19.794  39.034  -1.365  1.00  0.00     0.293 HD
ENDBRANCH  15  18
BRANCH  17  20
ATOM     20  O   UNL     1     -18.838  38.111  -4.073  1.00  0.00    -0.504 OA
ATOM     21  H   UNL     1     -19.713  37.848  -3.635  1.00  0.00     0.293 HD
ENDBRANCH  17  20
ENDBRANCH   1  12
BRANCH   2  22
ATOM     22  O   UNL     1     -13.349  39.958  -4.333  1.00  0.00    -0.502 OA
ATOM     23  H   UNL     1     -12.722  40.565  -4.847  1.00  0.00     0.293 HD
ENDBRANCH   2  22
BRANCH   6  24
ATOM     24  O   UNL     1      -9.253  36.842  -5.082  1.00  0.00    -0.507 OA
ATOM     25  H   UNL     1      -8.472  36.366  -5.520  1.00  0.00     0.293 HD
ENDBRANCH   6  24
BRANCH   8  26
ATOM     26  O   UNL     1     -10.740  32.775  -2.918  1.00  0.00    -0.508 OA
ATOM     27  H   UNL     1     -11.334  32.304  -2.246  1.00  0.00     0.293 HD
ENDBRANCH   8  26
TORSDOF 6
ENDMDL
MODEL 4
REMARK VINA RESULT:    -5.948     11.797     13.888
REMARK INTER + INTRA:          -7.415
REMARK INTER:                  -7.107
REMARK INTRA:                  -0.308
REMARK UNBOUND:                -0.249
REMARK SMILES O=c1c(O)c(-c2ccc(O)c(O)c2)oc2cc(O)cc(O)c12
REMARK SMILES IDX 5 1 3 2 2 3 1 4 22 5 20 6 19 7 17 8 16 9 15 10 14 11 6 12
REMARK SMILES IDX 7 13 8 14 9 15 13 16 11 17 10 18 12 20 4 22 21 24 18 26
REMARK H PARENT 10 19 12 21 4 23 21 25 18 27
REMARK Flexibility Score: inf
ROOT
ATOM      1  C   UNL     1     -25.911  32.623   0.599  1.00  0.00     0.180 A 
ATOM      2  C   UNL     1     -25.152  31.674   1.311  1.00  0.00     0.208 A 
ATOM      3  C   UNL     1     -25.265  30.318   0.966  1.00  0.00     0.238 A 
ATOM      4  O   UNL     1     -24.581  29.461   1.590  1.00  0.00    -0.285 OA
ATOM      5  C   UNL     1     -26.145  29.932  -0.065  1.00  0.00     0.111 A 
ATOM      6  C   UNL     1     -26.320  28.587  -0.472  1.00  0.00     0.134 A 
ATOM      7  C   UNL     1     -27.223  28.283  -1.500  1.00  0.00     0.093 A 
ATOM      8  C   UNL     1     -27.953  29.297  -2.131  1.00  0.00     0.123 A 
ATOM      9  C   UNL     1     -27.784  30.624  -1.734  1.00  0.00     0.094 A 
ATOM     10  C   UNL     1     -26.888  30.948  -0.711  1.00  0.00     0.146 A 
ATOM     11  O   UNL     1     -26.742  32.221  -0.358  1.00  0.00    -0.452 OA
ENDROOT
BRANCH   1  12
ATOM     12  C   UNL     1     -25.833  34.072   0.890  1.00  0.00     0.025 A 
ATOM     13  C   UNL     1     -26.609  34.612   1.927  1.00  0.00     0.016 A 
ATOM     14  C   UNL     1     -26.566  35.981   2.206  1.00  0.00     0.051 A 
ATOM     15  C   UNL     1     -25.760  36.831   1.445  1.00  0.00     0.157 A 
ATOM     16  C   UNL     1     -25.037  34.934   0.112  1.00  0.00     0.062 A 
ATOM     17  C   UNL     1     -24.995  36.308   0.389  1.00  0.00     0.158 A 
BRANCH  15  18
ATOM     18  O   UNL     1     -25.735  38.193   1.747  1.00  0.00    -0.504 OA
ATOM     19  H   UNL     1     -25.855  38.904   1.037  1.00  0.00     0.293 HD
ENDBRANCH  15  18
BRANCH  17  20
ATOM     20  O   UNL     1     -24.199  37.154  -0.383  1.00  0.00    -0.504 OA
ATOM     21  H   UNL     1     -23.192  37.054  -0.411  1.00  0.00     0.293 HD
ENDBRANCH  17  20
ENDBRANCH   1  12
BRANCH   2  22
ATOM     22  O   UNL     1     -24.324  32.077   2.362  1.00  0.00    -0.502 OA
ATOM     23  H   UNL     1     -24.596  31.987   3.332  1.00  0.00     0.293 HD
ENDBRANCH   2  22
BRANCH   6  24
ATOM     24  O   UNL     1     -25.607  27.555   0.139  1.00  0.00    -0.507 OA
ATOM     25  H   UNL     1     -24.659  27.686   0.474  1.00  0.00     0.293 HD
ENDBRANCH   6  24
BRANCH   8  26
ATOM     26  O   UNL     1     -28.851  28.995  -3.153  1.00  0.00    -0.508 OA
ATOM     27  H   UNL     1     -29.343  28.110  -3.181  1.00  0.00     0.293 HD
ENDBRANCH   8  26
TORSDOF 6
ENDMDL
MODEL 5
REMARK VINA RESULT:    -5.919      2.137      7.436
REMARK INTER + INTRA:          -7.380
REMARK INTER:                  -7.158
REMARK INTRA:                  -0.222
REMARK UNBOUND:                -0.249
REMARK SMILES O=c1c(O)c(-c2ccc(O)c(O)c2)oc2cc(O)cc(O)c12
REMARK SMILES IDX 5 1 3 2 2 3 1 4 22 5 20 6 19 7 17 8 16 9 15 10 14 11 6 12
REMARK SMILES IDX 7 13 8 14 9 15 13 16 11 17 10 18 12 20 4 22 21 24 18 26
REMARK H PARENT 10 19 12 21 4 23 21 25 18 27
REMARK Flexibility Score: inf
ROOT
ATOM      1  C   UNL     1     -14.784  36.609  -1.678  1.00  0.00     0.180 A 
ATOM      2  C   UNL     1     -15.316  37.492  -2.636  1.00  0.00     0.208 A 
ATOM      3  C   UNL     1     -16.301  38.410  -2.241  1.00  0.00     0.238 A 
ATOM      4  O   UNL     1     -16.776  39.214  -3.089  1.00  0.00    -0.285 OA
ATOM      5  C   UNL     1     -16.751  38.417  -0.904  1.00  0.00     0.111 A 
ATOM      6  C   UNL     1     -17.743  39.307  -0.425  1.00  0.00     0.134 A 
ATOM      7  C   UNL     1     -18.143  39.245   0.917  1.00  0.00     0.093 A 
ATOM      8  C   UNL     1     -17.572  38.311   1.789  1.00  0.00     0.123 A 
ATOM      9  C   UNL     1     -16.594  37.432   1.321  1.00  0.00     0.094 A 
ATOM     10  C   UNL     1     -16.180  37.479  -0.013  1.00  0.00     0.146 A 
ATOM     11  O   UNL     1     -15.243  36.634  -0.430  1.00  0.00    -0.452 OA
ENDROOT
BRANCH   1  12
ATOM     12  C   UNL     1     -13.730  35.625  -2.012  1.00  0.00     0.025 A 
ATOM     13  C   UNL     1     -14.015  34.253  -1.935  1.00  0.00     0.016 A 
ATOM     14  C   UNL     1     -13.028  33.307  -2.227  1.00  0.00     0.051 A 
ATOM     15  C   UNL     1     -11.741  33.716  -2.585  1.00  0.00     0.157 A 
ATOM     16  C   UNL     1     -12.427  36.034  -2.353  1.00  0.00     0.062 A 
ATOM     17  C   UNL     1     -11.435  35.086  -2.643  1.00  0.00     0.158 A 
BRANCH  15  18
ATOM     18  O   UNL     1     -10.777  32.750  -2.873  1.00  0.00    -0.504 OA
ATOM     19  H   UNL     1     -10.951  31.995  -3.526  1.00  0.00     0.293 HD
ENDBRANCH  15  18
BRANCH  17  20
ATOM     20  O   UNL     1     -10.149  35.501  -2.987  1.00  0.00    -0.504 OA
ATOM     21  H   UNL     1      -9.987  36.362  -3.494  1.00  0.00     0.293 HD
ENDBRANCH  17  20
ENDBRANCH   1  12
BRANCH   2  22
ATOM     22  O   UNL     1     -14.889  37.432  -3.965  1.00  0.00    -0.502 OA
ATOM     23  H   UNL     1     -15.505  37.165  -4.722  1.00  0.00     0.293 HD
ENDBRANCH   2  22
BRANCH   6  24
ATOM     24  O   UNL     1     -18.331  40.248  -1.271  1.00  0.00    -0.507 OA
ATOM     25  H   UNL     1     -18.713  39.989  -2.174  1.00  0.00     0.293 HD
ENDBRANCH   6  24
BRANCH   8  26
ATOM     26  O   UNL     1     -17.971  38.248   3.122  1.00  0.00    -0.508 OA
ATOM     27  H   UNL     1     -18.940  38.100   3.379  1.00  0.00     0.293 HD
ENDBRANCH   8  26
TORSDOF 6
ENDMDL
MODEL 6
REMARK VINA RESULT:    -5.829      2.575      7.338
REMARK INTER + INTRA:          -7.271
REMARK INTER:                  -6.954
REMARK INTRA:                  -0.317
REMARK UNBOUND:                -0.249
REMARK SMILES O=c1c(O)c(-c2ccc(O)c(O)c2)oc2cc(O)cc(O)c12
REMARK SMILES IDX 5 1 3 2 2 3 1 4 22 5 20 6 19 7 17 8 16 9 15 10 14 11 6 12
REMARK SMILES IDX 7 13 8 14 9 15 13 16 11 17 10 18 12 20 4 22 21 24 18 26
REMARK H PARENT 10 19 12 21 4 23 21 25 18 27
REMARK Flexibility Score: inf
ROOT
ATOM      1  C   UNL     1     -14.614  36.130  -0.480  1.00  0.00     0.180 A 
ATOM      2  C   UNL     1     -14.857  36.061   0.905  1.00  0.00     0.208 A 
ATOM      3  C   UNL     1     -15.848  36.885   1.463  1.00  0.00     0.238 A 
ATOM      4  O   UNL     1     -16.082  36.822   2.700  1.00  0.00    -0.285 OA
ATOM      5  C   UNL     1     -16.561  37.776   0.634  1.00  0.00     0.111 A 
ATOM      6  C   UNL     1     -17.572  38.642   1.117  1.00  0.00     0.134 A 
ATOM      7  C   UNL     1     -18.229  39.506   0.230  1.00  0.00     0.093 A 
ATOM      8  C   UNL     1     -17.896  39.520  -1.130  1.00  0.00     0.123 A 
ATOM      9  C   UNL     1     -16.901  38.668  -1.610  1.00  0.00     0.094 A 
ATOM     10  C   UNL     1     -16.235  37.798  -0.742  1.00  0.00     0.146 A 
ATOM     11  O   UNL     1     -15.296  36.993  -1.228  1.00  0.00    -0.452 OA
ENDROOT
BRANCH   1  12
ATOM     12  C   UNL     1     -13.601  35.281  -1.145  1.00  0.00     0.025 A 
ATOM     13  C   UNL     1     -13.939  33.975  -1.531  1.00  0.00     0.016 A 
ATOM     14  C   UNL     1     -12.993  33.149  -2.142  1.00  0.00     0.051 A 
ATOM     15  C   UNL     1     -11.692  33.609  -2.364  1.00  0.00     0.157 A 
ATOM     16  C   UNL     1     -12.285  35.735  -1.351  1.00  0.00     0.062 A 
ATOM     17  C   UNL     1     -11.333  34.906  -1.962  1.00  0.00     0.158 A 
BRANCH  15  18
ATOM     18  O   UNL     1     -10.769  32.763  -2.979  1.00  0.00    -0.504 OA
ATOM     19  H   UNL     1     -10.602  31.820  -2.651  1.00  0.00     0.293 HD
ENDBRANCH  15  18
BRANCH  17  20
ATOM     20  O   UNL     1     -10.033  35.366  -2.168  1.00  0.00    -0.504 OA
ATOM     21  H   UNL     1      -9.772  36.325  -1.970  1.00  0.00     0.293 HD
ENDBRANCH  17  20
ENDBRANCH   1  12
BRANCH   2  22
ATOM     22  O   UNL     1     -14.103  35.206   1.713  1.00  0.00    -0.502 OA
ATOM     23  H   UNL     1     -13.199  34.851   1.431  1.00  0.00     0.293 HD
ENDBRANCH   2  22
BRANCH   6  24
ATOM     24  O   UNL     1     -17.924  38.651   2.467  1.00  0.00    -0.507 OA
ATOM     25  H   UNL     1     -18.260  39.491   2.925  1.00  0.00     0.293 HD
ENDBRANCH   6  24
BRANCH   8  26
ATOM     26  O   UNL     1     -18.549  40.379  -2.012  1.00  0.00    -0.508 OA
ATOM     27  H   UNL     1     -19.510  40.663  -1.861  1.00  0.00     0.293 HD
ENDBRANCH   8  26
TORSDOF 6
ENDMDL
MODEL 7
REMARK VINA RESULT:    -5.823     11.074     13.232
REMARK INTER + INTRA:          -7.263
REMARK INTER:                  -6.977
REMARK INTRA:                  -0.286
REMARK UNBOUND:                -0.249
REMARK SMILES O=c1c(O)c(-c2ccc(O)c(O)c2)oc2cc(O)cc(O)c12
REMARK SMILES IDX 5 1 3 2 2 3 1 4 22 5 20 6 19 7 17 8 16 9 15 10 14 11 6 12
REMARK SMILES IDX 7 13 8 14 9 15 13 16 11 17 10 18 12 20 4 22 21 24 18 26
REMARK H PARENT 10 19 12 21 4 23 21 25 18 27
REMARK Flexibility Score: inf
ROOT
ATOM      1  C   UNL     1     -25.674  39.866  -6.328  1.00  0.00     0.180 A 
ATOM      2  C   UNL     1     -26.479  40.996  -6.565  1.00  0.00     0.208 A 
ATOM      3  C   UNL     1     -25.929  42.090  -7.251  1.00  0.00     0.238 A 
ATOM      4  O   UNL     1     -26.645  43.103  -7.479  1.00  0.00    -0.285 OA
ATOM      5  C   UNL     1     -24.583  42.045  -7.669  1.00  0.00     0.111 A 
ATOM      6  C   UNL     1     -23.951  43.106  -8.362  1.00  0.00     0.134 A 
ATOM      7  C   UNL     1     -22.605  42.988  -8.736  1.00  0.00     0.093 A 
ATOM      8  C   UNL     1     -21.878  41.831  -8.430  1.00  0.00     0.123 A 
ATOM      9  C   UNL     1     -22.497  40.784  -7.747  1.00  0.00     0.094 A 
ATOM     10  C   UNL     1     -23.839  40.880  -7.368  1.00  0.00     0.146 A 
ATOM     11  O   UNL     1     -24.404  39.865  -6.724  1.00  0.00    -0.452 OA
ENDROOT
BRANCH   1  12
ATOM     12  C   UNL     1     -26.186  38.666  -5.629  1.00  0.00     0.025 A 
ATOM     13  C   UNL     1     -25.778  38.407  -4.311  1.00  0.00     0.016 A 
ATOM     14  C   UNL     1     -26.234  37.269  -3.640  1.00  0.00     0.051 A 
ATOM     15  C   UNL     1     -27.090  36.368  -4.277  1.00  0.00     0.157 A 
ATOM     16  C   UNL     1     -27.032  37.747  -6.276  1.00  0.00     0.062 A 
ATOM     17  C   UNL     1     -27.489  36.603  -5.604  1.00  0.00     0.158 A 
BRANCH  15  18
ATOM     18  O   UNL     1     -27.531  35.242  -3.581  1.00  0.00    -0.504 OA
ATOM     19  H   UNL     1     -26.938  34.436  -3.431  1.00  0.00     0.293 HD
ENDBRANCH  15  18
BRANCH  17  20
ATOM     20  O   UNL     1     -28.332  35.701  -6.250  1.00  0.00    -0.504 OA
ATOM     21  H   UNL     1     -29.317  35.896  -6.381  1.00  0.00     0.293 HD
ENDBRANCH  17  20
ENDBRANCH   1  12
BRANCH   2  22
ATOM     22  O   UNL     1     -27.795  41.036  -6.098  1.00  0.00    -0.502 OA
ATOM     23  H   UNL     1     -28.356  41.878  -6.125  1.00  0.00     0.293 HD
ENDBRANCH   2  22
BRANCH   6  24
ATOM     24  O   UNL     1     -24.649  44.272  -8.680  1.00  0.00    -0.507 OA
ATOM     25  H   UNL     1     -24.484  44.773  -9.546  1.00  0.00     0.293 HD
ENDBRANCH   6  24
BRANCH   8  26
ATOM     26  O   UNL     1     -20.540  41.715  -8.801  1.00  0.00    -0.508 OA
ATOM     27  H   UNL     1     -20.113  40.811  -8.965  1.00  0.00     0.293 HD
ENDBRANCH   8  26
TORSDOF 6
ENDMDL
MODEL 8
REMARK VINA RESULT:    -5.757     11.371     12.848
REMARK INTER + INTRA:          -7.185
REMARK INTER:                  -6.907
REMARK INTRA:                  -0.278
REMARK UNBOUND:                -0.249
REMARK SMILES O=c1c(O)c(-c2ccc(O)c(O)c2)oc2cc(O)cc(O)c12
REMARK SMILES IDX 5 1 3 2 2 3 1 4 22 5 20 6 19 7 17 8 16 9 15 10 14 11 6 12
REMARK SMILES IDX 7 13 8 14 9 15 13 16 11 17 10 18 12 20 4 22 21 24 18 26
REMARK H PARENT 10 19 12 21 4 23 21 25 18 27
REMARK Flexibility Score: inf
ROOT
ATOM      1  C   UNL     1     -24.487  32.615   1.285  1.00  0.00     0.180 A 
ATOM      2  C   UNL     1     -23.297  32.095   1.829  1.00  0.00     0.208 A 
ATOM      3  C   UNL     1     -23.074  30.710   1.773  1.00  0.00     0.238 A 
ATOM      4  O   UNL     1     -22.006  30.234   2.247  1.00  0.00    -0.285 OA
ATOM      5  C   UNL     1     -24.048  29.869   1.197  1.00  0.00     0.111 A 
ATOM      6  C   UNL     1     -23.902  28.464   1.105  1.00  0.00     0.134 A 
ATOM      7  C   UNL     1     -24.922  27.695   0.525  1.00  0.00     0.093 A 
ATOM      8  C   UNL     1     -26.083  28.305   0.035  1.00  0.00     0.123 A 
ATOM      9  C   UNL     1     -26.231  29.689   0.123  1.00  0.00     0.094 A 
ATOM     10  C   UNL     1     -25.225  30.473   0.696  1.00  0.00     0.146 A 
ATOM     11  O   UNL     1     -25.390  31.790   0.762  1.00  0.00    -0.452 OA
ENDROOT
BRANCH   1  12
ATOM     12  C   UNL     1     -24.786  34.064   1.287  1.00  0.00     0.025 A 
ATOM     13  C   UNL     1     -25.251  34.672   2.464  1.00  0.00     0.016 A 
ATOM     14  C   UNL     1     -25.558  36.035   2.483  1.00  0.00     0.051 A 
ATOM     15  C   UNL     1     -25.421  36.807   1.326  1.00  0.00     0.157 A 
ATOM     16  C   UNL     1     -24.668  34.839   0.118  1.00  0.00     0.062 A 
ATOM     17  C   UNL     1     -24.980  36.206   0.135  1.00  0.00     0.158 A 
BRANCH  15  18
ATOM     18  O   UNL     1     -25.734  38.165   1.375  1.00  0.00    -0.504 OA
ATOM     19  H   UNL     1     -26.423  38.582   0.762  1.00  0.00     0.293 HD
ENDBRANCH  15  18
BRANCH  17  20
ATOM     20  O   UNL     1     -24.854  36.968  -1.026  1.00  0.00    -0.504 OA
ATOM     21  H   UNL     1     -25.539  36.918  -1.770  1.00  0.00     0.293 HD
ENDBRANCH  17  20
ENDBRANCH   1  12
BRANCH   2  22
ATOM     22  O   UNL     1     -22.370  32.943   2.439  1.00  0.00    -0.502 OA
ATOM     23  H   UNL     1     -21.379  32.737   2.462  1.00  0.00     0.293 HD
ENDBRANCH   2  22
BRANCH   6  24
ATOM     24  O   UNL     1     -22.757  27.828   1.586  1.00  0.00    -0.507 OA
ATOM     25  H   UNL     1     -21.834  28.232   1.469  1.00  0.00     0.293 HD
ENDBRANCH   6  24
BRANCH   8  26
ATOM     26  O   UNL     1     -27.096  27.541  -0.540  1.00  0.00    -0.508 OA
ATOM     27  H   UNL     1     -27.787  27.955  -1.156  1.00  0.00     0.293 HD
ENDBRANCH   8  26
TORSDOF 6
ENDMDL
MODEL 9
REMARK VINA RESULT:    -5.750      2.593      5.055
REMARK INTER + INTRA:          -7.176
REMARK INTER:                  -6.965
REMARK INTRA:                  -0.211
REMARK UNBOUND:                -0.249
REMARK SMILES O=c1c(O)c(-c2ccc(O)c(O)c2)oc2cc(O)cc(O)c12
REMARK SMILES IDX 5 1 3 2 2 3 1 4 22 5 20 6 19 7 17 8 16 9 15 10 14 11 6 12
REMARK SMILES IDX 7 13 8 14 9 15 13 16 11 17 10 18 12 20 4 22 21 24 18 26
REMARK H PARENT 10 19 12 21 4 23 21 25 18 27
REMARK Flexibility Score: inf
ROOT
ATOM      1  C   UNL     1     -13.511  35.988  -2.358  1.00  0.00     0.180 A 
ATOM      2  C   UNL     1     -14.592  36.673  -2.944  1.00  0.00     0.208 A 
ATOM      3  C   UNL     1     -14.334  37.610  -3.957  1.00  0.00     0.238 A 
ATOM      4  O   UNL     1     -15.296  38.222  -4.497  1.00  0.00    -0.285 OA
ATOM      5  C   UNL     1     -13.003  37.861  -4.352  1.00  0.00     0.111 A 
ATOM      6  C   UNL     1     -12.657  38.791  -5.362  1.00  0.00     0.134 A 
ATOM      7  C   UNL     1     -11.308  38.990  -5.690  1.00  0.00     0.093 A 
ATOM      8  C   UNL     1     -10.300  38.277  -5.030  1.00  0.00     0.123 A 
ATOM      9  C   UNL     1     -10.637  37.359  -4.035  1.00  0.00     0.094 A 
ATOM     10  C   UNL     1     -11.976  37.145  -3.693  1.00  0.00     0.146 A 
ATOM     11  O   UNL     1     -12.268  36.261  -2.746  1.00  0.00    -0.452 OA
ENDROOT
BRANCH   1  12
ATOM     12  C   UNL     1     -13.703  34.972  -1.299  1.00  0.00     0.025 A 
ATOM     13  C   UNL     1     -13.492  33.617  -1.595  1.00  0.00     0.016 A 
ATOM     14  C   UNL     1     -13.687  32.639  -0.615  1.00  0.00     0.051 A 
ATOM     15  C   UNL     1     -14.108  32.999   0.668  1.00  0.00     0.157 A 
ATOM     16  C   UNL     1     -14.146  35.330  -0.012  1.00  0.00     0.062 A 
ATOM     17  C   UNL     1     -14.345  34.350   0.971  1.00  0.00     0.158 A 
BRANCH  15  18
ATOM     18  O   UNL     1     -14.292  32.001   1.626  1.00  0.00    -0.504 OA
ATOM     19  H   UNL     1     -14.383  31.025   1.375  1.00  0.00     0.293 HD
ENDBRANCH  15  18
BRANCH  17  20
ATOM     20  O   UNL     1     -14.778  34.714   2.245  1.00  0.00    -0.504 OA
ATOM     21  H   UNL     1     -15.380  35.515   2.392  1.00  0.00     0.293 HD
ENDBRANCH  17  20
ENDBRANCH   1  12
BRANCH   2  22
ATOM     22  O   UNL     1     -15.897  36.443  -2.501  1.00  0.00    -0.502 OA
ATOM     23  H   UNL     1     -16.541  37.197  -2.296  1.00  0.00     0.293 HD
ENDBRANCH   2  22
BRANCH   6  24
ATOM     24  O   UNL     1     -13.639  39.517  -6.036  1.00  0.00    -0.507 OA
ATOM     25  H   UNL     1     -13.482  40.471  -6.341  1.00  0.00     0.293 HD
ENDBRANCH   6  24
BRANCH   8  26
ATOM     26  O   UNL     1      -8.961  38.475  -5.356  1.00  0.00    -0.508 OA
ATOM     27  H   UNL     1      -8.379  39.124  -4.838  1.00  0.00     0.293 HD
ENDBRANCH   8  26
TORSDOF 6
ENDMDL
