MODEL 1
REMARK VINA RESULT:     1.031      0.000      0.000
REMARK INTER + INTRA:           3.780
REMARK INTER:                   2.357
REMARK INTRA:                   1.422
REMARK UNBOUND:                 1.422
REMARK SMILES CCCCCCCCCCCCCCCCCCCCCCCC(=O)[O-]
REMARK SMILES IDX 13 1 14 2 15 3 16 4 17 5 18 6 19 7 20 8 21 9 22 10 23 11
REMARK SMILES IDX 24 12 25 13 26 14 12 15 11 16 10 17 9 18 8 19 7 20 6 21 5 22
REMARK SMILES IDX 4 23 3 24 2 25 1 26
REMARK H PARENT
REMARK Flexibility Score: inf
ROOT
ATOM      1  C   UNL     1      34.959 104.795 268.649  1.00  0.00     0.000 C 
ENDROOT
BRANCH   1   2
ATOM      2  C   UNL     1      34.897 106.194 268.014  1.00  0.00     0.000 C 
BRANCH   2   3
ATOM      3  C   UNL     1      34.943 107.288 269.090  1.00  0.00     0.000 C 
BRANCH   3   4
ATOM      4  C   UNL     1      36.187 108.190 268.981  1.00  0.00     0.000 C 
BRANCH   4   5
ATOM      5  C   UNL     1      36.205 109.144 267.771  1.00  0.00     0.000 C 
BRANCH   5   6
ATOM      6  C   UNL     1      34.878 109.261 266.996  1.00  0.00     0.000 C 
BRANCH   6   7
ATOM      7  C   UNL     1      34.898 108.596 265.604  1.00  0.00     0.000 C 
BRANCH   7   8
ATOM      8  C   UNL     1      36.288 108.060 265.216  1.00  0.00     0.000 C 
BRANCH   8   9
ATOM      9  C   UNL     1      36.293 107.371 263.833  1.00  0.00     0.000 C 
BRANCH   9  10
ATOM     10  C   UNL     1      37.652 106.748 263.452  1.00  0.00     0.006 C 
BRANCH  10  11
ATOM     11  C   UNL     1      38.392 107.478 262.321  1.00  0.00     0.053 C 
BRANCH  11  12
ATOM     12  C   UNL     1      39.868 107.214 262.356  1.00  0.00     0.041 C 
ATOM     13  O   UNL     1      40.366 106.515 263.279  1.00  0.00    -0.550 OA
ATOM     14  O   UNL     1      40.694 107.714 261.355  1.00  0.00    -0.550 OA
ENDBRANCH  11  12
ENDBRANCH  10  11
ENDBRANCH   9  10
ENDBRANCH   8   9
ENDBRANCH   7   8
ENDBRANCH   6   7
ENDBRANCH   5   6
ENDBRANCH   4   5
ENDBRANCH   3   4
ENDBRANCH   2   3
ENDBRANCH   1   2
BRANCH   1  15
ATOM     15  C   UNL     1      34.928 103.669 267.605  1.00  0.00     0.000 C 
BRANCH  15  16
ATOM     16  C   UNL     1      35.756 103.997 266.350  1.00  0.00     0.000 C 
BRANCH  16  17
ATOM     17  C   UNL     1      34.877 104.385 265.150  1.00  0.00     0.000 C 
BRANCH  17  18
ATOM     18  C   UNL     1      35.688 104.945 263.971  1.00  0.00    -0.000 C 
BRANCH  18  19
ATOM     19  C   UNL     1      34.923 104.773 262.650  1.00  0.00    -0.000 C 
BRANCH  19  20
ATOM     20  C   UNL     1      35.781 104.122 261.550  1.00  0.00    -0.000 C 
BRANCH  20  21
ATOM     21  C   UNL     1      36.232 105.132 260.481  1.00  0.00    -0.000 C 
BRANCH  21  22
ATOM     22  C   UNL     1      37.676 104.896 260.003  1.00  0.00    -0.000 C 
BRANCH  22  23
ATOM     23  C   UNL     1      37.968 105.350 258.562  1.00  0.00    -0.000 C 
BRANCH  23  24
ATOM     24  C   UNL     1      36.854 106.227 257.971  1.00  0.00    -0.000 C 
BRANCH  24  25
ATOM     25  C   UNL     1      36.428 107.320 258.958  1.00  0.00    -0.003 C 
ATOM     26  C   UNL     1      35.737 108.474 258.235  1.00  0.00     0.004 C 
ENDBRANCH  24  25
ENDBRANCH  23  24
ENDBRANCH  22  23
ENDBRANCH  21  22
ENDBRANCH  20  21
ENDBRANCH  19  20
ENDBRANCH  18  19
ENDBRANCH  17  18
ENDBRANCH  16  17
ENDBRANCH  15  16
ENDBRANCH   1  15
TORSDOF 22
ENDMDL
MODEL 2
REMARK VINA RESULT:     2.743      1.856      4.929
REMARK INTER + INTRA:           7.693
REMARK INTER:                   7.881
REMARK INTRA:                  -0.188
REMARK UNBOUND:                 1.422
REMARK SMILES CCCCCCCCCCCCCCCCCCCCCCCC(=O)[O-]
REMARK SMILES IDX 13 1 14 2 15 3 16 4 17 5 18 6 19 7 20 8 21 9 22 10 23 11
REMARK SMILES IDX 24 12 25 13 26 14 12 15 11 16 10 17 9 18 8 19 7 20 6 21 5 22
REMARK SMILES IDX 4 23 3 24 2 25 1 26
REMARK H PARENT
REMARK Flexibility Score: inf
ROOT
ATOM      1  C   UNL     1      36.262 106.841 269.532  1.00  0.00     0.000 C 
ENDROOT
BRANCH   1   2
ATOM      2  C   UNL     1      35.817 105.467 270.060  1.00  0.00     0.000 C 
BRANCH   2   3
ATOM      3  C   UNL     1      34.886 104.770 269.058  1.00  0.00     0.000 C 
BRANCH   3   4
ATOM      4  C   UNL     1      34.875 105.446 267.673  1.00  0.00     0.000 C 
BRANCH   4   5
ATOM      5  C   UNL     1      34.888 104.483 266.470  1.00  0.00     0.000 C 
BRANCH   5   6
ATOM      6  C   UNL     1      36.250 104.313 265.769  1.00  0.00     0.000 C 
BRANCH   6   7
ATOM      7  C   UNL     1      36.151 103.845 264.302  1.00  0.00     0.000 C 
BRANCH   7   8
ATOM      8  C   UNL     1      35.386 104.835 263.406  1.00  0.00     0.000 C 
BRANCH   8   9
ATOM      9  C   UNL     1      35.206 104.313 261.963  1.00  0.00     0.000 C 
BRANCH   9  10
ATOM     10  C   UNL     1      36.408 104.601 261.041  1.00  0.00     0.006 C 
BRANCH  10  11
ATOM     11  C   UNL     1      36.537 106.068 260.601  1.00  0.00     0.053 C 
BRANCH  11  12
ATOM     12  C   UNL     1      36.606 106.201 259.109  1.00  0.00     0.041 C 
ATOM     13  O   UNL     1      35.873 107.033 258.511  1.00  0.00    -0.550 OA
ATOM     14  O   UNL     1      37.502 105.429 258.378  1.00  0.00    -0.550 OA
ENDBRANCH  11  12
ENDBRANCH  10  11
ENDBRANCH   9  10
ENDBRANCH   8   9
ENDBRANCH   7   8
ENDBRANCH   6   7
ENDBRANCH   5   6
ENDBRANCH   4   5
ENDBRANCH   3   4
ENDBRANCH   2   3
ENDBRANCH   1   2
BRANCH   1  15
ATOM     15  C   UNL     1      35.612 108.006 270.294  1.00  0.00     0.000 C 
BRANCH  15  16
ATOM     16  C   UNL     1      34.876 108.989 269.367  1.00  0.00     0.000 C 
BRANCH  16  17
ATOM     17  C   UNL     1      35.821 109.680 268.372  1.00  0.00     0.000 C 
BRANCH  17  18
ATOM     18  C   UNL     1      35.078 110.550 267.347  1.00  0.00    -0.000 C 
BRANCH  18  19
ATOM     19  C   UNL     1      34.988 109.838 265.988  1.00  0.00    -0.000 C 
BRANCH  19  20
ATOM     20  C   UNL     1      35.201 108.318 266.101  1.00  0.00    -0.000 C 
BRANCH  20  21
ATOM     21  C   UNL     1      36.485 107.850 265.393  1.00  0.00    -0.000 C 
BRANCH  21  22
ATOM     22  C   UNL     1      36.217 107.239 264.007  1.00  0.00    -0.000 C 
BRANCH  22  23
ATOM     23  C   UNL     1      37.350 107.427 262.981  1.00  0.00    -0.000 C 
BRANCH  23  24
ATOM     24  C   UNL     1      38.716 106.959 263.505  1.00  0.00    -0.000 C 
BRANCH  24  25
ATOM     25  C   UNL     1      39.803 107.121 262.436  1.00  0.00    -0.003 C 
ATOM     26  C   UNL     1      39.494 106.274 261.204  1.00  0.00     0.004 C 
ENDBRANCH  24  25
ENDBRANCH  23  24
ENDBRANCH  22  23
ENDBRANCH  21  22
ENDBRANCH  20  21
ENDBRANCH  19  20
ENDBRANCH  18  19
ENDBRANCH  17  18
ENDBRANCH  16  17
ENDBRANCH  15  16
ENDBRANCH   1  15
TORSDOF 22
ENDMDL
MODEL 3
REMARK VINA RESULT:     3.754      3.781      6.023
REMARK INTER + INTRA:          10.004
REMARK INTER:                  11.215
REMARK INTRA:                  -1.211
REMARK UNBOUND:                 1.422
REMARK SMILES CCCCCCCCCCCCCCCCCCCCCCCC(=O)[O-]
REMARK SMILES IDX 13 1 14 2 15 3 16 4 17 5 18 6 19 7 20 8 21 9 22 10 23 11
REMARK SMILES IDX 24 12 25 13 26 14 12 15 11 16 10 17 9 18 8 19 7 20 6 21 5 22
REMARK SMILES IDX 4 23 3 24 2 25 1 26
REMARK H PARENT
REMARK Flexibility Score: inf
ROOT
ATOM      1  C   UNL     1      36.721 106.324 265.176  1.00  0.00     0.000 C 
ENDROOT
BRANCH   1   2
ATOM      2  C   UNL     1      35.343 106.988 265.341  1.00  0.00     0.000 C 
BRANCH   2   3
ATOM      3  C   UNL     1      35.472 108.352 266.034  1.00  0.00     0.000 C 
BRANCH   3   4
ATOM      4  C   UNL     1      35.182 108.292 267.545  1.00  0.00     0.000 C 
BRANCH   4   5
ATOM      5  C   UNL     1      35.553 106.965 268.235  1.00  0.00     0.000 C 
BRANCH   5   6
ATOM      6  C   UNL     1      34.951 106.753 269.639  1.00  0.00     0.000 C 
BRANCH   6   7
ATOM      7  C   UNL     1      35.876 107.189 270.795  1.00  0.00     0.000 C 
BRANCH   7   8
ATOM      8  C   UNL     1      37.354 107.283 270.377  1.00  0.00     0.000 C 
BRANCH   8   9
ATOM      9  C   UNL     1      38.314 107.281 271.588  1.00  0.00     0.000 C 
BRANCH   9  10
ATOM     10  C   UNL     1      39.101 105.965 271.757  1.00  0.00     0.006 C 
BRANCH  10  11
ATOM     11  C   UNL     1      38.258 104.778 272.249  1.00  0.00     0.053 C 
BRANCH  11  12
ATOM     12  C   UNL     1      38.934 104.034 273.362  1.00  0.00     0.041 C 
ATOM     13  O   UNL     1      40.136 103.673 273.245  1.00  0.00    -0.550 OA
ATOM     14  O   UNL     1      38.249 103.764 274.541  1.00  0.00    -0.550 OA
ENDBRANCH  11  12
ENDBRANCH  10  11
ENDBRANCH   9  10
ENDBRANCH   8   9
ENDBRANCH   7   8
ENDBRANCH   6   7
ENDBRANCH   5   6
ENDBRANCH   4   5
ENDBRANCH   3   4
ENDBRANCH   2   3
ENDBRANCH   1   2
BRANCH   1  15
ATOM     15  C   UNL     1      36.635 104.940 264.512  1.00  0.00     0.000 C 
BRANCH  15  16
ATOM     16  C   UNL     1      35.186 104.499 264.239  1.00  0.00     0.000 C 
BRANCH  16  17
ATOM     17  C   UNL     1      34.877 104.395 262.737  1.00  0.00     0.000 C 
BRANCH  17  18
ATOM     18  C   UNL     1      35.634 105.435 261.896  1.00  0.00    -0.000 C 
BRANCH  18  19
ATOM     19  C   UNL     1      36.384 104.760 260.738  1.00  0.00    -0.000 C 
BRANCH  19  20
ATOM     20  C   UNL     1      36.368 105.604 259.451  1.00  0.00    -0.000 C 
BRANCH  20  21
ATOM     21  C   UNL     1      37.783 105.905 258.926  1.00  0.00    -0.000 C 
BRANCH  21  22
ATOM     22  C   UNL     1      38.869 105.746 260.006  1.00  0.00    -0.000 C 
BRANCH  22  23
ATOM     23  C   UNL     1      39.203 107.029 260.787  1.00  0.00    -0.000 C 
BRANCH  23  24
ATOM     24  C   UNL     1      38.177 107.349 261.885  1.00  0.00    -0.000 C 
BRANCH  24  25
ATOM     25  C   UNL     1      38.856 107.505 263.250  1.00  0.00    -0.003 C 
ATOM     26  C   UNL     1      40.194 106.770 263.285  1.00  0.00     0.004 C 
ENDBRANCH  24  25
ENDBRANCH  23  24
ENDBRANCH  22  23
ENDBRANCH  21  22
ENDBRANCH  20  21
ENDBRANCH  19  20
ENDBRANCH  18  19
ENDBRANCH  17  18
ENDBRANCH  16  17
ENDBRANCH  15  16
ENDBRANCH   1  15
TORSDOF 22
ENDMDL
