MODEL 1
REMARK VINA RESULT:    -5.902      0.000      0.000
REMARK INTER + INTRA:          -9.679
REMARK INTER:                  -7.799
REMARK INTRA:                  -1.880
REMARK UNBOUND:                -1.880
REMARK SMILES CC[C@@H](C=C[C@H](C)[C@H]1CC[C@@H]2[C@H]3CC=C4C[C@H](O)CC[C@@]4(C)[C@H]3CC[C@]21C)C(C)C
REMARK SMILES IDX 6 1 7 2 5 3 4 4 3 5 2 6 1 7 28 8 29 9 30 10 8 11 9 12 26 13
REMARK SMILES IDX 10 14 11 15 25 16 27 17 12 18 24 19 23 20 13 21 21 22 14 23
REMARK SMILES IDX 15 24 20 25 22 26 16 27 19 28 17 29 18 30
REMARK H PARENT 18 31
REMARK Flexibility Score: inf
ROOT
ATOM      1  C   UNL     1     128.414 146.500 121.708  1.00  0.00     0.012 C 
ATOM      2  C   UNL     1     126.877 146.473 121.861  1.00  0.00     0.012 C 
ENDROOT
BRANCH   1   3
ATOM      3  C   UNL     1     129.109 146.043 122.981  1.00  0.00    -0.028 C 
ATOM      4  C   UNL     1     128.472 145.461 124.014  1.00  0.00    -0.027 C 
BRANCH   4   5
ATOM      5  C   UNL     1     129.229 144.873 125.188  1.00  0.00     0.014 C 
BRANCH   5   6
ATOM      6  C   UNL     1     130.118 143.722 124.651  1.00  0.00     0.004 C 
ATOM      7  C   UNL     1     129.439 142.352 124.653  1.00  0.00     0.004 C 
ENDBRANCH   5   6
BRANCH   5   8
ATOM      8  C   UNL     1     128.228 144.495 126.329  1.00  0.00    -0.011 C 
ATOM      9  C   UNL     1     128.800 144.673 127.745  1.00  0.00     0.008 C 
ATOM     10  C   UNL     1     126.875 145.213 126.201  1.00  0.00     0.008 C 
ENDBRANCH   5   8
ENDBRANCH   4   5
ENDBRANCH   1   3
BRANCH   1  11
ATOM     11  C   UNL     1     128.983 145.765 120.443  1.00  0.00     0.002 C 
ATOM     12  C   UNL     1     130.527 145.804 120.316  1.00  0.00     0.005 C 
ATOM     13  C   UNL     1     128.575 144.259 120.200  1.00  0.00    -0.026 C 
ATOM     14  C   UNL     1     130.986 144.395 119.954  1.00  0.00     0.005 C 
ATOM     15  C   UNL     1     129.879 143.497 120.493  1.00  0.00    -0.001 C 
ATOM     16  C   UNL     1     127.442 143.638 121.075  1.00  0.00     0.007 C 
ATOM     17  C   UNL     1     128.144 144.147 118.700  1.00  0.00     0.012 C 
ATOM     18  C   UNL     1     129.850 142.023 119.997  1.00  0.00     0.000 C 
ATOM     19  C   UNL     1     127.658 142.141 121.430  1.00  0.00     0.005 C 
ATOM     20  C   UNL     1     128.486 141.300 120.403  1.00  0.00     0.003 C 
ATOM     21  C   UNL     1     131.134 141.269 120.458  1.00  0.00     0.031 C 
ATOM     22  C   UNL     1     128.691 139.794 120.858  1.00  0.00    -0.008 C 
ATOM     23  C   UNL     1     130.927 140.474 121.707  1.00  0.00    -0.027 C 
ATOM     24  C   UNL     1     129.824 139.725 121.879  1.00  0.00    -0.065 C 
ATOM     25  C   UNL     1     127.404 139.180 121.499  1.00  0.00     0.014 C 
ATOM     26  C   UNL     1     129.045 138.941 119.605  1.00  0.00     0.016 C 
ATOM     27  C   UNL     1     129.626 139.007 123.196  1.00  0.00     0.063 C 
ATOM     28  C   UNL     1     127.637 137.765 122.055  1.00  0.00     0.033 C 
ATOM     29  C   UNL     1     128.829 137.688 123.046  1.00  0.00     0.118 C 
BRANCH  29  30
ATOM     30  O   UNL     1     129.687 136.623 122.713  1.00  0.00    -0.393 OA
ATOM     31  H   UNL     1     129.569 135.921 123.405  1.00  0.00     0.210 HD
ENDBRANCH  29  30
ENDBRANCH   1  11
TORSDOF 6
ENDMDL
MODEL 2
REMARK VINA RESULT:    -5.807     10.363     12.566
REMARK INTER + INTRA:          -9.554
REMARK INTER:                  -8.463
REMARK INTRA:                  -1.091
REMARK UNBOUND:                -1.880
REMARK SMILES CC[C@@H](C=C[C@H](C)[C@H]1CC[C@@H]2[C@H]3CC=C4C[C@H](O)CC[C@@]4(C)[C@H]3CC[C@]21C)C(C)C
REMARK SMILES IDX 6 1 7 2 5 3 4 4 3 5 2 6 1 7 28 8 29 9 30 10 8 11 9 12 26 13
REMARK SMILES IDX 10 14 11 15 25 16 27 17 12 18 24 19 23 20 13 21 21 22 14 23
REMARK SMILES IDX 15 24 20 25 22 26 16 27 19 28 17 29 18 30
REMARK H PARENT 18 31
REMARK Flexibility Score: inf
ROOT
ATOM      1  C   UNL     1     137.701 145.363 120.655  1.00  0.00     0.012 C 
ATOM      2  C   UNL     1     137.683 144.334 121.808  1.00  0.00     0.012 C 
ENDROOT
BRANCH   1   3
ATOM      3  C   UNL     1     136.368 146.084 120.531  1.00  0.00    -0.028 C 
ATOM      4  C   UNL     1     135.224 145.645 121.090  1.00  0.00    -0.027 C 
BRANCH   4   5
ATOM      5  C   UNL     1     133.960 146.481 121.080  1.00  0.00     0.014 C 
BRANCH   5   6
ATOM      6  C   UNL     1     133.272 146.319 122.459  1.00  0.00     0.004 C 
ATOM      7  C   UNL     1     133.993 145.363 123.411  1.00  0.00     0.004 C 
ENDBRANCH   5   6
BRANCH   5   8
ATOM      8  C   UNL     1     133.093 146.116 119.830  1.00  0.00    -0.011 C 
ATOM      9  C   UNL     1     132.764 144.618 119.715  1.00  0.00     0.008 C 
ATOM     10  C   UNL     1     131.811 146.958 119.723  1.00  0.00     0.008 C 
ENDBRANCH   5   8
ENDBRANCH   4   5
ENDBRANCH   1   3
BRANCH   1  11
ATOM     11  C   UNL     1     138.905 146.370 120.663  1.00  0.00     0.002 C 
ATOM     12  C   UNL     1     139.207 146.999 122.046  1.00  0.00     0.005 C 
ATOM     13  C   UNL     1     140.299 145.881 120.105  1.00  0.00    -0.026 C 
ATOM     14  C   UNL     1     140.718 146.935 122.252  1.00  0.00     0.005 C 
ATOM     15  C   UNL     1     141.158 145.767 121.377  1.00  0.00    -0.001 C 
ATOM     16  C   UNL     1     140.368 144.518 119.349  1.00  0.00     0.007 C 
ATOM     17  C   UNL     1     140.812 146.997 119.138  1.00  0.00     0.012 C 
ATOM     18  C   UNL     1     142.678 145.633 121.077  1.00  0.00     0.000 C 
ATOM     19  C   UNL     1     141.677 143.718 119.594  1.00  0.00     0.005 C 
ATOM     20  C   UNL     1     142.951 144.563 119.926  1.00  0.00     0.003 C 
ATOM     21  C   UNL     1     143.471 145.370 122.394  1.00  0.00     0.031 C 
ATOM     22  C   UNL     1     144.234 143.669 120.197  1.00  0.00    -0.008 C 
ATOM     23  C   UNL     1     143.756 143.921 122.623  1.00  0.00    -0.027 C 
ATOM     24  C   UNL     1     144.180 143.129 121.624  1.00  0.00    -0.065 C 
ATOM     25  C   UNL     1     144.344 142.461 119.210  1.00  0.00     0.014 C 
ATOM     26  C   UNL     1     145.503 144.550 120.004  1.00  0.00     0.016 C 
ATOM     27  C   UNL     1     144.373 141.652 121.892  1.00  0.00     0.063 C 
ATOM     28  C   UNL     1     145.514 141.523 119.551  1.00  0.00     0.033 C 
ATOM     29  C   UNL     1     145.489 141.026 121.021  1.00  0.00     0.118 C 
BRANCH  29  30
ATOM     30  O   UNL     1     146.748 141.195 121.626  1.00  0.00    -0.393 OA
ATOM     31  H   UNL     1     146.808 140.543 122.372  1.00  0.00     0.210 HD
ENDBRANCH  29  30
ENDBRANCH   1  11
TORSDOF 6
ENDMDL
MODEL 3
REMARK VINA RESULT:    -5.743      6.265      8.914
REMARK INTER + INTRA:          -9.470
REMARK INTER:                  -8.220
REMARK INTRA:                  -1.250
REMARK UNBOUND:                -1.880
REMARK SMILES CC[C@@H](C=C[C@H](C)[C@H]1CC[C@@H]2[C@H]3CC=C4C[C@H](O)CC[C@@]4(C)[C@H]3CC[C@]21C)C(C)C
REMARK SMILES IDX 6 1 7 2 5 3 4 4 3 5 2 6 1 7 28 8 29 9 30 10 8 11 9 12 26 13
REMARK SMILES IDX 10 14 11 15 25 16 27 17 12 18 24 19 23 20 13 21 21 22 14 23
REMARK SMILES IDX 15 24 20 25 22 26 16 27 19 28 17 29 18 30
REMARK H PARENT 18 31
REMARK Flexibility Score: inf
ROOT
ATOM      1  C   UNL     1     137.038 146.267 120.717  1.00  0.00     0.012 C 
ATOM      2  C   UNL     1     137.040 146.377 122.258  1.00  0.00     0.012 C 
ENDROOT
BRANCH   1   3
ATOM      3  C   UNL     1     138.405 146.585 120.133  1.00  0.00    -0.028 C 
ATOM      4  C   UNL     1     139.533 145.932 120.470  1.00  0.00    -0.027 C 
BRANCH   4   5
ATOM      5  C   UNL     1     140.840 146.171 119.741  1.00  0.00     0.014 C 
BRANCH   5   6
ATOM      6  C   UNL     1     141.425 144.790 119.349  1.00  0.00     0.004 C 
ATOM      7  C   UNL     1     140.663 143.598 119.930  1.00  0.00     0.004 C 
ENDBRANCH   5   6
BRANCH   5   8
ATOM      8  C   UNL     1     141.766 147.092 120.602  1.00  0.00    -0.011 C 
ATOM      9  C   UNL     1     141.612 146.891 122.118  1.00  0.00     0.008 C 
ATOM     10  C   UNL     1     143.246 147.003 120.195  1.00  0.00     0.008 C 
ENDBRANCH   5   8
ENDBRANCH   4   5
ENDBRANCH   1   3
BRANCH   1  11
ATOM     11  C   UNL     1     136.455 144.932 120.132  1.00  0.00     0.002 C 
ATOM     12  C   UNL     1     136.606 143.703 121.064  1.00  0.00     0.005 C 
ATOM     13  C   UNL     1     134.952 144.915 119.648  1.00  0.00    -0.026 C 
ATOM     14  C   UNL     1     135.268 142.971 121.067  1.00  0.00     0.005 C 
ATOM     15  C   UNL     1     134.255 144.055 120.717  1.00  0.00    -0.001 C 
ATOM     16  C   UNL     1     134.184 146.268 119.537  1.00  0.00     0.007 C 
ATOM     17  C   UNL     1     134.943 144.236 118.239  1.00  0.00     0.012 C 
ATOM     18  C   UNL     1     132.831 143.592 120.296  1.00  0.00     0.000 C 
ATOM     19  C   UNL     1     132.679 146.181 119.914  1.00  0.00     0.005 C 
ATOM     20  C   UNL     1     131.987 144.798 119.679  1.00  0.00     0.003 C 
ATOM     21  C   UNL     1     132.126 142.858 121.477  1.00  0.00     0.031 C 
ATOM     22  C   UNL     1     130.464 144.783 120.123  1.00  0.00    -0.008 C 
ATOM     23  C   UNL     1     131.214 143.750 122.256  1.00  0.00    -0.027 C 
ATOM     24  C   UNL     1     130.382 144.605 121.637  1.00  0.00    -0.065 C 
ATOM     25  C   UNL     1     129.713 146.099 119.734  1.00  0.00     0.014 C 
ATOM     26  C   UNL     1     129.748 143.604 119.403  1.00  0.00     0.016 C 
ATOM     27  C   UNL     1     129.540 145.543 122.474  1.00  0.00     0.063 C 
ATOM     28  C   UNL     1     128.274 146.140 120.275  1.00  0.00     0.033 C 
ATOM     29  C   UNL     1     128.190 145.896 121.806  1.00  0.00     0.118 C 
BRANCH  29  30
ATOM     30  O   UNL     1     127.216 144.924 122.103  1.00  0.00    -0.393 OA
ATOM     31  H   UNL     1     127.623 144.035 121.930  1.00  0.00     0.210 HD
ENDBRANCH  29  30
ENDBRANCH   1  11
TORSDOF 6
ENDMDL
MODEL 4
REMARK VINA RESULT:    -5.714      3.471      6.189
REMARK INTER + INTRA:          -9.431
REMARK INTER:                  -8.214
REMARK INTRA:                  -1.217
REMARK UNBOUND:                -1.880
REMARK SMILES CC[C@@H](C=C[C@H](C)[C@H]1CC[C@@H]2[C@H]3CC=C4C[C@H](O)CC[C@@]4(C)[C@H]3CC[C@]21C)C(C)C
REMARK SMILES IDX 6 1 7 2 5 3 4 4 3 5 2 6 1 7 28 8 29 9 30 10 8 11 9 12 26 13
REMARK SMILES IDX 10 14 11 15 25 16 27 17 12 18 24 19 23 20 13 21 21 22 14 23
REMARK SMILES IDX 15 24 20 25 22 26 16 27 19 28 17 29 18 30
REMARK H PARENT 18 31
REMARK Flexibility Score: inf
ROOT
ATOM      1  C   UNL     1     127.692 140.032 121.251  1.00  0.00     0.012 C 
ATOM      2  C   UNL     1     128.480 140.141 122.576  1.00  0.00     0.012 C 
ENDROOT
BRANCH   1   3
ATOM      3  C   UNL     1     127.136 141.380 120.821  1.00  0.00    -0.028 C 
ATOM      4  C   UNL     1     127.783 142.548 120.997  1.00  0.00    -0.027 C 
BRANCH   4   5
ATOM      5  C   UNL     1     127.265 143.842 120.404  1.00  0.00     0.014 C 
BRANCH   5   6
ATOM      6  C   UNL     1     128.084 144.137 119.120  1.00  0.00     0.004 C 
ATOM      7  C   UNL     1     129.563 143.762 119.220  1.00  0.00     0.004 C 
ENDBRANCH   5   6
BRANCH   5   8
ATOM      8  C   UNL     1     127.267 144.964 121.494  1.00  0.00    -0.011 C 
ATOM      9  C   UNL     1     128.198 144.677 122.683  1.00  0.00     0.008 C 
ATOM     10  C   UNL     1     127.548 146.361 120.917  1.00  0.00     0.008 C 
ENDBRANCH   5   8
ENDBRANCH   4   5
ENDBRANCH   1   3
BRANCH   1  11
ATOM     11  C   UNL     1     128.441 139.312 120.075  1.00  0.00     0.002 C 
ATOM     12  C   UNL     1     129.987 139.384 120.158  1.00  0.00     0.005 C 
ATOM     13  C   UNL     1     128.102 137.798 119.780  1.00  0.00    -0.026 C 
ATOM     14  C   UNL     1     130.521 137.986 119.861  1.00  0.00     0.005 C 
ATOM     15  C   UNL     1     129.370 137.064 120.247  1.00  0.00    -0.001 C 
ATOM     16  C   UNL     1     126.875 137.152 120.496  1.00  0.00     0.007 C 
ATOM     17  C   UNL     1     127.879 137.680 118.237  1.00  0.00     0.012 C 
ATOM     18  C   UNL     1     129.440 135.590 119.753  1.00  0.00     0.000 C 
ATOM     19  C   UNL     1     127.073 135.659 120.878  1.00  0.00     0.005 C 
ATOM     20  C   UNL     1     128.050 134.838 119.973  1.00  0.00     0.003 C 
ATOM     21  C   UNL     1     130.666 134.863 120.384  1.00  0.00     0.031 C 
ATOM     22  C   UNL     1     128.224 133.336 120.453  1.00  0.00    -0.008 C 
ATOM     23  C   UNL     1     130.310 134.061 121.594  1.00  0.00    -0.027 C 
ATOM     24  C   UNL     1     129.210 133.289 121.617  1.00  0.00    -0.065 C 
ATOM     25  C   UNL     1     126.875 132.693 120.915  1.00  0.00     0.014 C 
ATOM     26  C   UNL     1     128.761 132.492 119.260  1.00  0.00     0.016 C 
ATOM     27  C   UNL     1     128.852 132.563 122.896  1.00  0.00     0.063 C 
ATOM     28  C   UNL     1     127.061 131.282 121.499  1.00  0.00     0.033 C 
ATOM     29  C   UNL     1     128.111 131.229 122.642  1.00  0.00     0.118 C 
BRANCH  29  30
ATOM     30  O   UNL     1     129.028 130.182 122.428  1.00  0.00    -0.393 OA
ATOM     31  H   UNL     1     128.763 129.432 123.021  1.00  0.00     0.210 HD
ENDBRANCH  29  30
ENDBRANCH   1  11
TORSDOF 6
ENDMDL
MODEL 5
REMARK VINA RESULT:    -5.677      3.269      5.934
REMARK INTER + INTRA:          -9.382
REMARK INTER:                  -7.195
REMARK INTRA:                  -2.187
REMARK UNBOUND:                -1.880
REMARK SMILES CC[C@@H](C=C[C@H](C)[C@H]1CC[C@@H]2[C@H]3CC=C4C[C@H](O)CC[C@@]4(C)[C@H]3CC[C@]21C)C(C)C
REMARK SMILES IDX 6 1 7 2 5 3 4 4 3 5 2 6 1 7 28 8 29 9 30 10 8 11 9 12 26 13
REMARK SMILES IDX 10 14 11 15 25 16 27 17 12 18 24 19 23 20 13 21 21 22 14 23
REMARK SMILES IDX 15 24 20 25 22 26 16 27 19 28 17 29 18 30
REMARK H PARENT 18 31
REMARK Flexibility Score: inf
ROOT
ATOM      1  C   UNL     1     127.805 142.585 122.091  1.00  0.00     0.012 C 
ATOM      2  C   UNL     1     128.429 141.219 121.728  1.00  0.00     0.012 C 
ENDROOT
BRANCH   1   3
ATOM      3  C   UNL     1     128.273 143.066 123.456  1.00  0.00    -0.028 C 
ATOM      4  C   UNL     1     129.461 142.738 123.998  1.00  0.00    -0.027 C 
BRANCH   4   5
ATOM      5  C   UNL     1     129.953 143.374 125.282  1.00  0.00     0.014 C 
BRANCH   5   6
ATOM      6  C   UNL     1     128.714 143.859 126.078  1.00  0.00     0.004 C 
ATOM      7  C   UNL     1     129.007 144.226 127.533  1.00  0.00     0.004 C 
ENDBRANCH   5   6
BRANCH   5   8
ATOM      8  C   UNL     1     131.030 144.460 124.957  1.00  0.00    -0.011 C 
ATOM      9  C   UNL     1     132.151 143.969 124.026  1.00  0.00     0.008 C 
ATOM     10  C   UNL     1     130.421 145.767 124.422  1.00  0.00     0.008 C 
ENDBRANCH   5   8
ENDBRANCH   4   5
ENDBRANCH   1   3
BRANCH   1  11
ATOM     11  C   UNL     1     127.946 143.706 121.002  1.00  0.00     0.002 C 
ATOM     12  C   UNL     1     127.504 145.116 121.470  1.00  0.00     0.005 C 
ATOM     13  C   UNL     1     129.351 143.910 120.310  1.00  0.00    -0.026 C 
ATOM     14  C   UNL     1     128.575 146.101 121.012  1.00  0.00     0.005 C 
ATOM     15  C   UNL     1     129.833 145.248 120.897  1.00  0.00    -0.001 C 
ATOM     16  C   UNL     1     130.467 142.846 120.548  1.00  0.00     0.007 C 
ATOM     17  C   UNL     1     129.085 143.996 118.771  1.00  0.00     0.012 C 
ATOM     18  C   UNL     1     131.039 145.856 120.123  1.00  0.00     0.000 C 
ATOM     19  C   UNL     1     131.902 143.433 120.629  1.00  0.00     0.005 C 
ATOM     20  C   UNL     1     132.155 144.754 119.830  1.00  0.00     0.003 C 
ATOM     21  C   UNL     1     131.571 147.125 120.856  1.00  0.00     0.031 C 
ATOM     22  C   UNL     1     133.633 145.306 119.996  1.00  0.00    -0.008 C 
ATOM     23  C   UNL     1     132.744 146.840 121.738  1.00  0.00    -0.027 C 
ATOM     24  C   UNL     1     133.749 146.049 121.325  1.00  0.00    -0.065 C 
ATOM     25  C   UNL     1     134.706 144.168 119.966  1.00  0.00     0.014 C 
ATOM     26  C   UNL     1     133.939 146.270 118.813  1.00  0.00     0.016 C 
ATOM     27  C   UNL     1     134.870 145.727 122.288  1.00  0.00     0.063 C 
ATOM     28  C   UNL     1     136.125 144.685 120.253  1.00  0.00     0.033 C 
ATOM     29  C   UNL     1     136.224 145.493 121.576  1.00  0.00     0.118 C 
BRANCH  29  30
ATOM     30  O   UNL     1     136.894 146.713 121.365  1.00  0.00    -0.393 OA
ATOM     31  H   UNL     1     136.572 147.082 120.503  1.00  0.00     0.210 HD
ENDBRANCH  29  30
ENDBRANCH   1  11
TORSDOF 6
ENDMDL
MODEL 6
REMARK VINA RESULT:    -5.647      3.462      5.476
REMARK INTER + INTRA:          -9.343
REMARK INTER:                  -7.484
REMARK INTRA:                  -1.859
REMARK UNBOUND:                -1.880
REMARK SMILES CC[C@@H](C=C[C@H](C)[C@H]1CC[C@@H]2[C@H]3CC=C4C[C@H](O)CC[C@@]4(C)[C@H]3CC[C@]21C)C(C)C
REMARK SMILES IDX 6 1 7 2 5 3 4 4 3 5 2 6 1 7 28 8 29 9 30 10 8 11 9 12 26 13
REMARK SMILES IDX 10 14 11 15 25 16 27 17 12 18 24 19 23 20 13 21 21 22 14 23
REMARK SMILES IDX 15 24 20 25 22 26 16 27 19 28 17 29 18 30
REMARK H PARENT 18 31
REMARK Flexibility Score: inf
ROOT
ATOM      1  C   UNL     1     127.610 143.946 121.095  1.00  0.00     0.012 C 
ATOM      2  C   UNL     1     127.611 142.493 121.622  1.00  0.00     0.012 C 
ENDROOT
BRANCH   1   3
ATOM      3  C   UNL     1     127.636 144.952 122.234  1.00  0.00    -0.028 C 
ATOM      4  C   UNL     1     127.935 144.633 123.508  1.00  0.00    -0.027 C 
BRANCH   4   5
ATOM      5  C   UNL     1     128.111 145.695 124.574  1.00  0.00     0.014 C 
BRANCH   5   6
ATOM      6  C   UNL     1     129.111 146.750 124.034  1.00  0.00     0.004 C 
ATOM      7  C   UNL     1     130.580 146.337 124.149  1.00  0.00     0.004 C 
ENDBRANCH   5   6
BRANCH   5   8
ATOM      8  C   UNL     1     128.487 145.023 125.935  1.00  0.00    -0.011 C 
ATOM      9  C   UNL     1     127.445 145.234 127.045  1.00  0.00     0.008 C 
ATOM     10  C   UNL     1     128.826 143.530 125.793  1.00  0.00     0.008 C 
ENDBRANCH   5   8
ENDBRANCH   4   5
ENDBRANCH   1   3
BRANCH   1  11
ATOM     11  C   UNL     1     128.695 144.274 120.008  1.00  0.00     0.002 C 
ATOM     12  C   UNL     1     128.746 145.762 119.580  1.00  0.00     0.005 C 
ATOM     13  C   UNL     1     130.192 143.862 120.291  1.00  0.00    -0.026 C 
ATOM     14  C   UNL     1     130.214 146.174 119.555  1.00  0.00     0.005 C 
ATOM     15  C   UNL     1     130.882 145.215 120.533  1.00  0.00    -0.001 C 
ATOM     16  C   UNL     1     130.499 142.937 121.510  1.00  0.00     0.007 C 
ATOM     17  C   UNL     1     130.714 143.149 119.000  1.00  0.00     0.012 C 
ATOM     18  C   UNL     1     132.435 145.125 120.496  1.00  0.00     0.000 C 
ATOM     19  C   UNL     1     131.838 143.253 122.230  1.00  0.00     0.005 C 
ATOM     20  C   UNL     1     132.965 143.885 121.349  1.00  0.00     0.003 C 
ATOM     21  C   UNL     1     133.069 146.493 120.896  1.00  0.00     0.031 C 
ATOM     22  C   UNL     1     134.284 144.210 122.168  1.00  0.00    -0.008 C 
ATOM     23  C   UNL     1     133.466 146.552 122.336  1.00  0.00    -0.027 C 
ATOM     24  C   UNL     1     134.097 145.522 122.926  1.00  0.00    -0.065 C 
ATOM     25  C   UNL     1     134.646 143.087 123.194  1.00  0.00     0.014 C 
ATOM     26  C   UNL     1     135.472 144.333 121.168  1.00  0.00     0.016 C 
ATOM     27  C   UNL     1     134.402 145.601 124.406  1.00  0.00     0.063 C 
ATOM     28  C   UNL     1     135.850 143.458 124.077  1.00  0.00     0.033 C 
ATOM     29  C   UNL     1     135.680 144.822 124.798  1.00  0.00     0.118 C 
BRANCH  29  30
ATOM     30  O   UNL     1     136.825 145.623 124.625  1.00  0.00    -0.393 OA
ATOM     31  H   UNL     1     136.913 145.807 123.654  1.00  0.00     0.210 HD
ENDBRANCH  29  30
ENDBRANCH   1  11
TORSDOF 6
ENDMDL
MODEL 7
REMARK VINA RESULT:    -5.604      3.325      6.736
REMARK INTER + INTRA:          -9.286
REMARK INTER:                  -7.232
REMARK INTRA:                  -2.054
REMARK UNBOUND:                -1.880
REMARK SMILES CC[C@@H](C=C[C@H](C)[C@H]1CC[C@@H]2[C@H]3CC=C4C[C@H](O)CC[C@@]4(C)[C@H]3CC[C@]21C)C(C)C
REMARK SMILES IDX 6 1 7 2 5 3 4 4 3 5 2 6 1 7 28 8 29 9 30 10 8 11 9 12 26 13
REMARK SMILES IDX 10 14 11 15 25 16 27 17 12 18 24 19 23 20 13 21 21 22 14 23
REMARK SMILES IDX 15 24 20 25 22 26 16 27 19 28 17 29 18 30
REMARK H PARENT 18 31
REMARK Flexibility Score: inf
ROOT
ATOM      1  C   UNL     1     129.533 144.813 119.644  1.00  0.00     0.012 C 
ATOM      2  C   UNL     1     128.241 145.615 119.367  1.00  0.00     0.012 C 
ENDROOT
BRANCH   1   3
ATOM      3  C   UNL     1     130.679 145.726 120.048  1.00  0.00    -0.028 C 
ATOM      4  C   UNL     1     131.978 145.432 119.847  1.00  0.00    -0.027 C 
BRANCH   4   5
ATOM      5  C   UNL     1     133.074 146.444 120.115  1.00  0.00     0.014 C 
BRANCH   5   6
ATOM      6  C   UNL     1     134.069 146.391 118.927  1.00  0.00     0.004 C 
ATOM      7  C   UNL     1     135.505 146.769 119.295  1.00  0.00     0.004 C 
ENDBRANCH   5   6
BRANCH   5   8
ATOM      8  C   UNL     1     133.683 146.202 121.535  1.00  0.00    -0.011 C 
ATOM      9  C   UNL     1     132.915 146.898 122.670  1.00  0.00     0.008 C 
ATOM     10  C   UNL     1     133.884 144.712 121.856  1.00  0.00     0.008 C 
ENDBRANCH   5   8
ENDBRANCH   4   5
ENDBRANCH   1   3
BRANCH   1  11
ATOM     11  C   UNL     1     129.381 143.602 120.631  1.00  0.00     0.002 C 
ATOM     12  C   UNL     1     130.485 142.522 120.497  1.00  0.00     0.005 C 
ATOM     13  C   UNL     1     129.264 143.901 122.177  1.00  0.00    -0.026 C 
ATOM     14  C   UNL     1     130.941 142.166 121.909  1.00  0.00     0.005 C 
ATOM     15  C   UNL     1     130.616 143.411 122.725  1.00  0.00    -0.001 C 
ATOM     16  C   UNL     1     129.058 145.376 122.642  1.00  0.00     0.007 C 
ATOM     17  C   UNL     1     128.063 143.053 122.709  1.00  0.00     0.012 C 
ATOM     18  C   UNL     1     130.633 143.273 124.275  1.00  0.00     0.000 C 
ATOM     19  C   UNL     1     129.776 145.732 123.973  1.00  0.00     0.005 C 
ATOM     20  C   UNL     1     129.991 144.553 124.979  1.00  0.00     0.003 C 
ATOM     21  C   UNL     1     132.067 142.921 124.774  1.00  0.00     0.031 C 
ATOM     22  C   UNL     1     130.763 144.993 126.293  1.00  0.00    -0.008 C 
ATOM     23  C   UNL     1     132.834 144.119 125.233  1.00  0.00    -0.027 C 
ATOM     24  C   UNL     1     132.260 145.061 126.001  1.00  0.00    -0.065 C 
ATOM     25  C   UNL     1     130.295 146.387 126.826  1.00  0.00     0.014 C 
ATOM     26  C   UNL     1     130.480 143.945 127.409  1.00  0.00     0.016 C 
ATOM     27  C   UNL     1     133.057 146.293 126.368  1.00  0.00     0.063 C 
ATOM     28  C   UNL     1     131.128 146.872 128.024  1.00  0.00     0.033 C 
ATOM     29  C   UNL     1     132.655 146.881 127.742  1.00  0.00     0.118 C 
BRANCH  29  30
ATOM     30  O   UNL     1     133.358 146.243 128.782  1.00  0.00    -0.393 OA
ATOM     31  H   UNL     1     133.807 146.952 129.313  1.00  0.00     0.210 HD
ENDBRANCH  29  30
ENDBRANCH   1  11
TORSDOF 6
ENDMDL
MODEL 8
REMARK VINA RESULT:    -5.590      2.672      6.191
REMARK INTER + INTRA:          -9.268
REMARK INTER:                  -7.136
REMARK INTRA:                  -2.132
REMARK UNBOUND:                -1.880
REMARK SMILES CC[C@@H](C=C[C@H](C)[C@H]1CC[C@@H]2[C@H]3CC=C4C[C@H](O)CC[C@@]4(C)[C@H]3CC[C@]21C)C(C)C
REMARK SMILES IDX 6 1 7 2 5 3 4 4 3 5 2 6 1 7 28 8 29 9 30 10 8 11 9 12 26 13
REMARK SMILES IDX 10 14 11 15 25 16 27 17 12 18 24 19 23 20 13 21 21 22 14 23
REMARK SMILES IDX 15 24 20 25 22 26 16 27 19 28 17 29 18 30
REMARK H PARENT 18 31
REMARK Flexibility Score: inf
ROOT
ATOM      1  C   UNL     1     127.936 141.381 120.554  1.00  0.00     0.012 C 
ATOM      2  C   UNL     1     126.879 140.297 120.861  1.00  0.00     0.012 C 
ENDROOT
BRANCH   1   3
ATOM      3  C   UNL     1     127.467 142.758 120.997  1.00  0.00    -0.028 C 
ATOM      4  C   UNL     1     127.860 143.906 120.414  1.00  0.00    -0.027 C 
BRANCH   4   5
ATOM      5  C   UNL     1     127.239 145.239 120.782  1.00  0.00     0.014 C 
BRANCH   5   6
ATOM      6  C   UNL     1     126.904 145.986 119.466  1.00  0.00     0.004 C 
ATOM      7  C   UNL     1     127.581 145.403 118.224  1.00  0.00     0.004 C 
ENDBRANCH   5   6
BRANCH   5   8
ATOM      8  C   UNL     1     128.166 145.996 121.788  1.00  0.00    -0.011 C 
ATOM      9  C   UNL     1     127.915 145.637 123.261  1.00  0.00     0.008 C 
ATOM     10  C   UNL     1     129.659 145.858 121.448  1.00  0.00     0.008 C 
ENDBRANCH   5   8
ENDBRANCH   4   5
ENDBRANCH   1   3
BRANCH   1  11
ATOM     11  C   UNL     1     129.390 141.073 121.059  1.00  0.00     0.002 C 
ATOM     12  C   UNL     1     130.509 141.817 120.287  1.00  0.00     0.005 C 
ATOM     13  C   UNL     1     129.716 141.287 122.589  1.00  0.00    -0.026 C 
ATOM     14  C   UNL     1     131.475 142.381 121.324  1.00  0.00     0.005 C 
ATOM     15  C   UNL     1     130.622 142.530 122.578  1.00  0.00    -0.001 C 
ATOM     16  C   UNL     1     128.538 141.554 123.577  1.00  0.00     0.007 C 
ATOM     17  C   UNL     1     130.470 140.004 123.070  1.00  0.00     0.012 C 
ATOM     18  C   UNL     1     131.367 142.756 123.925  1.00  0.00     0.000 C 
ATOM     19  C   UNL     1     128.880 142.543 124.725  1.00  0.00     0.005 C 
ATOM     20  C   UNL     1     130.380 142.596 125.168  1.00  0.00     0.003 C 
ATOM     21  C   UNL     1     132.145 144.107 123.897  1.00  0.00     0.031 C 
ATOM     22  C   UNL     1     130.650 143.655 126.318  1.00  0.00    -0.008 C 
ATOM     23  C   UNL     1     131.392 145.226 124.541  1.00  0.00    -0.027 C 
ATOM     24  C   UNL     1     130.746 145.050 125.706  1.00  0.00    -0.065 C 
ATOM     25  C   UNL     1     129.523 143.663 127.403  1.00  0.00     0.014 C 
ATOM     26  C   UNL     1     131.984 143.286 127.029  1.00  0.00     0.016 C 
ATOM     27  C   UNL     1     129.931 146.193 126.271  1.00  0.00     0.063 C 
ATOM     28  C   UNL     1     129.717 144.774 128.449  1.00  0.00     0.033 C 
ATOM     29  C   UNL     1     129.877 146.184 127.818  1.00  0.00     0.118 C 
BRANCH  29  30
ATOM     30  O   UNL     1     130.993 146.849 128.360  1.00  0.00    -0.393 OA
ATOM     31  H   UNL     1     130.651 147.606 128.903  1.00  0.00     0.210 HD
ENDBRANCH  29  30
ENDBRANCH   1  11
TORSDOF 6
ENDMDL
