MODEL 1
REMARK VINA RESULT:    -3.781      0.000      0.000
REMARK INTER + INTRA:         -16.005
REMARK INTER:                  -9.970
REMARK INTRA:                  -6.035
REMARK UNBOUND:                -6.035
REMARK SMILES CCCCCCCCCCCCCCCCCCCCCCCCCCCCCC(=O)[O-]
REMARK SMILES IDX 16 1 17 2 18 3 19 4 20 5 21 6 22 7 23 8 24 9 25 10 26 11
REMARK SMILES IDX 27 12 28 13 29 14 30 15 31 16 32 17 15 18 14 19 13 20 12 21
REMARK SMILES IDX 11 22 10 23 9 24 8 25 7 26 6 27 5 28 4 29 3 30 2 31 1 32
REMARK H PARENT
REMARK Flexibility Score: inf
ROOT
ATOM      1  C   UNL     1      13.823   1.482  79.802  1.00  0.00     0.000 C 
ENDROOT
BRANCH   1   2
ATOM      2  C   UNL     1      14.051   1.253  81.301  1.00  0.00     0.000 C 
BRANCH   2   3
ATOM      3  C   UNL     1      15.163   2.158  81.846  1.00  0.00     0.000 C 
BRANCH   3   4
ATOM      4  C   UNL     1      16.217   1.331  82.594  1.00  0.00     0.000 C 
BRANCH   4   5
ATOM      5  C   UNL     1      17.626   1.474  81.996  1.00  0.00     0.000 C 
BRANCH   5   6
ATOM      6  C   UNL     1      17.640   1.299  80.469  1.00  0.00     0.000 C 
BRANCH   6   7
ATOM      7  C   UNL     1      17.854  -0.173  80.087  1.00  0.00     0.000 C 
BRANCH   7   8
ATOM      8  C   UNL     1      16.595  -0.827  79.494  1.00  0.00     0.000 C 
BRANCH   8   9
ATOM      9  C   UNL     1      16.189  -2.113  80.230  1.00  0.00     0.000 C 
BRANCH   9  10
ATOM     10  C   UNL     1      16.862  -2.195  81.610  1.00  0.00     0.000 C 
BRANCH  10  11
ATOM     11  C   UNL     1      15.891  -2.648  82.714  1.00  0.00     0.000 C 
BRANCH  11  12
ATOM     12  C   UNL     1      14.508  -1.957  82.648  1.00  0.00     0.000 C 
BRANCH  12  13
ATOM     13  C   UNL     1      13.878  -1.714  84.032  1.00  0.00     0.006 C 
BRANCH  13  14
ATOM     14  C   UNL     1      12.858  -0.565  84.055  1.00  0.00     0.053 C 
BRANCH  14  15
ATOM     15  C   UNL     1      11.474  -1.048  84.369  1.00  0.00     0.041 C 
ATOM     16  O   UNL     1      11.002  -0.908  85.529  1.00  0.00    -0.550 OA
ATOM     17  O   UNL     1      10.702  -1.647  83.382  1.00  0.00    -0.550 OA
ENDBRANCH  14  15
ENDBRANCH  13  14
ENDBRANCH  12  13
ENDBRANCH  11  12
ENDBRANCH  10  11
ENDBRANCH   9  10
ENDBRANCH   8   9
ENDBRANCH   7   8
ENDBRANCH   6   7
ENDBRANCH   5   6
ENDBRANCH   4   5
ENDBRANCH   3   4
ENDBRANCH   2   3
ENDBRANCH   1   2
BRANCH   1  18
ATOM     18  C   UNL     1      13.904   2.979  79.465  1.00  0.00     0.000 C 
BRANCH  18  19
ATOM     19  C   UNL     1      14.741   3.268  78.209  1.00  0.00     0.000 C 
BRANCH  19  20
ATOM     20  C   UNL     1      15.323   1.992  77.579  1.00  0.00     0.000 C 
BRANCH  20  21
ATOM     21  C   UNL     1      16.703   2.221  76.934  1.00  0.00     0.000 C 
BRANCH  21  22
ATOM     22  C   UNL     1      17.328   3.603  77.204  1.00  0.00     0.000 C 
BRANCH  22  23
ATOM     23  C   UNL     1      17.694   4.355  75.916  1.00  0.00     0.000 C 
BRANCH  23  24
ATOM     24  C   UNL     1      16.803   5.589  75.722  1.00  0.00    -0.000 C 
BRANCH  24  25
ATOM     25  C   UNL     1      16.236   6.134  77.045  1.00  0.00    -0.000 C 
BRANCH  25  26
ATOM     26  C   UNL     1      16.834   7.494  77.464  1.00  0.00    -0.000 C 
BRANCH  26  27
ATOM     27  C   UNL     1      18.374   7.502  77.416  1.00  0.00    -0.000 C 
BRANCH  27  28
ATOM     28  C   UNL     1      19.016   7.838  78.774  1.00  0.00    -0.000 C 
BRANCH  28  29
ATOM     29  C   UNL     1      18.319   7.218  80.002  1.00  0.00    -0.000 C 
BRANCH  29  30
ATOM     30  C   UNL     1      18.522   5.701  80.177  1.00  0.00    -0.000 C 
BRANCH  30  31
ATOM     31  C   UNL     1      17.284   4.937  80.683  1.00  0.00    -0.003 C 
ATOM     32  C   UNL     1      16.040   5.819  80.781  1.00  0.00     0.004 C 
ENDBRANCH  30  31
ENDBRANCH  29  30
ENDBRANCH  28  29
ENDBRANCH  27  28
ENDBRANCH  26  27
ENDBRANCH  25  26
ENDBRANCH  24  25
ENDBRANCH  23  24
ENDBRANCH  22  23
ENDBRANCH  21  22
ENDBRANCH  20  21
ENDBRANCH  19  20
ENDBRANCH  18  19
ENDBRANCH   1  18
TORSDOF 28
ENDMDL
MODEL 2
REMARK VINA RESULT:    -3.640      1.519      2.622
REMARK INTER + INTRA:         -15.632
REMARK INTER:                 -10.238
REMARK INTRA:                  -5.394
REMARK UNBOUND:                -6.035
REMARK SMILES CCCCCCCCCCCCCCCCCCCCCCCCCCCCCC(=O)[O-]
REMARK SMILES IDX 16 1 17 2 18 3 19 4 20 5 21 6 22 7 23 8 24 9 25 10 26 11
REMARK SMILES IDX 27 12 28 13 29 14 30 15 31 16 32 17 15 18 14 19 13 20 12 21
REMARK SMILES IDX 11 22 10 23 9 24 8 25 7 26 6 27 5 28 4 29 3 30 2 31 1 32
REMARK H PARENT
REMARK Flexibility Score: inf
ROOT
ATOM      1  C   UNL     1      13.809   0.519  81.064  1.00  0.00     0.000 C 
ENDROOT
BRANCH   1   2
ATOM      2  C   UNL     1      14.295   1.748  81.843  1.00  0.00     0.000 C 
BRANCH   2   3
ATOM      3  C   UNL     1      15.540   1.427  82.679  1.00  0.00     0.000 C 
BRANCH   3   4
ATOM      4  C   UNL     1      16.809   1.930  81.976  1.00  0.00     0.000 C 
BRANCH   4   5
ATOM      5  C   UNL     1      17.887   0.843  81.837  1.00  0.00     0.000 C 
BRANCH   5   6
ATOM      6  C   UNL     1      17.317  -0.496  81.343  1.00  0.00     0.000 C 
BRANCH   6   7
ATOM      7  C   UNL     1      17.739  -1.646  82.269  1.00  0.00     0.000 C 
BRANCH   7   8
ATOM      8  C   UNL     1      17.169  -1.512  83.690  1.00  0.00     0.000 C 
BRANCH   8   9
ATOM      9  C   UNL     1      16.173  -2.629  84.040  1.00  0.00     0.000 C 
BRANCH   9  10
ATOM     10  C   UNL     1      14.864  -2.469  83.249  1.00  0.00     0.000 C 
BRANCH  10  11
ATOM     11  C   UNL     1      13.635  -2.328  84.165  1.00  0.00     0.000 C 
BRANCH  11  12
ATOM     12  C   UNL     1      13.124  -0.874  84.299  1.00  0.00     0.000 C 
BRANCH  12  13
ATOM     13  C   UNL     1      11.591  -0.752  84.207  1.00  0.00     0.006 C 
BRANCH  13  14
ATOM     14  C   UNL     1      10.870  -2.103  84.081  1.00  0.00     0.053 C 
BRANCH  14  15
ATOM     15  C   UNL     1      10.389  -2.353  82.683  1.00  0.00     0.041 C 
ATOM     16  O   UNL     1       9.506  -3.225  82.463  1.00  0.00    -0.550 OA
ATOM     17  O   UNL     1      10.907  -1.620  81.623  1.00  0.00    -0.550 OA
ENDBRANCH  14  15
ENDBRANCH  13  14
ENDBRANCH  12  13
ENDBRANCH  11  12
ENDBRANCH  10  11
ENDBRANCH   9  10
ENDBRANCH   8   9
ENDBRANCH   7   8
ENDBRANCH   6   7
ENDBRANCH   5   6
ENDBRANCH   4   5
ENDBRANCH   3   4
ENDBRANCH   2   3
ENDBRANCH   1   2
BRANCH   1  18
ATOM     18  C   UNL     1      13.553   0.878  79.593  1.00  0.00     0.000 C 
BRANCH  18  19
ATOM     19  C   UNL     1      14.198   2.209  79.177  1.00  0.00     0.000 C 
BRANCH  19  20
ATOM     20  C   UNL     1      15.142   2.058  77.971  1.00  0.00     0.000 C 
BRANCH  20  21
ATOM     21  C   UNL     1      16.102   0.862  78.111  1.00  0.00     0.000 C 
BRANCH  21  22
ATOM     22  C   UNL     1      17.600   1.221  78.092  1.00  0.00     0.000 C 
BRANCH  22  23
ATOM     23  C   UNL     1      17.865   2.694  78.435  1.00  0.00     0.000 C 
BRANCH  23  24
ATOM     24  C   UNL     1      18.666   3.387  77.324  1.00  0.00    -0.000 C 
BRANCH  24  25
ATOM     25  C   UNL     1      18.019   3.238  75.935  1.00  0.00    -0.000 C 
BRANCH  25  26
ATOM     26  C   UNL     1      17.824   4.578  75.194  1.00  0.00    -0.000 C 
BRANCH  26  27
ATOM     27  C   UNL     1      16.617   5.376  75.722  1.00  0.00    -0.000 C 
BRANCH  27  28
ATOM     28  C   UNL     1      17.026   6.604  76.555  1.00  0.00    -0.000 C 
BRANCH  28  29
ATOM     29  C   UNL     1      16.177   6.853  77.818  1.00  0.00    -0.000 C 
BRANCH  29  30
ATOM     30  C   UNL     1      15.603   5.587  78.484  1.00  0.00    -0.000 C 
BRANCH  30  31
ATOM     31  C   UNL     1      15.467   5.668  80.016  1.00  0.00    -0.003 C 
ATOM     32  C   UNL     1      16.793   5.450  80.742  1.00  0.00     0.004 C 
ENDBRANCH  30  31
ENDBRANCH  29  30
ENDBRANCH  28  29
ENDBRANCH  27  28
ENDBRANCH  26  27
ENDBRANCH  25  26
ENDBRANCH  24  25
ENDBRANCH  23  24
ENDBRANCH  22  23
ENDBRANCH  21  22
ENDBRANCH  20  21
ENDBRANCH  19  20
ENDBRANCH  18  19
ENDBRANCH   1  18
TORSDOF 28
ENDMDL
MODEL 3
REMARK VINA RESULT:    -3.631     13.085     15.502
REMARK INTER + INTRA:         -15.610
REMARK INTER:                 -10.933
REMARK INTRA:                  -4.677
REMARK UNBOUND:                -6.035
REMARK SMILES CCCCCCCCCCCCCCCCCCCCCCCCCCCCCC(=O)[O-]
REMARK SMILES IDX 16 1 17 2 18 3 19 4 20 5 21 6 22 7 23 8 24 9 25 10 26 11
REMARK SMILES IDX 27 12 28 13 29 14 30 15 31 16 32 17 15 18 14 19 13 20 12 21
REMARK SMILES IDX 11 22 10 23 9 24 8 25 7 26 6 27 5 28 4 29 3 30 2 31 1 32
REMARK H PARENT
REMARK Flexibility Score: inf
ROOT
ATOM      1  C   UNL     1       4.753  11.138  84.001  1.00  0.00     0.000 C 
ENDROOT
BRANCH   1   2
ATOM      2  C   UNL     1       4.495  10.258  82.772  1.00  0.00     0.000 C 
BRANCH   2   3
ATOM      3  C   UNL     1       3.200   9.449  82.921  1.00  0.00     0.000 C 
BRANCH   3   4
ATOM      4  C   UNL     1       2.637   9.586  84.343  1.00  0.00     0.000 C 
BRANCH   4   5
ATOM      5  C   UNL     1       1.201  10.133  84.368  1.00  0.00     0.000 C 
BRANCH   5   6
ATOM      6  C   UNL     1       0.972  11.141  85.506  1.00  0.00     0.000 C 
BRANCH   6   7
ATOM      7  C   UNL     1       2.127  11.098  86.517  1.00  0.00     0.000 C 
BRANCH   7   8
ATOM      8  C   UNL     1       1.646  10.956  87.971  1.00  0.00     0.000 C 
BRANCH   8   9
ATOM      9  C   UNL     1       2.222   9.715  88.670  1.00  0.00     0.000 C 
BRANCH   9  10
ATOM     10  C   UNL     1       2.162   8.486  87.749  1.00  0.00     0.000 C 
BRANCH  10  11
ATOM     11  C   UNL     1       0.725   7.981  87.531  1.00  0.00     0.000 C 
BRANCH  11  12
ATOM     12  C   UNL     1       0.596   6.945  86.389  1.00  0.00     0.000 C 
BRANCH  12  13
ATOM     13  C   UNL     1       1.594   5.778  86.506  1.00  0.00     0.006 C 
BRANCH  13  14
ATOM     14  C   UNL     1       1.128   4.656  87.447  1.00  0.00     0.053 C 
BRANCH  14  15
ATOM     15  C   UNL     1       2.063   3.486  87.432  1.00  0.00     0.041 C 
ATOM     16  O   UNL     1       1.940   2.564  88.282  1.00  0.00    -0.550 OA
ATOM     17  O   UNL     1       3.067   3.406  86.475  1.00  0.00    -0.550 OA
ENDBRANCH  14  15
ENDBRANCH  13  14
ENDBRANCH  12  13
ENDBRANCH  11  12
ENDBRANCH  10  11
ENDBRANCH   9  10
ENDBRANCH   8   9
ENDBRANCH   7   8
ENDBRANCH   6   7
ENDBRANCH   5   6
ENDBRANCH   4   5
ENDBRANCH   3   4
ENDBRANCH   2   3
ENDBRANCH   1   2
BRANCH   1  18
ATOM     18  C   UNL     1       4.846  12.617  83.598  1.00  0.00     0.000 C 
BRANCH  18  19
ATOM     19  C   UNL     1       3.847  13.510  84.350  1.00  0.00     0.000 C 
BRANCH  19  20
ATOM     20  C   UNL     1       2.810  14.155  83.415  1.00  0.00     0.000 C 
BRANCH  20  21
ATOM     21  C   UNL     1       1.935  13.117  82.687  1.00  0.00     0.000 C 
BRANCH  21  22
ATOM     22  C   UNL     1       1.858  13.287  81.157  1.00  0.00     0.000 C 
BRANCH  22  23
ATOM     23  C   UNL     1       2.805  12.342  80.404  1.00  0.00     0.000 C 
BRANCH  23  24
ATOM     24  C   UNL     1       3.629  13.102  79.356  1.00  0.00    -0.000 C 
BRANCH  24  25
ATOM     25  C   UNL     1       4.867  13.794  79.953  1.00  0.00    -0.000 C 
BRANCH  25  26
ATOM     26  C   UNL     1       6.037  12.830  80.247  1.00  0.00    -0.000 C 
BRANCH  26  27
ATOM     27  C   UNL     1       6.275  11.825  79.105  1.00  0.00    -0.000 C 
BRANCH  27  28
ATOM     28  C   UNL     1       7.307  10.740  79.464  1.00  0.00    -0.000 C 
BRANCH  28  29
ATOM     29  C   UNL     1       6.727   9.473  80.124  1.00  0.00    -0.000 C 
BRANCH  29  30
ATOM     30  C   UNL     1       7.770   8.470  80.653  1.00  0.00    -0.000 C 
BRANCH  30  31
ATOM     31  C   UNL     1       8.385   7.552  79.581  1.00  0.00    -0.003 C 
ATOM     32  C   UNL     1       8.005   6.083  79.769  1.00  0.00     0.004 C 
ENDBRANCH  30  31
ENDBRANCH  29  30
ENDBRANCH  28  29
ENDBRANCH  27  28
ENDBRANCH  26  27
ENDBRANCH  25  26
ENDBRANCH  24  25
ENDBRANCH  23  24
ENDBRANCH  22  23
ENDBRANCH  21  22
ENDBRANCH  20  21
ENDBRANCH  19  20
ENDBRANCH  18  19
ENDBRANCH   1  18
TORSDOF 28
ENDMDL
MODEL 4
REMARK VINA RESULT:    -3.573      8.364     10.490
REMARK INTER + INTRA:         -15.457
REMARK INTER:                 -12.457
REMARK INTRA:                  -3.000
REMARK UNBOUND:                -6.035
REMARK SMILES CCCCCCCCCCCCCCCCCCCCCCCCCCCCCC(=O)[O-]
REMARK SMILES IDX 16 1 17 2 18 3 19 4 20 5 21 6 22 7 23 8 24 9 25 10 26 11
REMARK SMILES IDX 27 12 28 13 29 14 30 15 31 16 32 17 15 18 14 19 13 20 12 21
REMARK SMILES IDX 11 22 10 23 9 24 8 25 7 26 6 27 5 28 4 29 3 30 2 31 1 32
REMARK H PARENT
REMARK Flexibility Score: inf
ROOT
ATOM      1  C   UNL     1      11.409   4.464  79.656  1.00  0.00     0.000 C 
ENDROOT
BRANCH   1   2
ATOM      2  C   UNL     1       9.940   4.242  80.038  1.00  0.00     0.000 C 
BRANCH   2   3
ATOM      3  C   UNL     1       9.041   5.355  79.485  1.00  0.00     0.000 C 
BRANCH   3   4
ATOM      4  C   UNL     1       9.851   6.637  79.246  1.00  0.00     0.000 C 
BRANCH   4   5
ATOM      5  C   UNL     1       8.982   7.905  79.251  1.00  0.00     0.000 C 
BRANCH   5   6
ATOM      6  C   UNL     1       7.581   7.659  79.835  1.00  0.00     0.000 C 
BRANCH   6   7
ATOM      7  C   UNL     1       7.233   8.720  80.889  1.00  0.00     0.000 C 
BRANCH   7   8
ATOM      8  C   UNL     1       5.943   8.399  81.661  1.00  0.00     0.000 C 
BRANCH   8   9
ATOM      9  C   UNL     1       5.254   9.654  82.218  1.00  0.00     0.000 C 
BRANCH   9  10
ATOM     10  C   UNL     1       5.323  10.814  81.211  1.00  0.00     0.000 C 
BRANCH  10  11
ATOM     11  C   UNL     1       4.160  11.808  81.376  1.00  0.00     0.000 C 
BRANCH  11  12
ATOM     12  C   UNL     1       3.812  12.119  82.851  1.00  0.00     0.000 C 
BRANCH  12  13
ATOM     13  C   UNL     1       2.300  12.092  83.143  1.00  0.00     0.006 C 
BRANCH  13  14
ATOM     14  C   UNL     1       1.674  10.692  83.043  1.00  0.00     0.053 C 
BRANCH  14  15
ATOM     15  C   UNL     1       0.703  10.591  81.906  1.00  0.00     0.041 C 
ATOM     16  O   UNL     1       0.522  11.573  81.137  1.00  0.00    -0.550 OA
ATOM     17  O   UNL     1       0.002   9.412  81.688  1.00  0.00    -0.550 OA
ENDBRANCH  14  15
ENDBRANCH  13  14
ENDBRANCH  12  13
ENDBRANCH  11  12
ENDBRANCH  10  11
ENDBRANCH   9  10
ENDBRANCH   8   9
ENDBRANCH   7   8
ENDBRANCH   6   7
ENDBRANCH   5   6
ENDBRANCH   4   5
ENDBRANCH   3   4
ENDBRANCH   2   3
ENDBRANCH   1   2
BRANCH   1  18
ATOM     18  C   UNL     1      12.076   3.134  79.277  1.00  0.00     0.000 C 
BRANCH  18  19
ATOM     19  C   UNL     1      13.436   2.926  79.962  1.00  0.00     0.000 C 
BRANCH  19  20
ATOM     20  C   UNL     1      14.355   1.975  79.175  1.00  0.00     0.000 C 
BRANCH  20  21
ATOM     21  C   UNL     1      15.004   2.650  77.951  1.00  0.00     0.000 C 
BRANCH  21  22
ATOM     22  C   UNL     1      15.813   1.708  77.039  1.00  0.00     0.000 C 
BRANCH  22  23
ATOM     23  C   UNL     1      17.312   1.700  77.370  1.00  0.00     0.000 C 
BRANCH  23  24
ATOM     24  C   UNL     1      17.879   3.125  77.413  1.00  0.00    -0.000 C 
BRANCH  24  25
ATOM     25  C   UNL     1      17.849   3.825  76.043  1.00  0.00    -0.000 C 
BRANCH  25  26
ATOM     26  C   UNL     1      17.713   5.360  76.131  1.00  0.00    -0.000 C 
BRANCH  26  27
ATOM     27  C   UNL     1      16.258   5.812  76.355  1.00  0.00    -0.000 C 
BRANCH  27  28
ATOM     28  C   UNL     1      16.062   6.576  77.677  1.00  0.00    -0.000 C 
BRANCH  28  29
ATOM     29  C   UNL     1      15.617   5.714  78.875  1.00  0.00    -0.000 C 
BRANCH  29  30
ATOM     30  C   UNL     1      16.390   5.957  80.185  1.00  0.00    -0.000 C 
BRANCH  30  31
ATOM     31  C   UNL     1      17.487   4.921  80.491  1.00  0.00    -0.003 C 
ATOM     32  C   UNL     1      16.942   3.657  81.155  1.00  0.00     0.004 C 
ENDBRANCH  30  31
ENDBRANCH  29  30
ENDBRANCH  28  29
ENDBRANCH  27  28
ENDBRANCH  26  27
ENDBRANCH  25  26
ENDBRANCH  24  25
ENDBRANCH  23  24
ENDBRANCH  22  23
ENDBRANCH  21  22
ENDBRANCH  20  21
ENDBRANCH  19  20
ENDBRANCH  18  19
ENDBRANCH   1  18
TORSDOF 28
ENDMDL
MODEL 5
REMARK VINA RESULT:    -3.567      1.390      3.571
REMARK INTER + INTRA:         -15.440
REMARK INTER:                  -9.887
REMARK INTRA:                  -5.553
REMARK UNBOUND:                -6.035
REMARK SMILES CCCCCCCCCCCCCCCCCCCCCCCCCCCCCC(=O)[O-]
REMARK SMILES IDX 16 1 17 2 18 3 19 4 20 5 21 6 22 7 23 8 24 9 25 10 26 11
REMARK SMILES IDX 27 12 28 13 29 14 30 15 31 16 32 17 15 18 14 19 13 20 12 21
REMARK SMILES IDX 11 22 10 23 9 24 8 25 7 26 6 27 5 28 4 29 3 30 2 31 1 32
REMARK H PARENT
REMARK Flexibility Score: inf
ROOT
ATOM      1  C   UNL     1      16.906   2.226  76.687  1.00  0.00     0.000 C 
ENDROOT
BRANCH   1   2
ATOM      2  C   UNL     1      16.461   0.854  77.207  1.00  0.00     0.000 C 
BRANCH   2   3
ATOM      3  C   UNL     1      17.314   0.400  78.398  1.00  0.00     0.000 C 
BRANCH   3   4
ATOM      4  C   UNL     1      16.425   0.063  79.604  1.00  0.00     0.000 C 
BRANCH   4   5
ATOM      5  C   UNL     1      16.954   0.653  80.921  1.00  0.00     0.000 C 
BRANCH   5   6
ATOM      6  C   UNL     1      15.834   0.919  81.941  1.00  0.00     0.000 C 
BRANCH   6   7
ATOM      7  C   UNL     1      16.315   0.632  83.370  1.00  0.00     0.000 C 
BRANCH   7   8
ATOM      8  C   UNL     1      16.304  -0.865  83.718  1.00  0.00     0.000 C 
BRANCH   8   9
ATOM      9  C   UNL     1      14.921  -1.509  83.535  1.00  0.00     0.000 C 
BRANCH   9  10
ATOM     10  C   UNL     1      14.997  -2.723  82.596  1.00  0.00     0.000 C 
BRANCH  10  11
ATOM     11  C   UNL     1      13.997  -2.632  81.431  1.00  0.00     0.000 C 
BRANCH  11  12
ATOM     12  C   UNL     1      13.045  -1.416  81.523  1.00  0.00     0.000 C 
BRANCH  12  13
ATOM     13  C   UNL     1      11.588  -1.800  81.845  1.00  0.00     0.006 C 
BRANCH  13  14
ATOM     14  C   UNL     1      11.214  -1.623  83.325  1.00  0.00     0.053 C 
BRANCH  14  15
ATOM     15  C   UNL     1      11.044  -2.939  84.022  1.00  0.00     0.041 C 
ATOM     16  O   UNL     1      12.054  -3.600  84.383  1.00  0.00    -0.550 OA
ATOM     17  O   UNL     1       9.772  -3.433  84.282  1.00  0.00    -0.550 OA
ENDBRANCH  14  15
ENDBRANCH  13  14
ENDBRANCH  12  13
ENDBRANCH  11  12
ENDBRANCH  10  11
ENDBRANCH   9  10
ENDBRANCH   8   9
ENDBRANCH   7   8
ENDBRANCH   6   7
ENDBRANCH   5   6
ENDBRANCH   4   5
ENDBRANCH   3   4
ENDBRANCH   2   3
ENDBRANCH   1   2
BRANCH   1  18
ATOM     18  C   UNL     1      18.191   2.682  77.394  1.00  0.00     0.000 C 
BRANCH  18  19
ATOM     19  C   UNL     1      18.927   3.802  76.642  1.00  0.00     0.000 C 
BRANCH  19  20
ATOM     20  C   UNL     1      18.298   4.107  75.271  1.00  0.00     0.000 C 
BRANCH  20  21
ATOM     21  C   UNL     1      17.721   5.533  75.185  1.00  0.00     0.000 C 
BRANCH  21  22
ATOM     22  C   UNL     1      16.361   5.730  75.883  1.00  0.00     0.000 C 
BRANCH  22  23
ATOM     23  C   UNL     1      16.444   6.668  77.097  1.00  0.00     0.000 C 
BRANCH  23  24
ATOM     24  C   UNL     1      17.857   7.246  77.255  1.00  0.00    -0.000 C 
BRANCH  24  25
ATOM     25  C   UNL     1      18.464   6.976  78.643  1.00  0.00    -0.000 C 
BRANCH  25  26
ATOM     26  C   UNL     1      17.448   6.436  79.671  1.00  0.00    -0.000 C 
BRANCH  26  27
ATOM     27  C   UNL     1      17.777   5.004  80.132  1.00  0.00    -0.000 C 
BRANCH  27  28
ATOM     28  C   UNL     1      16.525   4.188  80.502  1.00  0.00    -0.000 C 
BRANCH  28  29
ATOM     29  C   UNL     1      15.212   4.670  79.853  1.00  0.00    -0.000 C 
BRANCH  29  30
ATOM     30  C   UNL     1      14.585   3.696  78.837  1.00  0.00    -0.000 C 
BRANCH  30  31
ATOM     31  C   UNL     1      13.207   3.139  79.240  1.00  0.00    -0.003 C 
ATOM     32  C   UNL     1      13.205   1.619  79.401  1.00  0.00     0.004 C 
ENDBRANCH  30  31
ENDBRANCH  29  30
ENDBRANCH  28  29
ENDBRANCH  27  28
ENDBRANCH  26  27
ENDBRANCH  25  26
ENDBRANCH  24  25
ENDBRANCH  23  24
ENDBRANCH  22  23
ENDBRANCH  21  22
ENDBRANCH  20  21
ENDBRANCH  19  20
ENDBRANCH  18  19
ENDBRANCH   1  18
TORSDOF 28
ENDMDL
MODEL 6
REMARK VINA RESULT:    -3.553      7.991     10.831
REMARK INTER + INTRA:         -15.405
REMARK INTER:                 -12.461
REMARK INTRA:                  -2.943
REMARK UNBOUND:                -6.035
REMARK SMILES CCCCCCCCCCCCCCCCCCCCCCCCCCCCCC(=O)[O-]
REMARK SMILES IDX 16 1 17 2 18 3 19 4 20 5 21 6 22 7 23 8 24 9 25 10 26 11
REMARK SMILES IDX 27 12 28 13 29 14 30 15 31 16 32 17 15 18 14 19 13 20 12 21
REMARK SMILES IDX 11 22 10 23 9 24 8 25 7 26 6 27 5 28 4 29 3 30 2 31 1 32
REMARK H PARENT
REMARK Flexibility Score: inf
ROOT
ATOM      1  C   UNL     1      11.219   4.618  79.632  1.00  0.00     0.000 C 
ENDROOT
BRANCH   1   2
ATOM      2  C   UNL     1      12.088   3.354  79.608  1.00  0.00     0.000 C 
BRANCH   2   3
ATOM      3  C   UNL     1      13.509   3.658  79.115  1.00  0.00     0.000 C 
BRANCH   3   4
ATOM      4  C   UNL     1      14.256   2.358  78.782  1.00  0.00     0.000 C 
BRANCH   4   5
ATOM      5  C   UNL     1      15.267   2.526  77.637  1.00  0.00     0.000 C 
BRANCH   5   6
ATOM      6  C   UNL     1      16.659   1.977  77.991  1.00  0.00     0.000 C 
BRANCH   6   7
ATOM      7  C   UNL     1      16.864   1.945  79.512  1.00  0.00     0.000 C 
BRANCH   7   8
ATOM      8  C   UNL     1      18.211   2.543  79.948  1.00  0.00     0.000 C 
BRANCH   8   9
ATOM      9  C   UNL     1      18.050   3.769  80.861  1.00  0.00     0.000 C 
BRANCH   9  10
ATOM     10  C   UNL     1      16.567   4.060  81.138  1.00  0.00     0.000 C 
BRANCH  10  11
ATOM     11  C   UNL     1      16.121   5.426  80.587  1.00  0.00     0.000 C 
BRANCH  11  12
ATOM     12  C   UNL     1      17.122   6.049  79.586  1.00  0.00     0.000 C 
BRANCH  12  13
ATOM     13  C   UNL     1      16.573   6.150  78.151  1.00  0.00     0.006 C 
BRANCH  13  14
ATOM     14  C   UNL     1      17.605   5.803  77.067  1.00  0.00     0.053 C 
BRANCH  14  15
ATOM     15  C   UNL     1      16.953   5.350  75.795  1.00  0.00     0.041 C 
ATOM     16  O   UNL     1      15.709   5.475  75.641  1.00  0.00    -0.550 OA
ATOM     17  O   UNL     1      17.718   4.798  74.776  1.00  0.00    -0.550 OA
ENDBRANCH  14  15
ENDBRANCH  13  14
ENDBRANCH  12  13
ENDBRANCH  11  12
ENDBRANCH  10  11
ENDBRANCH   9  10
ENDBRANCH   8   9
ENDBRANCH   7   8
ENDBRANCH   6   7
ENDBRANCH   5   6
ENDBRANCH   4   5
ENDBRANCH   3   4
ENDBRANCH   2   3
ENDBRANCH   1   2
BRANCH   1  18
ATOM     18  C   UNL     1       9.768   4.270  79.996  1.00  0.00     0.000 C 
BRANCH  18  19
ATOM     19  C   UNL     1       8.774   5.385  79.638  1.00  0.00     0.000 C 
BRANCH  19  20
ATOM     20  C   UNL     1       9.446   6.568  78.919  1.00  0.00     0.000 C 
BRANCH  20  21
ATOM     21  C   UNL     1       8.984   7.935  79.461  1.00  0.00     0.000 C 
BRANCH  21  22
ATOM     22  C   UNL     1       7.463   8.077  79.663  1.00  0.00     0.000 C 
BRANCH  22  23
ATOM     23  C   UNL     1       7.101   8.960  80.865  1.00  0.00     0.000 C 
BRANCH  23  24
ATOM     24  C   UNL     1       5.935   8.360  81.663  1.00  0.00    -0.000 C 
BRANCH  24  25
ATOM     25  C   UNL     1       5.104   9.424  82.403  1.00  0.00    -0.000 C 
BRANCH  25  26
ATOM     26  C   UNL     1       3.636   9.010  82.640  1.00  0.00    -0.000 C 
BRANCH  26  27
ATOM     27  C   UNL     1       2.798  10.140  83.266  1.00  0.00    -0.000 C 
BRANCH  27  28
ATOM     28  C   UNL     1       1.772   9.629  84.294  1.00  0.00    -0.000 C 
BRANCH  28  29
ATOM     29  C   UNL     1       2.374   9.019  85.575  1.00  0.00    -0.000 C 
BRANCH  29  30
ATOM     30  C   UNL     1       1.448   8.055  86.343  1.00  0.00    -0.000 C 
BRANCH  30  31
ATOM     31  C   UNL     1       1.902   6.583  86.340  1.00  0.00    -0.003 C 
ATOM     32  C   UNL     1       2.945   6.285  85.264  1.00  0.00     0.004 C 
ENDBRANCH  30  31
ENDBRANCH  29  30
ENDBRANCH  28  29
ENDBRANCH  27  28
ENDBRANCH  26  27
ENDBRANCH  25  26
ENDBRANCH  24  25
ENDBRANCH  23  24
ENDBRANCH  22  23
ENDBRANCH  21  22
ENDBRANCH  20  21
ENDBRANCH  19  20
ENDBRANCH  18  19
ENDBRANCH   1  18
TORSDOF 28
ENDMDL
MODEL 7
REMARK VINA RESULT:    -3.509      1.597      2.963
REMARK INTER + INTRA:         -15.289
REMARK INTER:                 -10.364
REMARK INTRA:                  -4.924
REMARK UNBOUND:                -6.035
REMARK SMILES CCCCCCCCCCCCCCCCCCCCCCCCCCCCCC(=O)[O-]
REMARK SMILES IDX 16 1 17 2 18 3 19 4 20 5 21 6 22 7 23 8 24 9 25 10 26 11
REMARK SMILES IDX 27 12 28 13 29 14 30 15 31 16 32 17 15 18 14 19 13 20 12 21
REMARK SMILES IDX 11 22 10 23 9 24 8 25 7 26 6 27 5 28 4 29 3 30 2 31 1 32
REMARK H PARENT
REMARK Flexibility Score: inf
ROOT
ATOM      1  C   UNL     1      16.469   0.570  78.530  1.00  0.00     0.000 C 
ENDROOT
BRANCH   1   2
ATOM      2  C   UNL     1      17.845   0.279  79.144  1.00  0.00     0.000 C 
BRANCH   2   3
ATOM      3  C   UNL     1      18.171   1.256  80.280  1.00  0.00     0.000 C 
BRANCH   3   4
ATOM      4  C   UNL     1      18.070   0.555  81.642  1.00  0.00     0.000 C 
BRANCH   4   5
ATOM      5  C   UNL     1      17.150   1.291  82.628  1.00  0.00     0.000 C 
BRANCH   5   6
ATOM      6  C   UNL     1      16.017   0.398  83.160  1.00  0.00     0.000 C 
BRANCH   6   7
ATOM      7  C   UNL     1      14.643   0.992  82.818  1.00  0.00     0.000 C 
BRANCH   7   8
ATOM      8  C   UNL     1      14.155   0.605  81.413  1.00  0.00     0.000 C 
BRANCH   8   9
ATOM      9  C   UNL     1      14.167  -0.914  81.176  1.00  0.00     0.000 C 
BRANCH   9  10
ATOM     10  C   UNL     1      12.737  -1.471  81.099  1.00  0.00     0.000 C 
BRANCH  10  11
ATOM     11  C   UNL     1      12.488  -2.601  82.113  1.00  0.00     0.000 C 
BRANCH  11  12
ATOM     12  C   UNL     1      12.744  -2.185  83.582  1.00  0.00     0.000 C 
BRANCH  12  13
ATOM     13  C   UNL     1      11.794  -1.079  84.080  1.00  0.00     0.006 C 
BRANCH  13  14
ATOM     14  C   UNL     1      10.966  -1.483  85.309  1.00  0.00     0.053 C 
BRANCH  14  15
ATOM     15  C   UNL     1      10.571  -2.929  85.270  1.00  0.00     0.041 C 
ATOM     16  O   UNL     1      11.197  -3.776  85.960  1.00  0.00    -0.550 OA
ATOM     17  O   UNL     1       9.506  -3.341  84.479  1.00  0.00    -0.550 OA
ENDBRANCH  14  15
ENDBRANCH  13  14
ENDBRANCH  12  13
ENDBRANCH  11  12
ENDBRANCH  10  11
ENDBRANCH   9  10
ENDBRANCH   8   9
ENDBRANCH   7   8
ENDBRANCH   6   7
ENDBRANCH   5   6
ENDBRANCH   4   5
ENDBRANCH   3   4
ENDBRANCH   2   3
ENDBRANCH   1   2
BRANCH   1  18
ATOM     18  C   UNL     1      16.600   0.875  77.030  1.00  0.00     0.000 C 
BRANCH  18  19
ATOM     19  C   UNL     1      17.424   2.139  76.742  1.00  0.00     0.000 C 
BRANCH  19  20
ATOM     20  C   UNL     1      18.426   1.944  75.591  1.00  0.00     0.000 C 
BRANCH  20  21
ATOM     21  C   UNL     1      18.677   3.237  74.793  1.00  0.00     0.000 C 
BRANCH  21  22
ATOM     22  C   UNL     1      18.892   4.501  75.648  1.00  0.00     0.000 C 
BRANCH  22  23
ATOM     23  C   UNL     1      18.052   5.694  75.170  1.00  0.00     0.000 C 
BRANCH  23  24
ATOM     24  C   UNL     1      16.553   5.435  75.374  1.00  0.00    -0.000 C 
BRANCH  24  25
ATOM     25  C   UNL     1      16.051   5.874  76.761  1.00  0.00    -0.000 C 
BRANCH  25  26
ATOM     26  C   UNL     1      16.931   6.954  77.427  1.00  0.00    -0.000 C 
BRANCH  26  27
ATOM     27  C   UNL     1      17.376   6.560  78.847  1.00  0.00    -0.000 C 
BRANCH  27  28
ATOM     28  C   UNL     1      17.253   5.049  79.118  1.00  0.00    -0.000 C 
BRANCH  28  29
ATOM     29  C   UNL     1      16.774   4.673  80.535  1.00  0.00    -0.000 C 
BRANCH  29  30
ATOM     30  C   UNL     1      15.498   3.811  80.590  1.00  0.00    -0.000 C 
BRANCH  30  31
ATOM     31  C   UNL     1      14.860   3.511  79.220  1.00  0.00    -0.003 C 
ATOM     32  C   UNL     1      13.333   3.561  79.252  1.00  0.00     0.004 C 
ENDBRANCH  30  31
ENDBRANCH  29  30
ENDBRANCH  28  29
ENDBRANCH  27  28
ENDBRANCH  26  27
ENDBRANCH  25  26
ENDBRANCH  24  25
ENDBRANCH  23  24
ENDBRANCH  22  23
ENDBRANCH  21  22
ENDBRANCH  20  21
ENDBRANCH  19  20
ENDBRANCH  18  19
ENDBRANCH   1  18
TORSDOF 28
ENDMDL
MODEL 8
REMARK VINA RESULT:    -3.486      1.554      4.879
REMARK INTER + INTRA:         -15.227
REMARK INTER:                  -9.213
REMARK INTRA:                  -6.014
REMARK UNBOUND:                -6.035
REMARK SMILES CCCCCCCCCCCCCCCCCCCCCCCCCCCCCC(=O)[O-]
REMARK SMILES IDX 16 1 17 2 18 3 19 4 20 5 21 6 22 7 23 8 24 9 25 10 26 11
REMARK SMILES IDX 27 12 28 13 29 14 30 15 31 16 32 17 15 18 14 19 13 20 12 21
REMARK SMILES IDX 11 22 10 23 9 24 8 25 7 26 6 27 5 28 4 29 3 30 2 31 1 32
REMARK H PARENT
REMARK Flexibility Score: inf
ROOT
ATOM      1  C   UNL     1      16.956  -1.561  83.513  1.00  0.00     0.000 C 
ENDROOT
BRANCH   1   2
ATOM      2  C   UNL     1      17.260  -0.438  82.515  1.00  0.00     0.000 C 
BRANCH   2   3
ATOM      3  C   UNL     1      16.762   0.920  83.027  1.00  0.00     0.000 C 
BRANCH   3   4
ATOM      4  C   UNL     1      17.742   2.037  82.640  1.00  0.00     0.000 C 
BRANCH   4   5
ATOM      5  C   UNL     1      18.329   1.857  81.231  1.00  0.00     0.000 C 
BRANCH   5   6
ATOM      6  C   UNL     1      18.088   3.079  80.329  1.00  0.00     0.000 C 
BRANCH   6   7
ATOM      7  C   UNL     1      17.281   4.155  81.068  1.00  0.00     0.000 C 
BRANCH   7   8
ATOM      8  C   UNL     1      15.843   4.293  80.543  1.00  0.00     0.000 C 
BRANCH   8   9
ATOM      9  C   UNL     1      15.505   3.262  79.455  1.00  0.00     0.000 C 
BRANCH   9  10
ATOM     10  C   UNL     1      13.987   3.180  79.224  1.00  0.00     0.000 C 
BRANCH  10  11
ATOM     11  C   UNL     1      13.416   1.786  79.539  1.00  0.00     0.000 C 
BRANCH  11  12
ATOM     12  C   UNL     1      14.150   1.061  80.692  1.00  0.00     0.000 C 
BRANCH  12  13
ATOM     13  C   UNL     1      13.686  -0.394  80.894  1.00  0.00     0.006 C 
BRANCH  13  14
ATOM     14  C   UNL     1      13.288  -0.722  82.342  1.00  0.00     0.053 C 
BRANCH  14  15
ATOM     15  C   UNL     1      12.280  -1.829  82.410  1.00  0.00     0.041 C 
ATOM     16  O   UNL     1      12.545  -2.891  83.033  1.00  0.00    -0.550 OA
ATOM     17  O   UNL     1      11.043  -1.686  81.793  1.00  0.00    -0.550 OA
ENDBRANCH  14  15
ENDBRANCH  13  14
ENDBRANCH  12  13
ENDBRANCH  11  12
ENDBRANCH  10  11
ENDBRANCH   9  10
ENDBRANCH   8   9
ENDBRANCH   7   8
ENDBRANCH   6   7
ENDBRANCH   5   6
ENDBRANCH   4   5
ENDBRANCH   3   4
ENDBRANCH   2   3
ENDBRANCH   1   2
BRANCH   1  18
ATOM     18  C   UNL     1      17.108  -2.935  82.844  1.00  0.00     0.000 C 
BRANCH  18  19
ATOM     19  C   UNL     1      15.941  -3.280  81.906  1.00  0.00     0.000 C 
BRANCH  19  20
ATOM     20  C   UNL     1      16.411  -3.647  80.487  1.00  0.00     0.000 C 
BRANCH  20  21
ATOM     21  C   UNL     1      16.443  -2.435  79.537  1.00  0.00     0.000 C 
BRANCH  21  22
ATOM     22  C   UNL     1      17.820  -2.128  78.917  1.00  0.00     0.000 C 
BRANCH  22  23
ATOM     23  C   UNL     1      17.979  -0.655  78.517  1.00  0.00     0.000 C 
BRANCH  23  24
ATOM     24  C   UNL     1      16.616  -0.001  78.252  1.00  0.00    -0.000 C 
BRANCH  24  25
ATOM     25  C   UNL     1      16.576   0.793  76.935  1.00  0.00    -0.000 C 
BRANCH  25  26
ATOM     26  C   UNL     1      17.888   0.716  76.124  1.00  0.00    -0.000 C 
BRANCH  26  27
ATOM     27  C   UNL     1      18.437   2.107  75.757  1.00  0.00    -0.000 C 
BRANCH  27  28
ATOM     28  C   UNL     1      17.912   3.224  76.678  1.00  0.00    -0.000 C 
BRANCH  28  29
ATOM     29  C   UNL     1      17.503   4.527  75.963  1.00  0.00    -0.000 C 
BRANCH  29  30
ATOM     30  C   UNL     1      16.130   5.097  76.370  1.00  0.00    -0.000 C 
BRANCH  30  31
ATOM     31  C   UNL     1      16.189   6.346  77.269  1.00  0.00    -0.003 C 
ATOM     32  C   UNL     1      17.534   6.505  77.978  1.00  0.00     0.004 C 
ENDBRANCH  30  31
ENDBRANCH  29  30
ENDBRANCH  28  29
ENDBRANCH  27  28
ENDBRANCH  26  27
ENDBRANCH  25  26
ENDBRANCH  24  25
ENDBRANCH  23  24
ENDBRANCH  22  23
ENDBRANCH  21  22
ENDBRANCH  20  21
ENDBRANCH  19  20
ENDBRANCH  18  19
ENDBRANCH   1  18
TORSDOF 28
ENDMDL
MODEL 9
REMARK VINA RESULT:    -3.458      1.622      3.704
REMARK INTER + INTRA:         -15.153
REMARK INTER:                  -8.969
REMARK INTRA:                  -6.184
REMARK UNBOUND:                -6.035
REMARK SMILES CCCCCCCCCCCCCCCCCCCCCCCCCCCCCC(=O)[O-]
REMARK SMILES IDX 16 1 17 2 18 3 19 4 20 5 21 6 22 7 23 8 24 9 25 10 26 11
REMARK SMILES IDX 27 12 28 13 29 14 30 15 31 16 32 17 15 18 14 19 13 20 12 21
REMARK SMILES IDX 11 22 10 23 9 24 8 25 7 26 6 27 5 28 4 29 3 30 2 31 1 32
REMARK H PARENT
REMARK Flexibility Score: inf
ROOT
ATOM      1  C   UNL     1      14.283   1.559  82.452  1.00  0.00     0.000 C 
ENDROOT
BRANCH   1   2
ATOM      2  C   UNL     1      14.496   0.040  82.453  1.00  0.00     0.000 C 
BRANCH   2   3
ATOM      3  C   UNL     1      14.020  -0.596  81.141  1.00  0.00     0.000 C 
BRANCH   3   4
ATOM      4  C   UNL     1      14.941  -1.755  80.735  1.00  0.00     0.000 C 
BRANCH   4   5
ATOM      5  C   UNL     1      16.208  -1.285  80.004  1.00  0.00     0.000 C 
BRANCH   5   6
ATOM      6  C   UNL     1      17.486  -1.516  80.828  1.00  0.00     0.000 C 
BRANCH   6   7
ATOM      7  C   UNL     1      17.665  -3.005  81.157  1.00  0.00     0.000 C 
BRANCH   7   8
ATOM      8  C   UNL     1      17.815  -3.273  82.663  1.00  0.00     0.000 C 
BRANCH   8   9
ATOM      9  C   UNL     1      17.385  -2.077  83.526  1.00  0.00     0.000 C 
BRANCH   9  10
ATOM     10  C   UNL     1      16.277  -2.479  84.514  1.00  0.00     0.000 C 
BRANCH  10  11
ATOM     11  C   UNL     1      15.209  -3.379  83.868  1.00  0.00     0.000 C 
BRANCH  11  12
ATOM     12  C   UNL     1      14.226  -4.005  84.886  1.00  0.00     0.000 C 
BRANCH  12  13
ATOM     13  C   UNL     1      12.768  -4.033  84.391  1.00  0.00     0.006 C 
BRANCH  13  14
ATOM     14  C   UNL     1      12.342  -2.758  83.646  1.00  0.00     0.053 C 
BRANCH  14  15
ATOM     15  C   UNL     1      11.555  -1.832  84.524  1.00  0.00     0.041 C 
ATOM     16  O   UNL     1      11.800  -0.596  84.522  1.00  0.00    -0.550 OA
ATOM     17  O   UNL     1      10.545  -2.329  85.337  1.00  0.00    -0.550 OA
ENDBRANCH  14  15
ENDBRANCH  13  14
ENDBRANCH  12  13
ENDBRANCH  11  12
ENDBRANCH  10  11
ENDBRANCH   9  10
ENDBRANCH   8   9
ENDBRANCH   7   8
ENDBRANCH   6   7
ENDBRANCH   5   6
ENDBRANCH   4   5
ENDBRANCH   3   4
ENDBRANCH   2   3
ENDBRANCH   1   2
BRANCH   1  18
ATOM     18  C   UNL     1      15.607   2.291  82.188  1.00  0.00     0.000 C 
BRANCH  18  19
ATOM     19  C   UNL     1      16.823   1.570  82.790  1.00  0.00     0.000 C 
BRANCH  19  20
ATOM     20  C   UNL     1      18.125   1.868  82.026  1.00  0.00     0.000 C 
BRANCH  20  21
ATOM     21  C   UNL     1      17.958   2.982  80.975  1.00  0.00     0.000 C 
BRANCH  21  22
ATOM     22  C   UNL     1      18.595   2.686  79.603  1.00  0.00     0.000 C 
BRANCH  22  23
ATOM     23  C   UNL     1      17.869   1.572  78.837  1.00  0.00     0.000 C 
BRANCH  23  24
ATOM     24  C   UNL     1      17.446   2.044  77.439  1.00  0.00    -0.000 C 
BRANCH  24  25
ATOM     25  C   UNL     1      15.921   2.021  77.234  1.00  0.00    -0.000 C 
BRANCH  25  26
ATOM     26  C   UNL     1      15.117   2.009  78.551  1.00  0.00    -0.000 C 
BRANCH  26  27
ATOM     27  C   UNL     1      14.186   3.228  78.686  1.00  0.00    -0.000 C 
BRANCH  27  28
ATOM     28  C   UNL     1      14.766   4.329  79.593  1.00  0.00    -0.000 C 
BRANCH  28  29
ATOM     29  C   UNL     1      15.245   5.598  78.860  1.00  0.00    -0.000 C 
BRANCH  29  30
ATOM     30  C   UNL     1      16.701   5.557  78.356  1.00  0.00    -0.000 C 
BRANCH  30  31
ATOM     31  C   UNL     1      16.914   6.135  76.945  1.00  0.00    -0.003 C 
ATOM     32  C   UNL     1      16.031   5.469  75.891  1.00  0.00     0.004 C 
ENDBRANCH  30  31
ENDBRANCH  29  30
ENDBRANCH  28  29
ENDBRANCH  27  28
ENDBRANCH  26  27
ENDBRANCH  25  26
ENDBRANCH  24  25
ENDBRANCH  23  24
ENDBRANCH  22  23
ENDBRANCH  21  22
ENDBRANCH  20  21
ENDBRANCH  19  20
ENDBRANCH  18  19
ENDBRANCH   1  18
TORSDOF 28
ENDMDL
