MODEL 1
REMARK VINA RESULT:    -6.181      0.000      0.000
REMARK INTER + INTRA:         -19.328
REMARK INTER:                 -15.576
REMARK INTRA:                  -3.752
REMARK UNBOUND:                -3.752
REMARK SMILES CCCCCCCCCCCCCCCCCCCCCCCCCCCC(=O)[O-]
REMARK SMILES IDX 15 1 16 2 17 3 18 4 19 5 20 6 21 7 22 8 23 9 24 10 25 11
REMARK SMILES IDX 26 12 27 13 28 14 29 15 30 16 14 17 13 18 12 19 11 20 10 21
REMARK SMILES IDX 9 22 8 23 7 24 6 25 5 26 4 27 3 28 2 29 1 30
REMARK H PARENT
REMARK Flexibility Score: inf
ROOT
ATOM      1  C   UNL     1      11.132 -33.491  21.333  1.00  0.00     0.000 C 
ENDROOT
BRANCH   1   2
ATOM      2  C   UNL     1      12.253 -32.450  21.190  1.00  0.00     0.000 C 
BRANCH   2   3
ATOM      3  C   UNL     1      13.095 -32.292  22.470  1.00  0.00     0.000 C 
BRANCH   3   4
ATOM      4  C   UNL     1      14.006 -33.489  22.806  1.00  0.00     0.000 C 
BRANCH   4   5
ATOM      5  C   UNL     1      14.346 -33.578  24.303  1.00  0.00     0.000 C 
BRANCH   5   6
ATOM      6  C   UNL     1      13.649 -34.755  25.009  1.00  0.00     0.000 C 
BRANCH   6   7
ATOM      7  C   UNL     1      12.349 -35.253  24.343  1.00  0.00     0.000 C 
BRANCH   7   8
ATOM      8  C   UNL     1      11.083 -35.143  25.212  1.00  0.00     0.000 C 
BRANCH   8   9
ATOM      9  C   UNL     1      10.959 -33.786  25.920  1.00  0.00     0.000 C 
BRANCH   9  10
ATOM     10  C   UNL     1      10.217 -32.771  25.036  1.00  0.00     0.000 C 
BRANCH  10  11
ATOM     11  C   UNL     1      10.481 -31.314  25.449  1.00  0.00     0.000 C 
BRANCH  11  12
ATOM     12  C   UNL     1      11.538 -30.628  24.571  1.00  0.00     0.006 C 
BRANCH  12  13
ATOM     13  C   UNL     1      12.832 -30.384  25.358  1.00  0.00     0.053 C 
BRANCH  13  14
ATOM     14  C   UNL     1      13.491 -29.113  24.920  1.00  0.00     0.041 C 
ATOM     15  O   UNL     1      13.914 -28.290  25.776  1.00  0.00    -0.550 OA
ATOM     16  O   UNL     1      13.653 -28.842  23.567  1.00  0.00    -0.550 OA
ENDBRANCH  13  14
ENDBRANCH  12  13
ENDBRANCH  11  12
ENDBRANCH  10  11
ENDBRANCH   9  10
ENDBRANCH   8   9
ENDBRANCH   7   8
ENDBRANCH   6   7
ENDBRANCH   5   6
ENDBRANCH   4   5
ENDBRANCH   3   4
ENDBRANCH   2   3
ENDBRANCH   1   2
BRANCH   1  17
ATOM     17  C   UNL     1       9.754 -32.813  21.325  1.00  0.00     0.000 C 
BRANCH  17  18
ATOM     18  C   UNL     1       9.843 -31.286  21.168  1.00  0.00     0.000 C 
BRANCH  18  19
ATOM     19  C   UNL     1       8.671 -30.555  21.841  1.00  0.00     0.000 C 
BRANCH  19  20
ATOM     20  C   UNL     1       7.371 -31.361  21.708  1.00  0.00     0.000 C 
BRANCH  20  21
ATOM     21  C   UNL     1       6.515 -31.337  22.989  1.00  0.00     0.000 C 
BRANCH  21  22
ATOM     22  C   UNL     1       7.141 -30.585  24.177  1.00  0.00    -0.000 C 
BRANCH  22  23
ATOM     23  C   UNL     1       6.374 -30.706  25.508  1.00  0.00    -0.000 C 
BRANCH  23  24
ATOM     24  C   UNL     1       5.888 -29.355  26.075  1.00  0.00    -0.000 C 
BRANCH  24  25
ATOM     25  C   UNL     1       4.356 -29.218  26.050  1.00  0.00    -0.000 C 
BRANCH  25  26
ATOM     26  C   UNL     1       3.776 -29.323  24.630  1.00  0.00    -0.000 C 
BRANCH  26  27
ATOM     27  C   UNL     1       2.258 -29.065  24.589  1.00  0.00    -0.000 C 
BRANCH  27  28
ATOM     28  C   UNL     1       1.776 -28.619  23.199  1.00  0.00    -0.000 C 
BRANCH  28  29
ATOM     29  C   UNL     1       0.427 -29.244  22.813  1.00  0.00    -0.003 C 
ATOM     30  C   UNL     1       0.319 -30.676  23.331  1.00  0.00     0.004 C 
ENDBRANCH  28  29
ENDBRANCH  27  28
ENDBRANCH  26  27
ENDBRANCH  25  26
ENDBRANCH  24  25
ENDBRANCH  23  24
ENDBRANCH  22  23
ENDBRANCH  21  22
ENDBRANCH  20  21
ENDBRANCH  19  20
ENDBRANCH  18  19
ENDBRANCH  17  18
ENDBRANCH   1  17
TORSDOF 26
ENDMDL
MODEL 2
REMARK VINA RESULT:    -5.702      3.704      8.811
REMARK INTER + INTRA:         -18.120
REMARK INTER:                 -15.066
REMARK INTRA:                  -3.054
REMARK UNBOUND:                -3.752
REMARK SMILES CCCCCCCCCCCCCCCCCCCCCCCCCCCC(=O)[O-]
REMARK SMILES IDX 15 1 16 2 17 3 18 4 19 5 20 6 21 7 22 8 23 9 24 10 25 11
REMARK SMILES IDX 26 12 27 13 28 14 29 15 30 16 14 17 13 18 12 19 11 20 10 21
REMARK SMILES IDX 9 22 8 23 7 24 6 25 5 26 4 27 3 28 2 29 1 30
REMARK H PARENT
REMARK Flexibility Score: inf
ROOT
ATOM      1  C   UNL     1       8.428 -32.620  20.838  1.00  0.00     0.000 C 
ENDROOT
BRANCH   1   2
ATOM      2  C   UNL     1       7.630 -31.743  21.816  1.00  0.00     0.000 C 
BRANCH   2   3
ATOM      3  C   UNL     1       7.877 -30.237  21.613  1.00  0.00     0.000 C 
BRANCH   3   4
ATOM      4  C   UNL     1       7.924 -29.401  22.906  1.00  0.00     0.000 C 
BRANCH   4   5
ATOM      5  C   UNL     1       8.984 -29.898  23.903  1.00  0.00     0.000 C 
BRANCH   5   6
ATOM      6  C   UNL     1       8.464 -29.969  25.349  1.00  0.00     0.000 C 
BRANCH   6   7
ATOM      7  C   UNL     1       7.155 -30.763  25.547  1.00  0.00     0.000 C 
BRANCH   7   8
ATOM      8  C   UNL     1       5.932 -29.921  25.953  1.00  0.00     0.000 C 
BRANCH   8   9
ATOM      9  C   UNL     1       5.033 -29.558  24.762  1.00  0.00     0.000 C 
BRANCH   9  10
ATOM     10  C   UNL     1       3.724 -28.910  25.240  1.00  0.00     0.000 C 
BRANCH  10  11
ATOM     11  C   UNL     1       2.485 -29.455  24.510  1.00  0.00     0.000 C 
BRANCH  11  12
ATOM     12  C   UNL     1       1.226 -29.451  25.388  1.00  0.00     0.006 C 
BRANCH  12  13
ATOM     13  C   UNL     1       0.022 -30.017  24.627  1.00  0.00     0.053 C 
BRANCH  13  14
ATOM     14  C   UNL     1       0.322 -30.136  23.165  1.00  0.00     0.041 C 
ATOM     15  O   UNL     1       0.423 -29.102  22.452  1.00  0.00    -0.550 OA
ATOM     16  O   UNL     1       0.503 -31.387  22.591  1.00  0.00    -0.550 OA
ENDBRANCH  13  14
ENDBRANCH  12  13
ENDBRANCH  11  12
ENDBRANCH  10  11
ENDBRANCH   9  10
ENDBRANCH   8   9
ENDBRANCH   7   8
ENDBRANCH   6   7
ENDBRANCH   5   6
ENDBRANCH   4   5
ENDBRANCH   3   4
ENDBRANCH   2   3
ENDBRANCH   1   2
BRANCH   1  17
ATOM     17  C   UNL     1       9.799 -32.985  21.428  1.00  0.00     0.000 C 
BRANCH  17  18
ATOM     18  C   UNL     1      10.959 -32.251  20.737  1.00  0.00     0.000 C 
BRANCH  18  19
ATOM     19  C   UNL     1      11.836 -31.469  21.728  1.00  0.00     0.000 C 
BRANCH  19  20
ATOM     20  C   UNL     1      11.482 -29.974  21.714  1.00  0.00     0.000 C 
BRANCH  20  21
ATOM     21  C   UNL     1      12.536 -29.101  22.421  1.00  0.00     0.000 C 
BRANCH  21  22
ATOM     22  C   UNL     1      13.296 -29.795  23.565  1.00  0.00    -0.000 C 
BRANCH  22  23
ATOM     23  C   UNL     1      12.739 -29.533  24.977  1.00  0.00    -0.000 C 
BRANCH  23  24
ATOM     24  C   UNL     1      13.120 -30.614  26.011  1.00  0.00    -0.000 C 
BRANCH  24  25
ATOM     25  C   UNL     1      12.900 -32.042  25.484  1.00  0.00    -0.000 C 
BRANCH  25  26
ATOM     26  C   UNL     1      11.416 -32.357  25.230  1.00  0.00    -0.000 C 
BRANCH  26  27
ATOM     27  C   UNL     1      11.139 -33.869  25.134  1.00  0.00    -0.000 C 
BRANCH  27  28
ATOM     28  C   UNL     1      11.927 -34.539  23.997  1.00  0.00    -0.000 C 
BRANCH  28  29
ATOM     29  C   UNL     1      12.882 -35.630  24.504  1.00  0.00    -0.003 C 
ATOM     30  C   UNL     1      14.230 -35.037  24.904  1.00  0.00     0.004 C 
ENDBRANCH  28  29
ENDBRANCH  27  28
ENDBRANCH  26  27
ENDBRANCH  25  26
ENDBRANCH  24  25
ENDBRANCH  23  24
ENDBRANCH  22  23
ENDBRANCH  21  22
ENDBRANCH  20  21
ENDBRANCH  19  20
ENDBRANCH  18  19
ENDBRANCH  17  18
ENDBRANCH   1  17
TORSDOF 26
ENDMDL
MODEL 3
REMARK VINA RESULT:    -5.673      1.765      3.061
REMARK INTER + INTRA:         -18.048
REMARK INTER:                 -14.184
REMARK INTRA:                  -3.865
REMARK UNBOUND:                -3.752
REMARK SMILES CCCCCCCCCCCCCCCCCCCCCCCCCCCC(=O)[O-]
REMARK SMILES IDX 15 1 16 2 17 3 18 4 19 5 20 6 21 7 22 8 23 9 24 10 25 11
REMARK SMILES IDX 26 12 27 13 28 14 29 15 30 16 14 17 13 18 12 19 11 20 10 21
REMARK SMILES IDX 9 22 8 23 7 24 6 25 5 26 4 27 3 28 2 29 1 30
REMARK H PARENT
REMARK Flexibility Score: inf
ROOT
ATOM      1  C   UNL     1      10.039 -32.074  20.520  1.00  0.00     0.000 C 
ENDROOT
BRANCH   1   2
ATOM      2  C   UNL     1      10.934 -31.580  21.667  1.00  0.00     0.000 C 
BRANCH   2   3
ATOM      3  C   UNL     1      11.448 -30.144  21.455  1.00  0.00     0.000 C 
BRANCH   3   4
ATOM      4  C   UNL     1      11.861 -29.399  22.739  1.00  0.00     0.000 C 
BRANCH   4   5
ATOM      5  C   UNL     1      12.950 -30.137  23.534  1.00  0.00     0.000 C 
BRANCH   5   6
ATOM      6  C   UNL     1      12.455 -30.653  24.897  1.00  0.00     0.000 C 
BRANCH   6   7
ATOM      7  C   UNL     1      10.933 -30.550  25.133  1.00  0.00     0.000 C 
BRANCH   7   8
ATOM      8  C   UNL     1      10.266 -31.824  25.683  1.00  0.00     0.000 C 
BRANCH   8   9
ATOM      9  C   UNL     1      10.604 -33.078  24.861  1.00  0.00     0.000 C 
BRANCH   9  10
ATOM     10  C   UNL     1      11.378 -34.098  25.710  1.00  0.00     0.000 C 
BRANCH  10  11
ATOM     11  C   UNL     1      12.454 -34.849  24.909  1.00  0.00     0.000 C 
BRANCH  11  12
ATOM     12  C   UNL     1      12.774 -34.177  23.565  1.00  0.00     0.006 C 
BRANCH  12  13
ATOM     13  C   UNL     1      14.148 -33.497  23.603  1.00  0.00     0.053 C 
BRANCH  13  14
ATOM     14  C   UNL     1      14.536 -33.001  22.245  1.00  0.00     0.041 C 
ATOM     15  O   UNL     1      13.710 -33.045  21.294  1.00  0.00    -0.550 OA
ATOM     16  O   UNL     1      15.805 -32.478  22.031  1.00  0.00    -0.550 OA
ENDBRANCH  13  14
ENDBRANCH  12  13
ENDBRANCH  11  12
ENDBRANCH  10  11
ENDBRANCH   9  10
ENDBRANCH   8   9
ENDBRANCH   7   8
ENDBRANCH   6   7
ENDBRANCH   5   6
ENDBRANCH   4   5
ENDBRANCH   3   4
ENDBRANCH   2   3
ENDBRANCH   1   2
BRANCH   1  17
ATOM     17  C   UNL     1       8.736 -32.677  21.066  1.00  0.00     0.000 C 
BRANCH  17  18
ATOM     18  C   UNL     1       7.894 -31.660  21.854  1.00  0.00     0.000 C 
BRANCH  18  19
ATOM     19  C   UNL     1       7.756 -30.316  21.122  1.00  0.00     0.000 C 
BRANCH  19  20
ATOM     20  C   UNL     1       7.887 -29.141  22.102  1.00  0.00     0.000 C 
BRANCH  20  21
ATOM     21  C   UNL     1       8.224 -29.590  23.537  1.00  0.00     0.000 C 
BRANCH  21  22
ATOM     22  C   UNL     1       7.665 -28.687  24.651  1.00  0.00    -0.000 C 
BRANCH  22  23
ATOM     23  C   UNL     1       7.460 -29.376  26.013  1.00  0.00    -0.000 C 
BRANCH  23  24
ATOM     24  C   UNL     1       6.134 -30.159  26.125  1.00  0.00    -0.000 C 
BRANCH  24  25
ATOM     25  C   UNL     1       5.073 -29.674  25.122  1.00  0.00    -0.000 C 
BRANCH  25  26
ATOM     26  C   UNL     1       3.986 -28.810  25.782  1.00  0.00    -0.000 C 
BRANCH  26  27
ATOM     27  C   UNL     1       2.584 -29.077  25.203  1.00  0.00    -0.000 C 
BRANCH  27  28
ATOM     28  C   UNL     1       2.592 -29.177  23.669  1.00  0.00    -0.000 C 
BRANCH  28  29
ATOM     29  C   UNL     1       1.212 -28.905  23.052  1.00  0.00    -0.003 C 
ATOM     30  C   UNL     1       0.193 -28.539  24.128  1.00  0.00     0.004 C 
ENDBRANCH  28  29
ENDBRANCH  27  28
ENDBRANCH  26  27
ENDBRANCH  25  26
ENDBRANCH  24  25
ENDBRANCH  23  24
ENDBRANCH  22  23
ENDBRANCH  21  22
ENDBRANCH  20  21
ENDBRANCH  19  20
ENDBRANCH  18  19
ENDBRANCH  17  18
ENDBRANCH   1  17
TORSDOF 26
ENDMDL
MODEL 4
REMARK VINA RESULT:    -5.656      3.754      9.155
REMARK INTER + INTRA:         -18.004
REMARK INTER:                 -14.918
REMARK INTRA:                  -3.086
REMARK UNBOUND:                -3.752
REMARK SMILES CCCCCCCCCCCCCCCCCCCCCCCCCCCC(=O)[O-]
REMARK SMILES IDX 15 1 16 2 17 3 18 4 19 5 20 6 21 7 22 8 23 9 24 10 25 11
REMARK SMILES IDX 26 12 27 13 28 14 29 15 30 16 14 17 13 18 12 19 11 20 10 21
REMARK SMILES IDX 9 22 8 23 7 24 6 25 5 26 4 27 3 28 2 29 1 30
REMARK H PARENT
REMARK Flexibility Score: inf
ROOT
ATOM      1  C   UNL     1      11.369 -29.275  21.850  1.00  0.00     0.000 C 
ENDROOT
BRANCH   1   2
ATOM      2  C   UNL     1       9.965 -29.739  22.268  1.00  0.00     0.000 C 
BRANCH   2   3
ATOM      3  C   UNL     1       9.072 -30.111  21.071  1.00  0.00     0.000 C 
BRANCH   3   4
ATOM      4  C   UNL     1       9.091 -31.600  20.676  1.00  0.00     0.000 C 
BRANCH   4   5
ATOM      5  C   UNL     1       8.087 -32.445  21.478  1.00  0.00     0.000 C 
BRANCH   5   6
ATOM      6  C   UNL     1       6.864 -31.638  21.949  1.00  0.00     0.000 C 
BRANCH   6   7
ATOM      7  C   UNL     1       6.788 -31.372  23.468  1.00  0.00     0.000 C 
BRANCH   7   8
ATOM      8  C   UNL     1       6.375 -29.944  23.865  1.00  0.00     0.000 C 
BRANCH   8   9
ATOM      9  C   UNL     1       5.921 -29.837  25.328  1.00  0.00     0.000 C 
BRANCH   9  10
ATOM     10  C   UNL     1       4.566 -29.121  25.432  1.00  0.00     0.000 C 
BRANCH  10  11
ATOM     11  C   UNL     1       3.641 -29.416  24.239  1.00  0.00     0.000 C 
BRANCH  11  12
ATOM     12  C   UNL     1       2.303 -28.666  24.323  1.00  0.00     0.006 C 
BRANCH  12  13
ATOM     13  C   UNL     1       1.134 -29.644  24.491  1.00  0.00     0.053 C 
BRANCH  13  14
ATOM     14  C   UNL     1       0.506 -29.959  23.169  1.00  0.00     0.041 C 
ATOM     15  O   UNL     1       0.020 -29.036  22.461  1.00  0.00    -0.550 OA
ATOM     16  O   UNL     1       0.469 -31.270  22.711  1.00  0.00    -0.550 OA
ENDBRANCH  13  14
ENDBRANCH  12  13
ENDBRANCH  11  12
ENDBRANCH  10  11
ENDBRANCH   9  10
ENDBRANCH   8   9
ENDBRANCH   7   8
ENDBRANCH   6   7
ENDBRANCH   5   6
ENDBRANCH   4   5
ENDBRANCH   3   4
ENDBRANCH   2   3
ENDBRANCH   1   2
BRANCH   1  17
ATOM     17  C   UNL     1      12.450 -30.053  22.615  1.00  0.00     0.000 C 
BRANCH  17  18
ATOM     18  C   UNL     1      13.286 -29.156  23.542  1.00  0.00     0.000 C 
BRANCH  18  19
ATOM     19  C   UNL     1      13.077 -29.487  25.029  1.00  0.00     0.000 C 
BRANCH  19  20
ATOM     20  C   UNL     1      12.532 -30.912  25.203  1.00  0.00     0.000 C 
BRANCH  20  21
ATOM     21  C   UNL     1      10.995 -30.958  25.311  1.00  0.00     0.000 C 
BRANCH  21  22
ATOM     22  C   UNL     1      10.362 -32.330  25.020  1.00  0.00    -0.000 C 
BRANCH  22  23
ATOM     23  C   UNL     1      11.241 -33.546  25.369  1.00  0.00    -0.000 C 
BRANCH  23  24
ATOM     24  C   UNL     1      11.846 -34.255  24.137  1.00  0.00    -0.000 C 
BRANCH  24  25
ATOM     25  C   UNL     1      11.411 -33.609  22.810  1.00  0.00    -0.000 C 
BRANCH  25  26
ATOM     26  C   UNL     1      12.593 -33.013  22.028  1.00  0.00    -0.000 C 
BRANCH  26  27
ATOM     27  C   UNL     1      13.957 -33.388  22.638  1.00  0.00    -0.000 C 
BRANCH  27  28
ATOM     28  C   UNL     1      15.132 -32.727  21.900  1.00  0.00    -0.000 C 
BRANCH  28  29
ATOM     29  C   UNL     1      15.149 -33.058  20.400  1.00  0.00    -0.003 C 
ATOM     30  C   UNL     1      16.362 -33.913  20.041  1.00  0.00     0.004 C 
ENDBRANCH  28  29
ENDBRANCH  27  28
ENDBRANCH  26  27
ENDBRANCH  25  26
ENDBRANCH  24  25
ENDBRANCH  23  24
ENDBRANCH  22  23
ENDBRANCH  21  22
ENDBRANCH  20  21
ENDBRANCH  19  20
ENDBRANCH  18  19
ENDBRANCH  17  18
ENDBRANCH   1  17
TORSDOF 26
ENDMDL
MODEL 5
REMARK VINA RESULT:    -5.303      3.701      8.648
REMARK INTER + INTRA:         -17.116
REMARK INTER:                 -14.044
REMARK INTRA:                  -3.072
REMARK UNBOUND:                -3.752
REMARK SMILES CCCCCCCCCCCCCCCCCCCCCCCCCCCC(=O)[O-]
REMARK SMILES IDX 15 1 16 2 17 3 18 4 19 5 20 6 21 7 22 8 23 9 24 10 25 11
REMARK SMILES IDX 26 12 27 13 28 14 29 15 30 16 14 17 13 18 12 19 11 20 10 21
REMARK SMILES IDX 9 22 8 23 7 24 6 25 5 26 4 27 3 28 2 29 1 30
REMARK H PARENT
REMARK Flexibility Score: inf
ROOT
ATOM      1  C   UNL     1      12.454 -32.397  21.204  1.00  0.00     0.000 C 
ENDROOT
BRANCH   1   2
ATOM      2  C   UNL     1      11.006 -32.698  21.621  1.00  0.00     0.000 C 
BRANCH   2   3
ATOM      3  C   UNL     1      10.035 -31.547  21.302  1.00  0.00     0.000 C 
BRANCH   3   4
ATOM      4  C   UNL     1       8.626 -31.691  21.908  1.00  0.00     0.000 C 
BRANCH   4   5
ATOM      5  C   UNL     1       7.755 -30.441  21.700  1.00  0.00     0.000 C 
BRANCH   5   6
ATOM      6  C   UNL     1       7.593 -29.600  22.979  1.00  0.00     0.000 C 
BRANCH   6   7
ATOM      7  C   UNL     1       6.693 -30.218  24.070  1.00  0.00     0.000 C 
BRANCH   7   8
ATOM      8  C   UNL     1       6.441 -29.323  25.297  1.00  0.00     0.000 C 
BRANCH   8   9
ATOM      9  C   UNL     1       5.129 -29.658  26.022  1.00  0.00     0.000 C 
BRANCH   9  10
ATOM     10  C   UNL     1       4.108 -28.521  25.861  1.00  0.00     0.000 C 
BRANCH  10  11
ATOM     11  C   UNL     1       2.748 -29.009  25.333  1.00  0.00     0.000 C 
BRANCH  11  12
ATOM     12  C   UNL     1       2.772 -29.326  23.830  1.00  0.00     0.006 C 
BRANCH  12  13
ATOM     13  C   UNL     1       1.389 -29.120  23.203  1.00  0.00     0.053 C 
BRANCH  13  14
ATOM     14  C   UNL     1       0.425 -30.161  23.679  1.00  0.00     0.041 C 
ATOM     15  O   UNL     1      -0.007 -31.038  22.884  1.00  0.00    -0.550 OA
ATOM     16  O   UNL     1       0.011 -30.172  25.005  1.00  0.00    -0.550 OA
ENDBRANCH  13  14
ENDBRANCH  12  13
ENDBRANCH  11  12
ENDBRANCH  10  11
ENDBRANCH   9  10
ENDBRANCH   8   9
ENDBRANCH   7   8
ENDBRANCH   6   7
ENDBRANCH   5   6
ENDBRANCH   4   5
ENDBRANCH   3   4
ENDBRANCH   2   3
ENDBRANCH   1   2
BRANCH   1  17
ATOM     17  C   UNL     1      13.408 -33.482  21.725  1.00  0.00     0.000 C 
BRANCH  17  18
ATOM     18  C   UNL     1      14.212 -33.027  22.954  1.00  0.00     0.000 C 
BRANCH  18  19
ATOM     19  C   UNL     1      13.667 -33.613  24.266  1.00  0.00     0.000 C 
BRANCH  19  20
ATOM     20  C   UNL     1      13.410 -35.121  24.130  1.00  0.00     0.000 C 
BRANCH  20  21
ATOM     21  C   UNL     1      11.977 -35.524  24.526  1.00  0.00     0.000 C 
BRANCH  21  22
ATOM     22  C   UNL     1      11.317 -34.626  25.587  1.00  0.00    -0.000 C 
BRANCH  22  23
ATOM     23  C   UNL     1      10.160 -33.747  25.075  1.00  0.00    -0.000 C 
BRANCH  23  24
ATOM     24  C   UNL     1       9.740 -32.632  26.056  1.00  0.00    -0.000 C 
BRANCH  24  25
ATOM     25  C   UNL     1      10.091 -31.225  25.541  1.00  0.00    -0.000 C 
BRANCH  25  26
ATOM     26  C   UNL     1      11.294 -31.230  24.583  1.00  0.00    -0.000 C 
BRANCH  26  27
ATOM     27  C   UNL     1      12.388 -30.230  25.001  1.00  0.00    -0.000 C 
BRANCH  27  28
ATOM     28  C   UNL     1      13.248 -29.770  23.813  1.00  0.00    -0.000 C 
BRANCH  28  29
ATOM     29  C   UNL     1      13.861 -28.379  24.030  1.00  0.00    -0.003 C 
ATOM     30  C   UNL     1      14.226 -28.163  25.497  1.00  0.00     0.004 C 
ENDBRANCH  28  29
ENDBRANCH  27  28
ENDBRANCH  26  27
ENDBRANCH  25  26
ENDBRANCH  24  25
ENDBRANCH  23  24
ENDBRANCH  22  23
ENDBRANCH  21  22
ENDBRANCH  20  21
ENDBRANCH  19  20
ENDBRANCH  18  19
ENDBRANCH  17  18
ENDBRANCH   1  17
TORSDOF 26
ENDMDL
MODEL 6
REMARK VINA RESULT:    -5.294      2.019      3.433
REMARK INTER + INTRA:         -17.092
REMARK INTER:                 -14.005
REMARK INTRA:                  -3.087
REMARK UNBOUND:                -3.752
REMARK SMILES CCCCCCCCCCCCCCCCCCCCCCCCCCCC(=O)[O-]
REMARK SMILES IDX 15 1 16 2 17 3 18 4 19 5 20 6 21 7 22 8 23 9 24 10 25 11
REMARK SMILES IDX 26 12 27 13 28 14 29 15 30 16 14 17 13 18 12 19 11 20 10 21
REMARK SMILES IDX 9 22 8 23 7 24 6 25 5 26 4 27 3 28 2 29 1 30
REMARK H PARENT
REMARK Flexibility Score: inf
ROOT
ATOM      1  C   UNL     1      10.028 -31.338  21.853  1.00  0.00     0.000 C 
ENDROOT
BRANCH   1   2
ATOM      2  C   UNL     1      11.333 -31.548  21.069  1.00  0.00     0.000 C 
BRANCH   2   3
ATOM      3  C   UNL     1      12.244 -32.621  21.694  1.00  0.00     0.000 C 
BRANCH   3   4
ATOM      4  C   UNL     1      13.300 -32.089  22.682  1.00  0.00     0.000 C 
BRANCH   4   5
ATOM      5  C   UNL     1      13.297 -30.556  22.793  1.00  0.00     0.000 C 
BRANCH   5   6
ATOM      6  C   UNL     1      12.492 -30.042  24.001  1.00  0.00     0.000 C 
BRANCH   6   7
ATOM      7  C   UNL     1      13.024 -30.471  25.385  1.00  0.00     0.000 C 
BRANCH   7   8
ATOM      8  C   UNL     1      12.208 -31.569  26.090  1.00  0.00     0.000 C 
BRANCH   8   9
ATOM      9  C   UNL     1      10.793 -31.727  25.513  1.00  0.00     0.000 C 
BRANCH   9  10
ATOM     10  C   UNL     1      10.496 -33.197  25.181  1.00  0.00     0.000 C 
BRANCH  10  11
ATOM     11  C   UNL     1      11.255 -34.180  26.089  1.00  0.00     0.000 C 
BRANCH  11  12
ATOM     12  C   UNL     1      11.518 -35.534  25.413  1.00  0.00     0.006 C 
BRANCH  12  13
ATOM     13  C   UNL     1      12.475 -35.379  24.226  1.00  0.00     0.053 C 
BRANCH  13  14
ATOM     14  C   UNL     1      13.894 -35.597  24.651  1.00  0.00     0.041 C 
ATOM     15  O   UNL     1      14.477 -36.682  24.383  1.00  0.00    -0.550 OA
ATOM     16  O   UNL     1      14.578 -34.599  25.333  1.00  0.00    -0.550 OA
ENDBRANCH  13  14
ENDBRANCH  12  13
ENDBRANCH  11  12
ENDBRANCH  10  11
ENDBRANCH   9  10
ENDBRANCH   8   9
ENDBRANCH   7   8
ENDBRANCH   6   7
ENDBRANCH   5   6
ENDBRANCH   4   5
ENDBRANCH   3   4
ENDBRANCH   2   3
ENDBRANCH   1   2
BRANCH   1  17
ATOM     17  C   UNL     1       9.425 -29.959  21.546  1.00  0.00     0.000 C 
BRANCH  17  18
ATOM     18  C   UNL     1       7.973 -29.823  22.033  1.00  0.00     0.000 C 
BRANCH  18  19
ATOM     19  C   UNL     1       7.215 -31.160  22.010  1.00  0.00     0.000 C 
BRANCH  19  20
ATOM     20  C   UNL     1       6.607 -31.470  23.386  1.00  0.00     0.000 C 
BRANCH  20  21
ATOM     21  C   UNL     1       7.571 -31.168  24.550  1.00  0.00     0.000 C 
BRANCH  21  22
ATOM     22  C   UNL     1       6.997 -30.258  25.651  1.00  0.00    -0.000 C 
BRANCH  22  23
ATOM     23  C   UNL     1       5.845 -29.336  25.207  1.00  0.00    -0.000 C 
BRANCH  23  24
ATOM     24  C   UNL     1       4.606 -29.398  26.125  1.00  0.00    -0.000 C 
BRANCH  24  25
ATOM     25  C   UNL     1       3.428 -28.565  25.588  1.00  0.00    -0.000 C 
BRANCH  25  26
ATOM     26  C   UNL     1       2.162 -29.408  25.362  1.00  0.00    -0.000 C 
BRANCH  26  27
ATOM     27  C   UNL     1       2.072 -29.969  23.931  1.00  0.00    -0.000 C 
BRANCH  27  28
ATOM     28  C   UNL     1       0.664 -30.484  23.590  1.00  0.00    -0.000 C 
BRANCH  28  29
ATOM     29  C   UNL     1      -0.116 -29.518  22.686  1.00  0.00    -0.003 C 
ATOM     30  C   UNL     1      -0.125 -28.108  23.270  1.00  0.00     0.004 C 
ENDBRANCH  28  29
ENDBRANCH  27  28
ENDBRANCH  26  27
ENDBRANCH  25  26
ENDBRANCH  24  25
ENDBRANCH  23  24
ENDBRANCH  22  23
ENDBRANCH  21  22
ENDBRANCH  20  21
ENDBRANCH  19  20
ENDBRANCH  18  19
ENDBRANCH  17  18
ENDBRANCH   1  17
TORSDOF 26
ENDMDL
MODEL 7
REMARK VINA RESULT:    -5.218      1.925      3.296
REMARK INTER + INTRA:         -16.900
REMARK INTER:                 -13.981
REMARK INTRA:                  -2.919
REMARK UNBOUND:                -3.752
REMARK SMILES CCCCCCCCCCCCCCCCCCCCCCCCCCCC(=O)[O-]
REMARK SMILES IDX 15 1 16 2 17 3 18 4 19 5 20 6 21 7 22 8 23 9 24 10 25 11
REMARK SMILES IDX 26 12 27 13 28 14 29 15 30 16 14 17 13 18 12 19 11 20 10 21
REMARK SMILES IDX 9 22 8 23 7 24 6 25 5 26 4 27 3 28 2 29 1 30
REMARK H PARENT
REMARK Flexibility Score: inf
ROOT
ATOM      1  C   UNL     1      12.882 -29.996  22.657  1.00  0.00     0.000 C 
ENDROOT
BRANCH   1   2
ATOM      2  C   UNL     1      13.668 -29.003  23.526  1.00  0.00     0.000 C 
BRANCH   2   3
ATOM      3  C   UNL     1      13.365 -29.146  25.029  1.00  0.00     0.000 C 
BRANCH   3   4
ATOM      4  C   UNL     1      12.216 -30.112  25.377  1.00  0.00     0.000 C 
BRANCH   4   5
ATOM      5  C   UNL     1      12.714 -31.479  25.875  1.00  0.00     0.000 C 
BRANCH   5   6
ATOM      6  C   UNL     1      11.588 -32.522  25.994  1.00  0.00     0.000 C 
BRANCH   6   7
ATOM      7  C   UNL     1      10.794 -32.793  24.699  1.00  0.00     0.000 C 
BRANCH   7   8
ATOM      8  C   UNL     1      11.170 -34.089  23.958  1.00  0.00     0.000 C 
BRANCH   8   9
ATOM      9  C   UNL     1      11.619 -35.211  24.906  1.00  0.00     0.000 C 
BRANCH   9  10
ATOM     10  C   UNL     1      13.043 -35.678  24.567  1.00  0.00     0.000 C 
BRANCH  10  11
ATOM     11  C   UNL     1      14.129 -34.808  25.221  1.00  0.00     0.000 C 
BRANCH  11  12
ATOM     12  C   UNL     1      15.025 -34.102  24.193  1.00  0.00     0.006 C 
BRANCH  12  13
ATOM     13  C   UNL     1      14.188 -33.286  23.202  1.00  0.00     0.053 C 
BRANCH  13  14
ATOM     14  C   UNL     1      14.963 -33.005  21.952  1.00  0.00     0.041 C 
ATOM     15  O   UNL     1      14.513 -33.365  20.832  1.00  0.00    -0.550 OA
ATOM     16  O   UNL     1      16.178 -32.334  22.022  1.00  0.00    -0.550 OA
ENDBRANCH  13  14
ENDBRANCH  12  13
ENDBRANCH  11  12
ENDBRANCH  10  11
ENDBRANCH   9  10
ENDBRANCH   8   9
ENDBRANCH   7   8
ENDBRANCH   6   7
ENDBRANCH   5   6
ENDBRANCH   4   5
ENDBRANCH   3   4
ENDBRANCH   2   3
ENDBRANCH   1   2
BRANCH   1  17
ATOM     17  C   UNL     1      11.668 -29.312  22.011  1.00  0.00     0.000 C 
BRANCH  17  18
ATOM     18  C   UNL     1      10.402 -30.184  22.050  1.00  0.00     0.000 C 
BRANCH  18  19
ATOM     19  C   UNL     1       9.115 -29.364  21.871  1.00  0.00     0.000 C 
BRANCH  19  20
ATOM     20  C   UNL     1       7.954 -29.982  22.663  1.00  0.00     0.000 C 
BRANCH  20  21
ATOM     21  C   UNL     1       8.337 -30.332  24.114  1.00  0.00     0.000 C 
BRANCH  21  22
ATOM     22  C   UNL     1       7.438 -31.384  24.789  1.00  0.00    -0.000 C 
BRANCH  22  23
ATOM     23  C   UNL     1       6.634 -30.878  26.002  1.00  0.00    -0.000 C 
BRANCH  23  24
ATOM     24  C   UNL     1       6.097 -29.440  25.841  1.00  0.00    -0.000 C 
BRANCH  24  25
ATOM     25  C   UNL     1       4.854 -29.370  24.937  1.00  0.00    -0.000 C 
BRANCH  25  26
ATOM     26  C   UNL     1       3.607 -28.868  25.683  1.00  0.00    -0.000 C 
BRANCH  26  27
ATOM     27  C   UNL     1       2.515 -28.346  24.730  1.00  0.00    -0.000 C 
BRANCH  27  28
ATOM     28  C   UNL     1       2.123 -29.382  23.664  1.00  0.00    -0.000 C 
BRANCH  28  29
ATOM     29  C   UNL     1       0.919 -30.237  24.086  1.00  0.00    -0.003 C 
ATOM     30  C   UNL     1       0.248 -30.877  22.873  1.00  0.00     0.004 C 
ENDBRANCH  28  29
ENDBRANCH  27  28
ENDBRANCH  26  27
ENDBRANCH  25  26
ENDBRANCH  24  25
ENDBRANCH  23  24
ENDBRANCH  22  23
ENDBRANCH  21  22
ENDBRANCH  20  21
ENDBRANCH  19  20
ENDBRANCH  18  19
ENDBRANCH  17  18
ENDBRANCH   1  17
TORSDOF 26
ENDMDL
MODEL 8
REMARK VINA RESULT:    -5.135      2.552      8.637
REMARK INTER + INTRA:         -16.691
REMARK INTER:                 -12.885
REMARK INTRA:                  -3.806
REMARK UNBOUND:                -3.752
REMARK SMILES CCCCCCCCCCCCCCCCCCCCCCCCCCCC(=O)[O-]
REMARK SMILES IDX 15 1 16 2 17 3 18 4 19 5 20 6 21 7 22 8 23 9 24 10 25 11
REMARK SMILES IDX 26 12 27 13 28 14 29 15 30 16 14 17 13 18 12 19 11 20 10 21
REMARK SMILES IDX 9 22 8 23 7 24 6 25 5 26 4 27 3 28 2 29 1 30
REMARK H PARENT
REMARK Flexibility Score: inf
ROOT
ATOM      1  C   UNL     1      10.967 -33.459  25.257  1.00  0.00     0.000 C 
ENDROOT
BRANCH   1   2
ATOM      2  C   UNL     1       9.986 -32.440  24.658  1.00  0.00     0.000 C 
BRANCH   2   3
ATOM      3  C   UNL     1       9.207 -31.653  25.728  1.00  0.00     0.000 C 
BRANCH   3   4
ATOM      4  C   UNL     1       8.766 -30.237  25.309  1.00  0.00     0.000 C 
BRANCH   4   5
ATOM      5  C   UNL     1       7.242 -30.106  25.156  1.00  0.00     0.000 C 
BRANCH   5   6
ATOM      6  C   UNL     1       6.673 -30.979  24.023  1.00  0.00     0.000 C 
BRANCH   6   7
ATOM      7  C   UNL     1       7.208 -30.663  22.610  1.00  0.00     0.000 C 
BRANCH   7   8
ATOM      8  C   UNL     1       7.498 -31.891  21.728  1.00  0.00     0.000 C 
BRANCH   8   9
ATOM      9  C   UNL     1       8.878 -31.834  21.058  1.00  0.00     0.000 C 
BRANCH   9  10
ATOM     10  C   UNL     1       9.654 -30.586  21.506  1.00  0.00     0.000 C 
BRANCH  10  11
ATOM     11  C   UNL     1      11.159 -30.850  21.685  1.00  0.00     0.000 C 
BRANCH  11  12
ATOM     12  C   UNL     1      11.897 -29.672  22.339  1.00  0.00     0.006 C 
BRANCH  12  13
ATOM     13  C   UNL     1      12.340 -30.023  23.764  1.00  0.00     0.053 C 
BRANCH  13  14
ATOM     14  C   UNL     1      13.426 -29.103  24.227  1.00  0.00     0.041 C 
ATOM     15  O   UNL     1      14.075 -28.416  23.394  1.00  0.00    -0.550 OA
ATOM     16  O   UNL     1      13.715 -28.993  25.582  1.00  0.00    -0.550 OA
ENDBRANCH  13  14
ENDBRANCH  12  13
ENDBRANCH  11  12
ENDBRANCH  10  11
ENDBRANCH   9  10
ENDBRANCH   8   9
ENDBRANCH   7   8
ENDBRANCH   6   7
ENDBRANCH   5   6
ENDBRANCH   4   5
ENDBRANCH   3   4
ENDBRANCH   2   3
ENDBRANCH   1   2
BRANCH   1  17
ATOM     17  C   UNL     1      10.224 -34.486  26.124  1.00  0.00     0.000 C 
BRANCH  17  18
ATOM     18  C   UNL     1      10.778 -35.912  25.964  1.00  0.00     0.000 C 
BRANCH  18  19
ATOM     19  C   UNL     1      11.476 -36.125  24.611  1.00  0.00     0.000 C 
BRANCH  19  20
ATOM     20  C   UNL     1      12.416 -37.338  24.663  1.00  0.00     0.000 C 
BRANCH  20  21
ATOM     21  C   UNL     1      13.873 -36.955  24.985  1.00  0.00     0.000 C 
BRANCH  21  22
ATOM     22  C   UNL     1      14.426 -35.761  24.185  1.00  0.00    -0.000 C 
BRANCH  22  23
ATOM     23  C   UNL     1      14.573 -34.450  24.980  1.00  0.00    -0.000 C 
BRANCH  23  24
ATOM     24  C   UNL     1      14.038 -33.206  24.240  1.00  0.00    -0.000 C 
BRANCH  24  25
ATOM     25  C   UNL     1      14.047 -33.376  22.711  1.00  0.00    -0.000 C 
BRANCH  25  26
ATOM     26  C   UNL     1      15.275 -32.728  22.051  1.00  0.00    -0.000 C 
BRANCH  26  27
ATOM     27  C   UNL     1      15.318 -32.954  20.528  1.00  0.00    -0.000 C 
BRANCH  27  28
ATOM     28  C   UNL     1      16.386 -33.979  20.115  1.00  0.00    -0.000 C 
BRANCH  28  29
ATOM     29  C   UNL     1      15.875 -34.975  19.064  1.00  0.00    -0.003 C 
ATOM     30  C   UNL     1      16.278 -36.404  19.421  1.00  0.00     0.004 C 
ENDBRANCH  28  29
ENDBRANCH  27  28
ENDBRANCH  26  27
ENDBRANCH  25  26
ENDBRANCH  24  25
ENDBRANCH  23  24
ENDBRANCH  22  23
ENDBRANCH  21  22
ENDBRANCH  20  21
ENDBRANCH  19  20
ENDBRANCH  18  19
ENDBRANCH  17  18
ENDBRANCH   1  17
TORSDOF 26
ENDMDL
MODEL 9
REMARK VINA RESULT:    -5.087      0.990      1.493
REMARK INTER + INTRA:         -16.569
REMARK INTER:                 -13.267
REMARK INTRA:                  -3.302
REMARK UNBOUND:                -3.752
REMARK SMILES CCCCCCCCCCCCCCCCCCCCCCCCCCCC(=O)[O-]
REMARK SMILES IDX 15 1 16 2 17 3 18 4 19 5 20 6 21 7 22 8 23 9 24 10 25 11
REMARK SMILES IDX 26 12 27 13 28 14 29 15 30 16 14 17 13 18 12 19 11 20 10 21
REMARK SMILES IDX 9 22 8 23 7 24 6 25 5 26 4 27 3 28 2 29 1 30
REMARK H PARENT
REMARK Flexibility Score: inf
ROOT
ATOM      1  C   UNL     1      12.886 -32.789  20.911  1.00  0.00     0.000 C 
ENDROOT
BRANCH   1   2
ATOM      2  C   UNL     1      13.917 -33.635  21.674  1.00  0.00     0.000 C 
BRANCH   2   3
ATOM      3  C   UNL     1      14.545 -32.891  22.866  1.00  0.00     0.000 C 
BRANCH   3   4
ATOM      4  C   UNL     1      14.224 -33.483  24.251  1.00  0.00     0.000 C 
BRANCH   4   5
ATOM      5  C   UNL     1      14.348 -35.015  24.290  1.00  0.00     0.000 C 
BRANCH   5   6
ATOM      6  C   UNL     1      13.069 -35.710  24.790  1.00  0.00     0.000 C 
BRANCH   6   7
ATOM      7  C   UNL     1      11.762 -35.275  24.094  1.00  0.00     0.000 C 
BRANCH   7   8
ATOM      8  C   UNL     1      10.768 -34.508  24.984  1.00  0.00     0.000 C 
BRANCH   8   9
ATOM      9  C   UNL     1      11.454 -33.742  26.125  1.00  0.00     0.000 C 
BRANCH   9  10
ATOM     10  C   UNL     1      11.047 -32.261  26.115  1.00  0.00     0.000 C 
BRANCH  10  11
ATOM     11  C   UNL     1      10.461 -31.811  24.766  1.00  0.00     0.000 C 
BRANCH  11  12
ATOM     12  C   UNL     1      10.882 -30.386  24.379  1.00  0.00     0.006 C 
BRANCH  12  13
ATOM     13  C   UNL     1      12.229 -30.390  23.646  1.00  0.00     0.053 C 
BRANCH  13  14
ATOM     14  C   UNL     1      13.143 -29.344  24.203  1.00  0.00     0.041 C 
ATOM     15  O   UNL     1      13.248 -29.191  25.450  1.00  0.00    -0.550 OA
ATOM     16  O   UNL     1      13.890 -28.544  23.347  1.00  0.00    -0.550 OA
ENDBRANCH  13  14
ENDBRANCH  12  13
ENDBRANCH  11  12
ENDBRANCH  10  11
ENDBRANCH   9  10
ENDBRANCH   8   9
ENDBRANCH   7   8
ENDBRANCH   6   7
ENDBRANCH   5   6
ENDBRANCH   4   5
ENDBRANCH   3   4
ENDBRANCH   2   3
ENDBRANCH   1   2
BRANCH   1  17
ATOM     17  C   UNL     1      11.536 -32.784  21.644  1.00  0.00     0.000 C 
BRANCH  17  18
ATOM     18  C   UNL     1      10.372 -33.242  20.750  1.00  0.00     0.000 C 
BRANCH  18  19
ATOM     19  C   UNL     1       9.287 -32.164  20.597  1.00  0.00     0.000 C 
BRANCH  19  20
ATOM     20  C   UNL     1       7.895 -32.739  20.895  1.00  0.00     0.000 C 
BRANCH  20  21
ATOM     21  C   UNL     1       6.941 -31.706  21.526  1.00  0.00     0.000 C 
BRANCH  21  22
ATOM     22  C   UNL     1       7.103 -31.511  23.044  1.00  0.00    -0.000 C 
BRANCH  22  23
ATOM     23  C   UNL     1       6.709 -30.119  23.572  1.00  0.00    -0.000 C 
BRANCH  23  24
ATOM     24  C   UNL     1       7.082 -29.882  25.051  1.00  0.00    -0.000 C 
BRANCH  24  25
ATOM     25  C   UNL     1       5.891 -29.393  25.893  1.00  0.00    -0.000 C 
BRANCH  25  26
ATOM     26  C   UNL     1       4.545 -29.569  25.171  1.00  0.00    -0.000 C 
BRANCH  26  27
ATOM     27  C   UNL     1       3.504 -28.514  25.591  1.00  0.00    -0.000 C 
BRANCH  27  28
ATOM     28  C   UNL     1       2.081 -28.880  25.140  1.00  0.00    -0.000 C 
BRANCH  28  29
ATOM     29  C   UNL     1       1.999 -29.187  23.637  1.00  0.00    -0.003 C 
ATOM     30  C   UNL     1       1.143 -30.423  23.376  1.00  0.00     0.004 C 
ENDBRANCH  28  29
ENDBRANCH  27  28
ENDBRANCH  26  27
ENDBRANCH  25  26
ENDBRANCH  24  25
ENDBRANCH  23  24
ENDBRANCH  22  23
ENDBRANCH  21  22
ENDBRANCH  20  21
ENDBRANCH  19  20
ENDBRANCH  18  19
ENDBRANCH  17  18
ENDBRANCH   1  17
TORSDOF 26
ENDMDL
