MODEL 1
REMARK VINA RESULT:    -4.499      0.000      0.000
REMARK INTER + INTRA:         -10.872
REMARK INTER:                  -8.707
REMARK INTRA:                  -2.165
REMARK UNBOUND:                -2.165
REMARK SMILES CCCCCCCCCCCCCCCCCC(=O)[O-]
REMARK SMILES IDX 10 1 11 2 12 3 13 4 14 5 15 6 16 7 17 8 18 9 19 10 20 11
REMARK SMILES IDX 9 12 8 13 7 14 6 15 5 16 4 17 3 18 2 19 1 20
REMARK H PARENT
REMARK Flexibility Score: inf
ROOT
ATOM      1  C   UNL     1      43.696 115.077   9.759  1.00  0.00     0.000 C 
ENDROOT
BRANCH   1   2
ATOM      2  C   UNL     1      43.557 116.157   8.674  1.00  0.00     0.000 C 
BRANCH   2   3
ATOM      3  C   UNL     1      42.577 117.273   9.068  1.00  0.00     0.000 C 
BRANCH   3   4
ATOM      4  C   UNL     1      42.269 117.226  10.571  1.00  0.00     0.000 C 
BRANCH   4   5
ATOM      5  C   UNL     1      40.866 117.756  10.912  1.00  0.00     0.000 C 
BRANCH   5   6
ATOM      6  C   UNL     1      40.362 117.417  12.331  1.00  0.00     0.000 C 
BRANCH   6   7
ATOM      7  C   UNL     1      39.745 118.597  13.103  1.00  0.00     0.006 C 
BRANCH   7   8
ATOM      8  C   UNL     1      38.530 118.186  13.946  1.00  0.00     0.053 C 
BRANCH   8   9
ATOM      9  C   UNL     1      37.276 118.757  13.364  1.00  0.00     0.041 C 
ATOM     10  O   UNL     1      37.061 119.996  13.414  1.00  0.00    -0.550 OA
ATOM     11  O   UNL     1      36.319 117.913  12.812  1.00  0.00    -0.550 OA
ENDBRANCH   8   9
ENDBRANCH   7   8
ENDBRANCH   6   7
ENDBRANCH   5   6
ENDBRANCH   4   5
ENDBRANCH   3   4
ENDBRANCH   2   3
ENDBRANCH   1   2
BRANCH   1  12
ATOM     12  C   UNL     1      44.828 114.080   9.459  1.00  0.00     0.000 C 
BRANCH  12  13
ATOM     13  C   UNL     1      45.252 113.275  10.701  1.00  0.00    -0.000 C 
BRANCH  13  14
ATOM     14  C   UNL     1      44.086 113.039  11.677  1.00  0.00    -0.000 C 
BRANCH  14  15
ATOM     15  C   UNL     1      44.563 112.798  13.118  1.00  0.00    -0.000 C 
BRANCH  15  16
ATOM     16  C   UNL     1      43.848 113.700  14.137  1.00  0.00    -0.000 C 
BRANCH  16  17
ATOM     17  C   UNL     1      43.072 114.818  13.431  1.00  0.00    -0.000 C 
BRANCH  17  18
ATOM     18  C   UNL     1      43.729 116.184  13.675  1.00  0.00    -0.000 C 
BRANCH  18  19
ATOM     19  C   UNL     1      45.229 116.186  13.340  1.00  0.00    -0.003 C 
ATOM     20  C   UNL     1      45.576 117.120  12.182  1.00  0.00     0.004 C 
ENDBRANCH  18  19
ENDBRANCH  17  18
ENDBRANCH  16  17
ENDBRANCH  15  16
ENDBRANCH  14  15
ENDBRANCH  13  14
ENDBRANCH  12  13
ENDBRANCH   1  12
TORSDOF 16
ENDMDL
MODEL 2
REMARK VINA RESULT:    -4.493      1.096      2.330
REMARK INTER + INTRA:         -10.861
REMARK INTER:                  -9.129
REMARK INTRA:                  -1.732
REMARK UNBOUND:                -2.165
REMARK SMILES CCCCCCCCCCCCCCCCCC(=O)[O-]
REMARK SMILES IDX 10 1 11 2 12 3 13 4 14 5 15 6 16 7 17 8 18 9 19 10 20 11
REMARK SMILES IDX 9 12 8 13 7 14 6 15 5 16 4 17 3 18 2 19 1 20
REMARK H PARENT
REMARK Flexibility Score: inf
ROOT
ATOM      1  C   UNL     1      42.981 117.138   9.868  1.00  0.00     0.000 C 
ENDROOT
BRANCH   1   2
ATOM      2  C   UNL     1      41.498 117.546   9.871  1.00  0.00     0.000 C 
BRANCH   2   3
ATOM      3  C   UNL     1      41.065 118.203  11.191  1.00  0.00     0.000 C 
BRANCH   3   4
ATOM      4  C   UNL     1      39.989 117.362  11.894  1.00  0.00     0.000 C 
BRANCH   4   5
ATOM      5  C   UNL     1      39.935 117.607  13.412  1.00  0.00     0.000 C 
BRANCH   5   6
ATOM      6  C   UNL     1      38.650 118.293  13.921  1.00  0.00     0.000 C 
BRANCH   6   7
ATOM      7  C   UNL     1      38.381 119.691  13.336  1.00  0.00     0.006 C 
BRANCH   7   8
ATOM      8  C   UNL     1      37.081 120.315  13.859  1.00  0.00     0.053 C 
BRANCH   8   9
ATOM      9  C   UNL     1      35.945 119.354  13.710  1.00  0.00     0.041 C 
ATOM     10  O   UNL     1      35.378 118.880  14.729  1.00  0.00    -0.550 OA
ATOM     11  O   UNL     1      35.544 118.943  12.445  1.00  0.00    -0.550 OA
ENDBRANCH   8   9
ENDBRANCH   7   8
ENDBRANCH   6   7
ENDBRANCH   5   6
ENDBRANCH   4   5
ENDBRANCH   3   4
ENDBRANCH   2   3
ENDBRANCH   1   2
BRANCH   1  12
ATOM     12  C   UNL     1      43.378 116.366   8.598  1.00  0.00     0.000 C 
BRANCH  12  13
ATOM     13  C   UNL     1      44.728 115.642   8.745  1.00  0.00    -0.000 C 
BRANCH  13  14
ATOM     14  C   UNL     1      44.565 114.151   9.087  1.00  0.00    -0.000 C 
BRANCH  14  15
ATOM     15  C   UNL     1      45.273 113.764  10.395  1.00  0.00    -0.000 C 
BRANCH  15  16
ATOM     16  C   UNL     1      44.304 113.219  11.456  1.00  0.00    -0.000 C 
BRANCH  16  17
ATOM     17  C   UNL     1      43.387 114.330  11.983  1.00  0.00    -0.000 C 
BRANCH  17  18
ATOM     18  C   UNL     1      43.835 114.799  13.376  1.00  0.00    -0.000 C 
BRANCH  18  19
ATOM     19  C   UNL     1      44.102 116.311  13.432  1.00  0.00    -0.003 C 
ATOM     20  C   UNL     1      45.355 116.720  12.660  1.00  0.00     0.004 C 
ENDBRANCH  18  19
ENDBRANCH  17  18
ENDBRANCH  16  17
ENDBRANCH  15  16
ENDBRANCH  14  15
ENDBRANCH  13  14
ENDBRANCH  12  13
ENDBRANCH   1  12
TORSDOF 16
ENDMDL
MODEL 3
REMARK VINA RESULT:    -4.466      3.045      6.817
REMARK INTER + INTRA:         -10.809
REMARK INTER:                  -9.334
REMARK INTRA:                  -1.475
REMARK UNBOUND:                -2.165
REMARK SMILES CCCCCCCCCCCCCCCCCC(=O)[O-]
REMARK SMILES IDX 10 1 11 2 12 3 13 4 14 5 15 6 16 7 17 8 18 9 19 10 20 11
REMARK SMILES IDX 9 12 8 13 7 14 6 15 5 16 4 17 3 18 2 19 1 20
REMARK H PARENT
REMARK Flexibility Score: inf
ROOT
ATOM      1  C   UNL     1      42.303 117.471   9.670  1.00  0.00     0.000 C 
ENDROOT
BRANCH   1   2
ATOM      2  C   UNL     1      42.953 116.681   8.522  1.00  0.00     0.000 C 
BRANCH   2   3
ATOM      3  C   UNL     1      44.321 116.096   8.904  1.00  0.00     0.000 C 
BRANCH   3   4
ATOM      4  C   UNL     1      44.384 114.595   8.586  1.00  0.00     0.000 C 
BRANCH   4   5
ATOM      5  C   UNL     1      45.063 113.775   9.696  1.00  0.00     0.000 C 
BRANCH   5   6
ATOM      6  C   UNL     1      44.228 113.589  10.980  1.00  0.00     0.000 C 
BRANCH   6   7
ATOM      7  C   UNL     1      45.030 113.635  12.293  1.00  0.00     0.006 C 
BRANCH   7   8
ATOM      8  C   UNL     1      44.228 114.227  13.460  1.00  0.00     0.053 C 
BRANCH   8   9
ATOM      9  C   UNL     1      44.802 115.546  13.869  1.00  0.00     0.041 C 
ATOM     10  O   UNL     1      44.060 116.433  14.366  1.00  0.00    -0.550 OA
ATOM     11  O   UNL     1      46.148 115.815  13.655  1.00  0.00    -0.550 OA
ENDBRANCH   8   9
ENDBRANCH   7   8
ENDBRANCH   6   7
ENDBRANCH   5   6
ENDBRANCH   4   5
ENDBRANCH   3   4
ENDBRANCH   2   3
ENDBRANCH   1   2
BRANCH   1  12
ATOM     12  C   UNL     1      42.653 116.897  11.054  1.00  0.00     0.000 C 
BRANCH  12  13
ATOM     13  C   UNL     1      41.419 116.748  11.961  1.00  0.00    -0.000 C 
BRANCH  13  14
ATOM     14  C   UNL     1      40.379 117.858  11.731  1.00  0.00    -0.000 C 
BRANCH  14  15
ATOM     15  C   UNL     1      39.300 117.891  12.825  1.00  0.00    -0.000 C 
BRANCH  15  16
ATOM     16  C   UNL     1      39.251 119.235  13.569  1.00  0.00    -0.000 C 
BRANCH  16  17
ATOM     17  C   UNL     1      37.881 119.904  13.405  1.00  0.00    -0.000 C 
BRANCH  17  18
ATOM     18  C   UNL     1      36.940 119.523  14.558  1.00  0.00    -0.000 C 
BRANCH  18  19
ATOM     19  C   UNL     1      35.801 118.596  14.108  1.00  0.00    -0.003 C 
ATOM     20  C   UNL     1      35.287 118.926  12.708  1.00  0.00     0.004 C 
ENDBRANCH  18  19
ENDBRANCH  17  18
ENDBRANCH  16  17
ENDBRANCH  15  16
ENDBRANCH  14  15
ENDBRANCH  13  14
ENDBRANCH  12  13
ENDBRANCH   1  12
TORSDOF 16
ENDMDL
MODEL 4
REMARK VINA RESULT:    -4.386      3.338      7.251
REMARK INTER + INTRA:         -10.654
REMARK INTER:                  -9.111
REMARK INTRA:                  -1.543
REMARK UNBOUND:                -2.165
REMARK SMILES CCCCCCCCCCCCCCCCCC(=O)[O-]
REMARK SMILES IDX 10 1 11 2 12 3 13 4 14 5 15 6 16 7 17 8 18 9 19 10 20 11
REMARK SMILES IDX 9 12 8 13 7 14 6 15 5 16 4 17 3 18 2 19 1 20
REMARK H PARENT
REMARK Flexibility Score: inf
ROOT
ATOM      1  C   UNL     1      40.569 117.329  11.431  1.00  0.00     0.000 C 
ENDROOT
BRANCH   1   2
ATOM      2  C   UNL     1      41.836 117.810  10.707  1.00  0.00     0.000 C 
BRANCH   2   3
ATOM      3  C   UNL     1      41.839 117.451   9.213  1.00  0.00     0.000 C 
BRANCH   3   4
ATOM      4  C   UNL     1      43.144 116.743   8.822  1.00  0.00     0.000 C 
BRANCH   4   5
ATOM      5  C   UNL     1      43.729 115.892   9.962  1.00  0.00     0.000 C 
BRANCH   5   6
ATOM      6  C   UNL     1      45.199 116.196  10.320  1.00  0.00     0.000 C 
BRANCH   6   7
ATOM      7  C   UNL     1      45.424 116.760  11.734  1.00  0.00     0.006 C 
BRANCH   7   8
ATOM      8  C   UNL     1      44.431 116.202  12.762  1.00  0.00     0.053 C 
BRANCH   8   9
ATOM      9  C   UNL     1      44.845 114.833  13.198  1.00  0.00     0.041 C 
ATOM     10  O   UNL     1      43.978 113.941  13.392  1.00  0.00    -0.550 OA
ATOM     11  O   UNL     1      46.185 114.556  13.438  1.00  0.00    -0.550 OA
ENDBRANCH   8   9
ENDBRANCH   7   8
ENDBRANCH   6   7
ENDBRANCH   5   6
ENDBRANCH   4   5
ENDBRANCH   3   4
ENDBRANCH   2   3
ENDBRANCH   1   2
BRANCH   1  12
ATOM     12  C   UNL     1      40.868 116.753  12.827  1.00  0.00     0.000 C 
BRANCH  12  13
ATOM     13  C   UNL     1      40.075 117.459  13.940  1.00  0.00    -0.000 C 
BRANCH  13  14
ATOM     14  C   UNL     1      38.833 118.192  13.406  1.00  0.00    -0.000 C 
BRANCH  14  15
ATOM     15  C   UNL     1      37.533 117.409  13.652  1.00  0.00    -0.000 C 
BRANCH  15  16
ATOM     16  C   UNL     1      36.394 117.841  12.715  1.00  0.00    -0.000 C 
BRANCH  16  17
ATOM     17  C   UNL     1      35.754 119.149  13.196  1.00  0.00    -0.000 C 
BRANCH  17  18
ATOM     18  C   UNL     1      35.544 119.132  14.718  1.00  0.00    -0.000 C 
BRANCH  18  19
ATOM     19  C   UNL     1      36.429 120.154  15.448  1.00  0.00    -0.003 C 
ATOM     20  C   UNL     1      37.008 121.212  14.509  1.00  0.00     0.004 C 
ENDBRANCH  18  19
ENDBRANCH  17  18
ENDBRANCH  16  17
ENDBRANCH  15  16
ENDBRANCH  14  15
ENDBRANCH  13  14
ENDBRANCH  12  13
ENDBRANCH   1  12
TORSDOF 16
ENDMDL
MODEL 5
REMARK VINA RESULT:    -4.383      1.852      4.114
REMARK INTER + INTRA:         -10.647
REMARK INTER:                  -9.249
REMARK INTRA:                  -1.399
REMARK UNBOUND:                -2.165
REMARK SMILES CCCCCCCCCCCCCCCCCC(=O)[O-]
REMARK SMILES IDX 10 1 11 2 12 3 13 4 14 5 15 6 16 7 17 8 18 9 19 10 20 11
REMARK SMILES IDX 9 12 8 13 7 14 6 15 5 16 4 17 3 18 2 19 1 20
REMARK H PARENT
REMARK Flexibility Score: inf
ROOT
ATOM      1  C   UNL     1      41.496 116.791  11.898  1.00  0.00     0.000 C 
ENDROOT
BRANCH   1   2
ATOM      2  C   UNL     1      40.242 117.615  11.562  1.00  0.00     0.000 C 
BRANCH   2   3
ATOM      3  C   UNL     1      39.961 118.716  12.595  1.00  0.00     0.000 C 
BRANCH   3   4
ATOM      4  C   UNL     1      39.805 118.120  14.002  1.00  0.00     0.000 C 
BRANCH   4   5
ATOM      5  C   UNL     1      38.335 117.902  14.400  1.00  0.00     0.000 C 
BRANCH   5   6
ATOM      6  C   UNL     1      37.304 118.196  13.291  1.00  0.00     0.000 C 
BRANCH   6   7
ATOM      7  C   UNL     1      36.279 119.295  13.627  1.00  0.00     0.006 C 
BRANCH   7   8
ATOM      8  C   UNL     1      36.934 120.583  14.143  1.00  0.00     0.053 C 
BRANCH   8   9
ATOM      9  C   UNL     1      36.570 120.815  15.575  1.00  0.00     0.041 C 
ATOM     10  O   UNL     1      35.990 119.914  16.235  1.00  0.00    -0.550 OA
ATOM     11  O   UNL     1      36.827 122.046  16.166  1.00  0.00    -0.550 OA
ENDBRANCH   8   9
ENDBRANCH   7   8
ENDBRANCH   6   7
ENDBRANCH   5   6
ENDBRANCH   4   5
ENDBRANCH   3   4
ENDBRANCH   2   3
ENDBRANCH   1   2
BRANCH   1  12
ATOM     12  C   UNL     1      42.705 117.174  11.026  1.00  0.00     0.000 C 
BRANCH  12  13
ATOM     13  C   UNL     1      42.335 117.339   9.542  1.00  0.00    -0.000 C 
BRANCH  13  14
ATOM     14  C   UNL     1      43.202 116.467   8.617  1.00  0.00    -0.000 C 
BRANCH  14  15
ATOM     15  C   UNL     1      44.453 115.919   9.324  1.00  0.00    -0.000 C 
BRANCH  15  16
ATOM     16  C   UNL     1      44.509 114.384   9.325  1.00  0.00    -0.000 C 
BRANCH  16  17
ATOM     17  C   UNL     1      44.029 113.818  10.667  1.00  0.00    -0.000 C 
BRANCH  17  18
ATOM     18  C   UNL     1      44.853 114.389  11.831  1.00  0.00    -0.000 C 
BRANCH  18  19
ATOM     19  C   UNL     1      45.670 113.312  12.560  1.00  0.00    -0.003 C 
ATOM     20  C   UNL     1      45.437 111.911  11.999  1.00  0.00     0.004 C 
ENDBRANCH  18  19
ENDBRANCH  17  18
ENDBRANCH  16  17
ENDBRANCH  15  16
ENDBRANCH  14  15
ENDBRANCH  13  14
ENDBRANCH  12  13
ENDBRANCH   1  12
TORSDOF 16
ENDMDL
MODEL 6
REMARK VINA RESULT:    -4.379      3.618      7.650
REMARK INTER + INTRA:         -10.640
REMARK INTER:                  -9.072
REMARK INTRA:                  -1.569
REMARK UNBOUND:                -2.165
REMARK SMILES CCCCCCCCCCCCCCCCCC(=O)[O-]
REMARK SMILES IDX 10 1 11 2 12 3 13 4 14 5 15 6 16 7 17 8 18 9 19 10 20 11
REMARK SMILES IDX 9 12 8 13 7 14 6 15 5 16 4 17 3 18 2 19 1 20
REMARK H PARENT
REMARK Flexibility Score: inf
ROOT
ATOM      1  C   UNL     1      40.009 118.815  12.665  1.00  0.00     0.000 C 
ENDROOT
BRANCH   1   2
ATOM      2  C   UNL     1      40.146 117.651  11.669  1.00  0.00     0.000 C 
BRANCH   2   3
ATOM      3  C   UNL     1      41.602 117.400  11.248  1.00  0.00     0.000 C 
BRANCH   3   4
ATOM      4  C   UNL     1      41.780 117.619   9.738  1.00  0.00     0.000 C 
BRANCH   4   5
ATOM      5  C   UNL     1      43.110 117.059   9.204  1.00  0.00     0.000 C 
BRANCH   5   6
ATOM      6  C   UNL     1      43.939 116.252  10.225  1.00  0.00     0.000 C 
BRANCH   6   7
ATOM      7  C   UNL     1      44.267 114.808   9.805  1.00  0.00     0.006 C 
BRANCH   7   8
ATOM      8  C   UNL     1      43.715 113.763  10.783  1.00  0.00     0.053 C 
BRANCH   8   9
ATOM      9  C   UNL     1      44.767 113.363  11.767  1.00  0.00     0.041 C 
ATOM     10  O   UNL     1      44.900 112.156  12.098  1.00  0.00    -0.550 OA
ATOM     11  O   UNL     1      45.568 114.332  12.359  1.00  0.00    -0.550 OA
ENDBRANCH   8   9
ENDBRANCH   7   8
ENDBRANCH   6   7
ENDBRANCH   5   6
ENDBRANCH   4   5
ENDBRANCH   3   4
ENDBRANCH   2   3
ENDBRANCH   1   2
BRANCH   1  12
ATOM     12  C   UNL     1      39.925 118.336  14.125  1.00  0.00     0.000 C 
BRANCH  12  13
ATOM     13  C   UNL     1      39.435 116.882  14.243  1.00  0.00    -0.000 C 
BRANCH  13  14
ATOM     14  C   UNL     1      38.610 116.638  15.518  1.00  0.00    -0.000 C 
BRANCH  14  15
ATOM     15  C   UNL     1      37.465 117.651  15.683  1.00  0.00    -0.000 C 
BRANCH  15  16
ATOM     16  C   UNL     1      36.449 117.591  14.532  1.00  0.00    -0.000 C 
BRANCH  16  17
ATOM     17  C   UNL     1      35.742 118.941  14.354  1.00  0.00    -0.000 C 
BRANCH  17  18
ATOM     18  C   UNL     1      36.535 119.857  13.409  1.00  0.00    -0.000 C 
BRANCH  18  19
ATOM     19  C   UNL     1      37.221 121.016  14.148  1.00  0.00    -0.003 C 
ATOM     20  C   UNL     1      36.651 121.247  15.546  1.00  0.00     0.004 C 
ENDBRANCH  18  19
ENDBRANCH  17  18
ENDBRANCH  16  17
ENDBRANCH  15  16
ENDBRANCH  14  15
ENDBRANCH  13  14
ENDBRANCH  12  13
ENDBRANCH   1  12
TORSDOF 16
ENDMDL
MODEL 7
REMARK VINA RESULT:    -4.372      5.146      8.543
REMARK INTER + INTRA:         -10.626
REMARK INTER:                  -9.495
REMARK INTRA:                  -1.131
REMARK UNBOUND:                -2.165
REMARK SMILES CCCCCCCCCCCCCCCCCC(=O)[O-]
REMARK SMILES IDX 10 1 11 2 12 3 13 4 14 5 15 6 16 7 17 8 18 9 19 10 20 11
REMARK SMILES IDX 9 12 8 13 7 14 6 15 5 16 4 17 3 18 2 19 1 20
REMARK H PARENT
REMARK Flexibility Score: inf
ROOT
ATOM      1  C   UNL     1      43.663 116.713   9.478  1.00  0.00     0.000 C 
ENDROOT
BRANCH   1   2
ATOM      2  C   UNL     1      43.746 115.267   8.963  1.00  0.00     0.000 C 
BRANCH   2   3
ATOM      3  C   UNL     1      43.829 114.236  10.100  1.00  0.00     0.000 C 
BRANCH   3   4
ATOM      4  C   UNL     1      45.117 113.407   9.994  1.00  0.00     0.000 C 
BRANCH   4   5
ATOM      5  C   UNL     1      45.813 113.553   8.629  1.00  0.00     0.000 C 
BRANCH   5   6
ATOM      6  C   UNL     1      45.679 112.336   7.691  1.00  0.00     0.000 C 
BRANCH   6   7
ATOM      7  C   UNL     1      45.959 112.625   6.205  1.00  0.00     0.006 C 
BRANCH   7   8
ATOM      8  C   UNL     1      46.390 114.075   5.950  1.00  0.00     0.053 C 
BRANCH   8   9
ATOM      9  C   UNL     1      47.583 114.113   5.048  1.00  0.00     0.041 C 
ATOM     10  O   UNL     1      48.706 113.729   5.466  1.00  0.00    -0.550 OA
ATOM     11  O   UNL     1      47.464 114.622   3.761  1.00  0.00    -0.550 OA
ENDBRANCH   8   9
ENDBRANCH   7   8
ENDBRANCH   6   7
ENDBRANCH   5   6
ENDBRANCH   4   5
ENDBRANCH   3   4
ENDBRANCH   2   3
ENDBRANCH   1   2
BRANCH   1  12
ATOM     12  C   UNL     1      42.334 117.396   9.109  1.00  0.00     0.000 C 
BRANCH  12  13
ATOM     13  C   UNL     1      41.522 117.815  10.347  1.00  0.00    -0.000 C 
BRANCH  13  14
ATOM     14  C   UNL     1      41.945 117.056  11.616  1.00  0.00    -0.000 C 
BRANCH  14  15
ATOM     15  C   UNL     1      40.771 116.811  12.577  1.00  0.00    -0.000 C 
BRANCH  15  16
ATOM     16  C   UNL     1      39.633 117.828  12.395  1.00  0.00    -0.000 C 
BRANCH  16  17
ATOM     17  C   UNL     1      39.666 118.892  13.499  1.00  0.00    -0.000 C 
BRANCH  17  18
ATOM     18  C   UNL     1      38.300 119.010  14.191  1.00  0.00    -0.000 C 
BRANCH  18  19
ATOM     19  C   UNL     1      37.370 120.016  13.495  1.00  0.00    -0.003 C 
ATOM     20  C   UNL     1      36.002 119.424  13.161  1.00  0.00     0.004 C 
ENDBRANCH  18  19
ENDBRANCH  17  18
ENDBRANCH  16  17
ENDBRANCH  15  16
ENDBRANCH  14  15
ENDBRANCH  13  14
ENDBRANCH  12  13
ENDBRANCH   1  12
TORSDOF 16
ENDMDL
MODEL 8
REMARK VINA RESULT:    -4.348      1.254      2.564
REMARK INTER + INTRA:         -10.580
REMARK INTER:                  -8.202
REMARK INTRA:                  -2.378
REMARK UNBOUND:                -2.165
REMARK SMILES CCCCCCCCCCCCCCCCCC(=O)[O-]
REMARK SMILES IDX 10 1 11 2 12 3 13 4 14 5 15 6 16 7 17 8 18 9 19 10 20 11
REMARK SMILES IDX 9 12 8 13 7 14 6 15 5 16 4 17 3 18 2 19 1 20
REMARK H PARENT
REMARK Flexibility Score: inf
ROOT
ATOM      1  C   UNL     1      45.087 113.684  10.834  1.00  0.00     0.000 C 
ENDROOT
BRANCH   1   2
ATOM      2  C   UNL     1      43.779 114.332  10.353  1.00  0.00     0.000 C 
BRANCH   2   3
ATOM      3  C   UNL     1      43.872 114.861   8.914  1.00  0.00     0.000 C 
BRANCH   3   4
ATOM      4  C   UNL     1      44.019 116.389   8.900  1.00  0.00     0.000 C 
BRANCH   4   5
ATOM      5  C   UNL     1      42.666 117.121   8.945  1.00  0.00     0.000 C 
BRANCH   5   6
ATOM      6  C   UNL     1      42.292 117.728  10.313  1.00  0.00     0.000 C 
BRANCH   6   7
ATOM      7  C   UNL     1      40.802 117.626  10.687  1.00  0.00     0.006 C 
BRANCH   7   8
ATOM      8  C   UNL     1      40.580 117.101  12.112  1.00  0.00     0.053 C 
BRANCH   8   9
ATOM      9  C   UNL     1      39.514 117.893  12.799  1.00  0.00     0.041 C 
ATOM     10  O   UNL     1      38.341 117.442  12.878  1.00  0.00    -0.550 OA
ATOM     11  O   UNL     1      39.803 119.154  13.307  1.00  0.00    -0.550 OA
ENDBRANCH   8   9
ENDBRANCH   7   8
ENDBRANCH   6   7
ENDBRANCH   5   6
ENDBRANCH   4   5
ENDBRANCH   3   4
ENDBRANCH   2   3
ENDBRANCH   1   2
BRANCH   1  12
ATOM     12  C   UNL     1      44.853 112.612  11.913  1.00  0.00     0.000 C 
BRANCH  12  13
ATOM     13  C   UNL     1      45.843 112.728  13.086  1.00  0.00    -0.000 C 
BRANCH  13  14
ATOM     14  C   UNL     1      45.150 113.099  14.408  1.00  0.00    -0.000 C 
BRANCH  14  15
ATOM     15  C   UNL     1      43.781 113.765  14.191  1.00  0.00    -0.000 C 
BRANCH  15  16
ATOM     16  C   UNL     1      43.771 115.247  14.598  1.00  0.00    -0.000 C 
BRANCH  16  17
ATOM     17  C   UNL     1      43.853 116.155  13.365  1.00  0.00    -0.000 C 
BRANCH  17  18
ATOM     18  C   UNL     1      45.287 116.659  13.146  1.00  0.00    -0.000 C 
BRANCH  18  19
ATOM     19  C   UNL     1      46.059 116.834  14.464  1.00  0.00    -0.003 C 
ATOM     20  C   UNL     1      47.399 116.100  14.466  1.00  0.00     0.004 C 
ENDBRANCH  18  19
ENDBRANCH  17  18
ENDBRANCH  16  17
ENDBRANCH  15  16
ENDBRANCH  14  15
ENDBRANCH  13  14
ENDBRANCH  12  13
ENDBRANCH   1  12
TORSDOF 16
ENDMDL
MODEL 9
REMARK VINA RESULT:    -4.286      3.595      5.784
REMARK INTER + INTRA:         -10.460
REMARK INTER:                  -9.236
REMARK INTRA:                  -1.224
REMARK UNBOUND:                -2.165
REMARK SMILES CCCCCCCCCCCCCCCCCC(=O)[O-]
REMARK SMILES IDX 10 1 11 2 12 3 13 4 14 5 15 6 16 7 17 8 18 9 19 10 20 11
REMARK SMILES IDX 9 12 8 13 7 14 6 15 5 16 4 17 3 18 2 19 1 20
REMARK H PARENT
REMARK Flexibility Score: inf
ROOT
ATOM      1  C   UNL     1      45.243 113.748   7.476  1.00  0.00     0.000 C 
ENDROOT
BRANCH   1   2
ATOM      2  C   UNL     1      45.268 113.945   9.001  1.00  0.00     0.000 C 
BRANCH   2   3
ATOM      3  C   UNL     1      44.815 115.350   9.425  1.00  0.00     0.000 C 
BRANCH   3   4
ATOM      4  C   UNL     1      43.463 115.705   8.789  1.00  0.00     0.000 C 
BRANCH   4   5
ATOM      5  C   UNL     1      42.911 117.058   9.271  1.00  0.00     0.000 C 
BRANCH   5   6
ATOM      6  C   UNL     1      42.416 117.083  10.732  1.00  0.00     0.000 C 
BRANCH   6   7
ATOM      7  C   UNL     1      41.107 117.858  10.964  1.00  0.00     0.006 C 
BRANCH   7   8
ATOM      8  C   UNL     1      40.122 117.106  11.867  1.00  0.00     0.053 C 
BRANCH   8   9
ATOM      9  C   UNL     1      39.562 118.024  12.907  1.00  0.00     0.041 C 
ATOM     10  O   UNL     1      38.968 117.556  13.913  1.00  0.00    -0.550 OA
ATOM     11  O   UNL     1      39.651 119.400  12.738  1.00  0.00    -0.550 OA
ENDBRANCH   8   9
ENDBRANCH   7   8
ENDBRANCH   6   7
ENDBRANCH   5   6
ENDBRANCH   4   5
ENDBRANCH   3   4
ENDBRANCH   2   3
ENDBRANCH   1   2
BRANCH   1  12
ATOM     12  C   UNL     1      45.617 112.314   7.059  1.00  0.00     0.000 C 
BRANCH  12  13
ATOM     13  C   UNL     1      46.466 111.593   8.121  1.00  0.00    -0.000 C 
BRANCH  13  14
ATOM     14  C   UNL     1      47.960 111.556   7.756  1.00  0.00    -0.000 C 
BRANCH  14  15
ATOM     15  C   UNL     1      48.246 112.166   6.374  1.00  0.00    -0.000 C 
BRANCH  15  16
ATOM     16  C   UNL     1      49.464 113.103   6.380  1.00  0.00    -0.000 C 
BRANCH  16  17
ATOM     17  C   UNL     1      49.333 114.180   5.295  1.00  0.00    -0.000 C 
BRANCH  17  18
ATOM     18  C   UNL     1      47.919 114.187   4.695  1.00  0.00    -0.000 C 
BRANCH  18  19
ATOM     19  C   UNL     1      47.398 115.608   4.430  1.00  0.00    -0.003 C 
ATOM     20  C   UNL     1      46.321 115.651   3.347  1.00  0.00     0.004 C 
ENDBRANCH  18  19
ENDBRANCH  17  18
ENDBRANCH  16  17
ENDBRANCH  15  16
ENDBRANCH  14  15
ENDBRANCH  13  14
ENDBRANCH  12  13
ENDBRANCH   1  12
TORSDOF 16
ENDMDL
