MODEL 1
REMARK VINA RESULT:    -2.601      0.000      0.000
REMARK INTER + INTRA:          -3.345
REMARK INTER:                  -3.057
REMARK INTRA:                  -0.288
REMARK UNBOUND:                -0.288
REMARK SMILES O=c1c(O)c(-c2ccc(O)cc2)oc2cc(O)cc(O)c12
REMARK SMILES IDX 5 1 3 2 2 3 1 4 21 5 19 6 18 7 16 8 15 9 14 10 13 11 6 12
REMARK SMILES IDX 7 13 8 14 9 15 12 16 11 17 10 18 4 20 20 22 17 24
REMARK H PARENT 10 19 4 21 20 23 17 25
REMARK Flexibility Score: inf
ROOT
ATOM      1  C   UNL     1      12.061 -13.005  28.635  1.00  0.00     0.180 A 
ATOM      2  C   UNL     1      10.691 -12.969  28.324  1.00  0.00     0.208 A 
ATOM      3  C   UNL     1       9.911 -11.906  28.807  1.00  0.00     0.238 A 
ATOM      4  O   UNL     1       8.674 -11.908  28.570  1.00  0.00    -0.285 OA
ATOM      5  C   UNL     1      10.513 -10.885  29.580  1.00  0.00     0.111 A 
ATOM      6  C   UNL     1       9.826  -9.741  30.087  1.00  0.00     0.134 A 
ATOM      7  C   UNL     1      10.492  -8.862  30.949  1.00  0.00     0.093 A 
ATOM      8  C   UNL     1      11.839  -9.051  31.272  1.00  0.00     0.123 A 
ATOM      9  C   UNL     1      12.533 -10.132  30.734  1.00  0.00     0.094 A 
ATOM     10  C   UNL     1      11.887 -11.045  29.900  1.00  0.00     0.146 A 
ATOM     11  O   UNL     1      12.582 -12.068  29.418  1.00  0.00    -0.452 OA
ENDROOT
BRANCH   1  12
ATOM     12  C   UNL     1      12.953 -14.079  28.141  1.00  0.00     0.021 A 
ATOM     13  C   UNL     1      13.549 -13.956  26.875  1.00  0.00     0.016 A 
ATOM     14  C   UNL     1      14.376 -14.969  26.379  1.00  0.00     0.047 A 
ATOM     15  C   UNL     1      14.606 -16.122  27.134  1.00  0.00     0.115 A 
ATOM     16  C   UNL     1      13.172 -15.251  28.888  1.00  0.00     0.016 A 
ATOM     17  C   UNL     1      13.999 -16.262  28.390  1.00  0.00     0.047 A 
BRANCH  15  18
ATOM     18  O   UNL     1      15.432 -17.123  26.629  1.00  0.00    -0.508 OA
ATOM     19  H   UNL     1      15.100 -18.073  26.508  1.00  0.00     0.293 HD
ENDBRANCH  15  18
ENDBRANCH   1  12
BRANCH   2  20
ATOM     20  O   UNL     1      10.113 -13.999  27.577  1.00  0.00    -0.502 OA
ATOM     21  H   UNL     1       9.343 -13.841  26.937  1.00  0.00     0.293 HD
ENDBRANCH   2  20
BRANCH   6  22
ATOM     22  O   UNL     1       8.510  -9.409  29.754  1.00  0.00    -0.507 OA
ATOM     23  H   UNL     1       8.122  -9.462  28.824  1.00  0.00     0.293 HD
ENDBRANCH   6  22
BRANCH   8  24
ATOM     24  O   UNL     1      12.499  -8.162  32.119  1.00  0.00    -0.508 OA
ATOM     25  H   UNL     1      13.160  -8.487  32.814  1.00  0.00     0.293 HD
ENDBRANCH   8  24
TORSDOF 5
ENDMDL
MODEL 2
REMARK VINA RESULT:    -2.058      1.148      2.909
REMARK INTER + INTRA:          -2.706
REMARK INTER:                  -2.414
REMARK INTRA:                  -0.293
REMARK UNBOUND:                -0.288
REMARK SMILES O=c1c(O)c(-c2ccc(O)cc2)oc2cc(O)cc(O)c12
REMARK SMILES IDX 5 1 3 2 2 3 1 4 21 5 19 6 18 7 16 8 15 9 14 10 13 11 6 12
REMARK SMILES IDX 7 13 8 14 9 15 12 16 11 17 10 18 4 20 20 22 17 24
REMARK H PARENT 10 19 4 21 20 23 17 25
REMARK Flexibility Score: inf
ROOT
ATOM      1  C   UNL     1      12.818 -12.755  28.983  1.00  0.00     0.180 A 
ATOM      2  C   UNL     1      13.540 -11.958  29.889  1.00  0.00     0.208 A 
ATOM      3  C   UNL     1      12.881 -10.902  30.541  1.00  0.00     0.238 A 
ATOM      4  O   UNL     1      13.545 -10.159  31.310  1.00  0.00    -0.285 OA
ATOM      5  C   UNL     1      11.508 -10.667  30.290  1.00  0.00     0.111 A 
ATOM      6  C   UNL     1      10.732  -9.651  30.924  1.00  0.00     0.134 A 
ATOM      7  C   UNL     1       9.416  -9.425  30.503  1.00  0.00     0.093 A 
ATOM      8  C   UNL     1       8.827 -10.220  29.517  1.00  0.00     0.123 A 
ATOM      9  C   UNL     1       9.559 -11.252  28.934  1.00  0.00     0.094 A 
ATOM     10  C   UNL     1      10.885 -11.479  29.307  1.00  0.00     0.146 A 
ATOM     11  O   UNL     1      11.550 -12.467  28.719  1.00  0.00    -0.452 OA
ENDROOT
BRANCH   1  12
ATOM     12  C   UNL     1      13.437 -13.900  28.277  1.00  0.00     0.021 A 
ATOM     13  C   UNL     1      13.895 -13.735  26.959  1.00  0.00     0.016 A 
ATOM     14  C   UNL     1      14.462 -14.809  26.265  1.00  0.00     0.047 A 
ATOM     15  C   UNL     1      14.563 -16.064  26.873  1.00  0.00     0.115 A 
ATOM     16  C   UNL     1      13.523 -15.170  28.876  1.00  0.00     0.016 A 
ATOM     17  C   UNL     1      14.090 -16.242  28.180  1.00  0.00     0.047 A 
BRANCH  15  18
ATOM     18  O   UNL     1      15.130 -17.125  26.171  1.00  0.00    -0.508 OA
ATOM     19  H   UNL     1      16.130 -17.288  26.173  1.00  0.00     0.293 HD
ENDBRANCH  15  18
ENDBRANCH   1  12
BRANCH   2  20
ATOM     20  O   UNL     1      14.900 -12.194  30.106  1.00  0.00    -0.502 OA
ATOM     21  H   UNL     1      15.409 -11.778  30.876  1.00  0.00     0.293 HD
ENDBRANCH   2  20
BRANCH   6  22
ATOM     22  O   UNL     1      11.192  -8.862  31.982  1.00  0.00    -0.507 OA
ATOM     23  H   UNL     1      11.246  -9.165  32.944  1.00  0.00     0.293 HD
ENDBRANCH   6  22
BRANCH   8  24
ATOM     24  O   UNL     1       7.512  -9.998  29.114  1.00  0.00    -0.508 OA
ATOM     25  H   UNL     1       6.996  -9.182  29.421  1.00  0.00     0.293 HD
ENDBRANCH   8  24
TORSDOF 5
ENDMDL
MODEL 3
REMARK VINA RESULT:    -2.050     17.131     19.029
REMARK INTER + INTRA:          -2.697
REMARK INTER:                  -3.251
REMARK INTRA:                   0.554
REMARK UNBOUND:                -0.288
REMARK SMILES O=c1c(O)c(-c2ccc(O)cc2)oc2cc(O)cc(O)c12
REMARK SMILES IDX 5 1 3 2 2 3 1 4 21 5 19 6 18 7 16 8 15 9 14 10 13 11 6 12
REMARK SMILES IDX 7 13 8 14 9 15 12 16 11 17 10 18 4 20 20 22 17 24
REMARK H PARENT 10 19 4 21 20 23 17 25
REMARK Flexibility Score: inf
ROOT
ATOM      1  C   UNL     1      23.920  -9.942  14.235  1.00  0.00     0.180 A 
ATOM      2  C   UNL     1      24.014  -8.989  13.206  1.00  0.00     0.208 A 
ATOM      3  C   UNL     1      23.958  -7.625  13.534  1.00  0.00     0.238 A 
ATOM      4  O   UNL     1      23.989  -6.778  12.602  1.00  0.00    -0.285 OA
ATOM      5  C   UNL     1      23.824  -7.231  14.886  1.00  0.00     0.111 A 
ATOM      6  C   UNL     1      23.796  -5.876  15.336  1.00  0.00     0.134 A 
ATOM      7  C   UNL     1      23.528  -5.602  16.683  1.00  0.00     0.093 A 
ATOM      8  C   UNL     1      23.351  -6.634  17.608  1.00  0.00     0.123 A 
ATOM      9  C   UNL     1      23.435  -7.960  17.188  1.00  0.00     0.094 A 
ATOM     10  C   UNL     1      23.665  -8.265  15.846  1.00  0.00     0.146 A 
ATOM     11  O   UNL     1      23.728  -9.541  15.486  1.00  0.00    -0.452 OA
ENDROOT
BRANCH   1  12
ATOM     12  C   UNL     1      23.997 -11.397  13.971  1.00  0.00     0.021 A 
ATOM     13  C   UNL     1      23.945 -11.863  12.646  1.00  0.00     0.016 A 
ATOM     14  C   UNL     1      23.992 -13.234  12.374  1.00  0.00     0.047 A 
ATOM     15  C   UNL     1      24.078 -14.156  13.422  1.00  0.00     0.115 A 
ATOM     16  C   UNL     1      24.063 -12.330  15.021  1.00  0.00     0.016 A 
ATOM     17  C   UNL     1      24.110 -13.700  14.747  1.00  0.00     0.047 A 
BRANCH  15  18
ATOM     18  O   UNL     1      24.125 -15.518  13.137  1.00  0.00    -0.508 OA
ATOM     19  H   UNL     1      23.775 -15.889  12.262  1.00  0.00     0.293 HD
ENDBRANCH  15  18
ENDBRANCH   1  12
BRANCH   2  20
ATOM     20  O   UNL     1      24.125  -9.400  11.875  1.00  0.00    -0.502 OA
ATOM     21  H   UNL     1      23.660  -8.918  11.115  1.00  0.00     0.293 HD
ENDBRANCH   2  20
BRANCH   6  22
ATOM     22  O   UNL     1      24.051  -4.775  14.514  1.00  0.00    -0.507 OA
ATOM     23  H   UNL     1      24.586  -4.808  13.659  1.00  0.00     0.293 HD
ENDBRANCH   6  22
BRANCH   8  24
ATOM     24  O   UNL     1      23.100  -6.352  18.949  1.00  0.00    -0.508 OA
ATOM     25  H   UNL     1      23.847  -6.098  19.585  1.00  0.00     0.293 HD
ENDBRANCH   8  24
TORSDOF 5
ENDMDL
