MODEL 1
REMARK VINA RESULT:    -4.079      0.000      0.000
REMARK INTER + INTRA:          -7.223
REMARK INTER:                  -6.464
REMARK INTRA:                  -0.759
REMARK UNBOUND:                -0.759
REMARK SMILES CCCCCCCCCCCC(=O)[O-]
REMARK SMILES IDX 7 1 8 2 9 3 10 4 11 5 12 6 13 7 14 8 6 9 5 10 4 11 3 12 2 13
REMARK SMILES IDX 1 14
REMARK H PARENT
REMARK Flexibility Score: inf
ROOT
ATOM      1  C   UNL     1      11.328  16.056  31.891  1.00  0.00     0.000 C 
ENDROOT
BRANCH   1   2
ATOM      2  C   UNL     1       9.798  15.936  31.834  1.00  0.00     0.000 C 
BRANCH   2   3
ATOM      3  C   UNL     1       9.267  14.727  32.619  1.00  0.00     0.000 C 
BRANCH   3   4
ATOM      4  C   UNL     1       9.641  13.385  31.965  1.00  0.00     0.006 C 
BRANCH   4   5
ATOM      5  C   UNL     1       8.904  13.164  30.637  1.00  0.00     0.053 C 
BRANCH   5   6
ATOM      6  C   UNL     1       7.437  12.942  30.844  1.00  0.00     0.041 C 
ATOM      7  O   UNL     1       6.596  13.703  30.296  1.00  0.00    -0.550 OA
ATOM      8  O   UNL     1       6.998  11.877  31.620  1.00  0.00    -0.550 OA
ENDBRANCH   5   6
ENDBRANCH   4   5
ENDBRANCH   3   4
ENDBRANCH   2   3
ENDBRANCH   1   2
BRANCH   1   9
ATOM      9  C   UNL     1      11.953  15.761  30.522  1.00  0.00     0.000 C 
BRANCH   9  10
ATOM     10  C   UNL     1      10.924  15.945  29.396  1.00  0.00    -0.000 C 
BRANCH  10  11
ATOM     11  C   UNL     1      11.376  16.958  28.329  1.00  0.00    -0.000 C 
BRANCH  11  12
ATOM     12  C   UNL     1      12.712  16.621  27.638  1.00  0.00    -0.000 C 
BRANCH  12  13
ATOM     13  C   UNL     1      13.219  17.753  26.734  1.00  0.00    -0.003 C 
ATOM     14  C   UNL     1      14.734  17.682  26.563  1.00  0.00     0.004 C 
ENDBRANCH  12  13
ENDBRANCH  11  12
ENDBRANCH  10  11
ENDBRANCH   9  10
ENDBRANCH   1   9
TORSDOF 10
ENDMDL
MODEL 2
REMARK VINA RESULT:    -4.053      1.629      2.971
REMARK INTER + INTRA:          -7.182
REMARK INTER:                  -6.379
REMARK INTRA:                  -0.803
REMARK UNBOUND:                -0.759
REMARK SMILES CCCCCCCCCCCC(=O)[O-]
REMARK SMILES IDX 7 1 8 2 9 3 10 4 11 5 12 6 13 7 14 8 6 9 5 10 4 11 3 12 2 13
REMARK SMILES IDX 1 14
REMARK H PARENT
REMARK Flexibility Score: inf
ROOT
ATOM      1  C   UNL     1       9.547  14.558  32.631  1.00  0.00     0.000 C 
ENDROOT
BRANCH   1   2
ATOM      2  C   UNL     1       9.801  13.692  31.389  1.00  0.00     0.000 C 
BRANCH   2   3
ATOM      3  C   UNL     1       8.538  13.489  30.537  1.00  0.00     0.000 C 
BRANCH   3   4
ATOM      4  C   UNL     1       7.657  12.337  31.050  1.00  0.00     0.006 C 
BRANCH   4   5
ATOM      5  C   UNL     1       6.394  12.845  31.759  1.00  0.00     0.053 C 
BRANCH   5   6
ATOM      6  C   UNL     1       5.594  11.722  32.344  1.00  0.00     0.041 C 
ATOM      7  O   UNL     1       6.081  10.563  32.410  1.00  0.00    -0.550 OA
ATOM      8  O   UNL     1       4.320  11.963  32.842  1.00  0.00    -0.550 OA
ENDBRANCH   5   6
ENDBRANCH   4   5
ENDBRANCH   3   4
ENDBRANCH   2   3
ENDBRANCH   1   2
BRANCH   1   9
ATOM      9  C   UNL     1       9.405  16.037  32.248  1.00  0.00     0.000 C 
BRANCH   9  10
ATOM     10  C   UNL     1      10.636  16.841  32.694  1.00  0.00    -0.000 C 
BRANCH  10  11
ATOM     11  C   UNL     1      11.783  16.802  31.668  1.00  0.00    -0.000 C 
BRANCH  11  12
ATOM     12  C   UNL     1      11.363  17.077  30.212  1.00  0.00    -0.000 C 
BRANCH  12  13
ATOM     13  C   UNL     1      11.818  15.979  29.241  1.00  0.00    -0.003 C 
ATOM     14  C   UNL     1      12.222  16.571  27.893  1.00  0.00     0.004 C 
ENDBRANCH  12  13
ENDBRANCH  11  12
ENDBRANCH  10  11
ENDBRANCH   9  10
ENDBRANCH   1   9
TORSDOF 10
ENDMDL
MODEL 3
REMARK VINA RESULT:    -4.018      2.556      4.267
REMARK INTER + INTRA:          -7.126
REMARK INTER:                  -5.675
REMARK INTRA:                  -1.451
REMARK UNBOUND:                -0.759
REMARK SMILES CCCCCCCCCCCC(=O)[O-]
REMARK SMILES IDX 7 1 8 2 9 3 10 4 11 5 12 6 13 7 14 8 6 9 5 10 4 11 3 12 2 13
REMARK SMILES IDX 1 14
REMARK H PARENT
REMARK Flexibility Score: inf
ROOT
ATOM      1  C   UNL     1      10.616  15.458  29.887  1.00  0.00     0.000 C 
ENDROOT
BRANCH   1   2
ATOM      2  C   UNL     1       9.757  14.196  30.053  1.00  0.00     0.000 C 
BRANCH   2   3
ATOM      3  C   UNL     1      10.072  13.430  31.347  1.00  0.00     0.000 C 
BRANCH   3   4
ATOM      4  C   UNL     1       8.804  13.000  32.106  1.00  0.00     0.006 C 
BRANCH   4   5
ATOM      5  C   UNL     1       7.742  12.411  31.169  1.00  0.00     0.053 C 
BRANCH   5   6
ATOM      6  C   UNL     1       6.801  11.500  31.896  1.00  0.00     0.041 C 
ATOM      7  O   UNL     1       5.571  11.768  31.947  1.00  0.00    -0.550 OA
ATOM      8  O   UNL     1       7.279  10.341  32.494  1.00  0.00    -0.550 OA
ENDBRANCH   5   6
ENDBRANCH   4   5
ENDBRANCH   3   4
ENDBRANCH   2   3
ENDBRANCH   1   2
BRANCH   1   9
ATOM      9  C   UNL     1      11.652  15.569  31.013  1.00  0.00     0.000 C 
BRANCH   9  10
ATOM     10  C   UNL     1      11.482  16.883  31.790  1.00  0.00    -0.000 C 
BRANCH  10  11
ATOM     11  C   UNL     1      10.582  16.735  33.030  1.00  0.00    -0.000 C 
BRANCH  11  12
ATOM     12  C   UNL     1       9.219  17.446  32.932  1.00  0.00    -0.000 C 
BRANCH  12  13
ATOM     13  C   UNL     1       8.032  16.477  33.017  1.00  0.00    -0.003 C 
ATOM     14  C   UNL     1       7.276  16.416  31.693  1.00  0.00     0.004 C 
ENDBRANCH  12  13
ENDBRANCH  11  12
ENDBRANCH  10  11
ENDBRANCH   9  10
ENDBRANCH   1   9
TORSDOF 10
ENDMDL
MODEL 4
REMARK VINA RESULT:    -3.998      7.623     11.346
REMARK INTER + INTRA:          -7.095
REMARK INTER:                  -6.247
REMARK INTRA:                  -0.848
REMARK UNBOUND:                -0.759
REMARK SMILES CCCCCCCCCCCC(=O)[O-]
REMARK SMILES IDX 7 1 8 2 9 3 10 4 11 5 12 6 13 7 14 8 6 9 5 10 4 11 3 12 2 13
REMARK SMILES IDX 1 14
REMARK H PARENT
REMARK Flexibility Score: inf
ROOT
ATOM      1  C   UNL     1      15.542  20.779  21.561  1.00  0.00     0.000 C 
ENDROOT
BRANCH   1   2
ATOM      2  C   UNL     1      16.875  20.663  22.317  1.00  0.00     0.000 C 
BRANCH   2   3
ATOM      3  C   UNL     1      16.975  21.643  23.496  1.00  0.00     0.000 C 
BRANCH   3   4
ATOM      4  C   UNL     1      15.706  22.496  23.667  1.00  0.00     0.006 C 
BRANCH   4   5
ATOM      5  C   UNL     1      16.002  23.846  24.334  1.00  0.00     0.053 C 
BRANCH   5   6
ATOM      6  C   UNL     1      14.809  24.379  25.066  1.00  0.00     0.041 C 
ATOM      7  O   UNL     1      14.743  24.292  26.320  1.00  0.00    -0.550 OA
ATOM      8  O   UNL     1      13.783  24.999  24.364  1.00  0.00    -0.550 OA
ENDBRANCH   5   6
ENDBRANCH   4   5
ENDBRANCH   3   4
ENDBRANCH   2   3
ENDBRANCH   1   2
BRANCH   1   9
ATOM      9  C   UNL     1      14.674  19.534  21.786  1.00  0.00     0.000 C 
BRANCH   9  10
ATOM     10  C   UNL     1      15.449  18.455  22.557  1.00  0.00    -0.000 C 
BRANCH  10  11
ATOM     11  C   UNL     1      14.716  17.980  23.824  1.00  0.00    -0.000 C 
BRANCH  11  12
ATOM     12  C   UNL     1      15.100  18.725  25.116  1.00  0.00    -0.000 C 
BRANCH  12  13
ATOM     13  C   UNL     1      15.085  17.821  26.356  1.00  0.00    -0.003 C 
ATOM     14  C   UNL     1      13.656  17.471  26.764  1.00  0.00     0.004 C 
ENDBRANCH  12  13
ENDBRANCH  11  12
ENDBRANCH  10  11
ENDBRANCH   9  10
ENDBRANCH   1   9
TORSDOF 10
ENDMDL
MODEL 5
REMARK VINA RESULT:    -3.952     11.068     12.418
REMARK INTER + INTRA:          -7.022
REMARK INTER:                  -5.755
REMARK INTRA:                  -1.267
REMARK UNBOUND:                -0.759
REMARK SMILES CCCCCCCCCCCC(=O)[O-]
REMARK SMILES IDX 7 1 8 2 9 3 10 4 11 5 12 6 13 7 14 8 6 9 5 10 4 11 3 12 2 13
REMARK SMILES IDX 1 14
REMARK H PARENT
REMARK Flexibility Score: inf
ROOT
ATOM      1  C   UNL     1      15.963  22.530  23.973  1.00  0.00     0.000 C 
ENDROOT
BRANCH   1   2
ATOM      2  C   UNL     1      14.924  23.193  23.056  1.00  0.00     0.000 C 
BRANCH   2   3
ATOM      3  C   UNL     1      13.633  22.369  22.930  1.00  0.00     0.000 C 
BRANCH   3   4
ATOM      4  C   UNL     1      13.391  21.864  21.497  1.00  0.00     0.006 C 
BRANCH   4   5
ATOM      5  C   UNL     1      14.597  22.117  20.583  1.00  0.00     0.053 C 
BRANCH   5   6
ATOM      6  C   UNL     1      14.258  23.042  19.455  1.00  0.00     0.041 C 
ATOM      7  O   UNL     1      15.074  23.221  18.513  1.00  0.00    -0.550 OA
ATOM      8  O   UNL     1      13.026  23.684  19.430  1.00  0.00    -0.550 OA
ENDBRANCH   5   6
ENDBRANCH   4   5
ENDBRANCH   3   4
ENDBRANCH   2   3
ENDBRANCH   1   2
BRANCH   1   9
ATOM      9  C   UNL     1      17.166  22.026  23.164  1.00  0.00     0.000 C 
BRANCH   9  10
ATOM     10  C   UNL     1      17.486  20.564  23.507  1.00  0.00    -0.000 C 
BRANCH  10  11
ATOM     11  C   UNL     1      16.225  19.699  23.687  1.00  0.00    -0.000 C 
BRANCH  11  12
ATOM     12  C   UNL     1      15.703  19.035  22.399  1.00  0.00    -0.000 C 
BRANCH  12  13
ATOM     13  C   UNL     1      16.826  18.654  21.425  1.00  0.00    -0.003 C 
ATOM     14  C   UNL     1      16.634  17.237  20.892  1.00  0.00     0.004 C 
ENDBRANCH  12  13
ENDBRANCH  11  12
ENDBRANCH  10  11
ENDBRANCH   9  10
ENDBRANCH   1   9
TORSDOF 10
ENDMDL
MODEL 6
REMARK VINA RESULT:    -3.951      4.514      7.145
REMARK INTER + INTRA:          -7.020
REMARK INTER:                  -6.145
REMARK INTRA:                  -0.875
REMARK UNBOUND:                -0.759
REMARK SMILES CCCCCCCCCCCC(=O)[O-]
REMARK SMILES IDX 7 1 8 2 9 3 10 4 11 5 12 6 13 7 14 8 6 9 5 10 4 11 3 12 2 13
REMARK SMILES IDX 1 14
REMARK H PARENT
REMARK Flexibility Score: inf
ROOT
ATOM      1  C   UNL     1      11.636  16.282  30.140  1.00  0.00     0.000 C 
ENDROOT
BRANCH   1   2
ATOM      2  C   UNL     1      11.429  17.543  29.288  1.00  0.00     0.000 C 
BRANCH   2   3
ATOM      3  C   UNL     1      11.501  18.836  30.116  1.00  0.00     0.000 C 
BRANCH   3   4
ATOM      4  C   UNL     1      12.249  19.966  29.386  1.00  0.00     0.006 C 
BRANCH   4   5
ATOM      5  C   UNL     1      13.124  20.790  30.339  1.00  0.00     0.053 C 
BRANCH   5   6
ATOM      6  C   UNL     1      12.327  21.823  31.075  1.00  0.00     0.041 C 
ATOM      7  O   UNL     1      12.705  22.230  32.205  1.00  0.00    -0.550 OA
ATOM      8  O   UNL     1      11.181  22.356  30.499  1.00  0.00    -0.550 OA
ENDBRANCH   5   6
ENDBRANCH   4   5
ENDBRANCH   3   4
ENDBRANCH   2   3
ENDBRANCH   1   2
BRANCH   1   9
ATOM      9  C   UNL     1      11.959  16.649  31.594  1.00  0.00     0.000 C 
BRANCH   9  10
ATOM     10  C   UNL     1      11.025  15.914  32.567  1.00  0.00    -0.000 C 
BRANCH  10  11
ATOM     11  C   UNL     1       9.558  15.906  32.101  1.00  0.00    -0.000 C 
BRANCH  11  12
ATOM     12  C   UNL     1       8.787  14.608  32.406  1.00  0.00    -0.000 C 
BRANCH  12  13
ATOM     13  C   UNL     1       9.518  13.349  31.921  1.00  0.00    -0.003 C 
ATOM     14  C   UNL     1       9.546  13.281  30.397  1.00  0.00     0.004 C 
ENDBRANCH  12  13
ENDBRANCH  11  12
ENDBRANCH  10  11
ENDBRANCH   9  10
ENDBRANCH   1   9
TORSDOF 10
ENDMDL
MODEL 7
REMARK VINA RESULT:    -3.949      1.246      2.054
REMARK INTER + INTRA:          -7.017
REMARK INTER:                  -6.374
REMARK INTRA:                  -0.644
REMARK UNBOUND:                -0.759
REMARK SMILES CCCCCCCCCCCC(=O)[O-]
REMARK SMILES IDX 7 1 8 2 9 3 10 4 11 5 12 6 13 7 14 8 6 9 5 10 4 11 3 12 2 13
REMARK SMILES IDX 1 14
REMARK H PARENT
REMARK Flexibility Score: inf
ROOT
ATOM      1  C   UNL     1      11.462  17.533  29.702  1.00  0.00     0.000 C 
ENDROOT
BRANCH   1   2
ATOM      2  C   UNL     1      11.234  17.292  31.202  1.00  0.00     0.000 C 
BRANCH   2   3
ATOM      3  C   UNL     1      11.552  15.849  31.625  1.00  0.00     0.000 C 
BRANCH   3   4
ATOM      4  C   UNL     1      10.310  15.093  32.131  1.00  0.00     0.006 C 
BRANCH   4   5
ATOM      5  C   UNL     1       9.956  13.898  31.236  1.00  0.00     0.053 C 
BRANCH   5   6
ATOM      6  C   UNL     1       8.510  13.525  31.351  1.00  0.00     0.041 C 
ATOM      7  O   UNL     1       8.028  12.619  30.622  1.00  0.00    -0.550 OA
ATOM      8  O   UNL     1       7.701  14.160  32.285  1.00  0.00    -0.550 OA
ENDBRANCH   5   6
ENDBRANCH   4   5
ENDBRANCH   3   4
ENDBRANCH   2   3
ENDBRANCH   1   2
BRANCH   1   9
ATOM      9  C   UNL     1      11.837  16.229  28.988  1.00  0.00     0.000 C 
BRANCH   9  10
ATOM     10  C   UNL     1      12.567  16.515  27.666  1.00  0.00    -0.000 C 
BRANCH  10  11
ATOM     11  C   UNL     1      12.373  17.961  27.175  1.00  0.00    -0.000 C 
BRANCH  11  12
ATOM     12  C   UNL     1      13.672  18.771  27.008  1.00  0.00    -0.000 C 
BRANCH  12  13
ATOM     13  C   UNL     1      14.823  17.941  26.423  1.00  0.00    -0.003 C 
ATOM     14  C   UNL     1      15.165  18.397  25.007  1.00  0.00     0.004 C 
ENDBRANCH  12  13
ENDBRANCH  11  12
ENDBRANCH  10  11
ENDBRANCH   9  10
ENDBRANCH   1   9
TORSDOF 10
ENDMDL
MODEL 8
REMARK VINA RESULT:    -3.899     11.160     12.703
REMARK INTER + INTRA:          -6.937
REMARK INTER:                  -5.626
REMARK INTRA:                  -1.311
REMARK UNBOUND:                -0.759
REMARK SMILES CCCCCCCCCCCC(=O)[O-]
REMARK SMILES IDX 7 1 8 2 9 3 10 4 11 5 12 6 13 7 14 8 6 9 5 10 4 11 3 12 2 13
REMARK SMILES IDX 1 14
REMARK H PARENT
REMARK Flexibility Score: inf
ROOT
ATOM      1  C   UNL     1      13.560  21.222  22.445  1.00  0.00     0.000 C 
ENDROOT
BRANCH   1   2
ATOM      2  C   UNL     1      13.840  21.121  20.939  1.00  0.00     0.000 C 
BRANCH   2   3
ATOM      3  C   UNL     1      14.722  22.267  20.420  1.00  0.00     0.000 C 
BRANCH   3   4
ATOM      4  C   UNL     1      14.111  22.980  19.201  1.00  0.00     0.006 C 
BRANCH   4   5
ATOM      5  C   UNL     1      12.613  22.685  19.050  1.00  0.00     0.053 C 
BRANCH   5   6
ATOM      6  C   UNL     1      11.772  23.870  19.414  1.00  0.00     0.041 C 
ATOM      7  O   UNL     1      11.055  24.431  18.545  1.00  0.00    -0.550 OA
ATOM      8  O   UNL     1      11.759  24.336  20.723  1.00  0.00    -0.550 OA
ENDBRANCH   5   6
ENDBRANCH   4   5
ENDBRANCH   3   4
ENDBRANCH   2   3
ENDBRANCH   1   2
BRANCH   1   9
ATOM      9  C   UNL     1      14.130  22.525  23.022  1.00  0.00     0.000 C 
BRANCH   9  10
ATOM     10  C   UNL     1      15.207  22.234  24.078  1.00  0.00    -0.000 C 
BRANCH  10  11
ATOM     11  C   UNL     1      15.999  20.946  23.789  1.00  0.00    -0.000 C 
BRANCH  11  12
ATOM     12  C   UNL     1      17.425  21.167  23.250  1.00  0.00    -0.000 C 
BRANCH  12  13
ATOM     13  C   UNL     1      17.773  20.236  22.080  1.00  0.00    -0.003 C 
ATOM     14  C   UNL     1      16.764  19.096  21.965  1.00  0.00     0.004 C 
ENDBRANCH  12  13
ENDBRANCH  11  12
ENDBRANCH  10  11
ENDBRANCH   9  10
ENDBRANCH   1   9
TORSDOF 10
ENDMDL
MODEL 9
REMARK VINA RESULT:    -3.875      6.266      9.439
REMARK INTER + INTRA:          -6.900
REMARK INTER:                  -6.411
REMARK INTRA:                  -0.489
REMARK UNBOUND:                -0.759
REMARK SMILES CCCCCCCCCCCC(=O)[O-]
REMARK SMILES IDX 7 1 8 2 9 3 10 4 11 5 12 6 13 7 14 8 6 9 5 10 4 11 3 12 2 13
REMARK SMILES IDX 1 14
REMARK H PARENT
REMARK Flexibility Score: inf
ROOT
ATOM      1  C   UNL     1      13.278  18.188  27.103  1.00  0.00     0.000 C 
ENDROOT
BRANCH   1   2
ATOM      2  C   UNL     1      14.598  17.829  26.405  1.00  0.00     0.000 C 
BRANCH   2   3
ATOM      3  C   UNL     1      14.563  18.102  24.892  1.00  0.00     0.000 C 
BRANCH   3   4
ATOM      4  C   UNL     1      15.523  19.228  24.471  1.00  0.00     0.006 C 
BRANCH   4   5
ATOM      5  C   UNL     1      15.816  19.205  22.965  1.00  0.00     0.053 C 
BRANCH   5   6
ATOM      6  C   UNL     1      17.033  20.008  22.622  1.00  0.00     0.041 C 
ATOM      7  O   UNL     1      17.529  20.800  23.466  1.00  0.00    -0.550 OA
ATOM      8  O   UNL     1      17.636  19.860  21.380  1.00  0.00    -0.550 OA
ENDBRANCH   5   6
ENDBRANCH   4   5
ENDBRANCH   3   4
ENDBRANCH   2   3
ENDBRANCH   1   2
BRANCH   1   9
ATOM      9  C   UNL     1      12.208  17.122  26.834  1.00  0.00     0.000 C 
BRANCH   9  10
ATOM     10  C   UNL     1      12.252  16.017  27.900  1.00  0.00    -0.000 C 
BRANCH  10  11
ATOM     11  C   UNL     1      11.286  16.274  29.071  1.00  0.00    -0.000 C 
BRANCH  11  12
ATOM     12  C   UNL     1      11.787  15.791  30.445  1.00  0.00    -0.000 C 
BRANCH  12  13
ATOM     13  C   UNL     1      11.822  16.909  31.496  1.00  0.00    -0.003 C 
ATOM     14  C   UNL     1      11.464  18.257  30.876  1.00  0.00     0.004 C 
ENDBRANCH  12  13
ENDBRANCH  11  12
ENDBRANCH  10  11
ENDBRANCH   9  10
ENDBRANCH   1   9
TORSDOF 10
ENDMDL
