MODEL 1
REMARK VINA RESULT:    -3.431      0.000      0.000
REMARK INTER + INTRA:          -7.645
REMARK INTER:                  -5.838
REMARK INTRA:                  -1.807
REMARK UNBOUND:                -1.807
REMARK SMILES CCCCCCCCCCCCCC(=O)[O-]
REMARK SMILES IDX 8 1 9 2 10 3 11 4 12 5 13 6 14 7 15 8 16 9 7 10 6 11 5 12
REMARK SMILES IDX 4 13 3 14 2 15 1 16
REMARK H PARENT
REMARK Flexibility Score: inf
ROOT
ATOM      1  C   UNL     1       9.866  -3.445  43.809  1.00  0.00     0.000 C 
ENDROOT
BRANCH   1   2
ATOM      2  C   UNL     1       8.993  -3.985  44.953  1.00  0.00     0.000 C 
BRANCH   2   3
ATOM      3  C   UNL     1       8.823  -5.514  44.896  1.00  0.00     0.000 C 
BRANCH   3   4
ATOM      4  C   UNL     1      10.023  -6.215  44.240  1.00  0.00     0.000 C 
BRANCH   4   5
ATOM      5  C   UNL     1       9.609  -7.175  43.114  1.00  0.00     0.006 C 
BRANCH   5   6
ATOM      6  C   UNL     1       9.686  -6.483  41.750  1.00  0.00     0.053 C 
BRANCH   6   7
ATOM      7  C   UNL     1       8.420  -6.697  40.981  1.00  0.00     0.041 C 
ATOM      8  O   UNL     1       8.356  -6.380  39.764  1.00  0.00    -0.550 OA
ATOM      9  O   UNL     1       7.325  -7.291  41.596  1.00  0.00    -0.550 OA
ENDBRANCH   6   7
ENDBRANCH   5   6
ENDBRANCH   4   5
ENDBRANCH   3   4
ENDBRANCH   2   3
ENDBRANCH   1   2
BRANCH   1  10
ATOM     10  C   UNL     1      10.954  -2.476  44.298  1.00  0.00     0.000 C 
BRANCH  10  11
ATOM     11  C   UNL     1      11.169  -2.610  45.811  1.00  0.00    -0.000 C 
BRANCH  11  12
ATOM     12  C   UNL     1      12.344  -3.553  46.118  1.00  0.00    -0.000 C 
BRANCH  12  13
ATOM     13  C   UNL     1      13.394  -3.576  44.995  1.00  0.00    -0.000 C 
BRANCH  13  14
ATOM     14  C   UNL     1      13.518  -4.959  44.332  1.00  0.00    -0.000 C 
BRANCH  14  15
ATOM     15  C   UNL     1      13.285  -4.907  42.814  1.00  0.00    -0.003 C 
ATOM     16  C   UNL     1      13.325  -6.289  42.160  1.00  0.00     0.004 C 
ENDBRANCH  14  15
ENDBRANCH  13  14
ENDBRANCH  12  13
ENDBRANCH  11  12
ENDBRANCH  10  11
ENDBRANCH   1  10
TORSDOF 12
ENDMDL
MODEL 2
REMARK VINA RESULT:    -3.422      1.270      2.042
REMARK INTER + INTRA:          -7.630
REMARK INTER:                  -5.950
REMARK INTRA:                  -1.680
REMARK UNBOUND:                -1.807
REMARK SMILES CCCCCCCCCCCCCC(=O)[O-]
REMARK SMILES IDX 8 1 9 2 10 3 11 4 12 5 13 6 14 7 15 8 16 9 7 10 6 11 5 12
REMARK SMILES IDX 4 13 3 14 2 15 1 16
REMARK H PARENT
REMARK Flexibility Score: inf
ROOT
ATOM      1  C   UNL     1       9.460  -4.732  45.151  1.00  0.00     0.000 C 
ENDROOT
BRANCH   1   2
ATOM      2  C   UNL     1       9.097  -5.799  44.105  1.00  0.00     0.000 C 
BRANCH   2   3
ATOM      3  C   UNL     1       9.345  -5.321  42.663  1.00  0.00     0.000 C 
BRANCH   3   4
ATOM      4  C   UNL     1       9.488  -6.488  41.672  1.00  0.00     0.000 C 
BRANCH   4   5
ATOM      5  C   UNL     1       8.418  -6.466  40.569  1.00  0.00     0.006 C 
BRANCH   5   6
ATOM      6  C   UNL     1       7.778  -7.847  40.401  1.00  0.00     0.053 C 
BRANCH   6   7
ATOM      7  C   UNL     1       6.556  -7.967  41.257  1.00  0.00     0.041 C 
ATOM      8  O   UNL     1       5.411  -7.857  40.746  1.00  0.00    -0.550 OA
ATOM      9  O   UNL     1       6.682  -8.249  42.611  1.00  0.00    -0.550 OA
ENDBRANCH   6   7
ENDBRANCH   5   6
ENDBRANCH   4   5
ENDBRANCH   3   4
ENDBRANCH   2   3
ENDBRANCH   1   2
BRANCH   1  10
ATOM     10  C   UNL     1       9.455  -3.308  44.573  1.00  0.00     0.000 C 
BRANCH  10  11
ATOM     11  C   UNL     1      10.846  -2.668  44.677  1.00  0.00    -0.000 C 
BRANCH  11  12
ATOM     12  C   UNL     1      11.777  -3.517  45.555  1.00  0.00    -0.000 C 
BRANCH  12  13
ATOM     13  C   UNL     1      13.032  -3.992  44.803  1.00  0.00    -0.000 C 
BRANCH  13  14
ATOM     14  C   UNL     1      12.784  -4.168  43.294  1.00  0.00    -0.000 C 
BRANCH  14  15
ATOM     15  C   UNL     1      13.018  -5.612  42.824  1.00  0.00    -0.003 C 
ATOM     16  C   UNL     1      12.765  -6.643  43.924  1.00  0.00     0.004 C 
ENDBRANCH  14  15
ENDBRANCH  13  14
ENDBRANCH  12  13
ENDBRANCH  11  12
ENDBRANCH  10  11
ENDBRANCH   1  10
TORSDOF 12
ENDMDL
MODEL 3
REMARK VINA RESULT:    -3.295      3.287      5.803
REMARK INTER + INTRA:          -7.414
REMARK INTER:                  -6.364
REMARK INTRA:                  -1.050
REMARK UNBOUND:                -1.807
REMARK SMILES CCCCCCCCCCCCCC(=O)[O-]
REMARK SMILES IDX 8 1 9 2 10 3 11 4 12 5 13 6 14 7 15 8 16 9 7 10 6 11 5 12
REMARK SMILES IDX 4 13 3 14 2 15 1 16
REMARK H PARENT
REMARK Flexibility Score: inf
ROOT
ATOM      1  C   UNL     1       9.359  -4.457  45.049  1.00  0.00     0.000 C 
ENDROOT
BRANCH   1   2
ATOM      2  C   UNL     1       9.524  -3.122  44.305  1.00  0.00     0.000 C 
BRANCH   2   3
ATOM      3  C   UNL     1      10.960  -2.572  44.390  1.00  0.00     0.000 C 
BRANCH   3   4
ATOM      4  C   UNL     1      11.513  -2.589  45.824  1.00  0.00     0.000 C 
BRANCH   4   5
ATOM      5  C   UNL     1      12.931  -3.174  45.907  1.00  0.00     0.006 C 
BRANCH   5   6
ATOM      6  C   UNL     1      13.244  -4.029  44.675  1.00  0.00     0.053 C 
BRANCH   6   7
ATOM      7  C   UNL     1      14.704  -3.972  44.352  1.00  0.00     0.041 C 
ATOM      8  O   UNL     1      15.119  -4.346  43.225  1.00  0.00    -0.550 OA
ATOM      9  O   UNL     1      15.600  -3.458  45.280  1.00  0.00    -0.550 OA
ENDBRANCH   6   7
ENDBRANCH   5   6
ENDBRANCH   4   5
ENDBRANCH   3   4
ENDBRANCH   2   3
ENDBRANCH   1   2
BRANCH   1  10
ATOM     10  C   UNL     1       9.095  -5.637  44.101  1.00  0.00     0.000 C 
BRANCH  10  11
ATOM     11  C   UNL     1      10.398  -6.128  43.458  1.00  0.00    -0.000 C 
BRANCH  11  12
ATOM     12  C   UNL     1      10.143  -6.675  42.045  1.00  0.00    -0.000 C 
BRANCH  12  13
ATOM     13  C   UNL     1       8.677  -6.523  41.606  1.00  0.00    -0.000 C 
BRANCH  13  14
ATOM     14  C   UNL     1       8.531  -6.363  40.083  1.00  0.00    -0.000 C 
BRANCH  14  15
ATOM     15  C   UNL     1       8.296  -7.705  39.371  1.00  0.00    -0.003 C 
ATOM     16  C   UNL     1       9.589  -8.336  38.854  1.00  0.00     0.004 C 
ENDBRANCH  14  15
ENDBRANCH  13  14
ENDBRANCH  12  13
ENDBRANCH  11  12
ENDBRANCH  10  11
ENDBRANCH   1  10
TORSDOF 12
ENDMDL
MODEL 4
REMARK VINA RESULT:    -3.276      2.287      4.188
REMARK INTER + INTRA:          -7.382
REMARK INTER:                  -6.317
REMARK INTRA:                  -1.064
REMARK UNBOUND:                -1.807
REMARK SMILES CCCCCCCCCCCCCC(=O)[O-]
REMARK SMILES IDX 8 1 9 2 10 3 11 4 12 5 13 6 14 7 15 8 16 9 7 10 6 11 5 12
REMARK SMILES IDX 4 13 3 14 2 15 1 16
REMARK H PARENT
REMARK Flexibility Score: inf
ROOT
ATOM      1  C   UNL     1       9.986  -6.718  42.072  1.00  0.00     0.000 C 
ENDROOT
BRANCH   1   2
ATOM      2  C   UNL     1       8.728  -6.072  41.470  1.00  0.00     0.000 C 
BRANCH   2   3
ATOM      3  C   UNL     1       8.500  -6.479  40.003  1.00  0.00     0.000 C 
BRANCH   3   4
ATOM      4  C   UNL     1       7.784  -7.832  39.871  1.00  0.00     0.000 C 
BRANCH   4   5
ATOM      5  C   UNL     1       6.779  -8.087  41.005  1.00  0.00     0.006 C 
BRANCH   5   6
ATOM      6  C   UNL     1       5.384  -8.380  40.444  1.00  0.00     0.053 C 
BRANCH   6   7
ATOM      7  C   UNL     1       5.052  -9.831  40.594  1.00  0.00     0.041 C 
ATOM      8  O   UNL     1       5.615 -10.522  41.483  1.00  0.00    -0.550 OA
ATOM      9  O   UNL     1       4.084 -10.409  39.782  1.00  0.00    -0.550 OA
ENDBRANCH   6   7
ENDBRANCH   5   6
ENDBRANCH   4   5
ENDBRANCH   3   4
ENDBRANCH   2   3
ENDBRANCH   1   2
BRANCH   1  10
ATOM     10  C   UNL     1      10.266  -6.248  43.508  1.00  0.00     0.000 C 
BRANCH  10  11
ATOM     11  C   UNL     1       8.989  -5.717  44.171  1.00  0.00    -0.000 C 
BRANCH  11  12
ATOM     12  C   UNL     1       9.225  -4.326  44.782  1.00  0.00    -0.000 C 
BRANCH  12  13
ATOM     13  C   UNL     1       9.859  -3.341  43.785  1.00  0.00    -0.000 C 
BRANCH  13  14
ATOM     14  C   UNL     1      10.994  -2.514  44.415  1.00  0.00    -0.000 C 
BRANCH  14  15
ATOM     15  C   UNL     1      12.045  -3.392  45.112  1.00  0.00    -0.003 C 
ATOM     16  C   UNL     1      13.026  -4.036  44.132  1.00  0.00     0.004 C 
ENDBRANCH  14  15
ENDBRANCH  13  14
ENDBRANCH  12  13
ENDBRANCH  11  12
ENDBRANCH  10  11
ENDBRANCH   1  10
TORSDOF 12
ENDMDL
MODEL 5
REMARK VINA RESULT:    -3.275      0.964      2.216
REMARK INTER + INTRA:          -7.380
REMARK INTER:                  -5.744
REMARK INTRA:                  -1.637
REMARK UNBOUND:                -1.807
REMARK SMILES CCCCCCCCCCCCCC(=O)[O-]
REMARK SMILES IDX 8 1 9 2 10 3 11 4 12 5 13 6 14 7 15 8 16 9 7 10 6 11 5 12
REMARK SMILES IDX 4 13 3 14 2 15 1 16
REMARK H PARENT
REMARK Flexibility Score: inf
ROOT
ATOM      1  C   UNL     1      11.358  -2.765  45.936  1.00  0.00     0.000 C 
ENDROOT
BRANCH   1   2
ATOM      2  C   UNL     1      10.959  -2.617  44.459  1.00  0.00     0.000 C 
BRANCH   2   3
ATOM      3  C   UNL     1       9.583  -3.235  44.154  1.00  0.00     0.000 C 
BRANCH   3   4
ATOM      4  C   UNL     1       9.313  -4.506  44.976  1.00  0.00     0.000 C 
BRANCH   4   5
ATOM      5  C   UNL     1       9.478  -5.793  44.152  1.00  0.00     0.006 C 
BRANCH   5   6
ATOM      6  C   UNL     1       9.307  -5.511  42.656  1.00  0.00     0.053 C 
BRANCH   6   7
ATOM      7  C   UNL     1       8.970  -6.769  41.920  1.00  0.00     0.041 C 
ATOM      8  O   UNL     1       8.001  -7.482  42.292  1.00  0.00    -0.550 OA
ATOM      9  O   UNL     1       9.696  -7.129  40.791  1.00  0.00    -0.550 OA
ENDBRANCH   6   7
ENDBRANCH   5   6
ENDBRANCH   4   5
ENDBRANCH   3   4
ENDBRANCH   2   3
ENDBRANCH   1   2
BRANCH   1  10
ATOM     10  C   UNL     1      12.868  -2.979  46.125  1.00  0.00     0.000 C 
BRANCH  10  11
ATOM     11  C   UNL     1      13.322  -4.293  45.476  1.00  0.00    -0.000 C 
BRANCH  11  12
ATOM     12  C   UNL     1      14.566  -4.073  44.601  1.00  0.00    -0.000 C 
BRANCH  12  13
ATOM     13  C   UNL     1      14.451  -4.753  43.227  1.00  0.00    -0.000 C 
BRANCH  13  14
ATOM     14  C   UNL     1      12.997  -5.092  42.855  1.00  0.00    -0.000 C 
BRANCH  14  15
ATOM     15  C   UNL     1      12.794  -6.590  42.580  1.00  0.00    -0.003 C 
ATOM     16  C   UNL     1      13.434  -7.045  41.268  1.00  0.00     0.004 C 
ENDBRANCH  14  15
ENDBRANCH  13  14
ENDBRANCH  12  13
ENDBRANCH  11  12
ENDBRANCH  10  11
ENDBRANCH   1  10
TORSDOF 12
ENDMDL
MODEL 6
REMARK VINA RESULT:    -3.274      1.688      3.343
REMARK INTER + INTRA:          -7.378
REMARK INTER:                  -5.732
REMARK INTRA:                  -1.647
REMARK UNBOUND:                -1.807
REMARK SMILES CCCCCCCCCCCCCC(=O)[O-]
REMARK SMILES IDX 8 1 9 2 10 3 11 4 12 5 13 6 14 7 15 8 16 9 7 10 6 11 5 12
REMARK SMILES IDX 4 13 3 14 2 15 1 16
REMARK H PARENT
REMARK Flexibility Score: inf
ROOT
ATOM      1  C   UNL     1       8.565  -7.125  44.085  1.00  0.00     0.000 C 
ENDROOT
BRANCH   1   2
ATOM      2  C   UNL     1       9.941  -7.187  43.401  1.00  0.00     0.000 C 
BRANCH   2   3
ATOM      3  C   UNL     1       9.949  -6.496  42.026  1.00  0.00     0.000 C 
BRANCH   3   4
ATOM      4  C   UNL     1       8.532  -6.236  41.489  1.00  0.00     0.000 C 
BRANCH   4   5
ATOM      5  C   UNL     1       8.438  -6.386  39.962  1.00  0.00     0.006 C 
BRANCH   5   6
ATOM      6  C   UNL     1       9.387  -7.478  39.460  1.00  0.00     0.053 C 
BRANCH   6   7
ATOM      7  C   UNL     1       8.622  -8.562  38.769  1.00  0.00     0.041 C 
ATOM      8  O   UNL     1       7.558  -9.007  39.273  1.00  0.00    -0.550 OA
ATOM      9  O   UNL     1       9.058  -9.046  37.542  1.00  0.00    -0.550 OA
ENDBRANCH   6   7
ENDBRANCH   5   6
ENDBRANCH   4   5
ENDBRANCH   3   4
ENDBRANCH   2   3
ENDBRANCH   1   2
BRANCH   1  10
ATOM     10  C   UNL     1       8.496  -6.053  45.184  1.00  0.00     0.000 C 
BRANCH  10  11
ATOM     11  C   UNL     1       9.885  -5.782  45.776  1.00  0.00    -0.000 C 
BRANCH  11  12
ATOM     12  C   UNL     1      10.175  -4.274  45.831  1.00  0.00    -0.000 C 
BRANCH  12  13
ATOM     13  C   UNL     1       9.588  -3.514  44.630  1.00  0.00    -0.000 C 
BRANCH  13  14
ATOM     14  C   UNL     1      10.654  -3.160  43.578  1.00  0.00    -0.000 C 
BRANCH  14  15
ATOM     15  C   UNL     1      12.080  -3.481  44.055  1.00  0.00    -0.003 C 
ATOM     16  C   UNL     1      12.774  -4.530  43.186  1.00  0.00     0.004 C 
ENDBRANCH  14  15
ENDBRANCH  13  14
ENDBRANCH  12  13
ENDBRANCH  11  12
ENDBRANCH  10  11
ENDBRANCH   1  10
TORSDOF 12
ENDMDL
MODEL 7
REMARK VINA RESULT:    -3.273      1.921      4.303
REMARK INTER + INTRA:          -7.376
REMARK INTER:                  -5.825
REMARK INTRA:                  -1.550
REMARK UNBOUND:                -1.807
REMARK SMILES CCCCCCCCCCCCCC(=O)[O-]
REMARK SMILES IDX 8 1 9 2 10 3 11 4 12 5 13 6 14 7 15 8 16 9 7 10 6 11 5 12
REMARK SMILES IDX 4 13 3 14 2 15 1 16
REMARK H PARENT
REMARK Flexibility Score: inf
ROOT
ATOM      1  C   UNL     1      10.974  -2.606  44.150  1.00  0.00     0.000 C 
ENDROOT
BRANCH   1   2
ATOM      2  C   UNL     1      11.315  -2.723  45.645  1.00  0.00     0.000 C 
BRANCH   2   3
ATOM      3  C   UNL     1      12.584  -3.557  45.897  1.00  0.00     0.000 C 
BRANCH   3   4
ATOM      4  C   UNL     1      13.295  -3.957  44.595  1.00  0.00     0.000 C 
BRANCH   4   5
ATOM      5  C   UNL     1      13.024  -5.415  44.192  1.00  0.00     0.006 C 
BRANCH   5   6
ATOM      6  C   UNL     1      12.838  -5.538  42.677  1.00  0.00     0.053 C 
BRANCH   6   7
ATOM      7  C   UNL     1      12.582  -6.962  42.294  1.00  0.00     0.041 C 
ATOM      8  O   UNL     1      11.911  -7.711  43.051  1.00  0.00    -0.550 OA
ATOM      9  O   UNL     1      13.042  -7.447  41.076  1.00  0.00    -0.550 OA
ENDBRANCH   6   7
ENDBRANCH   5   6
ENDBRANCH   4   5
ENDBRANCH   3   4
ENDBRANCH   2   3
ENDBRANCH   1   2
BRANCH   1  10
ATOM     10  C   UNL     1       9.619  -3.241  43.799  1.00  0.00     0.000 C 
BRANCH  10  11
ATOM     11  C   UNL     1       9.299  -4.409  44.740  1.00  0.00    -0.000 C 
BRANCH  11  12
ATOM     12  C   UNL     1       9.125  -5.717  43.953  1.00  0.00    -0.000 C 
BRANCH  12  13
ATOM     13  C   UNL     1       9.178  -5.505  42.430  1.00  0.00    -0.000 C 
BRANCH  13  14
ATOM     14  C   UNL     1       8.350  -6.548  41.660  1.00  0.00    -0.000 C 
BRANCH  14  15
ATOM     15  C   UNL     1       8.581  -6.477  40.142  1.00  0.00    -0.003 C 
ATOM     16  C   UNL     1       9.710  -7.394  39.670  1.00  0.00     0.004 C 
ENDBRANCH  14  15
ENDBRANCH  13  14
ENDBRANCH  12  13
ENDBRANCH  11  12
ENDBRANCH  10  11
ENDBRANCH   1  10
TORSDOF 12
ENDMDL
MODEL 8
REMARK VINA RESULT:    -3.239      2.827      5.533
REMARK INTER + INTRA:          -7.319
REMARK INTER:                  -6.234
REMARK INTRA:                  -1.084
REMARK UNBOUND:                -1.807
REMARK SMILES CCCCCCCCCCCCCC(=O)[O-]
REMARK SMILES IDX 8 1 9 2 10 3 11 4 12 5 13 6 14 7 15 8 16 9 7 10 6 11 5 12
REMARK SMILES IDX 4 13 3 14 2 15 1 16
REMARK H PARENT
REMARK Flexibility Score: inf
ROOT
ATOM      1  C   UNL     1       9.123  -5.232  44.421  1.00  0.00     0.000 C 
ENDROOT
BRANCH   1   2
ATOM      2  C   UNL     1       9.133  -3.727  44.734  1.00  0.00     0.000 C 
BRANCH   2   3
ATOM      3  C   UNL     1      10.326  -2.997  44.091  1.00  0.00     0.000 C 
BRANCH   3   4
ATOM      4  C   UNL     1      11.249  -2.345  45.133  1.00  0.00     0.000 C 
BRANCH   4   5
ATOM      5  C   UNL     1      12.442  -3.236  45.511  1.00  0.00     0.006 C 
BRANCH   5   6
ATOM      6  C   UNL     1      12.914  -4.057  44.308  1.00  0.00     0.053 C 
BRANCH   6   7
ATOM      7  C   UNL     1      12.956  -5.513  44.650  1.00  0.00     0.041 C 
ATOM      8  O   UNL     1      12.374  -5.939  45.682  1.00  0.00    -0.550 OA
ATOM      9  O   UNL     1      13.598  -6.408  43.803  1.00  0.00    -0.550 OA
ENDBRANCH   6   7
ENDBRANCH   5   6
ENDBRANCH   4   5
ENDBRANCH   3   4
ENDBRANCH   2   3
ENDBRANCH   1   2
BRANCH   1  10
ATOM     10  C   UNL     1       9.641  -5.549  43.010  1.00  0.00     0.000 C 
BRANCH  10  11
ATOM     11  C   UNL     1       8.679  -6.486  42.269  1.00  0.00    -0.000 C 
BRANCH  11  12
ATOM     12  C   UNL     1       8.627  -6.148  40.771  1.00  0.00    -0.000 C 
BRANCH  12  13
ATOM     13  C   UNL     1       7.911  -7.230  39.944  1.00  0.00    -0.000 C 
BRANCH  13  14
ATOM     14  C   UNL     1       8.877  -8.022  39.046  1.00  0.00    -0.000 C 
BRANCH  14  15
ATOM     15  C   UNL     1      10.351  -7.694  39.335  1.00  0.00    -0.003 C 
ATOM     16  C   UNL     1      11.289  -8.140  38.212  1.00  0.00     0.004 C 
ENDBRANCH  14  15
ENDBRANCH  13  14
ENDBRANCH  12  13
ENDBRANCH  11  12
ENDBRANCH  10  11
ENDBRANCH   1  10
TORSDOF 12
ENDMDL
MODEL 9
REMARK VINA RESULT:    -3.219      2.286      4.128
REMARK INTER + INTRA:          -7.285
REMARK INTER:                  -5.783
REMARK INTRA:                  -1.502
REMARK UNBOUND:                -1.807
REMARK SMILES CCCCCCCCCCCCCC(=O)[O-]
REMARK SMILES IDX 8 1 9 2 10 3 11 4 12 5 13 6 14 7 15 8 16 9 7 10 6 11 5 12
REMARK SMILES IDX 4 13 3 14 2 15 1 16
REMARK H PARENT
REMARK Flexibility Score: inf
ROOT
ATOM      1  C   UNL     1      10.195  -7.223  43.089  1.00  0.00     0.000 C 
ENDROOT
BRANCH   1   2
ATOM      2  C   UNL     1       8.785  -7.061  42.499  1.00  0.00     0.000 C 
BRANCH   2   3
ATOM      3  C   UNL     1       8.734  -6.016  41.370  1.00  0.00     0.000 C 
BRANCH   3   4
ATOM      4  C   UNL     1       8.285  -6.618  40.029  1.00  0.00     0.000 C 
BRANCH   4   5
ATOM      5  C   UNL     1       9.316  -7.596  39.442  1.00  0.00     0.006 C 
BRANCH   5   6
ATOM      6  C   UNL     1       8.622  -8.790  38.779  1.00  0.00     0.053 C 
BRANCH   6   7
ATOM      7  C   UNL     1       9.336  -9.182  37.524  1.00  0.00     0.041 C 
ATOM      8  O   UNL     1      10.517  -8.798  37.320  1.00  0.00    -0.550 OA
ATOM      9  O   UNL     1       8.714 -10.014  36.602  1.00  0.00    -0.550 OA
ENDBRANCH   6   7
ENDBRANCH   5   6
ENDBRANCH   4   5
ENDBRANCH   3   4
ENDBRANCH   2   3
ENDBRANCH   1   2
BRANCH   1  10
ATOM     10  C   UNL     1      11.251  -6.395  42.341  1.00  0.00     0.000 C 
BRANCH  10  11
ATOM     11  C   UNL     1      12.440  -6.067  43.254  1.00  0.00    -0.000 C 
BRANCH  11  12
ATOM     12  C   UNL     1      12.747  -4.561  43.236  1.00  0.00    -0.000 C 
BRANCH  12  13
ATOM     13  C   UNL     1      11.985  -3.788  44.325  1.00  0.00    -0.000 C 
BRANCH  13  14
ATOM     14  C   UNL     1      10.984  -2.777  43.740  1.00  0.00    -0.000 C 
BRANCH  14  15
ATOM     15  C   UNL     1       9.546  -3.318  43.717  1.00  0.00    -0.003 C 
ATOM     16  C   UNL     1       9.196  -4.125  44.967  1.00  0.00     0.004 C 
ENDBRANCH  14  15
ENDBRANCH  13  14
ENDBRANCH  12  13
ENDBRANCH  11  12
ENDBRANCH  10  11
ENDBRANCH   1  10
TORSDOF 12
ENDMDL
