MODEL 1
REMARK VINA RESULT:    -5.509      0.000      0.000
REMARK INTER + INTRA:          -8.024
REMARK INTER:                  -7.442
REMARK INTRA:                  -0.582
REMARK UNBOUND:                -0.582
REMARK SMILES C=C[C@](C)(CCC=C(C)C)OC(C)=O
REMARK SMILES IDX 3 1 4 2 5 3 6 4 7 5 9 6 8 7 10 8 2 9 1 10 11 11 12 12 14 13
REMARK SMILES IDX 13 14
REMARK H PARENT
REMARK Flexibility Score: inf
ROOT
ATOM      1  C   UNL     1      29.478   3.819  30.864  1.00  0.00     0.127 C 
ATOM      2  C   UNL     1      30.238   2.717  31.638  1.00  0.00     0.061 C 
ENDROOT
BRANCH   1   3
ATOM      3  C   UNL     1      28.086   4.074  31.500  1.00  0.00     0.057 C 
BRANCH   3   4
ATOM      4  C   UNL     1      28.095   5.162  32.587  1.00  0.00     0.032 C 
BRANCH   4   5
ATOM      5  C   UNL     1      27.165   6.291  32.216  1.00  0.00    -0.028 C 
ATOM      6  C   UNL     1      28.673   8.059  33.150  1.00  0.00     0.039 C 
ATOM      7  C   UNL     1      27.399   7.594  32.486  1.00  0.00    -0.080 C 
ATOM      8  C   UNL     1      26.356   8.609  32.090  1.00  0.00     0.039 C 
ENDBRANCH   4   5
ENDBRANCH   3   4
ENDBRANCH   1   3
BRANCH   1   9
ATOM      9  C   UNL     1      29.281   3.411  29.410  1.00  0.00     0.013 C 
ATOM     10  C   UNL     1      28.224   2.706  28.987  1.00  0.00     0.008 C 
ENDBRANCH   1   9
BRANCH   1  11
ATOM     11  O   UNL     1      30.218   5.048  30.918  1.00  0.00    -0.455 OA
BRANCH  11  12
ATOM     12  C   UNL     1      31.615   5.159  31.006  1.00  0.00     0.303 C 
ATOM     13  O   UNL     1      32.361   4.752  30.077  1.00  0.00    -0.253 OA
ATOM     14  C   UNL     1      32.223   5.735  32.239  1.00  0.00     0.139 C 
ENDBRANCH  11  12
ENDBRANCH   1  11
TORSDOF 6
ENDMDL
MODEL 2
REMARK VINA RESULT:    -5.476      1.956      3.289
REMARK INTER + INTRA:          -7.979
REMARK INTER:                  -7.463
REMARK INTRA:                  -0.515
REMARK UNBOUND:                -0.582
REMARK SMILES C=C[C@](C)(CCC=C(C)C)OC(C)=O
REMARK SMILES IDX 3 1 4 2 5 3 6 4 7 5 9 6 8 7 10 8 2 9 1 10 11 11 12 12 14 13
REMARK SMILES IDX 13 14
REMARK H PARENT
REMARK Flexibility Score: inf
ROOT
ATOM      1  C   UNL     1      29.648   3.426  30.818  1.00  0.00     0.127 C 
ATOM      2  C   UNL     1      30.136   3.501  29.353  1.00  0.00     0.061 C 
ENDROOT
BRANCH   1   3
ATOM      3  C   UNL     1      28.273   4.126  30.974  1.00  0.00     0.057 C 
BRANCH   3   4
ATOM      4  C   UNL     1      28.103   4.859  32.316  1.00  0.00     0.032 C 
BRANCH   4   5
ATOM      5  C   UNL     1      27.208   6.063  32.153  1.00  0.00    -0.028 C 
ATOM      6  C   UNL     1      28.970   7.677  32.908  1.00  0.00     0.039 C 
ATOM      7  C   UNL     1      27.575   7.332  32.440  1.00  0.00    -0.080 C 
ATOM      8  C   UNL     1      26.558   8.431  32.266  1.00  0.00     0.039 C 
ENDBRANCH   4   5
ENDBRANCH   3   4
ENDBRANCH   1   3
BRANCH   1   9
ATOM      9  C   UNL     1      30.646   4.101  31.749  1.00  0.00     0.013 C 
ATOM     10  C   UNL     1      31.429   5.117  31.365  1.00  0.00     0.008 C 
ENDBRANCH   1   9
BRANCH   1  11
ATOM     11  O   UNL     1      29.489   2.052  31.207  1.00  0.00    -0.455 OA
BRANCH  11  12
ATOM     12  C   UNL     1      28.510   1.172  30.719  1.00  0.00     0.303 C 
ATOM     13  O   UNL     1      28.421   0.913  29.489  1.00  0.00    -0.253 OA
ATOM     14  C   UNL     1      27.538   0.564  31.671  1.00  0.00     0.139 C 
ENDBRANCH  11  12
ENDBRANCH   1  11
TORSDOF 6
ENDMDL
MODEL 3
REMARK VINA RESULT:    -5.198      1.784      2.056
REMARK INTER + INTRA:          -7.602
REMARK INTER:                  -7.353
REMARK INTRA:                  -0.249
REMARK UNBOUND:                -0.582
REMARK SMILES C=C[C@](C)(CCC=C(C)C)OC(C)=O
REMARK SMILES IDX 3 1 4 2 5 3 6 4 7 5 9 6 8 7 10 8 2 9 1 10 11 11 12 12 14 13
REMARK SMILES IDX 13 14
REMARK H PARENT
REMARK Flexibility Score: inf
ROOT
ATOM      1  C   UNL     1      28.229   2.969  30.117  1.00  0.00     0.127 C 
ATOM      2  C   UNL     1      28.708   1.514  30.332  1.00  0.00     0.061 C 
ENDROOT
BRANCH   1   3
ATOM      3  C   UNL     1      27.749   3.590  31.455  1.00  0.00     0.057 C 
BRANCH   3   4
ATOM      4  C   UNL     1      28.445   4.917  31.803  1.00  0.00     0.032 C 
BRANCH   4   5
ATOM      5  C   UNL     1      27.427   5.992  32.092  1.00  0.00    -0.028 C 
ATOM      6  C   UNL     1      29.146   7.642  32.865  1.00  0.00     0.039 C 
ATOM      7  C   UNL     1      27.723   7.211  32.593  1.00  0.00    -0.080 C 
ATOM      8  C   UNL     1      26.593   8.169  32.869  1.00  0.00     0.039 C 
ENDBRANCH   4   5
ENDBRANCH   3   4
ENDBRANCH   1   3
BRANCH   1   9
ATOM      9  C   UNL     1      27.078   3.010  29.121  1.00  0.00     0.013 C 
ATOM     10  C   UNL     1      25.944   2.318  29.286  1.00  0.00     0.008 C 
ENDBRANCH   1   9
BRANCH   1  11
ATOM     11  O   UNL     1      29.315   3.768  29.624  1.00  0.00    -0.455 OA
BRANCH  11  12
ATOM     12  C   UNL     1      30.486   3.278  29.025  1.00  0.00     0.303 C 
ATOM     13  O   UNL     1      30.436   2.425  28.099  1.00  0.00    -0.253 OA
ATOM     14  C   UNL     1      31.810   3.750  29.520  1.00  0.00     0.139 C 
ENDBRANCH  11  12
ENDBRANCH   1  11
TORSDOF 6
ENDMDL
MODEL 4
REMARK VINA RESULT:    -5.038      1.881      2.870
REMARK INTER + INTRA:          -7.387
REMARK INTER:                  -6.981
REMARK INTRA:                  -0.405
REMARK UNBOUND:                -0.582
REMARK SMILES C=C[C@](C)(CCC=C(C)C)OC(C)=O
REMARK SMILES IDX 3 1 4 2 5 3 6 4 7 5 9 6 8 7 10 8 2 9 1 10 11 11 12 12 14 13
REMARK SMILES IDX 13 14
REMARK H PARENT
REMARK Flexibility Score: inf
ROOT
ATOM      1  C   UNL     1      29.003   3.086  30.563  1.00  0.00     0.127 C 
ATOM      2  C   UNL     1      30.228   4.008  30.357  1.00  0.00     0.061 C 
ENDROOT
BRANCH   1   3
ATOM      3  C   UNL     1      27.878   3.833  31.326  1.00  0.00     0.057 C 
BRANCH   3   4
ATOM      4  C   UNL     1      28.370   5.076  32.087  1.00  0.00     0.032 C 
BRANCH   4   5
ATOM      5  C   UNL     1      27.296   6.135  32.123  1.00  0.00    -0.028 C 
ATOM      6  C   UNL     1      28.851   7.914  32.957  1.00  0.00     0.039 C 
ATOM      7  C   UNL     1      27.492   7.407  32.536  1.00  0.00    -0.080 C 
ATOM      8  C   UNL     1      26.312   8.346  32.556  1.00  0.00     0.039 C 
ENDBRANCH   4   5
ENDBRANCH   3   4
ENDBRANCH   1   3
BRANCH   1   9
ATOM      9  C   UNL     1      29.394   1.849  31.360  1.00  0.00     0.013 C 
ATOM     10  C   UNL     1      28.858   0.642  31.143  1.00  0.00     0.008 C 
ENDBRANCH   1   9
BRANCH   1  11
ATOM     11  O   UNL     1      28.479   2.685  29.287  1.00  0.00    -0.455 OA
BRANCH  11  12
ATOM     12  C   UNL     1      29.213   2.588  28.095  1.00  0.00     0.303 C 
ATOM     13  O   UNL     1      30.213   1.827  28.004  1.00  0.00    -0.253 OA
ATOM     14  C   UNL     1      28.822   3.430  26.928  1.00  0.00     0.139 C 
ENDBRANCH  11  12
ENDBRANCH   1  11
TORSDOF 6
ENDMDL
MODEL 5
REMARK VINA RESULT:    -4.987      2.288      3.380
REMARK INTER + INTRA:          -7.317
REMARK INTER:                  -6.743
REMARK INTRA:                  -0.575
REMARK UNBOUND:                -0.582
REMARK SMILES C=C[C@](C)(CCC=C(C)C)OC(C)=O
REMARK SMILES IDX 3 1 4 2 5 3 6 4 7 5 9 6 8 7 10 8 2 9 1 10 11 11 12 12 14 13
REMARK SMILES IDX 13 14
REMARK H PARENT
REMARK Flexibility Score: inf
ROOT
ATOM      1  C   UNL     1      28.225   3.102  30.269  1.00  0.00     0.127 C 
ATOM      2  C   UNL     1      26.856   3.340  29.590  1.00  0.00     0.061 C 
ENDROOT
BRANCH   1   3
ATOM      3  C   UNL     1      28.744   4.406  30.928  1.00  0.00     0.057 C 
BRANCH   3   4
ATOM      4  C   UNL     1      28.072   4.727  32.274  1.00  0.00     0.032 C 
BRANCH   4   5
ATOM      5  C   UNL     1      27.186   5.942  32.149  1.00  0.00    -0.028 C 
ATOM      6  C   UNL     1      28.987   7.531  32.862  1.00  0.00     0.039 C 
ATOM      7  C   UNL     1      27.575   7.204  32.434  1.00  0.00    -0.080 C 
ATOM      8  C   UNL     1      26.565   8.315  32.301  1.00  0.00     0.039 C 
ENDBRANCH   4   5
ENDBRANCH   3   4
ENDBRANCH   1   3
BRANCH   1   9
ATOM      9  C   UNL     1      29.253   2.630  29.249  1.00  0.00     0.013 C 
ATOM     10  C   UNL     1      30.425   3.246  29.055  1.00  0.00     0.008 C 
ENDBRANCH   1   9
BRANCH   1  11
ATOM     11  O   UNL     1      28.088   2.112  31.300  1.00  0.00    -0.455 OA
BRANCH  11  12
ATOM     12  C   UNL     1      28.193   0.724  31.121  1.00  0.00     0.303 C 
ATOM     13  O   UNL     1      27.322   0.083  30.474  1.00  0.00    -0.253 OA
ATOM     14  C   UNL     1      29.336  -0.007  31.738  1.00  0.00     0.139 C 
ENDBRANCH  11  12
ENDBRANCH   1  11
TORSDOF 6
ENDMDL
MODEL 6
REMARK VINA RESULT:    -4.426      3.411      5.392
REMARK INTER + INTRA:          -6.559
REMARK INTER:                  -5.805
REMARK INTRA:                  -0.755
REMARK UNBOUND:                -0.582
REMARK SMILES C=C[C@](C)(CCC=C(C)C)OC(C)=O
REMARK SMILES IDX 3 1 4 2 5 3 6 4 7 5 9 6 8 7 10 8 2 9 1 10 11 11 12 12 14 13
REMARK SMILES IDX 13 14
REMARK H PARENT
REMARK Flexibility Score: inf
ROOT
ATOM      1  C   UNL     1      27.407   2.509  29.353  1.00  0.00     0.127 C 
ATOM      2  C   UNL     1      25.922   2.845  29.084  1.00  0.00     0.061 C 
ENDROOT
BRANCH   1   3
ATOM      3  C   UNL     1      27.948   3.335  30.549  1.00  0.00     0.057 C 
BRANCH   3   4
ATOM      4  C   UNL     1      29.327   2.869  31.047  1.00  0.00     0.032 C 
BRANCH   4   5
ATOM      5  C   UNL     1      30.171   4.051  31.455  1.00  0.00    -0.028 C 
ATOM      6  C   UNL     1      31.733   3.814  29.510  1.00  0.00     0.039 C 
ATOM      7  C   UNL     1      31.270   4.471  30.789  1.00  0.00    -0.080 C 
ATOM      8  C   UNL     1      32.039   5.646  31.339  1.00  0.00     0.039 C 
ENDBRANCH   4   5
ENDBRANCH   3   4
ENDBRANCH   1   3
BRANCH   1   9
ATOM      9  C   UNL     1      28.255   2.819  28.126  1.00  0.00     0.013 C 
ATOM     10  C   UNL     1      28.829   1.869  27.377  1.00  0.00     0.008 C 
ENDBRANCH   1   9
BRANCH   1  11
ATOM     11  O   UNL     1      27.538   1.118  29.683  1.00  0.00    -0.455 OA
BRANCH  11  12
ATOM     12  C   UNL     1      26.477   0.216  29.858  1.00  0.00     0.303 C 
ATOM     13  O   UNL     1      25.907   0.089  30.975  1.00  0.00    -0.253 OA
ATOM     14  C   UNL     1      26.042  -0.630  28.711  1.00  0.00     0.139 C 
ENDBRANCH  11  12
ENDBRANCH   1  11
TORSDOF 6
ENDMDL
MODEL 7
REMARK VINA RESULT:    -4.421     11.610     13.811
REMARK INTER + INTRA:          -6.553
REMARK INTER:                  -5.849
REMARK INTRA:                  -0.704
REMARK UNBOUND:                -0.582
REMARK SMILES C=C[C@](C)(CCC=C(C)C)OC(C)=O
REMARK SMILES IDX 3 1 4 2 5 3 6 4 7 5 9 6 8 7 10 8 2 9 1 10 11 11 12 12 14 13
REMARK SMILES IDX 13 14
REMARK H PARENT
REMARK Flexibility Score: inf
ROOT
ATOM      1  C   UNL     1      21.255   3.453  19.771  1.00  0.00     0.127 C 
ATOM      2  C   UNL     1      22.621   2.802  20.092  1.00  0.00     0.061 C 
ENDROOT
BRANCH   1   3
ATOM      3  C   UNL     1      20.576   3.968  21.067  1.00  0.00     0.057 C 
BRANCH   3   4
ATOM      4  C   UNL     1      21.562   4.230  22.218  1.00  0.00     0.032 C 
BRANCH   4   5
ATOM      5  C   UNL     1      21.138   3.488  23.461  1.00  0.00    -0.028 C 
ATOM      6  C   UNL     1      23.260   2.162  23.591  1.00  0.00     0.039 C 
ATOM      7  C   UNL     1      21.878   2.538  24.074  1.00  0.00    -0.080 C 
ATOM      8  C   UNL     1      21.305   1.851  25.287  1.00  0.00     0.039 C 
ENDBRANCH   4   5
ENDBRANCH   3   4
ENDBRANCH   1   3
BRANCH   1   9
ATOM      9  C   UNL     1      20.328   2.447  19.103  1.00  0.00     0.013 C 
ATOM     10  C   UNL     1      19.017   2.378  19.362  1.00  0.00     0.008 C 
ENDBRANCH   1   9
BRANCH   1  11
ATOM     11  O   UNL     1      21.447   4.577  18.898  1.00  0.00    -0.455 OA
BRANCH  11  12
ATOM     12  C   UNL     1      20.625   5.713  18.834  1.00  0.00     0.303 C 
ATOM     13  O   UNL     1      19.481   5.661  18.310  1.00  0.00    -0.253 OA
ATOM     14  C   UNL     1      21.132   7.010  19.365  1.00  0.00     0.139 C 
ENDBRANCH  11  12
ENDBRANCH   1  11
TORSDOF 6
ENDMDL
MODEL 8
REMARK VINA RESULT:    -4.419     11.733     14.018
REMARK INTER + INTRA:          -6.550
REMARK INTER:                  -5.584
REMARK INTRA:                  -0.967
REMARK UNBOUND:                -0.582
REMARK SMILES C=C[C@](C)(CCC=C(C)C)OC(C)=O
REMARK SMILES IDX 3 1 4 2 5 3 6 4 7 5 9 6 8 7 10 8 2 9 1 10 11 11 12 12 14 13
REMARK SMILES IDX 13 14
REMARK H PARENT
REMARK Flexibility Score: inf
ROOT
ATOM      1  C   UNL     1      20.607   4.737  19.348  1.00  0.00     0.127 C 
ATOM      2  C   UNL     1      19.435   4.919  18.355  1.00  0.00     0.061 C 
ENDROOT
BRANCH   1   3
ATOM      3  C   UNL     1      20.223   3.737  20.469  1.00  0.00     0.057 C 
BRANCH   3   4
ATOM      4  C   UNL     1      20.703   4.163  21.867  1.00  0.00     0.032 C 
BRANCH   4   5
ATOM      5  C   UNL     1      21.659   3.143  22.434  1.00  0.00    -0.028 C 
ATOM      6  C   UNL     1      23.583   4.747  22.510  1.00  0.00     0.039 C 
ATOM      7  C   UNL     1      22.962   3.383  22.703  1.00  0.00    -0.080 C 
ATOM      8  C   UNL     1      23.808   2.252  23.230  1.00  0.00     0.039 C 
ENDBRANCH   4   5
ENDBRANCH   3   4
ENDBRANCH   1   3
BRANCH   1   9
ATOM      9  C   UNL     1      20.975   6.069  19.989  1.00  0.00     0.013 C 
ATOM     10  C   UNL     1      21.403   7.123  19.285  1.00  0.00     0.008 C 
ENDBRANCH   1   9
BRANCH   1  11
ATOM     11  O   UNL     1      21.749   4.208  18.658  1.00  0.00    -0.455 OA
BRANCH  11  12
ATOM     12  C   UNL     1      22.056   2.847  18.508  1.00  0.00     0.303 C 
ATOM     13  O   UNL     1      21.290   2.072  17.875  1.00  0.00    -0.253 OA
ATOM     14  C   UNL     1      23.293   2.304  19.139  1.00  0.00     0.139 C 
ENDBRANCH  11  12
ENDBRANCH   1  11
TORSDOF 6
ENDMDL
MODEL 9
REMARK VINA RESULT:    -4.405     10.735     12.752
REMARK INTER + INTRA:          -6.532
REMARK INTER:                  -5.569
REMARK INTRA:                  -0.963
REMARK UNBOUND:                -0.582
REMARK SMILES C=C[C@](C)(CCC=C(C)C)OC(C)=O
REMARK SMILES IDX 3 1 4 2 5 3 6 4 7 5 9 6 8 7 10 8 2 9 1 10 11 11 12 12 14 13
REMARK SMILES IDX 13 14
REMARK H PARENT
REMARK Flexibility Score: inf
ROOT
ATOM      1  C   UNL     1      21.994   4.214  21.604  1.00  0.00     0.127 C 
ATOM      2  C   UNL     1      23.209   4.770  22.383  1.00  0.00     0.061 C 
ENDROOT
BRANCH   1   3
ATOM      3  C   UNL     1      20.888   3.738  22.582  1.00  0.00     0.057 C 
BRANCH   3   4
ATOM      4  C   UNL     1      21.258   3.916  24.065  1.00  0.00     0.032 C 
BRANCH   4   5
ATOM      5  C   UNL     1      20.954   2.659  24.842  1.00  0.00    -0.028 C 
ATOM      6  C   UNL     1      23.237   1.690  24.484  1.00  0.00     0.039 C 
ATOM      7  C   UNL     1      21.824   1.639  25.017  1.00  0.00    -0.080 C 
ATOM      8  C   UNL     1      21.365   0.426  25.785  1.00  0.00     0.039 C 
ENDBRANCH   4   5
ENDBRANCH   3   4
ENDBRANCH   1   3
BRANCH   1   9
ATOM      9  C   UNL     1      22.411   3.038  20.732  1.00  0.00     0.013 C 
ATOM     10  C   UNL     1      21.981   1.787  20.940  1.00  0.00     0.008 C 
ENDBRANCH   1   9
BRANCH   1  11
ATOM     11  O   UNL     1      21.436   5.246  20.776  1.00  0.00    -0.455 OA
BRANCH  11  12
ATOM     12  C   UNL     1      20.847   5.056  19.517  1.00  0.00     0.303 C 
ATOM     13  O   UNL     1      21.495   5.259  18.456  1.00  0.00    -0.253 OA
ATOM     14  C   UNL     1      19.418   4.639  19.436  1.00  0.00     0.139 C 
ENDBRANCH  11  12
ENDBRANCH   1  11
TORSDOF 6
ENDMDL
