MODEL 1
REMARK VINA RESULT:    -4.416      0.000      0.000
REMARK INTER + INTRA:          -5.203
REMARK INTER:                  -5.061
REMARK INTRA:                  -0.142
REMARK UNBOUND:                -0.142
REMARK SMILES O=C([O-])C=Cc1ccc(O)cc1
REMARK SMILES IDX 6 1 7 2 12 3 8 4 11 5 9 6 5 7 4 8 2 9 1 10 3 11 10 12
REMARK H PARENT 10 13
REMARK Flexibility Score: inf
ROOT
ATOM      1  C   UNL     1       8.533 -29.487  16.054  1.00  0.00    -0.025 A 
ATOM      2  C   UNL     1       7.721 -30.102  17.029  1.00  0.00     0.012 A 
ATOM      3  C   UNL     1       9.630 -28.716  16.475  1.00  0.00     0.012 A 
ATOM      4  C   UNL     1       8.021 -29.965  18.389  1.00  0.00     0.047 A 
ATOM      5  C   UNL     1       9.926 -28.581  17.835  1.00  0.00     0.047 A 
ATOM      6  C   UNL     1       9.122 -29.208  18.795  1.00  0.00     0.115 A 
ENDROOT
BRANCH   1   7
ATOM      7  C   UNL     1       8.254 -29.591  14.600  1.00  0.00     0.010 C 
ATOM      8  C   UNL     1       7.058 -29.920  14.093  1.00  0.00     0.025 C 
BRANCH   8   9
ATOM      9  C   UNL     1       6.830 -30.022  12.642  1.00  0.00     0.064 C 
ATOM     10  O   UNL     1       7.209 -29.091  11.886  1.00  0.00    -0.545 OA
ATOM     11  O   UNL     1       6.202 -31.135  12.093  1.00  0.00    -0.545 OA
ENDBRANCH   8   9
ENDBRANCH   1   7
BRANCH   6  12
ATOM     12  O   UNL     1       9.408 -29.082  20.153  1.00  0.00    -0.508 OA
ATOM     13  H   UNL     1       8.777 -28.600  20.783  1.00  0.00     0.293 HD
ENDBRANCH   6  12
TORSDOF 3
ENDMDL
MODEL 2
REMARK VINA RESULT:    -4.366      0.196      1.410
REMARK INTER + INTRA:          -5.146
REMARK INTER:                  -4.994
REMARK INTRA:                  -0.151
REMARK UNBOUND:                -0.142
REMARK SMILES O=C([O-])C=Cc1ccc(O)cc1
REMARK SMILES IDX 6 1 7 2 12 3 8 4 11 5 9 6 5 7 4 8 2 9 1 10 3 11 10 12
REMARK H PARENT 10 13
REMARK Flexibility Score: inf
ROOT
ATOM      1  C   UNL     1       8.463 -29.494  16.007  1.00  0.00    -0.025 A 
ATOM      2  C   UNL     1       9.609 -28.806  16.457  1.00  0.00     0.012 A 
ATOM      3  C   UNL     1       7.603 -30.070  16.957  1.00  0.00     0.012 A 
ATOM      4  C   UNL     1       9.867 -28.680  17.826  1.00  0.00     0.047 A 
ATOM      5  C   UNL     1       7.864 -29.942  18.325  1.00  0.00     0.047 A 
ATOM      6  C   UNL     1       8.997 -29.244  18.762  1.00  0.00     0.115 A 
ENDROOT
BRANCH   1   7
ATOM      7  C   UNL     1       8.149 -29.666  14.567  1.00  0.00     0.010 C 
ATOM      8  C   UNL     1       6.966 -30.097  14.108  1.00  0.00     0.025 C 
BRANCH   8   9
ATOM      9  C   UNL     1       6.703 -30.263  12.670  1.00  0.00     0.064 C 
ATOM     10  O   UNL     1       6.981 -29.328  11.875  1.00  0.00    -0.545 OA
ATOM     11  O   UNL     1       6.152 -31.439  12.173  1.00  0.00    -0.545 OA
ENDBRANCH   8   9
ENDBRANCH   1   7
BRANCH   6  12
ATOM     12  O   UNL     1       9.267 -29.109  20.122  1.00  0.00    -0.508 OA
ATOM     13  H   UNL     1       8.999 -29.825  20.788  1.00  0.00     0.293 HD
ENDBRANCH   6  12
TORSDOF 3
ENDMDL
MODEL 3
REMARK VINA RESULT:    -4.282      1.915      2.653
REMARK INTER + INTRA:          -5.050
REMARK INTER:                  -4.913
REMARK INTRA:                  -0.137
REMARK UNBOUND:                -0.142
REMARK SMILES O=C([O-])C=Cc1ccc(O)cc1
REMARK SMILES IDX 6 1 7 2 12 3 8 4 11 5 9 6 5 7 4 8 2 9 1 10 3 11 10 12
REMARK H PARENT 10 13
REMARK Flexibility Score: inf
ROOT
ATOM      1  C   UNL     1       8.571 -29.753  16.061  1.00  0.00    -0.025 A 
ATOM      2  C   UNL     1       9.256 -29.151  17.138  1.00  0.00     0.012 A 
ATOM      3  C   UNL     1       7.534 -30.659  16.341  1.00  0.00     0.012 A 
ATOM      4  C   UNL     1       8.889 -29.435  18.458  1.00  0.00     0.047 A 
ATOM      5  C   UNL     1       7.171 -30.941  17.662  1.00  0.00     0.047 A 
ATOM      6  C   UNL     1       7.847 -30.327  18.723  1.00  0.00     0.115 A 
ENDROOT
BRANCH   1   7
ATOM      7  C   UNL     1       8.927 -29.494  14.644  1.00  0.00     0.010 C 
ATOM      8  C   UNL     1       9.704 -30.303  13.912  1.00  0.00     0.025 C 
BRANCH   8   9
ATOM      9  C   UNL     1      10.040 -30.001  12.511  1.00  0.00     0.064 C 
ATOM     10  O   UNL     1      10.809 -30.768  11.877  1.00  0.00    -0.545 OA
ATOM     11  O   UNL     1       9.518 -28.879  11.875  1.00  0.00    -0.545 OA
ENDBRANCH   8   9
ENDBRANCH   1   7
BRANCH   6  12
ATOM     12  O   UNL     1       7.494 -30.598  20.043  1.00  0.00    -0.508 OA
ATOM     13  H   UNL     1       8.140 -31.046  20.683  1.00  0.00     0.293 HD
ENDBRANCH   6  12
TORSDOF 3
ENDMDL
MODEL 4
REMARK VINA RESULT:    -4.252      2.543      3.084
REMARK INTER + INTRA:          -5.015
REMARK INTER:                  -4.877
REMARK INTRA:                  -0.138
REMARK UNBOUND:                -0.142
REMARK SMILES O=C([O-])C=Cc1ccc(O)cc1
REMARK SMILES IDX 6 1 7 2 12 3 8 4 11 5 9 6 5 7 4 8 2 9 1 10 3 11 10 12
REMARK H PARENT 10 13
REMARK Flexibility Score: inf
ROOT
ATOM      1  C   UNL     1       8.613 -29.592  15.794  1.00  0.00    -0.025 A 
ATOM      2  C   UNL     1       9.134 -29.278  17.066  1.00  0.00     0.012 A 
ATOM      3  C   UNL     1       7.235 -29.838  15.669  1.00  0.00     0.012 A 
ATOM      4  C   UNL     1       8.287 -29.189  18.176  1.00  0.00     0.047 A 
ATOM      5  C   UNL     1       6.392 -29.748  16.780  1.00  0.00     0.047 A 
ATOM      6  C   UNL     1       6.916 -29.421  18.037  1.00  0.00     0.115 A 
ENDROOT
BRANCH   1   7
ATOM      7  C   UNL     1       9.469 -29.710  14.587  1.00  0.00     0.010 C 
ATOM      8  C   UNL     1       9.862 -30.879  14.064  1.00  0.00     0.025 C 
BRANCH   8   9
ATOM      9  C   UNL     1      10.721 -30.948  12.871  1.00  0.00     0.064 C 
ATOM     10  O   UNL     1      10.497 -30.180  11.899  1.00  0.00    -0.545 OA
ATOM     11  O   UNL     1      11.779 -31.847  12.800  1.00  0.00    -0.545 OA
ENDBRANCH   8   9
ENDBRANCH   1   7
BRANCH   6  12
ATOM     12  O   UNL     1       6.086 -29.327  19.151  1.00  0.00    -0.508 OA
ATOM     13  H   UNL     1       6.448 -29.060  20.060  1.00  0.00     0.293 HD
ENDBRANCH   6  12
TORSDOF 3
ENDMDL
MODEL 5
REMARK VINA RESULT:    -4.251      2.541      2.883
REMARK INTER + INTRA:          -5.015
REMARK INTER:                  -4.880
REMARK INTRA:                  -0.135
REMARK UNBOUND:                -0.142
REMARK SMILES O=C([O-])C=Cc1ccc(O)cc1
REMARK SMILES IDX 6 1 7 2 12 3 8 4 11 5 9 6 5 7 4 8 2 9 1 10 3 11 10 12
REMARK H PARENT 10 13
REMARK Flexibility Score: inf
ROOT
ATOM      1  C   UNL     1       8.463 -29.641  15.798  1.00  0.00    -0.025 A 
ATOM      2  C   UNL     1       7.068 -29.816  15.690  1.00  0.00     0.012 A 
ATOM      3  C   UNL     1       9.011 -29.338  17.056  1.00  0.00     0.012 A 
ATOM      4  C   UNL     1       6.251 -29.713  16.820  1.00  0.00     0.047 A 
ATOM      5  C   UNL     1       8.192 -29.236  18.184  1.00  0.00     0.047 A 
ATOM      6  C   UNL     1       6.809 -29.426  18.069  1.00  0.00     0.115 A 
ENDROOT
BRANCH   1   7
ATOM      7  C   UNL     1       9.372 -29.729  14.629  1.00  0.00     0.010 C 
ATOM      8  C   UNL     1       9.744 -30.883  14.058  1.00  0.00     0.025 C 
BRANCH   8   9
ATOM      9  C   UNL     1      10.658 -30.922  12.905  1.00  0.00     0.064 C 
ATOM     10  O   UNL     1      10.461 -30.153  11.929  1.00  0.00    -0.545 OA
ATOM     11  O   UNL     1      11.740 -31.796  12.878  1.00  0.00    -0.545 OA
ENDBRANCH   8   9
ENDBRANCH   1   7
BRANCH   6  12
ATOM     12  O   UNL     1       5.982 -29.328  19.186  1.00  0.00    -0.508 OA
ATOM     13  H   UNL     1       6.359 -29.134  20.107  1.00  0.00     0.293 HD
ENDBRANCH   6  12
TORSDOF 3
ENDMDL
MODEL 6
REMARK VINA RESULT:    -4.052      3.010      3.859
REMARK INTER + INTRA:          -4.786
REMARK INTER:                  -4.643
REMARK INTRA:                  -0.143
REMARK UNBOUND:                -0.142
REMARK SMILES O=C([O-])C=Cc1ccc(O)cc1
REMARK SMILES IDX 6 1 7 2 12 3 8 4 11 5 9 6 5 7 4 8 2 9 1 10 3 11 10 12
REMARK H PARENT 10 13
REMARK Flexibility Score: inf
ROOT
ATOM      1  C   UNL     1       8.083 -30.777  17.178  1.00  0.00    -0.025 A 
ATOM      2  C   UNL     1       8.663 -30.269  15.997  1.00  0.00     0.012 A 
ATOM      3  C   UNL     1       8.258 -30.066  18.378  1.00  0.00     0.012 A 
ATOM      4  C   UNL     1       9.378 -29.067  16.020  1.00  0.00     0.047 A 
ATOM      5  C   UNL     1       8.973 -28.864  18.396  1.00  0.00     0.047 A 
ATOM      6  C   UNL     1       9.533 -28.361  17.215  1.00  0.00     0.115 A 
ENDROOT
BRANCH   1   7
ATOM      7  C   UNL     1       7.325 -32.052  17.212  1.00  0.00     0.010 C 
ATOM      8  C   UNL     1       7.196 -32.870  16.159  1.00  0.00     0.025 C 
BRANCH   8   9
ATOM      9  C   UNL     1       6.423 -34.121  16.235  1.00  0.00     0.064 C 
ATOM     10  O   UNL     1       6.170 -34.627  17.359  1.00  0.00    -0.545 OA
ATOM     11  O   UNL     1       5.968 -34.753  15.083  1.00  0.00    -0.545 OA
ENDBRANCH   8   9
ENDBRANCH   1   7
BRANCH   6  12
ATOM     12  O   UNL     1      10.247 -27.165  17.221  1.00  0.00    -0.508 OA
ATOM     13  H   UNL     1      10.550 -26.734  18.087  1.00  0.00     0.293 HD
ENDBRANCH   6  12
TORSDOF 3
ENDMDL
MODEL 7
REMARK VINA RESULT:    -3.845      2.158      2.698
REMARK INTER + INTRA:          -4.549
REMARK INTER:                  -4.411
REMARK INTRA:                  -0.138
REMARK UNBOUND:                -0.142
REMARK SMILES O=C([O-])C=Cc1ccc(O)cc1
REMARK SMILES IDX 6 1 7 2 12 3 8 4 11 5 9 6 5 7 4 8 2 9 1 10 3 11 10 12
REMARK H PARENT 10 13
REMARK Flexibility Score: inf
ROOT
ATOM      1  C   UNL     1       9.227 -29.632  15.548  1.00  0.00    -0.025 A 
ATOM      2  C   UNL     1      10.136 -28.673  16.041  1.00  0.00     0.012 A 
ATOM      3  C   UNL     1       8.219 -30.111  16.402  1.00  0.00     0.012 A 
ATOM      4  C   UNL     1      10.017 -28.191  17.349  1.00  0.00     0.047 A 
ATOM      5  C   UNL     1       8.103 -29.626  17.709  1.00  0.00     0.047 A 
ATOM      6  C   UNL     1       9.001 -28.663  18.184  1.00  0.00     0.115 A 
ENDROOT
BRANCH   1   7
ATOM      7  C   UNL     1       9.315 -30.184  14.173  1.00  0.00     0.010 C 
ATOM      8  C   UNL     1       9.672 -31.446  13.898  1.00  0.00     0.025 C 
BRANCH   8   9
ATOM      9  C   UNL     1       9.757 -31.947  12.517  1.00  0.00     0.064 C 
ATOM     10  O   UNL     1       8.701 -32.182  11.875  1.00  0.00    -0.545 OA
ATOM     11  O   UNL     1      10.988 -32.163  11.908  1.00  0.00    -0.545 OA
ENDBRANCH   8   9
ENDBRANCH   1   7
BRANCH   6  12
ATOM     12  O   UNL     1       8.896 -28.173  19.483  1.00  0.00    -0.508 OA
ATOM     13  H   UNL     1       8.271 -27.408  19.711  1.00  0.00     0.293 HD
ENDBRANCH   6  12
TORSDOF 3
ENDMDL
MODEL 8
REMARK VINA RESULT:    -3.720      3.487      4.721
REMARK INTER + INTRA:          -4.406
REMARK INTER:                  -4.253
REMARK INTRA:                  -0.153
REMARK UNBOUND:                -0.142
REMARK SMILES O=C([O-])C=Cc1ccc(O)cc1
REMARK SMILES IDX 6 1 7 2 12 3 8 4 11 5 9 6 5 7 4 8 2 9 1 10 3 11 10 12
REMARK H PARENT 10 13
REMARK Flexibility Score: inf
ROOT
ATOM      1  C   UNL     1       9.102 -31.367  14.496  1.00  0.00    -0.025 A 
ATOM      2  C   UNL     1      10.070 -31.365  13.470  1.00  0.00     0.012 A 
ATOM      3  C   UNL     1       8.987 -30.234  15.319  1.00  0.00     0.012 A 
ATOM      4  C   UNL     1      10.881 -30.244  13.263  1.00  0.00     0.047 A 
ATOM      5  C   UNL     1       9.800 -29.115  15.110  1.00  0.00     0.047 A 
ATOM      6  C   UNL     1      10.748 -29.118  14.079  1.00  0.00     0.115 A 
ENDROOT
BRANCH   1   7
ATOM      7  C   UNL     1       8.224 -32.533  14.764  1.00  0.00     0.010 C 
ATOM      8  C   UNL     1       7.487 -32.670  15.873  1.00  0.00     0.025 C 
BRANCH   8   9
ATOM      9  C   UNL     1       6.638 -33.851  16.102  1.00  0.00     0.064 C 
ATOM     10  O   UNL     1       6.101 -34.430  15.122  1.00  0.00    -0.545 OA
ATOM     11  O   UNL     1       6.421 -34.340  17.386  1.00  0.00    -0.545 OA
ENDBRANCH   8   9
ENDBRANCH   1   7
BRANCH   6  12
ATOM     12  O   UNL     1      11.563 -28.009  13.860  1.00  0.00    -0.508 OA
ATOM     13  H   UNL     1      12.560 -28.108  13.710  1.00  0.00     0.293 HD
ENDBRANCH   6  12
TORSDOF 3
ENDMDL
MODEL 9
REMARK VINA RESULT:    -3.649      3.062      5.286
REMARK INTER + INTRA:          -4.325
REMARK INTER:                  -4.185
REMARK INTRA:                  -0.140
REMARK UNBOUND:                -0.142
REMARK SMILES O=C([O-])C=Cc1ccc(O)cc1
REMARK SMILES IDX 6 1 7 2 12 3 8 4 11 5 9 6 5 7 4 8 2 9 1 10 3 11 10 12
REMARK H PARENT 10 13
REMARK Flexibility Score: inf
ROOT
ATOM      1  C   UNL     1       9.204 -30.605  14.659  1.00  0.00    -0.025 A 
ATOM      2  C   UNL     1       9.433 -31.992  14.545  1.00  0.00     0.012 A 
ATOM      3  C   UNL     1       9.937 -29.729  13.841  1.00  0.00     0.012 A 
ATOM      4  C   UNL     1      10.356 -32.484  13.616  1.00  0.00     0.047 A 
ATOM      5  C   UNL     1      10.859 -30.224  12.913  1.00  0.00     0.047 A 
ATOM      6  C   UNL     1      11.069 -31.604  12.798  1.00  0.00     0.115 A 
ENDROOT
BRANCH   1   7
ATOM      7  C   UNL     1       8.244 -30.032  15.635  1.00  0.00     0.010 C 
ATOM      8  C   UNL     1       8.019 -30.548  16.850  1.00  0.00     0.025 C 
BRANCH   8   9
ATOM      9  C   UNL     1       7.048 -29.951  17.782  1.00  0.00     0.064 C 
ATOM     10  O   UNL     1       7.282 -29.970  19.018  1.00  0.00    -0.545 OA
ATOM     11  O   UNL     1       5.877 -29.364  17.317  1.00  0.00    -0.545 OA
ENDBRANCH   8   9
ENDBRANCH   1   7
BRANCH   6  12
ATOM     12  O   UNL     1      11.984 -32.109  11.877  1.00  0.00    -0.508 OA
ATOM     13  H   UNL     1      11.689 -32.435  10.963  1.00  0.00     0.293 HD
ENDBRANCH   6  12
TORSDOF 3
ENDMDL
