MODEL 1
REMARK VINA RESULT:    -6.252      0.000      0.000
REMARK INTER + INTRA:          -8.075
REMARK INTER:                  -7.714
REMARK INTRA:                  -0.362
REMARK UNBOUND:                -0.362
REMARK SMILES Oc1cc(O)c2cc(O)c(-c3cc(O)c(O)c(O)c3)[o+]c2c1
REMARK SMILES IDX 10 1 20 2 21 3 22 4 2 5 3 6 4 7 6 8 7 9 8 10 11 11 12 12
REMARK SMILES IDX 13 13 19 14 15 15 17 16 14 17 16 19 18 21 9 23 1 25 5 27
REMARK H PARENT 14 18 16 20 18 22 9 24 1 26 5 28
REMARK Flexibility Score: inf
ROOT
ATOM      1  C   UNL     1      27.771  10.706  66.050  1.00  0.00     0.402 A 
ATOM      2  O   UNL     1      27.135  10.463  64.907  1.00  0.00    -0.202 OA
ATOM      3  C   UNL     1      27.354  11.148  63.790  1.00  0.00     0.368 A 
ATOM      4  C   UNL     1      26.637  10.817  62.637  1.00  0.00     0.162 A 
ATOM      5  C   UNL     1      26.849  11.516  61.449  1.00  0.00     0.128 A 
ATOM      6  C   UNL     1      27.785  12.557  61.410  1.00  0.00     0.093 A 
ATOM      7  C   UNL     1      28.517  12.908  62.551  1.00  0.00     0.136 A 
ATOM      8  C   UNL     1      28.301  12.201  63.763  1.00  0.00     0.125 A 
ATOM      9  C   UNL     1      28.979  12.492  64.958  1.00  0.00     0.078 A 
ATOM     10  C   UNL     1      28.710  11.753  66.113  1.00  0.00     0.223 A 
ENDROOT
BRANCH   1  11
ATOM     11  C   UNL     1      27.446   9.866  67.226  1.00  0.00     0.091 A 
ATOM     12  C   UNL     1      28.103   8.640  67.399  1.00  0.00     0.068 A 
ATOM     13  C   UNL     1      27.832   7.834  68.510  1.00  0.00     0.162 A 
ATOM     14  C   UNL     1      26.533  10.297  68.203  1.00  0.00     0.068 A 
ATOM     15  C   UNL     1      26.902   8.260  69.474  1.00  0.00     0.200 A 
ATOM     16  C   UNL     1      26.255   9.498  69.320  1.00  0.00     0.162 A 
BRANCH  13  17
ATOM     17  O   UNL     1      28.496   6.615  68.639  1.00  0.00    -0.504 OA
ATOM     18  H   UNL     1      29.507   6.550  68.637  1.00  0.00     0.293 HD
ENDBRANCH  13  17
BRANCH  15  19
ATOM     19  O   UNL     1      26.633   7.449  70.578  1.00  0.00    -0.502 OA
ATOM     20  H   UNL     1      26.178   6.548  70.488  1.00  0.00     0.293 HD
ENDBRANCH  15  19
BRANCH  16  21
ATOM     21  O   UNL     1      25.342   9.933  70.280  1.00  0.00    -0.504 OA
ATOM     22  H   UNL     1      25.632  10.157  71.225  1.00  0.00     0.293 HD
ENDBRANCH  16  21
ENDBRANCH   1  11
BRANCH  10  23
ATOM     23  O   UNL     1      29.346  12.075  67.313  1.00  0.00    -0.500 OA
ATOM     24  H   UNL     1      29.443  13.034  67.625  1.00  0.00     0.294 HD
ENDBRANCH  10  23
BRANCH   5  25
ATOM     25  O   UNL     1      26.125  11.171  60.310  1.00  0.00    -0.507 OA
ATOM     26  H   UNL     1      25.113  11.224  60.289  1.00  0.00     0.293 HD
ENDBRANCH   5  25
BRANCH   7  27
ATOM     27  O   UNL     1      29.434  13.956  62.430  1.00  0.00    -0.507 OA
ATOM     28  H   UNL     1      30.426  13.832  62.295  1.00  0.00     0.293 HD
ENDBRANCH   7  27
TORSDOF 7
ENDMDL
MODEL 2
REMARK VINA RESULT:    -6.172      4.341      8.675
REMARK INTER + INTRA:          -7.977
REMARK INTER:                  -7.663
REMARK INTRA:                  -0.314
REMARK UNBOUND:                -0.362
REMARK SMILES Oc1cc(O)c2cc(O)c(-c3cc(O)c(O)c(O)c3)[o+]c2c1
REMARK SMILES IDX 10 1 20 2 21 3 22 4 2 5 3 6 4 7 6 8 7 9 8 10 11 11 12 12
REMARK SMILES IDX 13 13 19 14 15 15 17 16 14 17 16 19 18 21 9 23 1 25 5 27
REMARK H PARENT 14 18 16 20 18 22 9 24 1 26 5 28
REMARK Flexibility Score: inf
ROOT
ATOM      1  C   UNL     1      29.098  11.532  60.446  1.00  0.00     0.402 A 
ATOM      2  O   UNL     1      28.669  12.203  61.512  1.00  0.00    -0.202 OA
ATOM      3  C   UNL     1      29.285  12.174  62.689  1.00  0.00     0.368 A 
ATOM      4  C   UNL     1      28.758  12.915  63.750  1.00  0.00     0.162 A 
ATOM      5  C   UNL     1      29.385  12.906  64.997  1.00  0.00     0.128 A 
ATOM      6  C   UNL     1      30.548  12.151  65.186  1.00  0.00     0.093 A 
ATOM      7  C   UNL     1      31.097  11.401  64.138  1.00  0.00     0.136 A 
ATOM      8  C   UNL     1      30.460  11.405  62.870  1.00  0.00     0.125 A 
ATOM      9  C   UNL     1      30.930  10.673  61.767  1.00  0.00     0.078 A 
ATOM     10  C   UNL     1      30.246  10.724  60.550  1.00  0.00     0.223 A 
ENDROOT
BRANCH   1  11
ATOM     11  C   UNL     1      28.330  11.653  59.186  1.00  0.00     0.091 A 
ATOM     12  C   UNL     1      27.043  11.102  59.108  1.00  0.00     0.068 A 
ATOM     13  C   UNL     1      26.286  11.218  57.937  1.00  0.00     0.162 A 
ATOM     14  C   UNL     1      28.840  12.358  58.083  1.00  0.00     0.068 A 
ATOM     15  C   UNL     1      26.809  11.906  56.829  1.00  0.00     0.200 A 
ATOM     16  C   UNL     1      28.089  12.481  56.906  1.00  0.00     0.162 A 
BRANCH  13  17
ATOM     17  O   UNL     1      25.016  10.643  57.895  1.00  0.00    -0.504 OA
ATOM     18  H   UNL     1      24.853   9.726  57.497  1.00  0.00     0.293 HD
ENDBRANCH  13  17
BRANCH  15  19
ATOM     19  O   UNL     1      26.049  12.014  55.663  1.00  0.00    -0.502 OA
ATOM     20  H   UNL     1      25.347  12.735  55.540  1.00  0.00     0.293 HD
ENDBRANCH  15  19
BRANCH  16  21
ATOM     21  O   UNL     1      28.608  13.178  55.815  1.00  0.00    -0.504 OA
ATOM     22  H   UNL     1      28.614  12.779  54.885  1.00  0.00     0.293 HD
ENDBRANCH  16  21
ENDBRANCH   1  11
BRANCH  10  23
ATOM     23  O   UNL     1      30.684   9.958  59.469  1.00  0.00    -0.500 OA
ATOM     24  H   UNL     1      31.396   9.244  59.575  1.00  0.00     0.294 HD
ENDBRANCH  10  23
BRANCH   5  25
ATOM     25  O   UNL     1      28.845  13.651  66.042  1.00  0.00    -0.507 OA
ATOM     26  H   UNL     1      27.881  13.963  66.029  1.00  0.00     0.293 HD
ENDBRANCH   5  25
BRANCH   7  27
ATOM     27  O   UNL     1      32.262  10.677  64.407  1.00  0.00    -0.507 OA
ATOM     28  H   UNL     1      33.010  11.000  65.003  1.00  0.00     0.293 HD
ENDBRANCH   7  27
TORSDOF 7
ENDMDL
MODEL 3
REMARK VINA RESULT:    -6.141      2.476      8.114
REMARK INTER + INTRA:          -7.939
REMARK INTER:                  -7.965
REMARK INTRA:                   0.026
REMARK UNBOUND:                -0.362
REMARK SMILES Oc1cc(O)c2cc(O)c(-c3cc(O)c(O)c(O)c3)[o+]c2c1
REMARK SMILES IDX 10 1 20 2 21 3 22 4 2 5 3 6 4 7 6 8 7 9 8 10 11 11 12 12
REMARK SMILES IDX 13 13 19 14 15 15 17 16 14 17 16 19 18 21 9 23 1 25 5 27
REMARK H PARENT 14 18 16 20 18 22 9 24 1 26 5 28
REMARK Flexibility Score: inf
ROOT
ATOM      1  C   UNL     1      28.169  12.014  61.669  1.00  0.00     0.402 A 
ATOM      2  O   UNL     1      27.911  10.862  62.285  1.00  0.00    -0.202 OA
ATOM      3  C   UNL     1      28.045  10.689  63.595  1.00  0.00     0.368 A 
ATOM      4  C   UNL     1      27.748   9.442  64.150  1.00  0.00     0.162 A 
ATOM      5  C   UNL     1      27.876   9.232  65.524  1.00  0.00     0.128 A 
ATOM      6  C   UNL     1      28.305  10.277  66.350  1.00  0.00     0.093 A 
ATOM      7  C   UNL     1      28.609  11.536  65.819  1.00  0.00     0.136 A 
ATOM      8  C   UNL     1      28.483  11.752  64.422  1.00  0.00     0.125 A 
ATOM      9  C   UNL     1      28.778  12.977  63.800  1.00  0.00     0.078 A 
ATOM     10  C   UNL     1      28.633  13.112  62.417  1.00  0.00     0.223 A 
ENDROOT
BRANCH   1  11
ATOM     11  C   UNL     1      27.971  12.084  60.203  1.00  0.00     0.091 A 
ATOM     12  C   UNL     1      26.788  11.583  59.642  1.00  0.00     0.068 A 
ATOM     13  C   UNL     1      26.565  11.654  58.263  1.00  0.00     0.162 A 
ATOM     14  C   UNL     1      28.921  12.694  59.366  1.00  0.00     0.068 A 
ATOM     15  C   UNL     1      27.526  12.246  57.427  1.00  0.00     0.200 A 
ATOM     16  C   UNL     1      28.706  12.771  57.983  1.00  0.00     0.162 A 
BRANCH  13  17
ATOM     17  O   UNL     1      25.381  11.131  57.743  1.00  0.00    -0.504 OA
ATOM     18  H   UNL     1      25.157  11.183  56.756  1.00  0.00     0.293 HD
ENDBRANCH  13  17
BRANCH  15  19
ATOM     19  O   UNL     1      27.298  12.310  56.051  1.00  0.00    -0.502 OA
ATOM     20  H   UNL     1      26.386  12.136  55.646  1.00  0.00     0.293 HD
ENDBRANCH  15  19
BRANCH  16  21
ATOM     21  O   UNL     1      29.657  13.374  57.160  1.00  0.00    -0.504 OA
ATOM     22  H   UNL     1      30.632  13.101  57.189  1.00  0.00     0.293 HD
ENDBRANCH  16  21
ENDBRANCH   1  11
BRANCH  10  23
ATOM     23  O   UNL     1      28.974  14.312  61.792  1.00  0.00    -0.500 OA
ATOM     24  H   UNL     1      29.528  14.334  60.944  1.00  0.00     0.294 HD
ENDBRANCH  10  23
BRANCH   5  25
ATOM     25  O   UNL     1      27.574   7.982  66.058  1.00  0.00    -0.507 OA
ATOM     26  H   UNL     1      27.317   7.870  67.032  1.00  0.00     0.293 HD
ENDBRANCH   5  25
BRANCH   7  27
ATOM     27  O   UNL     1      29.028  12.527  66.711  1.00  0.00    -0.507 OA
ATOM     28  H   UNL     1      29.955  12.927  66.726  1.00  0.00     0.293 HD
ENDBRANCH   7  27
TORSDOF 7
ENDMDL
MODEL 4
REMARK VINA RESULT:    -6.140      4.389      8.692
REMARK INTER + INTRA:          -7.938
REMARK INTER:                  -7.586
REMARK INTRA:                  -0.352
REMARK UNBOUND:                -0.362
REMARK SMILES Oc1cc(O)c2cc(O)c(-c3cc(O)c(O)c(O)c3)[o+]c2c1
REMARK SMILES IDX 10 1 20 2 21 3 22 4 2 5 3 6 4 7 6 8 7 9 8 10 11 11 12 12
REMARK SMILES IDX 13 13 19 14 15 15 17 16 14 17 16 19 18 21 9 23 1 25 5 27
REMARK H PARENT 14 18 16 20 18 22 9 24 1 26 5 28
REMARK Flexibility Score: inf
ROOT
ATOM      1  C   UNL     1      28.046  12.039  60.476  1.00  0.00     0.402 A 
ATOM      2  O   UNL     1      29.174  11.466  60.891  1.00  0.00    -0.202 OA
ATOM      3  C   UNL     1      29.645  11.594  62.127  1.00  0.00     0.368 A 
ATOM      4  C   UNL     1      30.838  10.952  62.469  1.00  0.00     0.162 A 
ATOM      5  C   UNL     1      31.356  11.065  63.759  1.00  0.00     0.128 A 
ATOM      6  C   UNL     1      30.676  11.826  64.718  1.00  0.00     0.093 A 
ATOM      7  C   UNL     1      29.479  12.479  64.401  1.00  0.00     0.136 A 
ATOM      8  C   UNL     1      28.951  12.368  63.087  1.00  0.00     0.125 A 
ATOM      9  C   UNL     1      27.765  12.998  62.677  1.00  0.00     0.078 A 
ATOM     10  C   UNL     1      27.310  12.846  61.364  1.00  0.00     0.223 A 
ENDROOT
BRANCH   1  11
ATOM     11  C   UNL     1      27.620  11.813  59.076  1.00  0.00     0.091 A 
ATOM     12  C   UNL     1      28.298  12.464  58.036  1.00  0.00     0.068 A 
ATOM     13  C   UNL     1      27.930  12.255  56.702  1.00  0.00     0.162 A 
ATOM     14  C   UNL     1      26.584  10.916  58.763  1.00  0.00     0.068 A 
ATOM     15  C   UNL     1      26.881  11.373  56.394  1.00  0.00     0.200 A 
ATOM     16  C   UNL     1      26.210  10.699  57.429  1.00  0.00     0.162 A 
BRANCH  13  17
ATOM     17  O   UNL     1      28.621  12.933  55.698  1.00  0.00    -0.504 OA
ATOM     18  H   UNL     1      28.402  12.809  54.716  1.00  0.00     0.293 HD
ENDBRANCH  13  17
BRANCH  15  19
ATOM     19  O   UNL     1      26.517  11.173  55.062  1.00  0.00    -0.502 OA
ATOM     20  H   UNL     1      25.561  11.275  54.741  1.00  0.00     0.293 HD
ENDBRANCH  15  19
BRANCH  16  21
ATOM     21  O   UNL     1      25.177   9.811  57.130  1.00  0.00    -0.504 OA
ATOM     22  H   UNL     1      24.235  10.135  56.947  1.00  0.00     0.293 HD
ENDBRANCH  16  21
ENDBRANCH   1  11
BRANCH  10  23
ATOM     23  O   UNL     1      26.159  13.512  60.941  1.00  0.00    -0.500 OA
ATOM     24  H   UNL     1      25.499  13.083  60.303  1.00  0.00     0.294 HD
ENDBRANCH  10  23
BRANCH   5  25
ATOM     25  O   UNL     1      32.546  10.417  64.081  1.00  0.00    -0.507 OA
ATOM     26  H   UNL     1      32.576   9.420  64.257  1.00  0.00     0.293 HD
ENDBRANCH   5  25
BRANCH   7  27
ATOM     27  O   UNL     1      28.860  13.216  65.414  1.00  0.00    -0.507 OA
ATOM     28  H   UNL     1      28.733  14.217  65.394  1.00  0.00     0.293 HD
ENDBRANCH   7  27
TORSDOF 7
ENDMDL
MODEL 5
REMARK VINA RESULT:    -5.900      4.609      8.600
REMARK INTER + INTRA:          -7.642
REMARK INTER:                  -7.303
REMARK INTRA:                  -0.339
REMARK UNBOUND:                -0.362
REMARK SMILES Oc1cc(O)c2cc(O)c(-c3cc(O)c(O)c(O)c3)[o+]c2c1
REMARK SMILES IDX 10 1 20 2 21 3 22 4 2 5 3 6 4 7 6 8 7 9 8 10 11 11 12 12
REMARK SMILES IDX 13 13 19 14 15 15 17 16 14 17 16 19 18 21 9 23 1 25 5 27
REMARK H PARENT 14 18 16 20 18 22 9 24 1 26 5 28
REMARK Flexibility Score: inf
ROOT
ATOM      1  C   UNL     1      28.707  12.094  60.777  1.00  0.00     0.402 A 
ATOM      2  O   UNL     1      29.703  11.263  61.073  1.00  0.00    -0.202 OA
ATOM      3  C   UNL     1      30.306  11.237  62.256  1.00  0.00     0.368 A 
ATOM      4  C   UNL     1      31.343  10.325  62.472  1.00  0.00     0.162 A 
ATOM      5  C   UNL     1      31.992  10.273  63.705  1.00  0.00     0.128 A 
ATOM      6  C   UNL     1      31.603  11.140  64.734  1.00  0.00     0.093 A 
ATOM      7  C   UNL     1      30.567  12.062  64.544  1.00  0.00     0.136 A 
ATOM      8  C   UNL     1      29.907  12.120  63.288  1.00  0.00     0.125 A 
ATOM      9  C   UNL     1      28.867  13.021  63.004  1.00  0.00     0.078 A 
ATOM     10  C   UNL     1      28.267  13.021  61.741  1.00  0.00     0.223 A 
ENDROOT
BRANCH   1  11
ATOM     11  C   UNL     1      28.109  12.019  59.424  1.00  0.00     0.091 A 
ATOM     12  C   UNL     1      26.861  11.405  59.256  1.00  0.00     0.068 A 
ATOM     13  C   UNL     1      26.262  11.337  57.993  1.00  0.00     0.162 A 
ATOM     14  C   UNL     1      28.741  12.601  58.312  1.00  0.00     0.068 A 
ATOM     15  C   UNL     1      26.907  11.902  56.880  1.00  0.00     0.200 A 
ATOM     16  C   UNL     1      28.149  12.540  57.043  1.00  0.00     0.162 A 
BRANCH  13  17
ATOM     17  O   UNL     1      25.026  10.704  57.865  1.00  0.00    -0.504 OA
ATOM     18  H   UNL     1      24.704  10.324  56.983  1.00  0.00     0.293 HD
ENDBRANCH  13  17
BRANCH  15  19
ATOM     19  O   UNL     1      26.306  11.827  55.623  1.00  0.00    -0.502 OA
ATOM     20  H   UNL     1      25.920  12.641  55.158  1.00  0.00     0.293 HD
ENDBRANCH  15  19
BRANCH  16  21
ATOM     21  O   UNL     1      28.788  13.116  55.946  1.00  0.00    -0.504 OA
ATOM     22  H   UNL     1      28.728  14.110  55.759  1.00  0.00     0.293 HD
ENDBRANCH  16  21
ENDBRANCH   1  11
BRANCH  10  23
ATOM     23  O   UNL     1      27.270  13.948  61.441  1.00  0.00    -0.500 OA
ATOM     24  H   UNL     1      26.330  13.660  61.192  1.00  0.00     0.294 HD
ENDBRANCH  10  23
BRANCH   5  25
ATOM     25  O   UNL     1      33.023   9.357  63.901  1.00  0.00    -0.507 OA
ATOM     26  H   UNL     1      33.111   8.528  63.326  1.00  0.00     0.293 HD
ENDBRANCH   5  25
BRANCH   7  27
ATOM     27  O   UNL     1      30.236  12.889  65.620  1.00  0.00    -0.507 OA
ATOM     28  H   UNL     1      30.834  13.056  66.416  1.00  0.00     0.293 HD
ENDBRANCH   7  27
TORSDOF 7
ENDMDL
MODEL 6
REMARK VINA RESULT:    -5.895      4.206      6.022
REMARK INTER + INTRA:          -7.635
REMARK INTER:                  -7.286
REMARK INTRA:                  -0.349
REMARK UNBOUND:                -0.362
REMARK SMILES Oc1cc(O)c2cc(O)c(-c3cc(O)c(O)c(O)c3)[o+]c2c1
REMARK SMILES IDX 10 1 20 2 21 3 22 4 2 5 3 6 4 7 6 8 7 9 8 10 11 11 12 12
REMARK SMILES IDX 13 13 19 14 15 15 17 16 14 17 16 19 18 21 9 23 1 25 5 27
REMARK H PARENT 14 18 16 20 18 22 9 24 1 26 5 28
REMARK Flexibility Score: inf
ROOT
ATOM      1  C   UNL     1      29.353  12.174  61.059  1.00  0.00     0.402 A 
ATOM      2  O   UNL     1      28.174  11.672  60.702  1.00  0.00    -0.202 OA
ATOM      3  C   UNL     1      27.717  11.698  59.455  1.00  0.00     0.368 A 
ATOM      4  C   UNL     1      26.465  11.143  59.178  1.00  0.00     0.162 A 
ATOM      5  C   UNL     1      25.960  11.153  57.877  1.00  0.00     0.128 A 
ATOM      6  C   UNL     1      26.712  11.723  56.843  1.00  0.00     0.093 A 
ATOM      7  C   UNL     1      27.970  12.286  57.094  1.00  0.00     0.136 A 
ATOM      8  C   UNL     1      28.484  12.280  58.417  1.00  0.00     0.125 A 
ATOM      9  C   UNL     1      29.728  12.833  58.764  1.00  0.00     0.078 A 
ATOM     10  C   UNL     1      30.166  12.793  60.091  1.00  0.00     0.223 A 
ENDROOT
BRANCH   1  11
ATOM     11  C   UNL     1      29.756  12.076  62.481  1.00  0.00     0.091 A 
ATOM     12  C   UNL     1      29.141  12.904  63.430  1.00  0.00     0.068 A 
ATOM     13  C   UNL     1      29.487  12.819  64.783  1.00  0.00     0.162 A 
ATOM     14  C   UNL     1      30.702  11.129  62.909  1.00  0.00     0.068 A 
ATOM     15  C   UNL     1      30.449  11.885  65.204  1.00  0.00     0.200 A 
ATOM     16  C   UNL     1      31.054  11.035  64.262  1.00  0.00     0.162 A 
BRANCH  13  17
ATOM     17  O   UNL     1      28.862  13.671  65.694  1.00  0.00    -0.504 OA
ATOM     18  H   UNL     1      28.253  13.324  66.425  1.00  0.00     0.293 HD
ENDBRANCH  13  17
BRANCH  15  19
ATOM     19  O   UNL     1      30.791  11.810  66.555  1.00  0.00    -0.502 OA
ATOM     20  H   UNL     1      30.806  12.626  67.155  1.00  0.00     0.293 HD
ENDBRANCH  15  19
BRANCH  16  21
ATOM     21  O   UNL     1      31.999  10.096  64.675  1.00  0.00    -0.504 OA
ATOM     22  H   UNL     1      32.673   9.702  64.030  1.00  0.00     0.293 HD
ENDBRANCH  16  21
ENDBRANCH   1  11
BRANCH  10  23
ATOM     23  O   UNL     1      31.378  13.386  60.445  1.00  0.00    -0.500 OA
ATOM     24  H   UNL     1      31.583  14.354  60.225  1.00  0.00     0.294 HD
ENDBRANCH  10  23
BRANCH   5  25
ATOM     25  O   UNL     1      24.711  10.593  57.621  1.00  0.00    -0.507 OA
ATOM     26  H   UNL     1      24.177  10.133  58.348  1.00  0.00     0.293 HD
ENDBRANCH   5  25
BRANCH   7  27
ATOM     27  O   UNL     1      28.659  12.832  56.008  1.00  0.00    -0.507 OA
ATOM     28  H   UNL     1      29.519  13.354  56.082  1.00  0.00     0.293 HD
ENDBRANCH   7  27
TORSDOF 7
ENDMDL
MODEL 7
REMARK VINA RESULT:    -5.817      4.166      8.515
REMARK INTER + INTRA:          -7.539
REMARK INTER:                  -7.192
REMARK INTRA:                  -0.348
REMARK UNBOUND:                -0.362
REMARK SMILES Oc1cc(O)c2cc(O)c(-c3cc(O)c(O)c(O)c3)[o+]c2c1
REMARK SMILES IDX 10 1 20 2 21 3 22 4 2 5 3 6 4 7 6 8 7 9 8 10 11 11 12 12
REMARK SMILES IDX 13 13 19 14 15 15 17 16 14 17 16 19 18 21 9 23 1 25 5 27
REMARK H PARENT 14 18 16 20 18 22 9 24 1 26 5 28
REMARK Flexibility Score: inf
ROOT
ATOM      1  C   UNL     1      26.140   9.573  59.962  1.00  0.00     0.402 A 
ATOM      2  O   UNL     1      26.541  10.839  59.871  1.00  0.00    -0.202 OA
ATOM      3  C   UNL     1      27.001  11.535  60.905  1.00  0.00     0.368 A 
ATOM      4  C   UNL     1      27.401  12.859  60.708  1.00  0.00     0.162 A 
ATOM      5  C   UNL     1      27.891  13.614  61.774  1.00  0.00     0.128 A 
ATOM      6  C   UNL     1      27.984  13.041  63.048  1.00  0.00     0.093 A 
ATOM      7  C   UNL     1      27.591  11.715  63.271  1.00  0.00     0.136 A 
ATOM      8  C   UNL     1      27.088  10.946  62.189  1.00  0.00     0.125 A 
ATOM      9  C   UNL     1      26.658   9.615  62.322  1.00  0.00     0.078 A 
ATOM     10  C   UNL     1      26.171   8.923  61.210  1.00  0.00     0.223 A 
ENDROOT
BRANCH   1  11
ATOM     11  C   UNL     1      25.656   8.901  58.734  1.00  0.00     0.091 A 
ATOM     12  C   UNL     1      26.496   8.000  58.065  1.00  0.00     0.068 A 
ATOM     13  C   UNL     1      26.059   7.335  56.914  1.00  0.00     0.162 A 
ATOM     14  C   UNL     1      24.350   9.103  58.256  1.00  0.00     0.068 A 
ATOM     15  C   UNL     1      24.760   7.556  56.428  1.00  0.00     0.200 A 
ATOM     16  C   UNL     1      23.902   8.440  57.105  1.00  0.00     0.162 A 
BRANCH  13  17
ATOM     17  O   UNL     1      26.931   6.459  56.269  1.00  0.00    -0.504 OA
ATOM     18  H   UNL     1      27.305   5.637  56.727  1.00  0.00     0.293 HD
ENDBRANCH  13  17
BRANCH  15  19
ATOM     19  O   UNL     1      24.332   6.892  55.277  1.00  0.00    -0.502 OA
ATOM     20  H   UNL     1      24.487   5.901  55.136  1.00  0.00     0.293 HD
ENDBRANCH  15  19
BRANCH  16  21
ATOM     21  O   UNL     1      22.606   8.652  56.637  1.00  0.00    -0.504 OA
ATOM     22  H   UNL     1      22.431   9.031  55.714  1.00  0.00     0.293 HD
ENDBRANCH  16  21
ENDBRANCH   1  11
BRANCH  10  23
ATOM     23  O   UNL     1      25.697   7.619  61.351  1.00  0.00    -0.500 OA
ATOM     24  H   UNL     1      24.960   7.251  60.760  1.00  0.00     0.294 HD
ENDBRANCH  10  23
BRANCH   5  25
ATOM     25  O   UNL     1      28.285  14.932  61.559  1.00  0.00    -0.507 OA
ATOM     26  H   UNL     1      28.446  15.291  60.626  1.00  0.00     0.293 HD
ENDBRANCH   5  25
BRANCH   7  27
ATOM     27  O   UNL     1      27.717  11.217  64.571  1.00  0.00    -0.507 OA
ATOM     28  H   UNL     1      28.489  10.650  64.892  1.00  0.00     0.293 HD
ENDBRANCH   7  27
TORSDOF 7
ENDMDL
MODEL 8
REMARK VINA RESULT:    -5.721      3.828      8.655
REMARK INTER + INTRA:          -7.420
REMARK INTER:                  -7.044
REMARK INTRA:                  -0.376
REMARK UNBOUND:                -0.362
REMARK SMILES Oc1cc(O)c2cc(O)c(-c3cc(O)c(O)c(O)c3)[o+]c2c1
REMARK SMILES IDX 10 1 20 2 21 3 22 4 2 5 3 6 4 7 6 8 7 9 8 10 11 11 12 12
REMARK SMILES IDX 13 13 19 14 15 15 17 16 14 17 16 19 18 21 9 23 1 25 5 27
REMARK H PARENT 14 18 16 20 18 22 9 24 1 26 5 28
REMARK Flexibility Score: inf
ROOT
ATOM      1  C   UNL     1      26.429  10.483  59.237  1.00  0.00     0.402 A 
ATOM      2  O   UNL     1      26.525  10.105  60.510  1.00  0.00    -0.202 OA
ATOM      3  C   UNL     1      27.020  10.882  61.467  1.00  0.00     0.368 A 
ATOM      4  C   UNL     1      27.077  10.396  62.775  1.00  0.00     0.162 A 
ATOM      5  C   UNL     1      27.589  11.191  63.802  1.00  0.00     0.128 A 
ATOM      6  C   UNL     1      28.047  12.483  63.519  1.00  0.00     0.093 A 
ATOM      7  C   UNL     1      28.000  12.994  62.216  1.00  0.00     0.136 A 
ATOM      8  C   UNL     1      27.483  12.187  61.169  1.00  0.00     0.125 A 
ATOM      9  C   UNL     1      27.410  12.610  59.832  1.00  0.00     0.078 A 
ATOM     10  C   UNL     1      26.891  11.756  58.854  1.00  0.00     0.223 A 
ENDROOT
BRANCH   1  11
ATOM     11  C   UNL     1      25.850   9.529  58.264  1.00  0.00     0.091 A 
ATOM     12  C   UNL     1      26.642   8.484  57.768  1.00  0.00     0.068 A 
ATOM     13  C   UNL     1      26.117   7.556  56.863  1.00  0.00     0.162 A 
ATOM     14  C   UNL     1      24.504   9.613  57.869  1.00  0.00     0.068 A 
ATOM     15  C   UNL     1      24.776   7.657  56.455  1.00  0.00     0.200 A 
ATOM     16  C   UNL     1      23.967   8.687  56.964  1.00  0.00     0.162 A 
BRANCH  13  17
ATOM     17  O   UNL     1      26.942   6.540  56.381  1.00  0.00    -0.504 OA
ATOM     18  H   UNL     1      26.601   5.601  56.218  1.00  0.00     0.293 HD
ENDBRANCH  13  17
BRANCH  15  19
ATOM     19  O   UNL     1      24.260   6.729  55.548  1.00  0.00    -0.502 OA
ATOM     20  H   UNL     1      23.272   6.508  55.505  1.00  0.00     0.293 HD
ENDBRANCH  15  19
BRANCH  16  21
ATOM     21  O   UNL     1      22.632   8.784  56.575  1.00  0.00    -0.504 OA
ATOM     22  H   UNL     1      22.058   7.961  56.437  1.00  0.00     0.293 HD
ENDBRANCH  16  21
ENDBRANCH   1  11
BRANCH  10  23
ATOM     23  O   UNL     1      26.864  12.157  57.519  1.00  0.00    -0.500 OA
ATOM     24  H   UNL     1      27.703  12.171  56.948  1.00  0.00     0.294 HD
ENDBRANCH  10  23
BRANCH   5  25
ATOM     25  O   UNL     1      27.637  10.689  65.100  1.00  0.00    -0.507 OA
ATOM     26  H   UNL     1      26.810  10.648  65.683  1.00  0.00     0.293 HD
ENDBRANCH   5  25
BRANCH   7  27
ATOM     27  O   UNL     1      28.474  14.294  62.017  1.00  0.00    -0.507 OA
ATOM     28  H   UNL     1      27.954  15.130  62.238  1.00  0.00     0.293 HD
ENDBRANCH   7  27
TORSDOF 7
ENDMDL
MODEL 9
REMARK VINA RESULT:    -5.698      2.534      7.772
REMARK INTER + INTRA:          -7.392
REMARK INTER:                  -7.056
REMARK INTRA:                  -0.335
REMARK UNBOUND:                -0.362
REMARK SMILES Oc1cc(O)c2cc(O)c(-c3cc(O)c(O)c(O)c3)[o+]c2c1
REMARK SMILES IDX 10 1 20 2 21 3 22 4 2 5 3 6 4 7 6 8 7 9 8 10 11 11 12 12
REMARK SMILES IDX 13 13 19 14 15 15 17 16 14 17 16 19 18 21 9 23 1 25 5 27
REMARK H PARENT 14 18 16 20 18 22 9 24 1 26 5 28
REMARK Flexibility Score: inf
ROOT
ATOM      1  C   UNL     1      28.229  11.509  61.496  1.00  0.00     0.402 A 
ATOM      2  O   UNL     1      27.691  10.751  62.449  1.00  0.00    -0.202 OA
ATOM      3  C   UNL     1      27.848  10.989  63.747  1.00  0.00     0.368 A 
ATOM      4  C   UNL     1      27.241  10.136  64.672  1.00  0.00     0.162 A 
ATOM      5  C   UNL     1      27.386  10.363  66.041  1.00  0.00     0.128 A 
ATOM      6  C   UNL     1      28.143  11.451  66.490  1.00  0.00     0.093 A 
ATOM      7  C   UNL     1      28.761  12.321  65.583  1.00  0.00     0.136 A 
ATOM      8  C   UNL     1      28.618  12.091  64.190  1.00  0.00     0.125 A 
ATOM      9  C   UNL     1      29.212  12.902  63.209  1.00  0.00     0.078 A 
ATOM     10  C   UNL     1      29.030  12.610  61.854  1.00  0.00     0.223 A 
ENDROOT
BRANCH   1  11
ATOM     11  C   UNL     1      27.973  11.146  60.084  1.00  0.00     0.091 A 
ATOM     12  C   UNL     1      28.583  10.005  59.544  1.00  0.00     0.068 A 
ATOM     13  C   UNL     1      28.345   9.626  58.219  1.00  0.00     0.162 A 
ATOM     14  C   UNL     1      27.086  11.890  59.287  1.00  0.00     0.068 A 
ATOM     15  C   UNL     1      27.473  10.384  57.419  1.00  0.00     0.200 A 
ATOM     16  C   UNL     1      26.839  11.517  57.958  1.00  0.00     0.162 A 
BRANCH  13  17
ATOM     17  O   UNL     1      28.983   8.493  57.715  1.00  0.00    -0.504 OA
ATOM     18  H   UNL     1      28.491   7.620  57.566  1.00  0.00     0.293 HD
ENDBRANCH  13  17
BRANCH  15  19
ATOM     19  O   UNL     1      27.243  10.003  56.096  1.00  0.00    -0.502 OA
ATOM     20  H   UNL     1      27.407  10.629  55.316  1.00  0.00     0.293 HD
ENDBRANCH  15  19
BRANCH  16  21
ATOM     21  O   UNL     1      25.962  12.266  57.174  1.00  0.00    -0.504 OA
ATOM     22  H   UNL     1      24.981  12.024  57.097  1.00  0.00     0.293 HD
ENDBRANCH  16  21
ENDBRANCH   1  11
BRANCH  10  23
ATOM     23  O   UNL     1      29.660  13.385  60.881  1.00  0.00    -0.500 OA
ATOM     24  H   UNL     1      29.135  13.868  60.161  1.00  0.00     0.294 HD
ENDBRANCH  10  23
BRANCH   5  25
ATOM     25  O   UNL     1      26.773   9.502  66.949  1.00  0.00    -0.507 OA
ATOM     26  H   UNL     1      26.464   9.824  67.858  1.00  0.00     0.293 HD
ENDBRANCH   5  25
BRANCH   7  27
ATOM     27  O   UNL     1      29.496  13.385  66.112  1.00  0.00    -0.507 OA
ATOM     28  H   UNL     1      30.502  13.461  66.068  1.00  0.00     0.293 HD
ENDBRANCH   7  27
TORSDOF 7
ENDMDL
