MODEL 1
REMARK VINA RESULT:    -4.683      0.000      0.000
REMARK INTER + INTRA:         -11.528
REMARK INTER:                  -9.063
REMARK INTRA:                  -2.465
REMARK UNBOUND:                -2.465
REMARK SMILES CCCCCCCCCCCCCCCCCC(=O)[O-]
REMARK SMILES IDX 10 1 11 2 12 3 13 4 14 5 15 6 16 7 17 8 18 9 19 10 20 11
REMARK SMILES IDX 9 12 8 13 7 14 6 15 5 16 4 17 3 18 2 19 1 20
REMARK H PARENT
REMARK Flexibility Score: inf
ROOT
ATOM      1  C   UNL     1     189.781 194.719 193.535  1.00  0.00     0.000 C 
ENDROOT
BRANCH   1   2
ATOM      2  C   UNL     1     189.549 194.315 195.001  1.00  0.00     0.000 C 
BRANCH   2   3
ATOM      3  C   UNL     1     188.059 194.154 195.342  1.00  0.00     0.000 C 
BRANCH   3   4
ATOM      4  C   UNL     1     187.151 194.996 194.434  1.00  0.00     0.000 C 
BRANCH   4   5
ATOM      5  C   UNL     1     186.521 196.158 195.212  1.00  0.00     0.000 C 
BRANCH   5   6
ATOM      6  C   UNL     1     187.438 197.390 195.201  1.00  0.00     0.000 C 
BRANCH   6   7
ATOM      7  C   UNL     1     188.195 197.581 196.529  1.00  0.00     0.006 C 
BRANCH   7   8
ATOM      8  C   UNL     1     189.698 197.860 196.364  1.00  0.00     0.053 C 
BRANCH   8   9
ATOM      9  C   UNL     1     190.340 198.250 197.659  1.00  0.00     0.041 C 
ATOM     10  O   UNL     1     190.298 197.470 198.647  1.00  0.00    -0.550 OA
ATOM     11  O   UNL     1     190.954 199.489 197.786  1.00  0.00    -0.550 OA
ENDBRANCH   8   9
ENDBRANCH   7   8
ENDBRANCH   6   7
ENDBRANCH   5   6
ENDBRANCH   4   5
ENDBRANCH   3   4
ENDBRANCH   2   3
ENDBRANCH   1   2
BRANCH   1  12
ATOM     12  C   UNL     1     190.640 195.988 193.393  1.00  0.00     0.000 C 
BRANCH  12  13
ATOM     13  C   UNL     1     191.880 195.830 192.495  1.00  0.00    -0.000 C 
BRANCH  13  14
ATOM     14  C   UNL     1     191.589 195.031 191.212  1.00  0.00    -0.000 C 
BRANCH  14  15
ATOM     15  C   UNL     1     192.504 193.808 191.053  1.00  0.00    -0.000 C 
BRANCH  15  16
ATOM     16  C   UNL     1     191.715 192.499 190.866  1.00  0.00    -0.000 C 
BRANCH  16  17
ATOM     17  C   UNL     1     191.567 191.711 192.177  1.00  0.00    -0.000 C 
BRANCH  17  18
ATOM     18  C   UNL     1     190.166 191.092 192.340  1.00  0.00    -0.000 C 
BRANCH  18  19
ATOM     19  C   UNL     1     189.115 191.779 191.457  1.00  0.00    -0.003 C 
ATOM     20  C   UNL     1     187.770 191.951 192.165  1.00  0.00     0.004 C 
ENDBRANCH  18  19
ENDBRANCH  17  18
ENDBRANCH  16  17
ENDBRANCH  15  16
ENDBRANCH  14  15
ENDBRANCH  13  14
ENDBRANCH  12  13
ENDBRANCH   1  12
TORSDOF 16
ENDMDL
MODEL 2
REMARK VINA RESULT:    -4.563      3.568      7.577
REMARK INTER + INTRA:         -11.297
REMARK INTER:                  -9.216
REMARK INTRA:                  -2.081
REMARK UNBOUND:                -2.465
REMARK SMILES CCCCCCCCCCCCCCCCCC(=O)[O-]
REMARK SMILES IDX 10 1 11 2 12 3 13 4 14 5 15 6 16 7 17 8 18 9 19 10 20 11
REMARK SMILES IDX 9 12 8 13 7 14 6 15 5 16 4 17 3 18 2 19 1 20
REMARK H PARENT
REMARK Flexibility Score: inf
ROOT
ATOM      1  C   UNL     1     190.561 195.763 193.376  1.00  0.00     0.000 C 
ENDROOT
BRANCH   1   2
ATOM      2  C   UNL     1     191.562 195.321 192.294  1.00  0.00     0.000 C 
BRANCH   2   3
ATOM      3  C   UNL     1     191.106 194.058 191.546  1.00  0.00     0.000 C 
BRANCH   3   4
ATOM      4  C   UNL     1     192.180 192.959 191.534  1.00  0.00     0.000 C 
BRANCH   4   5
ATOM      5  C   UNL     1     191.540 191.565 191.568  1.00  0.00     0.000 C 
BRANCH   5   6
ATOM      6  C   UNL     1     190.663 191.392 192.817  1.00  0.00     0.000 C 
BRANCH   6   7
ATOM      7  C   UNL     1     189.317 190.709 192.510  1.00  0.00     0.006 C 
BRANCH   7   8
ATOM      8  C   UNL     1     188.203 191.676 192.076  1.00  0.00     0.053 C 
BRANCH   8   9
ATOM      9  C   UNL     1     187.827 191.489 190.639  1.00  0.00     0.041 C 
ATOM     10  O   UNL     1     186.838 190.773 190.331  1.00  0.00    -0.550 OA
ATOM     11  O   UNL     1     188.590 192.076 189.638  1.00  0.00    -0.550 OA
ENDBRANCH   8   9
ENDBRANCH   7   8
ENDBRANCH   6   7
ENDBRANCH   5   6
ENDBRANCH   4   5
ENDBRANCH   3   4
ENDBRANCH   2   3
ENDBRANCH   1   2
BRANCH   1  12
ATOM     12  C   UNL     1     189.478 194.705 193.656  1.00  0.00     0.000 C 
BRANCH  12  13
ATOM     13  C   UNL     1     189.409 194.226 195.117  1.00  0.00    -0.000 C 
BRANCH  13  14
ATOM     14  C   UNL     1     187.982 194.261 195.690  1.00  0.00    -0.000 C 
BRANCH  14  15
ATOM     15  C   UNL     1     187.759 195.430 196.661  1.00  0.00    -0.000 C 
BRANCH  15  16
ATOM     16  C   UNL     1     187.561 196.773 195.934  1.00  0.00    -0.000 C 
BRANCH  16  17
ATOM     17  C   UNL     1     188.528 197.859 196.433  1.00  0.00    -0.000 C 
BRANCH  17  18
ATOM     18  C   UNL     1     189.675 197.284 197.285  1.00  0.00    -0.000 C 
BRANCH  18  19
ATOM     19  C   UNL     1     190.789 198.310 197.538  1.00  0.00    -0.003 C 
ATOM     20  C   UNL     1     190.349 199.439 198.471  1.00  0.00     0.004 C 
ENDBRANCH  18  19
ENDBRANCH  17  18
ENDBRANCH  16  17
ENDBRANCH  15  16
ENDBRANCH  14  15
ENDBRANCH  13  14
ENDBRANCH  12  13
ENDBRANCH   1  12
TORSDOF 16
ENDMDL
MODEL 3
REMARK VINA RESULT:    -4.557      2.575      3.801
REMARK INTER + INTRA:         -11.284
REMARK INTER:                  -9.145
REMARK INTRA:                  -2.139
REMARK UNBOUND:                -2.465
REMARK SMILES CCCCCCCCCCCCCCCCCC(=O)[O-]
REMARK SMILES IDX 10 1 11 2 12 3 13 4 14 5 15 6 16 7 17 8 18 9 19 10 20 11
REMARK SMILES IDX 9 12 8 13 7 14 6 15 5 16 4 17 3 18 2 19 1 20
REMARK H PARENT
REMARK Flexibility Score: inf
ROOT
ATOM      1  C   UNL     1     191.109 195.214 191.612  1.00  0.00     0.000 C 
ENDROOT
BRANCH   1   2
ATOM      2  C   UNL     1     190.828 195.800 193.007  1.00  0.00     0.000 C 
BRANCH   2   3
ATOM      3  C   UNL     1     189.984 194.862 193.884  1.00  0.00     0.000 C 
BRANCH   3   4
ATOM      4  C   UNL     1     189.464 195.551 195.155  1.00  0.00     0.000 C 
BRANCH   4   5
ATOM      5  C   UNL     1     189.271 197.055 194.926  1.00  0.00     0.000 C 
BRANCH   5   6
ATOM      6  C   UNL     1     187.840 197.487 195.277  1.00  0.00     0.000 C 
BRANCH   6   7
ATOM      7  C   UNL     1     186.988 196.329 195.832  1.00  0.00     0.006 C 
BRANCH   7   8
ATOM      8  C   UNL     1     185.760 195.982 194.974  1.00  0.00     0.053 C 
BRANCH   8   9
ATOM      9  C   UNL     1     185.919 194.668 194.275  1.00  0.00     0.041 C 
ATOM     10  O   UNL     1     185.472 194.512 193.109  1.00  0.00    -0.550 OA
ATOM     11  O   UNL     1     186.531 193.603 194.925  1.00  0.00    -0.550 OA
ENDBRANCH   8   9
ENDBRANCH   7   8
ENDBRANCH   6   7
ENDBRANCH   5   6
ENDBRANCH   4   5
ENDBRANCH   3   4
ENDBRANCH   2   3
ENDBRANCH   1   2
BRANCH   1  12
ATOM     12  C   UNL     1     192.586 194.832 191.410  1.00  0.00     0.000 C 
BRANCH  12  13
ATOM     13  C   UNL     1     192.820 193.372 190.981  1.00  0.00    -0.000 C 
BRANCH  13  14
ATOM     14  C   UNL     1     191.522 192.548 190.932  1.00  0.00    -0.000 C 
BRANCH  14  15
ATOM     15  C   UNL     1     191.544 191.348 191.891  1.00  0.00    -0.000 C 
BRANCH  15  16
ATOM     16  C   UNL     1     190.376 191.371 192.894  1.00  0.00    -0.000 C 
BRANCH  16  17
ATOM     17  C   UNL     1     189.035 190.997 192.243  1.00  0.00    -0.000 C 
BRANCH  17  18
ATOM     18  C   UNL     1     188.086 192.202 192.109  1.00  0.00    -0.000 C 
BRANCH  18  19
ATOM     19  C   UNL     1     187.843 192.597 190.644  1.00  0.00    -0.003 C 
ATOM     20  C   UNL     1     187.253 191.455 189.815  1.00  0.00     0.004 C 
ENDBRANCH  18  19
ENDBRANCH  17  18
ENDBRANCH  16  17
ENDBRANCH  15  16
ENDBRANCH  14  15
ENDBRANCH  13  14
ENDBRANCH  12  13
ENDBRANCH   1  12
TORSDOF 16
ENDMDL
MODEL 4
REMARK VINA RESULT:    -4.416      2.272      5.858
REMARK INTER + INTRA:         -11.012
REMARK INTER:                  -9.170
REMARK INTRA:                  -1.842
REMARK UNBOUND:                -2.465
REMARK SMILES CCCCCCCCCCCCCCCCCC(=O)[O-]
REMARK SMILES IDX 10 1 11 2 12 3 13 4 14 5 15 6 16 7 17 8 18 9 19 10 20 11
REMARK SMILES IDX 9 12 8 13 7 14 6 15 5 16 4 17 3 18 2 19 1 20
REMARK H PARENT
REMARK Flexibility Score: inf
ROOT
ATOM      1  C   UNL     1     190.326 192.346 193.355  1.00  0.00     0.000 C 
ENDROOT
BRANCH   1   2
ATOM      2  C   UNL     1     190.194 191.746 191.944  1.00  0.00     0.000 C 
BRANCH   2   3
ATOM      3  C   UNL     1     191.138 192.409 190.928  1.00  0.00     0.000 C 
BRANCH   3   4
ATOM      4  C   UNL     1     192.352 193.072 191.596  1.00  0.00     0.000 C 
BRANCH   4   5
ATOM      5  C   UNL     1     192.550 194.503 191.079  1.00  0.00     0.000 C 
BRANCH   5   6
ATOM      6  C   UNL     1     191.398 195.415 191.527  1.00  0.00     0.000 C 
BRANCH   6   7
ATOM      7  C   UNL     1     191.451 196.807 190.871  1.00  0.00     0.006 C 
BRANCH   7   8
ATOM      8  C   UNL     1     191.043 197.960 191.804  1.00  0.00     0.053 C 
BRANCH   8   9
ATOM      9  C   UNL     1     192.233 198.705 192.326  1.00  0.00     0.041 C 
ATOM     10  O   UNL     1     192.702 199.679 191.682  1.00  0.00    -0.550 OA
ATOM     11  O   UNL     1     192.844 198.301 193.506  1.00  0.00    -0.550 OA
ENDBRANCH   8   9
ENDBRANCH   7   8
ENDBRANCH   6   7
ENDBRANCH   5   6
ENDBRANCH   4   5
ENDBRANCH   3   4
ENDBRANCH   2   3
ENDBRANCH   1   2
BRANCH   1  12
ATOM     12  C   UNL     1     189.238 193.389 193.666  1.00  0.00     0.000 C 
BRANCH  12  13
ATOM     13  C   UNL     1     189.513 194.256 194.907  1.00  0.00    -0.000 C 
BRANCH  13  14
ATOM     14  C   UNL     1     189.585 195.758 194.584  1.00  0.00    -0.000 C 
BRANCH  14  15
ATOM     15  C   UNL     1     189.675 196.634 195.842  1.00  0.00    -0.000 C 
BRANCH  15  16
ATOM     16  C   UNL     1     188.291 197.037 196.383  1.00  0.00    -0.000 C 
BRANCH  16  17
ATOM     17  C   UNL     1     187.249 197.204 195.266  1.00  0.00    -0.000 C 
BRANCH  17  18
ATOM     18  C   UNL     1     186.206 196.071 195.255  1.00  0.00    -0.000 C 
BRANCH  18  19
ATOM     19  C   UNL     1     186.137 195.325 196.596  1.00  0.00    -0.003 C 
ATOM     20  C   UNL     1     185.457 193.960 196.477  1.00  0.00     0.004 C 
ENDBRANCH  18  19
ENDBRANCH  17  18
ENDBRANCH  16  17
ENDBRANCH  15  16
ENDBRANCH  14  15
ENDBRANCH  13  14
ENDBRANCH  12  13
ENDBRANCH   1  12
TORSDOF 16
ENDMDL
MODEL 5
REMARK VINA RESULT:    -4.377      2.138      6.255
REMARK INTER + INTRA:         -10.935
REMARK INTER:                  -9.128
REMARK INTRA:                  -1.807
REMARK UNBOUND:                -2.465
REMARK SMILES CCCCCCCCCCCCCCCCCC(=O)[O-]
REMARK SMILES IDX 10 1 11 2 12 3 13 4 14 5 15 6 16 7 17 8 18 9 19 10 20 11
REMARK SMILES IDX 9 12 8 13 7 14 6 15 5 16 4 17 3 18 2 19 1 20
REMARK H PARENT
REMARK Flexibility Score: inf
ROOT
ATOM      1  C   UNL     1     189.344 192.573 191.922  1.00  0.00     0.000 C 
ENDROOT
BRANCH   1   2
ATOM      2  C   UNL     1     190.427 191.613 192.444  1.00  0.00     0.000 C 
BRANCH   2   3
ATOM      3  C   UNL     1     191.846 192.049 192.044  1.00  0.00     0.000 C 
BRANCH   3   4
ATOM      4  C   UNL     1     191.849 193.069 190.896  1.00  0.00     0.000 C 
BRANCH   4   5
ATOM      5  C   UNL     1     192.670 194.311 191.266  1.00  0.00     0.000 C 
BRANCH   5   6
ATOM      6  C   UNL     1     191.810 195.581 191.195  1.00  0.00     0.000 C 
BRANCH   6   7
ATOM      7  C   UNL     1     191.483 196.158 192.585  1.00  0.00     0.006 C 
BRANCH   7   8
ATOM      8  C   UNL     1     191.059 197.635 192.572  1.00  0.00     0.053 C 
BRANCH   8   9
ATOM      9  C   UNL     1     192.238 198.556 192.517  1.00  0.00     0.041 C 
ATOM     10  O   UNL     1     192.300 199.453 191.635  1.00  0.00    -0.550 OA
ATOM     11  O   UNL     1     193.285 198.401 193.416  1.00  0.00    -0.550 OA
ENDBRANCH   8   9
ENDBRANCH   7   8
ENDBRANCH   6   7
ENDBRANCH   5   6
ENDBRANCH   4   5
ENDBRANCH   3   4
ENDBRANCH   2   3
ENDBRANCH   1   2
BRANCH   1  12
ATOM     12  C   UNL     1     188.680 193.392 193.043  1.00  0.00     0.000 C 
BRANCH  12  13
ATOM     13  C   UNL     1     189.627 193.812 194.181  1.00  0.00    -0.000 C 
BRANCH  13  14
ATOM     14  C   UNL     1     188.885 194.117 195.494  1.00  0.00    -0.000 C 
BRANCH  14  15
ATOM     15  C   UNL     1     187.876 195.266 195.354  1.00  0.00    -0.000 C 
BRANCH  15  16
ATOM     16  C   UNL     1     188.555 196.621 195.087  1.00  0.00    -0.000 C 
BRANCH  16  17
ATOM     17  C   UNL     1     188.567 197.527 196.328  1.00  0.00    -0.000 C 
BRANCH  17  18
ATOM     18  C   UNL     1     189.713 197.187 197.298  1.00  0.00    -0.000 C 
BRANCH  18  19
ATOM     19  C   UNL     1     190.482 198.435 197.758  1.00  0.00    -0.003 C 
ATOM     20  C   UNL     1     189.579 199.659 197.917  1.00  0.00     0.004 C 
ENDBRANCH  18  19
ENDBRANCH  17  18
ENDBRANCH  16  17
ENDBRANCH  15  16
ENDBRANCH  14  15
ENDBRANCH  13  14
ENDBRANCH  12  13
ENDBRANCH   1  12
TORSDOF 16
ENDMDL
MODEL 6
REMARK VINA RESULT:    -4.338      2.333      6.102
REMARK INTER + INTRA:         -10.860
REMARK INTER:                  -8.477
REMARK INTRA:                  -2.384
REMARK UNBOUND:                -2.465
REMARK SMILES CCCCCCCCCCCCCCCCCC(=O)[O-]
REMARK SMILES IDX 10 1 11 2 12 3 13 4 14 5 15 6 16 7 17 8 18 9 19 10 20 11
REMARK SMILES IDX 9 12 8 13 7 14 6 15 5 16 4 17 3 18 2 19 1 20
REMARK H PARENT
REMARK Flexibility Score: inf
ROOT
ATOM      1  C   UNL     1     188.148 192.105 191.512  1.00  0.00     0.000 C 
ENDROOT
BRANCH   1   2
ATOM      2  C   UNL     1     188.894 191.064 192.364  1.00  0.00     0.000 C 
BRANCH   2   3
ATOM      3  C   UNL     1     190.421 191.222 192.289  1.00  0.00     0.000 C 
BRANCH   3   4
ATOM      4  C   UNL     1     190.853 192.319 191.305  1.00  0.00     0.000 C 
BRANCH   4   5
ATOM      5  C   UNL     1     192.314 192.725 191.541  1.00  0.00     0.000 C 
BRANCH   5   6
ATOM      6  C   UNL     1     192.490 194.246 191.413  1.00  0.00     0.000 C 
BRANCH   6   7
ATOM      7  C   UNL     1     191.160 195.012 191.538  1.00  0.00     0.006 C 
BRANCH   7   8
ATOM      8  C   UNL     1     191.154 196.090 192.634  1.00  0.00     0.053 C 
BRANCH   8   9
ATOM      9  C   UNL     1     191.547 197.433 192.101  1.00  0.00     0.041 C 
ATOM     10  O   UNL     1     192.196 198.236 192.823  1.00  0.00    -0.550 OA
ATOM     11  O   UNL     1     191.168 197.811 190.819  1.00  0.00    -0.550 OA
ENDBRANCH   8   9
ENDBRANCH   7   8
ENDBRANCH   6   7
ENDBRANCH   5   6
ENDBRANCH   4   5
ENDBRANCH   3   4
ENDBRANCH   2   3
ENDBRANCH   1   2
BRANCH   1  12
ATOM     12  C   UNL     1     187.251 193.033 192.351  1.00  0.00     0.000 C 
BRANCH  12  13
ATOM     13  C   UNL     1     186.302 192.306 193.320  1.00  0.00    -0.000 C 
BRANCH  13  14
ATOM     14  C   UNL     1     185.646 193.256 194.338  1.00  0.00    -0.000 C 
BRANCH  14  15
ATOM     15  C   UNL     1     185.859 194.737 193.993  1.00  0.00    -0.000 C 
BRANCH  15  16
ATOM     16  C   UNL     1     185.600 195.667 195.192  1.00  0.00    -0.000 C 
BRANCH  16  17
ATOM     17  C   UNL     1     186.865 196.419 195.636  1.00  0.00    -0.000 C 
BRANCH  17  18
ATOM     18  C   UNL     1     188.129 195.937 194.900  1.00  0.00    -0.000 C 
BRANCH  18  19
ATOM     19  C   UNL     1     189.019 195.050 195.782  1.00  0.00    -0.003 C 
ATOM     20  C   UNL     1     189.559 193.829 195.036  1.00  0.00     0.004 C 
ENDBRANCH  18  19
ENDBRANCH  17  18
ENDBRANCH  16  17
ENDBRANCH  15  16
ENDBRANCH  14  15
ENDBRANCH  13  14
ENDBRANCH  12  13
ENDBRANCH   1  12
TORSDOF 16
ENDMDL
MODEL 7
REMARK VINA RESULT:    -4.330      1.786      4.124
REMARK INTER + INTRA:         -10.844
REMARK INTER:                  -9.244
REMARK INTRA:                  -1.600
REMARK UNBOUND:                -2.465
REMARK SMILES CCCCCCCCCCCCCCCCCC(=O)[O-]
REMARK SMILES IDX 10 1 11 2 12 3 13 4 14 5 15 6 16 7 17 8 18 9 19 10 20 11
REMARK SMILES IDX 9 12 8 13 7 14 6 15 5 16 4 17 3 18 2 19 1 20
REMARK H PARENT
REMARK Flexibility Score: inf
ROOT
ATOM      1  C   UNL     1     190.429 192.062 193.049  1.00  0.00     0.000 C 
ENDROOT
BRANCH   1   2
ATOM      2  C   UNL     1     189.239 192.965 192.681  1.00  0.00     0.000 C 
BRANCH   2   3
ATOM      3  C   UNL     1     189.078 194.152 193.644  1.00  0.00     0.000 C 
BRANCH   3   4
ATOM      4  C   UNL     1     187.879 193.987 194.590  1.00  0.00     0.000 C 
BRANCH   4   5
ATOM      5  C   UNL     1     186.955 195.210 194.525  1.00  0.00     0.000 C 
BRANCH   5   6
ATOM      6  C   UNL     1     187.187 196.139 195.727  1.00  0.00     0.000 C 
BRANCH   6   7
ATOM      7  C   UNL     1     187.903 197.446 195.339  1.00  0.00     0.006 C 
BRANCH   7   8
ATOM      8  C   UNL     1     189.410 197.455 195.645  1.00  0.00     0.053 C 
BRANCH   8   9
ATOM      9  C   UNL     1     189.706 198.061 196.982  1.00  0.00     0.041 C 
ATOM     10  O   UNL     1     189.064 199.070 197.376  1.00  0.00    -0.550 OA
ATOM     11  O   UNL     1     190.715 197.533 197.778  1.00  0.00    -0.550 OA
ENDBRANCH   8   9
ENDBRANCH   7   8
ENDBRANCH   6   7
ENDBRANCH   5   6
ENDBRANCH   4   5
ENDBRANCH   3   4
ENDBRANCH   2   3
ENDBRANCH   1   2
BRANCH   1  12
ATOM     12  C   UNL     1     191.274 191.659 191.827  1.00  0.00     0.000 C 
BRANCH  12  13
ATOM     13  C   UNL     1     191.527 192.792 190.817  1.00  0.00    -0.000 C 
BRANCH  13  14
ATOM     14  C   UNL     1     192.818 193.577 191.111  1.00  0.00    -0.000 C 
BRANCH  14  15
ATOM     15  C   UNL     1     192.552 194.925 191.797  1.00  0.00    -0.000 C 
BRANCH  15  16
ATOM     16  C   UNL     1     191.373 195.687 191.166  1.00  0.00    -0.000 C 
BRANCH  16  17
ATOM     17  C   UNL     1     191.185 197.086 191.774  1.00  0.00    -0.000 C 
BRANCH  17  18
ATOM     18  C   UNL     1     191.875 198.188 190.949  1.00  0.00    -0.000 C 
BRANCH  18  19
ATOM     19  C   UNL     1     192.391 199.340 191.823  1.00  0.00    -0.003 C 
ATOM     20  C   UNL     1     193.016 200.469 191.003  1.00  0.00     0.004 C 
ENDBRANCH  18  19
ENDBRANCH  17  18
ENDBRANCH  16  17
ENDBRANCH  15  16
ENDBRANCH  14  15
ENDBRANCH  13  14
ENDBRANCH  12  13
ENDBRANCH   1  12
TORSDOF 16
ENDMDL
MODEL 8
REMARK VINA RESULT:    -4.325      2.717      4.914
REMARK INTER + INTRA:         -10.835
REMARK INTER:                  -8.205
REMARK INTRA:                  -2.630
REMARK UNBOUND:                -2.465
REMARK SMILES CCCCCCCCCCCCCCCCCC(=O)[O-]
REMARK SMILES IDX 10 1 11 2 12 3 13 4 14 5 15 6 16 7 17 8 18 9 19 10 20 11
REMARK SMILES IDX 9 12 8 13 7 14 6 15 5 16 4 17 3 18 2 19 1 20
REMARK H PARENT
REMARK Flexibility Score: inf
ROOT
ATOM      1  C   UNL     1     184.953 195.118 196.275  1.00  0.00     0.000 C 
ENDROOT
BRANCH   1   2
ATOM      2  C   UNL     1     186.304 194.677 196.864  1.00  0.00     0.000 C 
BRANCH   2   3
ATOM      3  C   UNL     1     187.459 195.603 196.452  1.00  0.00     0.000 C 
BRANCH   3   4
ATOM      4  C   UNL     1     188.836 194.948 196.639  1.00  0.00     0.000 C 
BRANCH   4   5
ATOM      5  C   UNL     1     189.240 194.150 195.392  1.00  0.00     0.000 C 
BRANCH   5   6
ATOM      6  C   UNL     1     189.070 194.994 194.120  1.00  0.00     0.000 C 
BRANCH   6   7
ATOM      7  C   UNL     1     190.396 195.206 193.365  1.00  0.00     0.006 C 
BRANCH   7   8
ATOM      8  C   UNL     1     190.919 196.652 193.401  1.00  0.00     0.053 C 
BRANCH   8   9
ATOM      9  C   UNL     1     191.177 197.188 192.027  1.00  0.00     0.041 C 
ATOM     10  O   UNL     1     191.034 198.416 191.789  1.00  0.00    -0.550 OA
ATOM     11  O   UNL     1     191.542 196.326 191.001  1.00  0.00    -0.550 OA
ENDBRANCH   8   9
ENDBRANCH   7   8
ENDBRANCH   6   7
ENDBRANCH   5   6
ENDBRANCH   4   5
ENDBRANCH   3   4
ENDBRANCH   2   3
ENDBRANCH   1   2
BRANCH   1  12
ATOM     12  C   UNL     1     185.084 195.724 194.866  1.00  0.00     0.000 C 
BRANCH  12  13
ATOM     13  C   UNL     1     184.625 194.800 193.723  1.00  0.00    -0.000 C 
BRANCH  13  14
ATOM     14  C   UNL     1     185.794 194.069 193.040  1.00  0.00    -0.000 C 
BRANCH  14  15
ATOM     15  C   UNL     1     186.081 192.695 193.663  1.00  0.00    -0.000 C 
BRANCH  15  16
ATOM     16  C   UNL     1     187.236 191.956 192.961  1.00  0.00    -0.000 C 
BRANCH  16  17
ATOM     17  C   UNL     1     187.643 192.624 191.638  1.00  0.00    -0.000 C 
BRANCH  17  18
ATOM     18  C   UNL     1     189.122 192.385 191.285  1.00  0.00    -0.000 C 
BRANCH  18  19
ATOM     19  C   UNL     1     189.810 191.419 192.262  1.00  0.00    -0.003 C 
ATOM     20  C   UNL     1     191.335 191.468 192.164  1.00  0.00     0.004 C 
ENDBRANCH  18  19
ENDBRANCH  17  18
ENDBRANCH  16  17
ENDBRANCH  15  16
ENDBRANCH  14  15
ENDBRANCH  13  14
ENDBRANCH  12  13
ENDBRANCH   1  12
TORSDOF 16
ENDMDL
MODEL 9
REMARK VINA RESULT:    -4.304      3.761      5.976
REMARK INTER + INTRA:         -10.794
REMARK INTER:                  -8.430
REMARK INTRA:                  -2.364
REMARK UNBOUND:                -2.465
REMARK SMILES CCCCCCCCCCCCCCCCCC(=O)[O-]
REMARK SMILES IDX 10 1 11 2 12 3 13 4 14 5 15 6 16 7 17 8 18 9 19 10 20 11
REMARK SMILES IDX 9 12 8 13 7 14 6 15 5 16 4 17 3 18 2 19 1 20
REMARK H PARENT
REMARK Flexibility Score: inf
ROOT
ATOM      1  C   UNL     1     187.215 196.811 196.126  1.00  0.00     0.000 C 
ENDROOT
BRANCH   1   2
ATOM      2  C   UNL     1     186.547 196.231 194.867  1.00  0.00     0.000 C 
BRANCH   2   3
ATOM      3  C   UNL     1     185.131 195.699 195.142  1.00  0.00     0.000 C 
BRANCH   3   4
ATOM      4  C   UNL     1     184.756 194.521 194.229  1.00  0.00     0.000 C 
BRANCH   4   5
ATOM      5  C   UNL     1     185.946 194.098 193.359  1.00  0.00     0.000 C 
BRANCH   5   6
ATOM      6  C   UNL     1     186.296 192.620 193.585  1.00  0.00     0.000 C 
BRANCH   6   7
ATOM      7  C   UNL     1     187.349 192.097 192.590  1.00  0.00     0.006 C 
BRANCH   7   8
ATOM      8  C   UNL     1     187.202 192.656 191.165  1.00  0.00     0.053 C 
BRANCH   8   9
ATOM      9  C   UNL     1     187.736 191.709 190.135  1.00  0.00     0.041 C 
ATOM     10  O   UNL     1     188.920 191.822 189.724  1.00  0.00    -0.550 OA
ATOM     11  O   UNL     1     186.914 190.723 189.604  1.00  0.00    -0.550 OA
ENDBRANCH   8   9
ENDBRANCH   7   8
ENDBRANCH   6   7
ENDBRANCH   5   6
ENDBRANCH   4   5
ENDBRANCH   3   4
ENDBRANCH   2   3
ENDBRANCH   1   2
BRANCH   1  12
ATOM     12  C   UNL     1     188.387 195.950 196.631  1.00  0.00     0.000 C 
BRANCH  12  13
ATOM     13  C   UNL     1     188.371 194.491 196.142  1.00  0.00    -0.000 C 
BRANCH  13  14
ATOM     14  C   UNL     1     189.621 194.121 195.325  1.00  0.00    -0.000 C 
BRANCH  14  15
ATOM     15  C   UNL     1     189.522 194.558 193.856  1.00  0.00    -0.000 C 
BRANCH  15  16
ATOM     16  C   UNL     1     190.583 195.607 193.477  1.00  0.00    -0.000 C 
BRANCH  16  17
ATOM     17  C   UNL     1     191.324 195.250 192.179  1.00  0.00    -0.000 C 
BRANCH  17  18
ATOM     18  C   UNL     1     190.847 193.918 191.572  1.00  0.00    -0.000 C 
BRANCH  18  19
ATOM     19  C   UNL     1     191.988 192.901 191.418  1.00  0.00    -0.003 C 
ATOM     20  C   UNL     1     191.622 191.519 191.960  1.00  0.00     0.004 C 
ENDBRANCH  18  19
ENDBRANCH  17  18
ENDBRANCH  16  17
ENDBRANCH  15  16
ENDBRANCH  14  15
ENDBRANCH  13  14
ENDBRANCH  12  13
ENDBRANCH   1  12
TORSDOF 16
ENDMDL
