MODEL 1
REMARK VINA RESULT:    -5.867      0.000      0.000
REMARK INTER + INTRA:          -6.191
REMARK INTER:                  -6.382
REMARK INTRA:                   0.191
REMARK UNBOUND:                 0.191
REMARK SMILES C[C@@H]1[C@H]2C3=CC[C@H]4[C@@]5(C)CC[C@H](O)C(C)(C)[C@H]5CC[C@@]4(C)[C@]3(C)CC[C@]2(C(=O)[O-])CC[C@@H]1C
REMARK SMILES IDX 26 1 30 2 25 3 3 4 31 5 24 6 4 7 2 8 32 9 22 10 5 11 1 12
REMARK SMILES IDX 33 13 23 14 20 15 6 16 7 17 19 18 21 19 8 20 18 21 17 22
REMARK SMILES IDX 10 23 9 24 14 25 11 26 12 27 15 28 16 29 27 30 28 31 29 32
REMARK SMILES IDX 13 33
REMARK H PARENT 13 34
REMARK Flexibility Score: inf
ROOT
ATOM      1  C   UNL     1      72.302  56.964  18.083  1.00  0.00     0.017 C 
ATOM      2  C   UNL     1      71.740  57.708  16.826  1.00  0.00     0.014 C 
ATOM      3  C   UNL     1      72.101  57.890  19.340  1.00  0.00     0.014 C 
ATOM      4  C   UNL     1      71.525  55.604  18.228  1.00  0.00     0.030 C 
ATOM      5  C   UNL     1      71.454  56.821  15.594  1.00  0.00     0.004 C 
ATOM      6  C   UNL     1      71.254  57.264  20.461  1.00  0.00     0.013 C 
ATOM      7  C   UNL     1      71.801  54.951  19.603  1.00  0.00    -0.063 C 
ATOM      8  C   UNL     1      71.673  54.667  16.966  1.00  0.00    -0.003 C 
ATOM      9  C   UNL     1      72.113  55.438  15.678  1.00  0.00    -0.011 C 
ATOM     10  C   UNL     1      71.735  55.828  20.865  1.00  0.00    -0.006 C 
ATOM     11  C   UNL     1      71.866  53.608  19.768  1.00  0.00    -0.027 C 
ATOM     12  C   UNL     1      70.361  53.876  16.748  1.00  0.00     0.008 C 
ATOM     13  C   UNL     1      71.896  54.651  14.373  1.00  0.00     0.008 C 
ATOM     14  C   UNL     1      73.170  55.988  21.438  1.00  0.00     0.017 C 
ATOM     15  C   UNL     1      70.730  55.132  21.909  1.00  0.00    -0.020 C 
ATOM     16  C   UNL     1      72.035  52.972  21.120  1.00  0.00     0.032 C 
ATOM     17  C   UNL     1      71.150  53.624  22.236  1.00  0.00     0.006 C 
ATOM     18  C   UNL     1      70.622  55.940  23.222  1.00  0.00     0.008 C 
ATOM     19  C   UNL     1      69.286  55.113  21.268  1.00  0.00     0.012 C 
ATOM     20  C   UNL     1      71.549  53.225  23.755  1.00  0.00    -0.025 C 
ATOM     21  C   UNL     1      69.858  55.177  24.301  1.00  0.00     0.005 C 
ATOM     22  C   UNL     1      70.600  53.913  24.847  1.00  0.00     0.003 C 
ATOM     23  C   UNL     1      73.075  53.440  24.114  1.00  0.00     0.010 C 
ATOM     24  C   UNL     1      71.314  51.676  23.838  1.00  0.00     0.012 C 
ATOM     25  C   UNL     1      71.270  54.151  26.272  1.00  0.00    -0.006 C 
ATOM     26  C   UNL     1      73.464  54.686  24.927  1.00  0.00     0.033 C 
ATOM     27  C   UNL     1      72.526  55.058  26.106  1.00  0.00     0.120 C 
ATOM     28  C   UNL     1      71.624  52.801  26.965  1.00  0.00     0.014 C 
ATOM     29  C   UNL     1      70.280  54.845  27.262  1.00  0.00     0.014 C 
ENDROOT
BRANCH   1  30
ATOM     30  C   UNL     1      73.804  56.744  17.915  1.00  0.00     0.048 C 
ATOM     31  O   UNL     1      74.389  55.767  18.457  1.00  0.00    -0.550 OA
ATOM     32  O   UNL     1      74.564  57.663  17.198  1.00  0.00    -0.550 OA
ENDBRANCH   1  30
BRANCH  27  33
ATOM     33  O   UNL     1      73.244  55.182  27.311  1.00  0.00    -0.393 OA
ATOM     34  H   UNL     1      74.184  55.406  27.091  1.00  0.00     0.210 HD
ENDBRANCH  27  33
TORSDOF 2
ENDMDL
MODEL 2
REMARK VINA RESULT:    -5.776      3.288      7.354
REMARK INTER + INTRA:          -6.092
REMARK INTER:                  -6.318
REMARK INTRA:                   0.225
REMARK UNBOUND:                 0.191
REMARK SMILES C[C@@H]1[C@H]2C3=CC[C@H]4[C@@]5(C)CC[C@H](O)C(C)(C)[C@H]5CC[C@@]4(C)[C@]3(C)CC[C@]2(C(=O)[O-])CC[C@@H]1C
REMARK SMILES IDX 26 1 30 2 25 3 3 4 31 5 24 6 4 7 2 8 32 9 22 10 5 11 1 12
REMARK SMILES IDX 33 13 23 14 20 15 6 16 7 17 19 18 21 19 8 20 18 21 17 22
REMARK SMILES IDX 10 23 9 24 14 25 11 26 12 27 15 28 16 29 27 30 28 31 29 32
REMARK SMILES IDX 13 33
REMARK H PARENT 13 34
REMARK Flexibility Score: inf
ROOT
ATOM      1  C   UNL     1      71.522  55.392  25.510  1.00  0.00     0.017 C 
ATOM      2  C   UNL     1      71.696  56.634  26.446  1.00  0.00     0.014 C 
ATOM      3  C   UNL     1      69.987  55.062  25.400  1.00  0.00     0.014 C 
ATOM      4  C   UNL     1      72.145  55.750  24.111  1.00  0.00     0.030 C 
ATOM      5  C   UNL     1      73.053  57.365  26.345  1.00  0.00     0.004 C 
ATOM      6  C   UNL     1      69.431  55.095  23.966  1.00  0.00     0.013 C 
ATOM      7  C   UNL     1      71.751  54.702  23.043  1.00  0.00    -0.063 C 
ATOM      8  C   UNL     1      73.678  56.123  24.191  1.00  0.00    -0.003 C 
ATOM      9  C   UNL     1      74.132  56.543  25.628  1.00  0.00    -0.011 C 
ATOM     10  C   UNL     1      70.283  54.249  22.959  1.00  0.00    -0.006 C 
ATOM     11  C   UNL     1      72.583  54.344  22.035  1.00  0.00    -0.027 C 
ATOM     12  C   UNL     1      74.004  57.212  23.140  1.00  0.00     0.008 C 
ATOM     13  C   UNL     1      75.488  57.270  25.668  1.00  0.00     0.008 C 
ATOM     14  C   UNL     1      70.188  52.772  23.431  1.00  0.00     0.017 C 
ATOM     15  C   UNL     1      69.783  54.443  21.442  1.00  0.00    -0.020 C 
ATOM     16  C   UNL     1      72.162  53.401  20.943  1.00  0.00     0.032 C 
ATOM     17  C   UNL     1      70.720  53.676  20.397  1.00  0.00     0.006 C 
ATOM     18  C   UNL     1      68.318  53.988  21.262  1.00  0.00     0.008 C 
ATOM     19  C   UNL     1      69.825  55.985  21.102  1.00  0.00     0.012 C 
ATOM     20  C   UNL     1      70.087  52.492  19.489  1.00  0.00    -0.025 C 
ATOM     21  C   UNL     1      67.908  53.950  19.793  1.00  0.00     0.005 C 
ATOM     22  C   UNL     1      68.618  52.839  18.952  1.00  0.00     0.003 C 
ATOM     23  C   UNL     1      70.123  51.058  20.157  1.00  0.00     0.010 C 
ATOM     24  C   UNL     1      71.032  52.395  18.241  1.00  0.00     0.012 C 
ATOM     25  C   UNL     1      67.686  51.579  18.670  1.00  0.00    -0.006 C 
ATOM     26  C   UNL     1      68.829  50.514  20.784  1.00  0.00     0.033 C 
ATOM     27  C   UNL     1      67.522  50.756  19.982  1.00  0.00     0.120 C 
ATOM     28  C   UNL     1      68.250  50.705  17.510  1.00  0.00     0.014 C 
ATOM     29  C   UNL     1      66.270  52.014  18.173  1.00  0.00     0.014 C 
ENDROOT
BRANCH   1  30
ATOM     30  C   UNL     1      72.203  54.179  26.141  1.00  0.00     0.048 C 
ATOM     31  O   UNL     1      72.867  53.363  25.445  1.00  0.00    -0.550 OA
ATOM     32  O   UNL     1      72.052  53.928  27.501  1.00  0.00    -0.550 OA
ENDBRANCH   1  30
BRANCH  27  33
ATOM     33  O   UNL     1      66.829  49.550  19.759  1.00  0.00    -0.393 OA
ATOM     34  H   UNL     1      66.070  49.737  19.150  1.00  0.00     0.210 HD
ENDBRANCH  27  33
TORSDOF 2
ENDMDL
MODEL 3
REMARK VINA RESULT:    -5.682      3.469      5.263
REMARK INTER + INTRA:          -5.989
REMARK INTER:                  -6.231
REMARK INTRA:                   0.241
REMARK UNBOUND:                 0.191
REMARK SMILES C[C@@H]1[C@H]2C3=CC[C@H]4[C@@]5(C)CC[C@H](O)C(C)(C)[C@H]5CC[C@@]4(C)[C@]3(C)CC[C@]2(C(=O)[O-])CC[C@@H]1C
REMARK SMILES IDX 26 1 30 2 25 3 3 4 31 5 24 6 4 7 2 8 32 9 22 10 5 11 1 12
REMARK SMILES IDX 33 13 23 14 20 15 6 16 7 17 19 18 21 19 8 20 18 21 17 22
REMARK SMILES IDX 10 23 9 24 14 25 11 26 12 27 15 28 16 29 27 30 28 31 29 32
REMARK SMILES IDX 13 33
REMARK H PARENT 13 34
REMARK Flexibility Score: inf
ROOT
ATOM      1  C   UNL     1      71.470  54.148  19.006  1.00  0.00     0.017 C 
ATOM      2  C   UNL     1      72.883  53.912  18.376  1.00  0.00     0.014 C 
ATOM      3  C   UNL     1      71.612  54.115  20.574  1.00  0.00     0.014 C 
ATOM      4  C   UNL     1      70.939  55.538  18.497  1.00  0.00     0.030 C 
ATOM      5  C   UNL     1      73.034  54.325  16.896  1.00  0.00     0.004 C 
ATOM      6  C   UNL     1      71.153  55.401  21.281  1.00  0.00     0.013 C 
ATOM      7  C   UNL     1      69.695  55.985  19.301  1.00  0.00    -0.063 C 
ATOM      8  C   UNL     1      70.820  55.618  16.924  1.00  0.00    -0.003 C 
ATOM      9  C   UNL     1      71.691  54.546  16.188  1.00  0.00    -0.011 C 
ATOM     10  C   UNL     1      69.725  55.870  20.834  1.00  0.00    -0.006 C 
ATOM     11  C   UNL     1      68.681  56.687  18.738  1.00  0.00    -0.027 C 
ATOM     12  C   UNL     1      71.150  57.055  16.450  1.00  0.00     0.008 C 
ATOM     13  C   UNL     1      71.903  54.833  14.691  1.00  0.00     0.008 C 
ATOM     14  C   UNL     1      68.737  54.754  21.271  1.00  0.00     0.017 C 
ATOM     15  C   UNL     1      69.346  57.305  21.454  1.00  0.00    -0.020 C 
ATOM     16  C   UNL     1      67.522  57.207  19.542  1.00  0.00     0.032 C 
ATOM     17  C   UNL     1      67.941  57.843  20.910  1.00  0.00     0.006 C 
ATOM     18  C   UNL     1      69.329  57.272  22.998  1.00  0.00     0.008 C 
ATOM     19  C   UNL     1      70.465  58.336  21.033  1.00  0.00     0.012 C 
ATOM     20  C   UNL     1      66.729  58.089  21.957  1.00  0.00    -0.025 C 
ATOM     21  C   UNL     1      68.749  58.554  23.591  1.00  0.00     0.005 C 
ATOM     22  C   UNL     1      67.221  58.753  23.330  1.00  0.00     0.003 C 
ATOM     23  C   UNL     1      65.826  56.820  22.232  1.00  0.00     0.010 C 
ATOM     24  C   UNL     1      65.789  59.125  21.247  1.00  0.00     0.012 C 
ATOM     25  C   UNL     1      66.323  58.418  24.603  1.00  0.00    -0.006 C 
ATOM     26  C   UNL     1      66.053  56.032  23.533  1.00  0.00     0.033 C 
ATOM     27  C   UNL     1      66.286  56.875  24.815  1.00  0.00     0.120 C 
ATOM     28  C   UNL     1      64.890  59.013  24.458  1.00  0.00     0.014 C 
ATOM     29  C   UNL     1      66.890  59.086  25.896  1.00  0.00     0.014 C 
ENDROOT
BRANCH   1  30
ATOM     30  C   UNL     1      70.538  53.005  18.610  1.00  0.00     0.048 C 
ATOM     31  O   UNL     1      70.951  51.815  18.542  1.00  0.00    -0.550 OA
ATOM     32  O   UNL     1      69.218  53.273  18.263  1.00  0.00    -0.550 OA
ENDBRANCH   1  30
BRANCH  27  33
ATOM     33  O   UNL     1      65.388  56.510  25.837  1.00  0.00    -0.393 OA
ATOM     34  H   UNL     1      64.636  56.012  25.426  1.00  0.00     0.210 HD
ENDBRANCH  27  33
TORSDOF 2
ENDMDL
MODEL 4
REMARK VINA RESULT:    -5.618      2.178      8.065
REMARK INTER + INTRA:          -5.921
REMARK INTER:                  -6.120
REMARK INTRA:                   0.199
REMARK UNBOUND:                 0.191
REMARK SMILES C[C@@H]1[C@H]2C3=CC[C@H]4[C@@]5(C)CC[C@H](O)C(C)(C)[C@H]5CC[C@@]4(C)[C@]3(C)CC[C@]2(C(=O)[O-])CC[C@@H]1C
REMARK SMILES IDX 26 1 30 2 25 3 3 4 31 5 24 6 4 7 2 8 32 9 22 10 5 11 1 12
REMARK SMILES IDX 33 13 23 14 20 15 6 16 7 17 19 18 21 19 8 20 18 21 17 22
REMARK SMILES IDX 10 23 9 24 14 25 11 26 12 27 15 28 16 29 27 30 28 31 29 32
REMARK SMILES IDX 13 33
REMARK H PARENT 13 34
REMARK Flexibility Score: inf
ROOT
ATOM      1  C   UNL     1      69.793  55.690  24.833  1.00  0.00     0.017 C 
ATOM      2  C   UNL     1      69.198  54.934  26.066  1.00  0.00     0.014 C 
ATOM      3  C   UNL     1      70.847  54.752  24.135  1.00  0.00     0.014 C 
ATOM      4  C   UNL     1      68.605  56.053  23.868  1.00  0.00     0.030 C 
ATOM      5  C   UNL     1      67.870  55.495  26.620  1.00  0.00     0.004 C 
ATOM      6  C   UNL     1      70.541  54.437  22.661  1.00  0.00     0.013 C 
ATOM      7  C   UNL     1      69.132  56.528  22.493  1.00  0.00    -0.063 C 
ATOM      8  C   UNL     1      67.509  56.963  24.549  1.00  0.00    -0.003 C 
ATOM      9  C   UNL     1      67.550  56.908  26.112  1.00  0.00    -0.011 C 
ATOM     10  C   UNL     1      70.246  55.719  21.809  1.00  0.00    -0.006 C 
ATOM     11  C   UNL     1      68.499  57.478  21.763  1.00  0.00    -0.027 C 
ATOM     12  C   UNL     1      66.111  56.597  23.995  1.00  0.00     0.008 C 
ATOM     13  C   UNL     1      66.284  57.459  26.792  1.00  0.00     0.008 C 
ATOM     14  C   UNL     1      71.551  56.562  21.813  1.00  0.00     0.017 C 
ATOM     15  C   UNL     1      69.758  55.349  20.321  1.00  0.00    -0.020 C 
ATOM     16  C   UNL     1      68.955  57.868  20.384  1.00  0.00     0.032 C 
ATOM     17  C   UNL     1      69.344  56.647  19.483  1.00  0.00     0.006 C 
ATOM     18  C   UNL     1      70.834  54.552  19.551  1.00  0.00     0.008 C 
ATOM     19  C   UNL     1      68.492  54.411  20.436  1.00  0.00     0.012 C 
ATOM     20  C   UNL     1      70.168  57.016  18.138  1.00  0.00    -0.025 C 
ATOM     21  C   UNL     1      70.481  54.396  18.073  1.00  0.00     0.005 C 
ATOM     22  C   UNL     1      70.524  55.727  17.255  1.00  0.00     0.003 C 
ATOM     23  C   UNL     1      71.450  57.913  18.374  1.00  0.00     0.010 C 
ATOM     24  C   UNL     1      69.186  57.904  17.297  1.00  0.00     0.012 C 
ATOM     25  C   UNL     1      71.832  55.864  16.356  1.00  0.00    -0.006 C 
ATOM     26  C   UNL     1      72.828  57.231  18.368  1.00  0.00     0.033 C 
ATOM     27  C   UNL     1      73.058  56.157  17.271  1.00  0.00     0.120 C 
ATOM     28  C   UNL     1      71.656  56.959  15.262  1.00  0.00     0.014 C 
ATOM     29  C   UNL     1      72.112  54.554  15.550  1.00  0.00     0.014 C 
ENDROOT
BRANCH   1  30
ATOM     30  C   UNL     1      70.538  56.935  25.309  1.00  0.00     0.048 C 
ATOM     31  O   UNL     1      70.526  58.004  24.639  1.00  0.00    -0.550 OA
ATOM     32  O   UNL     1      71.293  56.888  26.477  1.00  0.00    -0.550 OA
ENDBRANCH   1  30
BRANCH  27  33
ATOM     33  O   UNL     1      74.216  56.434  16.519  1.00  0.00    -0.393 OA
ATOM     34  H   UNL     1      74.212  55.852  15.717  1.00  0.00     0.210 HD
ENDBRANCH  27  33
TORSDOF 2
ENDMDL
MODEL 5
REMARK VINA RESULT:    -5.444      1.878      3.339
REMARK INTER + INTRA:          -5.731
REMARK INTER:                  -6.010
REMARK INTRA:                   0.279
REMARK UNBOUND:                 0.191
REMARK SMILES C[C@@H]1[C@H]2C3=CC[C@H]4[C@@]5(C)CC[C@H](O)C(C)(C)[C@H]5CC[C@@]4(C)[C@]3(C)CC[C@]2(C(=O)[O-])CC[C@@H]1C
REMARK SMILES IDX 26 1 30 2 25 3 3 4 31 5 24 6 4 7 2 8 32 9 22 10 5 11 1 12
REMARK SMILES IDX 33 13 23 14 20 15 6 16 7 17 19 18 21 19 8 20 18 21 17 22
REMARK SMILES IDX 10 23 9 24 14 25 11 26 12 27 15 28 16 29 27 30 28 31 29 32
REMARK SMILES IDX 13 33
REMARK H PARENT 13 34
REMARK Flexibility Score: inf
ROOT
ATOM      1  C   UNL     1      71.087  55.851  17.925  1.00  0.00     0.017 C 
ATOM      2  C   UNL     1      71.338  55.497  16.422  1.00  0.00     0.014 C 
ATOM      3  C   UNL     1      70.348  54.639  18.606  1.00  0.00     0.014 C 
ATOM      4  C   UNL     1      72.481  56.137  18.595  1.00  0.00     0.030 C 
ATOM      5  C   UNL     1      72.404  56.350  15.701  1.00  0.00     0.004 C 
ATOM      6  C   UNL     1      71.096  54.031  19.804  1.00  0.00     0.013 C 
ATOM      7  C   UNL     1      72.354  56.197  20.136  1.00  0.00    -0.063 C 
ATOM      8  C   UNL     1      73.266  57.324  17.911  1.00  0.00    -0.003 C 
ATOM      9  C   UNL     1      72.768  57.633  16.460  1.00  0.00    -0.011 C 
ATOM     10  C   UNL     1      71.546  55.103  20.854  1.00  0.00    -0.006 C 
ATOM     11  C   UNL     1      73.112  57.026  20.894  1.00  0.00    -0.027 C 
ATOM     12  C   UNL     1      74.786  57.033  17.951  1.00  0.00     0.008 C 
ATOM     13  C   UNL     1      73.739  58.498  15.637  1.00  0.00     0.008 C 
ATOM     14  C   UNL     1      70.247  55.735  21.425  1.00  0.00     0.017 C 
ATOM     15  C   UNL     1      72.474  54.464  22.002  1.00  0.00    -0.020 C 
ATOM     16  C   UNL     1      73.060  57.012  22.396  1.00  0.00     0.032 C 
ATOM     17  C   UNL     1      73.034  55.571  23.011  1.00  0.00     0.006 C 
ATOM     18  C   UNL     1      71.728  53.367  22.793  1.00  0.00     0.008 C 
ATOM     19  C   UNL     1      73.707  53.763  21.306  1.00  0.00     0.012 C 
ATOM     20  C   UNL     1      72.622  55.496  24.576  1.00  0.00    -0.025 C 
ATOM     21  C   UNL     1      72.511  52.917  24.024  1.00  0.00     0.005 C 
ATOM     22  C   UNL     1      72.626  53.999  25.147  1.00  0.00     0.003 C 
ATOM     23  C   UNL     1      71.273  56.238  24.940  1.00  0.00     0.010 C 
ATOM     24  C   UNL     1      73.750  56.287  25.327  1.00  0.00     0.012 C 
ATOM     25  C   UNL     1      71.637  53.738  26.368  1.00  0.00    -0.006 C 
ATOM     26  C   UNL     1      70.005  55.390  25.136  1.00  0.00     0.033 C 
ATOM     27  C   UNL     1      70.179  54.067  25.928  1.00  0.00     0.120 C 
ATOM     28  C   UNL     1      72.057  54.558  27.624  1.00  0.00     0.014 C 
ATOM     29  C   UNL     1      71.691  52.250  26.841  1.00  0.00     0.014 C 
ENDROOT
BRANCH   1  30
ATOM     30  C   UNL     1      70.156  57.059  18.016  1.00  0.00     0.048 C 
ATOM     31  O   UNL     1      69.361  57.346  17.080  1.00  0.00    -0.550 OA
ATOM     32  O   UNL     1      70.213  57.898  19.124  1.00  0.00    -0.550 OA
ENDBRANCH   1  30
BRANCH  27  33
ATOM     33  O   UNL     1      69.279  53.996  27.010  1.00  0.00    -0.393 OA
ATOM     34  H   UNL     1      69.157  54.910  27.372  1.00  0.00     0.210 HD
ENDBRANCH  27  33
TORSDOF 2
ENDMDL
MODEL 6
REMARK VINA RESULT:    -5.290      2.627      4.129
REMARK INTER + INTRA:          -5.563
REMARK INTER:                  -5.795
REMARK INTRA:                   0.232
REMARK UNBOUND:                 0.191
REMARK SMILES C[C@@H]1[C@H]2C3=CC[C@H]4[C@@]5(C)CC[C@H](O)C(C)(C)[C@H]5CC[C@@]4(C)[C@]3(C)CC[C@]2(C(=O)[O-])CC[C@@H]1C
REMARK SMILES IDX 26 1 30 2 25 3 3 4 31 5 24 6 4 7 2 8 32 9 22 10 5 11 1 12
REMARK SMILES IDX 33 13 23 14 20 15 6 16 7 17 19 18 21 19 8 20 18 21 17 22
REMARK SMILES IDX 10 23 9 24 14 25 11 26 12 27 15 28 16 29 27 30 28 31 29 32
REMARK SMILES IDX 13 33
REMARK H PARENT 13 34
REMARK Flexibility Score: inf
ROOT
ATOM      1  C   UNL     1      69.416  54.225  19.509  1.00  0.00     0.017 C 
ATOM      2  C   UNL     1      67.962  53.986  18.981  1.00  0.00     0.014 C 
ATOM      3  C   UNL     1      69.510  55.696  20.060  1.00  0.00     0.014 C 
ATOM      4  C   UNL     1      69.704  53.161  20.631  1.00  0.00     0.030 C 
ATOM      5  C   UNL     1      67.548  52.509  18.799  1.00  0.00     0.004 C 
ATOM      6  C   UNL     1      69.918  55.795  21.540  1.00  0.00     0.013 C 
ATOM      7  C   UNL     1      70.993  53.512  21.411  1.00  0.00    -0.063 C 
ATOM      8  C   UNL     1      69.580  51.671  20.120  1.00  0.00    -0.003 C 
ATOM      9  C   UNL     1      68.739  51.542  18.807  1.00  0.00    -0.011 C 
ATOM     10  C   UNL     1      71.201  54.962  21.879  1.00  0.00    -0.006 C 
ATOM     11  C   UNL     1      71.826  52.562  21.901  1.00  0.00    -0.027 C 
ATOM     12  C   UNL     1      69.023  50.777  21.254  1.00  0.00     0.008 C 
ATOM     13  C   UNL     1      68.278  50.106  18.499  1.00  0.00     0.008 C 
ATOM     14  C   UNL     1      72.364  55.589  21.062  1.00  0.00     0.017 C 
ATOM     15  C   UNL     1      71.501  54.942  23.459  1.00  0.00    -0.020 C 
ATOM     16  C   UNL     1      73.023  52.902  22.743  1.00  0.00     0.032 C 
ATOM     17  C   UNL     1      72.740  53.999  23.825  1.00  0.00     0.006 C 
ATOM     18  C   UNL     1      71.748  56.364  24.010  1.00  0.00     0.008 C 
ATOM     19  C   UNL     1      70.221  54.384  24.198  1.00  0.00     0.012 C 
ATOM     20  C   UNL     1      74.056  54.651  24.509  1.00  0.00    -0.025 C 
ATOM     21  C   UNL     1      72.258  56.339  25.449  1.00  0.00     0.005 C 
ATOM     22  C   UNL     1      73.699  55.755  25.613  1.00  0.00     0.003 C 
ATOM     23  C   UNL     1      75.129  55.200  23.484  1.00  0.00     0.010 C 
ATOM     24  C   UNL     1      74.757  53.458  25.248  1.00  0.00     0.012 C 
ATOM     25  C   UNL     1      74.807  56.880  25.828  1.00  0.00    -0.006 C 
ATOM     26  C   UNL     1      75.187  56.716  23.232  1.00  0.00     0.033 C 
ATOM     27  C   UNL     1      75.050  57.626  24.482  1.00  0.00     0.120 C 
ATOM     28  C   UNL     1      76.125  56.276  26.398  1.00  0.00     0.014 C 
ATOM     29  C   UNL     1      74.362  57.923  26.904  1.00  0.00     0.014 C 
ENDROOT
BRANCH   1  30
ATOM     30  C   UNL     1      70.403  54.109  18.350  1.00  0.00     0.048 C 
ATOM     31  O   UNL     1      70.094  54.477  17.184  1.00  0.00    -0.550 OA
ATOM     32  O   UNL     1      71.655  53.539  18.559  1.00  0.00    -0.550 OA
ENDBRANCH   1  30
BRANCH  27  33
ATOM     33  O   UNL     1      76.125  58.532  24.575  1.00  0.00    -0.393 OA
ATOM     34  H   UNL     1      75.841  59.392  24.171  1.00  0.00     0.210 HD
ENDBRANCH  27  33
TORSDOF 2
ENDMDL
MODEL 7
REMARK VINA RESULT:    -5.284      1.919      7.916
REMARK INTER + INTRA:          -5.557
REMARK INTER:                  -5.756
REMARK INTRA:                   0.199
REMARK UNBOUND:                 0.191
REMARK SMILES C[C@@H]1[C@H]2C3=CC[C@H]4[C@@]5(C)CC[C@H](O)C(C)(C)[C@H]5CC[C@@]4(C)[C@]3(C)CC[C@]2(C(=O)[O-])CC[C@@H]1C
REMARK SMILES IDX 26 1 30 2 25 3 3 4 31 5 24 6 4 7 2 8 32 9 22 10 5 11 1 12
REMARK SMILES IDX 33 13 23 14 20 15 6 16 7 17 19 18 21 19 8 20 18 21 17 22
REMARK SMILES IDX 10 23 9 24 14 25 11 26 12 27 15 28 16 29 27 30 28 31 29 32
REMARK SMILES IDX 13 33
REMARK H PARENT 13 34
REMARK Flexibility Score: inf
ROOT
ATOM      1  C   UNL     1      71.736  55.851  24.407  1.00  0.00     0.017 C 
ATOM      2  C   UNL     1      72.374  55.844  25.836  1.00  0.00     0.014 C 
ATOM      3  C   UNL     1      71.999  57.258  23.752  1.00  0.00     0.014 C 
ATOM      4  C   UNL     1      72.394  54.688  23.577  1.00  0.00     0.030 C 
ATOM      5  C   UNL     1      72.598  54.450  26.463  1.00  0.00     0.004 C 
ATOM      6  C   UNL     1      72.777  57.207  22.426  1.00  0.00     0.013 C 
ATOM      7  C   UNL     1      72.047  54.813  22.075  1.00  0.00    -0.063 C 
ATOM      8  C   UNL     1      72.182  53.265  24.228  1.00  0.00    -0.003 C 
ATOM      9  C   UNL     1      71.824  53.333  25.750  1.00  0.00    -0.011 C 
ATOM     10  C   UNL     1      72.173  56.189  21.399  1.00  0.00    -0.006 C 
ATOM     11  C   UNL     1      71.869  53.730  21.279  1.00  0.00    -0.027 C 
ATOM     12  C   UNL     1      73.426  52.382  23.966  1.00  0.00     0.008 C 
ATOM     13  C   UNL     1      71.989  51.995  26.492  1.00  0.00     0.008 C 
ATOM     14  C   UNL     1      70.749  56.706  21.051  1.00  0.00     0.017 C 
ATOM     15  C   UNL     1      73.103  56.028  20.098  1.00  0.00    -0.020 C 
ATOM     16  C   UNL     1      71.630  53.852  19.800  1.00  0.00     0.032 C 
ATOM     17  C   UNL     1      72.554  54.905  19.099  1.00  0.00     0.006 C 
ATOM     18  C   UNL     1      73.263  57.365  19.342  1.00  0.00     0.008 C 
ATOM     19  C   UNL     1      74.548  55.600  20.573  1.00  0.00     0.012 C 
ATOM     20  C   UNL     1      72.105  55.330  17.602  1.00  0.00    -0.025 C 
ATOM     21  C   UNL     1      73.947  57.180  17.990  1.00  0.00     0.005 C 
ATOM     22  C   UNL     1      73.096  56.399  16.936  1.00  0.00     0.003 C 
ATOM     23  C   UNL     1      70.598  55.796  17.472  1.00  0.00     0.010 C 
ATOM     24  C   UNL     1      72.207  54.009  16.762  1.00  0.00     0.012 C 
ATOM     25  C   UNL     1      72.431  57.350  15.844  1.00  0.00    -0.006 C 
ATOM     26  C   UNL     1      70.306  57.303  17.391  1.00  0.00     0.033 C 
ATOM     27  C   UNL     1      71.258  58.141  16.496  1.00  0.00     0.120 C 
ATOM     28  C   UNL     1      71.957  56.539  14.601  1.00  0.00     0.014 C 
ATOM     29  C   UNL     1      73.464  58.371  15.269  1.00  0.00     0.014 C 
ENDROOT
BRANCH   1  30
ATOM     30  C   UNL     1      70.223  55.679  24.523  1.00  0.00     0.048 C 
ATOM     31  O   UNL     1      69.542  55.201  23.576  1.00  0.00    -0.550 OA
ATOM     32  O   UNL     1      69.563  56.105  25.671  1.00  0.00    -0.550 OA
ENDBRANCH   1  30
BRANCH  27  33
ATOM     33  O   UNL     1      70.538  58.888  15.543  1.00  0.00    -0.393 OA
ATOM     34  H   UNL     1      71.170  59.503  15.090  1.00  0.00     0.210 HD
ENDBRANCH  27  33
TORSDOF 2
ENDMDL
MODEL 8
REMARK VINA RESULT:    -5.265      2.092      7.886
REMARK INTER + INTRA:          -5.536
REMARK INTER:                  -5.729
REMARK INTRA:                   0.192
REMARK UNBOUND:                 0.191
REMARK SMILES C[C@@H]1[C@H]2C3=CC[C@H]4[C@@]5(C)CC[C@H](O)C(C)(C)[C@H]5CC[C@@]4(C)[C@]3(C)CC[C@]2(C(=O)[O-])CC[C@@H]1C
REMARK SMILES IDX 26 1 30 2 25 3 3 4 31 5 24 6 4 7 2 8 32 9 22 10 5 11 1 12
REMARK SMILES IDX 33 13 23 14 20 15 6 16 7 17 19 18 21 19 8 20 18 21 17 22
REMARK SMILES IDX 10 23 9 24 14 25 11 26 12 27 15 28 16 29 27 30 28 31 29 32
REMARK SMILES IDX 13 33
REMARK H PARENT 13 34
REMARK Flexibility Score: inf
ROOT
ATOM      1  C   UNL     1      74.569  53.324  22.306  1.00  0.00     0.017 C 
ATOM      2  C   UNL     1      74.994  52.003  23.029  1.00  0.00     0.014 C 
ATOM      3  C   UNL     1      75.354  53.420  20.944  1.00  0.00     0.014 C 
ATOM      4  C   UNL     1      73.014  53.274  22.081  1.00  0.00     0.030 C 
ATOM      5  C   UNL     1      74.046  51.516  24.147  1.00  0.00     0.004 C 
ATOM      6  C   UNL     1      74.457  53.508  19.698  1.00  0.00     0.013 C 
ATOM      7  C   UNL     1      72.557  54.390  21.112  1.00  0.00    -0.063 C 
ATOM      8  C   UNL     1      72.197  53.139  23.426  1.00  0.00    -0.003 C 
ATOM      9  C   UNL     1      73.056  52.592  24.613  1.00  0.00    -0.011 C 
ATOM     10  C   UNL     1      73.353  54.614  19.815  1.00  0.00    -0.006 C 
ATOM     11  C   UNL     1      71.361  55.016  21.238  1.00  0.00    -0.027 C 
ATOM     12  C   UNL     1      70.933  52.278  23.183  1.00  0.00     0.008 C 
ATOM     13  C   UNL     1      72.226  52.089  25.807  1.00  0.00     0.008 C 
ATOM     14  C   UNL     1      74.098  55.974  19.913  1.00  0.00     0.017 C 
ATOM     15  C   UNL     1      72.324  54.565  18.579  1.00  0.00    -0.020 C 
ATOM     16  C   UNL     1      70.877  56.029  20.238  1.00  0.00     0.032 C 
ATOM     17  C   UNL     1      71.128  55.613  18.749  1.00  0.00     0.006 C 
ATOM     18  C   UNL     1      73.040  54.805  17.232  1.00  0.00     0.008 C 
ATOM     19  C   UNL     1      71.703  53.114  18.511  1.00  0.00     0.012 C 
ATOM     20  C   UNL     1      70.956  56.801  17.661  1.00  0.00    -0.025 C 
ATOM     21  C   UNL     1      72.051  54.991  16.083  1.00  0.00     0.005 C 
ATOM     22  C   UNL     1      71.214  56.309  16.159  1.00  0.00     0.003 C 
ATOM     23  C   UNL     1      71.785  58.111  17.979  1.00  0.00     0.010 C 
ATOM     24  C   UNL     1      69.449  57.225  17.764  1.00  0.00     0.012 C 
ATOM     25  C   UNL     1      71.732  57.434  15.157  1.00  0.00    -0.006 C 
ATOM     26  C   UNL     1      73.095  58.348  17.211  1.00  0.00     0.033 C 
ATOM     27  C   UNL     1      73.071  58.023  15.693  1.00  0.00     0.120 C 
ATOM     28  C   UNL     1      70.659  58.544  14.948  1.00  0.00     0.014 C 
ATOM     29  C   UNL     1      71.976  56.858  13.726  1.00  0.00     0.014 C 
ENDROOT
BRANCH   1  30
ATOM     30  C   UNL     1      74.983  54.524  23.154  1.00  0.00     0.048 C 
ATOM     31  O   UNL     1      74.355  55.616  23.097  1.00  0.00    -0.550 OA
ATOM     32  O   UNL     1      76.105  54.443  23.972  1.00  0.00    -0.550 OA
ENDBRANCH   1  30
BRANCH  27  33
ATOM     33  O   UNL     1      73.501  59.124  14.927  1.00  0.00    -0.393 OA
ATOM     34  H   UNL     1      72.761  59.388  14.323  1.00  0.00     0.210 HD
ENDBRANCH  27  33
TORSDOF 2
ENDMDL
MODEL 9
REMARK VINA RESULT:    -5.171      2.058      3.288
REMARK INTER + INTRA:          -5.434
REMARK INTER:                  -5.666
REMARK INTRA:                   0.232
REMARK UNBOUND:                 0.191
REMARK SMILES C[C@@H]1[C@H]2C3=CC[C@H]4[C@@]5(C)CC[C@H](O)C(C)(C)[C@H]5CC[C@@]4(C)[C@]3(C)CC[C@]2(C(=O)[O-])CC[C@@H]1C
REMARK SMILES IDX 26 1 30 2 25 3 3 4 31 5 24 6 4 7 2 8 32 9 22 10 5 11 1 12
REMARK SMILES IDX 33 13 23 14 20 15 6 16 7 17 19 18 21 19 8 20 18 21 17 22
REMARK SMILES IDX 10 23 9 24 14 25 11 26 12 27 15 28 16 29 27 30 28 31 29 32
REMARK SMILES IDX 13 33
REMARK H PARENT 13 34
REMARK Flexibility Score: inf
ROOT
ATOM      1  C   UNL     1      75.023  55.911  19.043  1.00  0.00     0.017 C 
ATOM      2  C   UNL     1      76.046  56.711  18.171  1.00  0.00     0.014 C 
ATOM      3  C   UNL     1      75.767  55.389  20.329  1.00  0.00     0.014 C 
ATOM      4  C   UNL     1      73.836  56.877  19.406  1.00  0.00     0.030 C 
ATOM      5  C   UNL     1      75.432  57.648  17.107  1.00  0.00     0.004 C 
ATOM      6  C   UNL     1      75.156  55.870  21.656  1.00  0.00     0.013 C 
ATOM      7  C   UNL     1      72.939  56.264  20.508  1.00  0.00    -0.063 C 
ATOM      8  C   UNL     1      73.092  57.449  18.137  1.00  0.00    -0.003 C 
ATOM      9  C   UNL     1      73.950  57.361  16.831  1.00  0.00    -0.011 C 
ATOM     10  C   UNL     1      73.609  55.633  21.740  1.00  0.00    -0.006 C 
ATOM     11  C   UNL     1      71.600  56.468  20.549  1.00  0.00    -0.027 C 
ATOM     12  C   UNL     1      72.617  58.895  18.419  1.00  0.00     0.008 C 
ATOM     13  C   UNL     1      73.429  58.239  15.680  1.00  0.00     0.008 C 
ATOM     14  C   UNL     1      73.394  54.095  21.692  1.00  0.00     0.017 C 
ATOM     15  C   UNL     1      72.972  56.302  23.057  1.00  0.00    -0.020 C 
ATOM     16  C   UNL     1      70.745  55.955  21.674  1.00  0.00     0.032 C 
ATOM     17  C   UNL     1      71.378  56.165  23.091  1.00  0.00     0.006 C 
ATOM     18  C   UNL     1      73.574  55.705  24.348  1.00  0.00     0.008 C 
ATOM     19  C   UNL     1      73.335  57.839  23.055  1.00  0.00     0.012 C 
ATOM     20  C   UNL     1      70.682  55.328  24.290  1.00  0.00    -0.025 C 
ATOM     21  C   UNL     1      72.820  56.160  25.595  1.00  0.00     0.005 C 
ATOM     22  C   UNL     1      71.367  55.595  25.714  1.00  0.00     0.003 C 
ATOM     23  C   UNL     1      70.536  53.776  24.013  1.00  0.00     0.010 C 
ATOM     24  C   UNL     1      69.215  55.879  24.365  1.00  0.00     0.012 C 
ATOM     25  C   UNL     1      71.248  54.397  26.757  1.00  0.00    -0.006 C 
ATOM     26  C   UNL     1      71.542  52.821  24.675  1.00  0.00     0.033 C 
ATOM     27  C   UNL     1      71.906  53.121  26.153  1.00  0.00     0.120 C 
ATOM     28  C   UNL     1      69.765  54.143  27.162  1.00  0.00     0.014 C 
ATOM     29  C   UNL     1      71.963  54.738  28.104  1.00  0.00     0.014 C 
ENDROOT
BRANCH   1  30
ATOM     30  C   UNL     1      74.542  54.686  18.269  1.00  0.00     0.048 C 
ATOM     31  O   UNL     1      73.330  54.336  18.280  1.00  0.00    -0.550 OA
ATOM     32  O   UNL     1      75.456  53.899  17.576  1.00  0.00    -0.550 OA
ENDBRANCH   1  30
BRANCH  27  33
ATOM     33  O   UNL     1      71.701  51.992  26.970  1.00  0.00    -0.393 OA
ATOM     34  H   UNL     1      71.158  51.337  26.462  1.00  0.00     0.210 HD
ENDBRANCH  27  33
TORSDOF 2
ENDMDL
