MODEL 1
REMARK VINA RESULT:    -6.223      0.000      0.000
REMARK INTER + INTRA:         -12.684
REMARK INTER:                 -11.317
REMARK INTRA:                  -1.367
REMARK UNBOUND:                -1.367
REMARK SMILES CCCCCCCCCCCCCCCC(=O)[O-]
REMARK SMILES IDX 9 1 10 2 11 3 12 4 13 5 14 6 15 7 16 8 17 9 18 10 8 11 7 12
REMARK SMILES IDX 6 13 5 14 4 15 3 16 2 17 1 18
REMARK H PARENT
REMARK Flexibility Score: inf
ROOT
ATOM      1  C   UNL     1       2.831  10.490  18.447  1.00  0.00     0.000 C 
ENDROOT
BRANCH   1   2
ATOM      2  C   UNL     1       3.960  10.715  19.477  1.00  0.00     0.000 C 
BRANCH   2   3
ATOM      3  C   UNL     1       4.747  12.007  19.198  1.00  0.00     0.000 C 
BRANCH   3   4
ATOM      4  C   UNL     1       6.193  11.733  18.757  1.00  0.00     0.000 C 
BRANCH   4   5
ATOM      5  C   UNL     1       6.350  11.759  17.226  1.00  0.00     0.000 C 
BRANCH   5   6
ATOM      6  C   UNL     1       5.650  12.967  16.581  1.00  0.00     0.006 C 
BRANCH   6   7
ATOM      7  C   UNL     1       4.898  12.600  15.296  1.00  0.00     0.053 C 
BRANCH   7   8
ATOM      8  C   UNL     1       3.435  12.868  15.453  1.00  0.00     0.041 C 
ATOM      9  O   UNL     1       3.017  13.558  16.420  1.00  0.00    -0.550 OA
ATOM     10  O   UNL     1       2.526  12.315  14.558  1.00  0.00    -0.550 OA
ENDBRANCH   7   8
ENDBRANCH   6   7
ENDBRANCH   5   6
ENDBRANCH   4   5
ENDBRANCH   3   4
ENDBRANCH   2   3
ENDBRANCH   1   2
BRANCH   1  11
ATOM     11  C   UNL     1       3.053   9.262  17.547  1.00  0.00     0.000 C 
BRANCH  11  12
ATOM     12  C   UNL     1       2.282   8.022  18.028  1.00  0.00    -0.000 C 
BRANCH  12  13
ATOM     13  C   UNL     1       0.801   8.318  18.328  1.00  0.00    -0.000 C 
BRANCH  13  14
ATOM     14  C   UNL     1      -0.083   7.076  18.556  1.00  0.00    -0.000 C 
BRANCH  14  15
ATOM     15  C   UNL     1       0.152   5.912  17.573  1.00  0.00    -0.000 C 
BRANCH  15  16
ATOM     16  C   UNL     1       0.850   4.683  18.181  1.00  0.00    -0.000 C 
BRANCH  16  17
ATOM     17  C   UNL     1       1.263   4.896  19.644  1.00  0.00    -0.003 C 
ATOM     18  C   UNL     1       2.655   4.329  19.911  1.00  0.00     0.004 C 
ENDBRANCH  16  17
ENDBRANCH  15  16
ENDBRANCH  14  15
ENDBRANCH  13  14
ENDBRANCH  12  13
ENDBRANCH  11  12
ENDBRANCH   1  11
TORSDOF 14
ENDMDL
MODEL 2
REMARK VINA RESULT:    -6.184      1.580      2.109
REMARK INTER + INTRA:         -12.613
REMARK INTER:                 -11.316
REMARK INTRA:                  -1.296
REMARK UNBOUND:                -1.367
REMARK SMILES CCCCCCCCCCCCCCCC(=O)[O-]
REMARK SMILES IDX 9 1 10 2 11 3 12 4 13 5 14 6 15 7 16 8 17 9 18 10 8 11 7 12
REMARK SMILES IDX 6 13 5 14 4 15 3 16 2 17 1 18
REMARK H PARENT
REMARK Flexibility Score: inf
ROOT
ATOM      1  C   UNL     1       3.829  10.388  19.157  1.00  0.00     0.000 C 
ENDROOT
BRANCH   1   2
ATOM      2  C   UNL     1       4.675  11.667  18.978  1.00  0.00     0.000 C 
BRANCH   2   3
ATOM      3  C   UNL     1       5.830  11.461  17.982  1.00  0.00     0.000 C 
BRANCH   3   4
ATOM      4  C   UNL     1       5.932  12.599  16.956  1.00  0.00     0.000 C 
BRANCH   4   5
ATOM      5  C   UNL     1       4.574  12.922  16.307  1.00  0.00     0.000 C 
BRANCH   5   6
ATOM      6  C   UNL     1       4.537  12.572  14.810  1.00  0.00     0.006 C 
BRANCH   6   7
ATOM      7  C   UNL     1       3.677  11.337  14.512  1.00  0.00     0.053 C 
BRANCH   7   8
ATOM      8  C   UNL     1       4.543  10.135  14.304  1.00  0.00     0.041 C 
ATOM      9  O   UNL     1       4.854   9.773  13.140  1.00  0.00    -0.550 OA
ATOM     10  O   UNL     1       4.966   9.387  15.396  1.00  0.00    -0.550 OA
ENDBRANCH   7   8
ENDBRANCH   6   7
ENDBRANCH   5   6
ENDBRANCH   4   5
ENDBRANCH   3   4
ENDBRANCH   2   3
ENDBRANCH   1   2
BRANCH   1  11
ATOM     11  C   UNL     1       2.939  10.063  17.944  1.00  0.00     0.000 C 
BRANCH  11  12
ATOM     12  C   UNL     1       2.263   8.686  18.053  1.00  0.00    -0.000 C 
BRANCH  12  13
ATOM     13  C   UNL     1       0.726   8.775  18.088  1.00  0.00    -0.000 C 
BRANCH  13  14
ATOM     14  C   UNL     1       0.012   7.553  18.700  1.00  0.00    -0.000 C 
BRANCH  14  15
ATOM     15  C   UNL     1      -0.071   6.314  17.787  1.00  0.00    -0.000 C 
BRANCH  15  16
ATOM     16  C   UNL     1       0.676   5.074  18.309  1.00  0.00    -0.000 C 
BRANCH  16  17
ATOM     17  C   UNL     1       1.522   5.370  19.556  1.00  0.00    -0.003 C 
ATOM     18  C   UNL     1       2.559   4.275  19.791  1.00  0.00     0.004 C 
ENDBRANCH  16  17
ENDBRANCH  15  16
ENDBRANCH  14  15
ENDBRANCH  13  14
ENDBRANCH  12  13
ENDBRANCH  11  12
ENDBRANCH   1  11
TORSDOF 14
ENDMDL
MODEL 3
REMARK VINA RESULT:    -6.175      3.443      6.772
REMARK INTER + INTRA:         -12.596
REMARK INTER:                 -10.828
REMARK INTRA:                  -1.768
REMARK UNBOUND:                -1.367
REMARK SMILES CCCCCCCCCCCCCCCC(=O)[O-]
REMARK SMILES IDX 9 1 10 2 11 3 12 4 13 5 14 6 15 7 16 8 17 9 18 10 8 11 7 12
REMARK SMILES IDX 6 13 5 14 4 15 3 16 2 17 1 18
REMARK H PARENT
REMARK Flexibility Score: inf
ROOT
ATOM      1  C   UNL     1       4.633  12.228  19.096  1.00  0.00     0.000 C 
ENDROOT
BRANCH   1   2
ATOM      2  C   UNL     1       3.305  11.443  19.026  1.00  0.00     0.000 C 
BRANCH   2   3
ATOM      3  C   UNL     1       3.524   9.972  18.632  1.00  0.00     0.000 C 
BRANCH   3   4
ATOM      4  C   UNL     1       2.313   9.371  17.902  1.00  0.00     0.000 C 
BRANCH   4   5
ATOM      5  C   UNL     1       2.381   7.836  17.826  1.00  0.00     0.000 C 
BRANCH   5   6
ATOM      6  C   UNL     1       1.148   7.159  18.447  1.00  0.00     0.006 C 
BRANCH   6   7
ATOM      7  C   UNL     1       1.505   6.241  19.623  1.00  0.00     0.053 C 
BRANCH   7   8
ATOM      8  C   UNL     1       1.640   4.826  19.157  1.00  0.00     0.041 C 
ATOM      9  O   UNL     1       2.373   4.019  19.787  1.00  0.00    -0.550 OA
ATOM     10  O   UNL     1       0.995   4.410  17.999  1.00  0.00    -0.550 OA
ENDBRANCH   7   8
ENDBRANCH   6   7
ENDBRANCH   5   6
ENDBRANCH   4   5
ENDBRANCH   3   4
ENDBRANCH   2   3
ENDBRANCH   1   2
BRANCH   1  11
ATOM     11  C   UNL     1       5.800  11.530  18.375  1.00  0.00     0.000 C 
BRANCH  11  12
ATOM     12  C   UNL     1       6.328  12.336  17.177  1.00  0.00    -0.000 C 
BRANCH  12  13
ATOM     13  C   UNL     1       5.235  13.173  16.490  1.00  0.00    -0.000 C 
BRANCH  13  14
ATOM     14  C   UNL     1       4.809  12.679  15.093  1.00  0.00    -0.000 C 
BRANCH  14  15
ATOM     15  C   UNL     1       3.835  11.484  15.087  1.00  0.00    -0.000 C 
BRANCH  15  16
ATOM     16  C   UNL     1       4.285  10.285  14.235  1.00  0.00    -0.000 C 
BRANCH  16  17
ATOM     17  C   UNL     1       4.658   9.059  15.082  1.00  0.00    -0.003 C 
ATOM     18  C   UNL     1       4.576   7.776  14.259  1.00  0.00     0.004 C 
ENDBRANCH  16  17
ENDBRANCH  15  16
ENDBRANCH  14  15
ENDBRANCH  13  14
ENDBRANCH  12  13
ENDBRANCH  11  12
ENDBRANCH   1  11
TORSDOF 14
ENDMDL
MODEL 4
REMARK VINA RESULT:    -6.042      3.318      6.964
REMARK INTER + INTRA:         -12.354
REMARK INTER:                 -10.502
REMARK INTRA:                  -1.852
REMARK UNBOUND:                -1.367
REMARK SMILES CCCCCCCCCCCCCCCC(=O)[O-]
REMARK SMILES IDX 9 1 10 2 11 3 12 4 13 5 14 6 15 7 16 8 17 9 18 10 8 11 7 12
REMARK SMILES IDX 6 13 5 14 4 15 3 16 2 17 1 18
REMARK H PARENT
REMARK Flexibility Score: inf
ROOT
ATOM      1  C   UNL     1       4.602   9.558  14.082  1.00  0.00     0.000 C 
ENDROOT
BRANCH   1   2
ATOM      2  C   UNL     1       4.998   9.280  15.548  1.00  0.00     0.000 C 
BRANCH   2   3
ATOM      3  C   UNL     1       3.854   8.622  16.339  1.00  0.00     0.000 C 
BRANCH   3   4
ATOM      4  C   UNL     1       3.155   9.604  17.292  1.00  0.00     0.000 C 
BRANCH   4   5
ATOM      5  C   UNL     1       2.035   8.931  18.105  1.00  0.00     0.000 C 
BRANCH   5   6
ATOM      6  C   UNL     1       2.142   7.397  18.100  1.00  0.00     0.006 C 
BRANCH   6   7
ATOM      7  C   UNL     1       1.310   6.742  19.210  1.00  0.00     0.053 C 
BRANCH   7   8
ATOM      8  C   UNL     1       1.197   5.269  18.976  1.00  0.00     0.041 C 
ATOM      9  O   UNL     1       1.736   4.458  19.774  1.00  0.00    -0.550 OA
ATOM     10  O   UNL     1       0.538   4.792  17.849  1.00  0.00    -0.550 OA
ENDBRANCH   7   8
ENDBRANCH   6   7
ENDBRANCH   5   6
ENDBRANCH   4   5
ENDBRANCH   3   4
ENDBRANCH   2   3
ENDBRANCH   1   2
BRANCH   1  11
ATOM     11  C   UNL     1       3.783  10.848  13.898  1.00  0.00     0.000 C 
BRANCH  11  12
ATOM     12  C   UNL     1       4.529  12.103  14.382  1.00  0.00    -0.000 C 
BRANCH  12  13
ATOM     13  C   UNL     1       3.713  12.932  15.389  1.00  0.00    -0.000 C 
BRANCH  13  14
ATOM     14  C   UNL     1       4.301  13.000  16.813  1.00  0.00    -0.000 C 
BRANCH  14  15
ATOM     15  C   UNL     1       5.763  12.527  16.944  1.00  0.00    -0.000 C 
BRANCH  15  16
ATOM     16  C   UNL     1       6.074  11.732  18.224  1.00  0.00    -0.000 C 
BRANCH  16  17
ATOM     17  C   UNL     1       5.229  12.183  19.425  1.00  0.00    -0.003 C 
ATOM     18  C   UNL     1       4.705  10.983  20.210  1.00  0.00     0.004 C 
ENDBRANCH  16  17
ENDBRANCH  15  16
ENDBRANCH  14  15
ENDBRANCH  13  14
ENDBRANCH  12  13
ENDBRANCH  11  12
ENDBRANCH   1  11
TORSDOF 14
ENDMDL
MODEL 5
REMARK VINA RESULT:    -5.967      1.720      2.884
REMARK INTER + INTRA:         -12.218
REMARK INTER:                 -10.922
REMARK INTRA:                  -1.296
REMARK UNBOUND:                -1.367
REMARK SMILES CCCCCCCCCCCCCCCC(=O)[O-]
REMARK SMILES IDX 9 1 10 2 11 3 12 4 13 5 14 6 15 7 16 8 17 9 18 10 8 11 7 12
REMARK SMILES IDX 6 13 5 14 4 15 3 16 2 17 1 18
REMARK H PARENT
REMARK Flexibility Score: inf
ROOT
ATOM      1  C   UNL     1       4.264   9.262  16.880  1.00  0.00     0.000 C 
ENDROOT
BRANCH   1   2
ATOM      2  C   UNL     1       4.190   8.934  15.374  1.00  0.00     0.000 C 
BRANCH   2   3
ATOM      3  C   UNL     1       4.713  10.091  14.504  1.00  0.00     0.000 C 
BRANCH   3   4
ATOM      4  C   UNL     1       3.804  11.329  14.564  1.00  0.00     0.000 C 
BRANCH   4   5
ATOM      5  C   UNL     1       4.594  12.618  14.849  1.00  0.00     0.000 C 
BRANCH   5   6
ATOM      6  C   UNL     1       4.558  13.016  16.334  1.00  0.00     0.006 C 
BRANCH   6   7
ATOM      7  C   UNL     1       5.816  12.576  17.095  1.00  0.00     0.053 C 
BRANCH   7   8
ATOM      8  C   UNL     1       5.462  12.149  18.485  1.00  0.00     0.041 C 
ATOM      9  O   UNL     1       6.244  11.411  19.139  1.00  0.00    -0.550 OA
ATOM     10  O   UNL     1       4.245  12.527  19.039  1.00  0.00    -0.550 OA
ENDBRANCH   7   8
ENDBRANCH   6   7
ENDBRANCH   5   6
ENDBRANCH   4   5
ENDBRANCH   3   4
ENDBRANCH   2   3
ENDBRANCH   1   2
BRANCH   1  11
ATOM     11  C   UNL     1       2.893   9.552  17.516  1.00  0.00     0.000 C 
BRANCH  11  12
ATOM     12  C   UNL     1       2.217   8.291  18.078  1.00  0.00    -0.000 C 
BRANCH  12  13
ATOM     13  C   UNL     1       0.705   8.471  18.302  1.00  0.00    -0.000 C 
BRANCH  13  14
ATOM     14  C   UNL     1      -0.061   7.187  18.678  1.00  0.00    -0.000 C 
BRANCH  14  15
ATOM     15  C   UNL     1       0.036   6.039  17.652  1.00  0.00    -0.000 C 
BRANCH  15  16
ATOM     16  C   UNL     1       0.879   4.835  18.106  1.00  0.00    -0.000 C 
BRANCH  16  17
ATOM     17  C   UNL     1       1.143   4.829  19.618  1.00  0.00    -0.003 C 
ATOM     18  C   UNL     1       2.581   4.418  19.924  1.00  0.00     0.004 C 
ENDBRANCH  16  17
ENDBRANCH  15  16
ENDBRANCH  14  15
ENDBRANCH  13  14
ENDBRANCH  12  13
ENDBRANCH  11  12
ENDBRANCH   1  11
TORSDOF 14
ENDMDL
MODEL 6
REMARK VINA RESULT:    -5.941      3.130      6.125
REMARK INTER + INTRA:         -12.170
REMARK INTER:                 -10.293
REMARK INTRA:                  -1.877
REMARK UNBOUND:                -1.367
REMARK SMILES CCCCCCCCCCCCCCCC(=O)[O-]
REMARK SMILES IDX 9 1 10 2 11 3 12 4 13 5 14 6 15 7 16 8 17 9 18 10 8 11 7 12
REMARK SMILES IDX 6 13 5 14 4 15 3 16 2 17 1 18
REMARK H PARENT
REMARK Flexibility Score: inf
ROOT
ATOM      1  C   UNL     1       6.023  11.546  17.908  1.00  0.00     0.000 C 
ENDROOT
BRANCH   1   2
ATOM      2  C   UNL     1       5.109  11.050  19.048  1.00  0.00     0.000 C 
BRANCH   2   3
ATOM      3  C   UNL     1       3.710  11.688  18.985  1.00  0.00     0.000 C 
BRANCH   3   4
ATOM      4  C   UNL     1       2.656  10.737  18.396  1.00  0.00     0.000 C 
BRANCH   4   5
ATOM      5  C   UNL     1       3.132   9.273  18.388  1.00  0.00     0.000 C 
BRANCH   5   6
ATOM      6  C   UNL     1       2.044   8.302  17.901  1.00  0.00     0.006 C 
BRANCH   6   7
ATOM      7  C   UNL     1       1.767   7.172  18.902  1.00  0.00     0.053 C 
BRANCH   7   8
ATOM      8  C   UNL     1       0.624   6.328  18.433  1.00  0.00     0.041 C 
ATOM      9  O   UNL     1      -0.551   6.777  18.470  1.00  0.00    -0.550 OA
ATOM     10  O   UNL     1       0.853   5.028  18.000  1.00  0.00    -0.550 OA
ENDBRANCH   7   8
ENDBRANCH   6   7
ENDBRANCH   5   6
ENDBRANCH   4   5
ENDBRANCH   3   4
ENDBRANCH   2   3
ENDBRANCH   1   2
BRANCH   1  11
ATOM     11  C   UNL     1       5.673  12.959  17.407  1.00  0.00     0.000 C 
BRANCH  11  12
ATOM     12  C   UNL     1       5.384  13.002  15.897  1.00  0.00    -0.000 C 
BRANCH  12  13
ATOM     13  C   UNL     1       3.890  13.188  15.579  1.00  0.00    -0.000 C 
BRANCH  13  14
ATOM     14  C   UNL     1       3.216  11.997  14.869  1.00  0.00    -0.000 C 
BRANCH  14  15
ATOM     15  C   UNL     1       4.182  10.933  14.309  1.00  0.00    -0.000 C 
BRANCH  15  16
ATOM     16  C   UNL     1       4.309   9.660  15.163  1.00  0.00    -0.000 C 
BRANCH  16  17
ATOM     17  C   UNL     1       5.129   8.560  14.472  1.00  0.00    -0.003 C 
ATOM     18  C   UNL     1       4.222   7.464  13.918  1.00  0.00     0.004 C 
ENDBRANCH  16  17
ENDBRANCH  15  16
ENDBRANCH  14  15
ENDBRANCH  13  14
ENDBRANCH  12  13
ENDBRANCH  11  12
ENDBRANCH   1  11
TORSDOF 14
ENDMDL
MODEL 7
REMARK VINA RESULT:    -5.880      2.271      3.807
REMARK INTER + INTRA:         -12.059
REMARK INTER:                 -10.299
REMARK INTRA:                  -1.760
REMARK UNBOUND:                -1.367
REMARK SMILES CCCCCCCCCCCCCCCC(=O)[O-]
REMARK SMILES IDX 9 1 10 2 11 3 12 4 13 5 14 6 15 7 16 8 17 9 18 10 8 11 7 12
REMARK SMILES IDX 6 13 5 14 4 15 3 16 2 17 1 18
REMARK H PARENT
REMARK Flexibility Score: inf
ROOT
ATOM      1  C   UNL     1       3.526  10.788  14.464  1.00  0.00     0.000 C 
ENDROOT
BRANCH   1   2
ATOM      2  C   UNL     1       4.021  12.237  14.265  1.00  0.00     0.000 C 
BRANCH   2   3
ATOM      3  C   UNL     1       3.296  13.227  15.194  1.00  0.00     0.000 C 
BRANCH   3   4
ATOM      4  C   UNL     1       3.944  13.312  16.584  1.00  0.00     0.000 C 
BRANCH   4   5
ATOM      5  C   UNL     1       5.454  13.015  16.542  1.00  0.00     0.000 C 
BRANCH   5   6
ATOM      6  C   UNL     1       5.921  12.162  17.733  1.00  0.00     0.006 C 
BRANCH   6   7
ATOM      7  C   UNL     1       4.953  12.224  18.922  1.00  0.00     0.053 C 
BRANCH   7   8
ATOM      8  C   UNL     1       5.450  11.370  20.044  1.00  0.00     0.041 C 
ATOM      9  O   UNL     1       4.635  10.802  20.817  1.00  0.00    -0.550 OA
ATOM     10  O   UNL     1       6.816  11.241  20.267  1.00  0.00    -0.550 OA
ENDBRANCH   7   8
ENDBRANCH   6   7
ENDBRANCH   5   6
ENDBRANCH   4   5
ENDBRANCH   3   4
ENDBRANCH   2   3
ENDBRANCH   1   2
BRANCH   1  11
ATOM     11  C   UNL     1       4.633   9.814  14.904  1.00  0.00     0.000 C 
BRANCH  11  12
ATOM     12  C   UNL     1       4.249   8.998  16.149  1.00  0.00    -0.000 C 
BRANCH  12  13
ATOM     13  C   UNL     1       3.177   9.690  17.010  1.00  0.00    -0.000 C 
BRANCH  13  14
ATOM     14  C   UNL     1       2.745   8.913  18.270  1.00  0.00    -0.000 C 
BRANCH  14  15
ATOM     15  C   UNL     1       2.280   7.464  18.023  1.00  0.00    -0.000 C 
BRANCH  15  16
ATOM     16  C   UNL     1       0.842   7.159  18.476  1.00  0.00    -0.000 C 
BRANCH  16  17
ATOM     17  C   UNL     1       0.591   5.660  18.692  1.00  0.00    -0.003 C 
ATOM     18  C   UNL     1       1.672   5.043  19.577  1.00  0.00     0.004 C 
ENDBRANCH  16  17
ENDBRANCH  15  16
ENDBRANCH  14  15
ENDBRANCH  13  14
ENDBRANCH  12  13
ENDBRANCH  11  12
ENDBRANCH   1  11
TORSDOF 14
ENDMDL
MODEL 8
REMARK VINA RESULT:    -5.851      2.288      4.150
REMARK INTER + INTRA:         -12.007
REMARK INTER:                 -10.290
REMARK INTRA:                  -1.717
REMARK UNBOUND:                -1.367
REMARK SMILES CCCCCCCCCCCCCCCC(=O)[O-]
REMARK SMILES IDX 9 1 10 2 11 3 12 4 13 5 14 6 15 7 16 8 17 9 18 10 8 11 7 12
REMARK SMILES IDX 6 13 5 14 4 15 3 16 2 17 1 18
REMARK H PARENT
REMARK Flexibility Score: inf
ROOT
ATOM      1  C   UNL     1       6.559  12.154  17.589  1.00  0.00     0.000 C 
ENDROOT
BRANCH   1   2
ATOM      2  C   UNL     1       5.707  13.281  16.967  1.00  0.00     0.000 C 
BRANCH   2   3
ATOM      3  C   UNL     1       5.113  12.873  15.607  1.00  0.00     0.000 C 
BRANCH   3   4
ATOM      4  C   UNL     1       3.583  12.733  15.651  1.00  0.00     0.000 C 
BRANCH   4   5
ATOM      5  C   UNL     1       3.071  11.637  14.701  1.00  0.00     0.000 C 
BRANCH   5   6
ATOM      6  C   UNL     1       4.203  10.747  14.160  1.00  0.00     0.006 C 
BRANCH   6   7
ATOM      7  C   UNL     1       4.465   9.520  15.043  1.00  0.00     0.053 C 
BRANCH   7   8
ATOM      8  C   UNL     1       4.913   8.363  14.208  1.00  0.00     0.041 C 
ATOM      9  O   UNL     1       6.032   8.393  13.633  1.00  0.00    -0.550 OA
ATOM     10  O   UNL     1       4.073   7.271  14.025  1.00  0.00    -0.550 OA
ENDBRANCH   7   8
ENDBRANCH   6   7
ENDBRANCH   5   6
ENDBRANCH   4   5
ENDBRANCH   3   4
ENDBRANCH   2   3
ENDBRANCH   1   2
BRANCH   1  11
ATOM     11  C   UNL     1       5.869  11.434  18.761  1.00  0.00     0.000 C 
BRANCH  11  12
ATOM     12  C   UNL     1       4.599  12.156  19.240  1.00  0.00    -0.000 C 
BRANCH  12  13
ATOM     13  C   UNL     1       3.334  11.287  19.120  1.00  0.00    -0.000 C 
BRANCH  13  14
ATOM     14  C   UNL     1       3.534   9.932  18.413  1.00  0.00    -0.000 C 
BRANCH  14  15
ATOM     15  C   UNL     1       2.237   9.209  17.997  1.00  0.00    -0.000 C 
BRANCH  15  16
ATOM     16  C   UNL     1       2.316   7.672  18.020  1.00  0.00    -0.000 C 
BRANCH  16  17
ATOM     17  C   UNL     1       1.248   7.035  18.920  1.00  0.00    -0.003 C 
ATOM     18  C   UNL     1       1.574   5.572  19.209  1.00  0.00     0.004 C 
ENDBRANCH  16  17
ENDBRANCH  15  16
ENDBRANCH  14  15
ENDBRANCH  13  14
ENDBRANCH  12  13
ENDBRANCH  11  12
ENDBRANCH   1  11
TORSDOF 14
ENDMDL
MODEL 9
REMARK VINA RESULT:    -5.829      3.260      7.696
REMARK INTER + INTRA:         -11.967
REMARK INTER:                 -10.377
REMARK INTRA:                  -1.590
REMARK UNBOUND:                -1.367
REMARK SMILES CCCCCCCCCCCCCCCC(=O)[O-]
REMARK SMILES IDX 9 1 10 2 11 3 12 4 13 5 14 6 15 7 16 8 17 9 18 10 8 11 7 12
REMARK SMILES IDX 6 13 5 14 4 15 3 16 2 17 1 18
REMARK H PARENT
REMARK Flexibility Score: inf
ROOT
ATOM      1  C   UNL     1       2.298  10.358  18.055  1.00  0.00     0.000 C 
ENDROOT
BRANCH   1   2
ATOM      2  C   UNL     1       3.068   9.067  17.707  1.00  0.00     0.000 C 
BRANCH   2   3
ATOM      3  C   UNL     1       2.255   7.803  18.038  1.00  0.00     0.000 C 
BRANCH   3   4
ATOM      4  C   UNL     1       0.786   8.116  18.363  1.00  0.00     0.000 C 
BRANCH   4   5
ATOM      5  C   UNL     1      -0.134   6.904  18.129  1.00  0.00     0.000 C 
BRANCH   5   6
ATOM      6  C   UNL     1       0.644   5.644  17.715  1.00  0.00     0.006 C 
BRANCH   6   7
ATOM      7  C   UNL     1       0.548   4.521  18.756  1.00  0.00     0.053 C 
BRANCH   7   8
ATOM      8  C   UNL     1       1.810   4.443  19.557  1.00  0.00     0.041 C 
ATOM      9  O   UNL     1       2.705   3.614  19.249  1.00  0.00    -0.550 OA
ATOM     10  O   UNL     1       1.975   5.254  20.673  1.00  0.00    -0.550 OA
ENDBRANCH   7   8
ENDBRANCH   6   7
ENDBRANCH   5   6
ENDBRANCH   4   5
ENDBRANCH   3   4
ENDBRANCH   2   3
ENDBRANCH   1   2
BRANCH   1  11
ATOM     11  C   UNL     1       3.151  11.405  18.793  1.00  0.00     0.000 C 
BRANCH  11  12
ATOM     12  C   UNL     1       4.372  10.790  19.499  1.00  0.00    -0.000 C 
BRANCH  12  13
ATOM     13  C   UNL     1       5.694  11.477  19.113  1.00  0.00    -0.000 C 
BRANCH  13  14
ATOM     14  C   UNL     1       6.033  11.451  17.609  1.00  0.00    -0.000 C 
BRANCH  14  15
ATOM     15  C   UNL     1       5.965  12.816  16.896  1.00  0.00    -0.000 C 
BRANCH  15  16
ATOM     16  C   UNL     1       5.211  12.808  15.554  1.00  0.00    -0.000 C 
BRANCH  16  17
ATOM     17  C   UNL     1       3.705  13.062  15.715  1.00  0.00    -0.003 C 
ATOM     18  C   UNL     1       2.898  12.230  14.723  1.00  0.00     0.004 C 
ENDBRANCH  16  17
ENDBRANCH  15  16
ENDBRANCH  14  15
ENDBRANCH  13  14
ENDBRANCH  12  13
ENDBRANCH  11  12
ENDBRANCH   1  11
TORSDOF 14
ENDMDL
