MODEL 1
REMARK VINA RESULT:    -4.593      0.000      0.000
REMARK INTER + INTRA:         -10.358
REMARK INTER:                  -8.353
REMARK INTRA:                  -2.005
REMARK UNBOUND:                -2.005
REMARK SMILES CCCCCCCCCCCCCCCC(=O)[O-]
REMARK SMILES IDX 9 1 10 2 11 3 12 4 13 5 14 6 15 7 16 8 17 9 18 10 8 11 7 12
REMARK SMILES IDX 6 13 5 14 4 15 3 16 2 17 1 18
REMARK H PARENT
REMARK Flexibility Score: inf
ROOT
ATOM      1  C   UNL     1     101.220  87.912  92.350  1.00  0.00     0.000 C 
ENDROOT
BRANCH   1   2
ATOM      2  C   UNL     1     100.644  89.334  92.459  1.00  0.00     0.000 C 
BRANCH   2   3
ATOM      3  C   UNL     1      99.106  89.353  92.402  1.00  0.00     0.000 C 
BRANCH   3   4
ATOM      4  C   UNL     1      98.566  90.104  91.174  1.00  0.00     0.000 C 
BRANCH   4   5
ATOM      5  C   UNL     1      99.630  90.855  90.349  1.00  0.00     0.000 C 
BRANCH   5   6
ATOM      6  C   UNL     1      99.172  91.208  88.916  1.00  0.00     0.006 C 
BRANCH   6   7
ATOM      7  C   UNL     1      99.267  92.713  88.630  1.00  0.00     0.053 C 
BRANCH   7   8
ATOM      8  C   UNL     1      98.001  93.207  88.005  1.00  0.00     0.041 C 
ATOM      9  O   UNL     1      97.444  92.543  87.091  1.00  0.00    -0.550 OA
ATOM     10  O   UNL     1      97.408  94.375  88.466  1.00  0.00    -0.550 OA
ENDBRANCH   7   8
ENDBRANCH   6   7
ENDBRANCH   5   6
ENDBRANCH   4   5
ENDBRANCH   3   4
ENDBRANCH   2   3
ENDBRANCH   1   2
BRANCH   1  11
ATOM     11  C   UNL     1     101.871  87.643  90.982  1.00  0.00     0.000 C 
BRANCH  11  12
ATOM     12  C   UNL     1     100.843  87.328  89.879  1.00  0.00    -0.000 C 
BRANCH  12  13
ATOM     13  C   UNL     1     101.140  87.951  88.503  1.00  0.00    -0.000 C 
BRANCH  13  14
ATOM     14  C   UNL     1      99.947  87.867  87.536  1.00  0.00    -0.000 C 
BRANCH  14  15
ATOM     15  C   UNL     1     100.258  88.458  86.148  1.00  0.00    -0.000 C 
BRANCH  15  16
ATOM     16  C   UNL     1      99.261  89.522  85.644  1.00  0.00    -0.000 C 
BRANCH  16  17
ATOM     17  C   UNL     1      99.903  90.794  85.064  1.00  0.00    -0.003 C 
ATOM     18  C   UNL     1     101.155  91.229  85.824  1.00  0.00     0.004 C 
ENDBRANCH  16  17
ENDBRANCH  15  16
ENDBRANCH  14  15
ENDBRANCH  13  14
ENDBRANCH  12  13
ENDBRANCH  11  12
ENDBRANCH   1  11
TORSDOF 14
ENDMDL
MODEL 2
REMARK VINA RESULT:    -4.094     10.167     12.206
REMARK INTER + INTRA:          -9.450
REMARK INTER:                  -7.359
REMARK INTRA:                  -2.091
REMARK UNBOUND:                -2.005
REMARK SMILES CCCCCCCCCCCCCCCC(=O)[O-]
REMARK SMILES IDX 9 1 10 2 11 3 12 4 13 5 14 6 15 7 16 8 17 9 18 10 8 11 7 12
REMARK SMILES IDX 6 13 5 14 4 15 3 16 2 17 1 18
REMARK H PARENT
REMARK Flexibility Score: inf
ROOT
ATOM      1  C   UNL     1     104.456  96.985  97.364  1.00  0.00     0.000 C 
ENDROOT
BRANCH   1   2
ATOM      2  C   UNL     1     104.339  95.580  97.978  1.00  0.00     0.000 C 
BRANCH   2   3
ATOM      3  C   UNL     1     103.019  95.380  98.745  1.00  0.00     0.000 C 
BRANCH   3   4
ATOM      4  C   UNL     1     102.602  96.626  99.545  1.00  0.00     0.000 C 
BRANCH   4   5
ATOM      5  C   UNL     1     101.540  97.512  98.865  1.00  0.00     0.000 C 
BRANCH   5   6
ATOM      6  C   UNL     1     100.423  96.714  98.156  1.00  0.00     0.006 C 
BRANCH   6   7
ATOM      7  C   UNL     1     100.290  97.089  96.674  1.00  0.00     0.053 C 
BRANCH   7   8
ATOM      8  C   UNL     1      99.207  96.287  96.026  1.00  0.00     0.041 C 
ATOM      9  O   UNL     1      98.557  96.765  95.060  1.00  0.00    -0.550 OA
ATOM     10  O   UNL     1      98.949  94.992  96.457  1.00  0.00    -0.550 OA
ENDBRANCH   7   8
ENDBRANCH   6   7
ENDBRANCH   5   6
ENDBRANCH   4   5
ENDBRANCH   3   4
ENDBRANCH   2   3
ENDBRANCH   1   2
BRANCH   1  11
ATOM     11  C   UNL     1     105.441  97.032  96.183  1.00  0.00     0.000 C 
BRANCH  11  12
ATOM     12  C   UNL     1     104.941  97.908  95.019  1.00  0.00    -0.000 C 
BRANCH  12  13
ATOM     13  C   UNL     1     103.450  98.289  95.075  1.00  0.00    -0.000 C 
BRANCH  13  14
ATOM     14  C   UNL     1     103.221  99.809  95.138  1.00  0.00    -0.000 C 
BRANCH  14  15
ATOM     15  C   UNL     1     102.573 100.262  96.460  1.00  0.00    -0.000 C 
BRANCH  15  16
ATOM     16  C   UNL     1     103.558 100.574  97.606  1.00  0.00    -0.000 C 
BRANCH  16  17
ATOM     17  C   UNL     1     104.895 101.194  97.164  1.00  0.00    -0.003 C 
ATOM     18  C   UNL     1     106.108 100.412  97.665  1.00  0.00     0.004 C 
ENDBRANCH  16  17
ENDBRANCH  15  16
ENDBRANCH  14  15
ENDBRANCH  13  14
ENDBRANCH  12  13
ENDBRANCH  11  12
ENDBRANCH   1  11
TORSDOF 14
ENDMDL
MODEL 3
REMARK VINA RESULT:    -4.069     10.372     12.413
REMARK INTER + INTRA:          -9.404
REMARK INTER:                  -7.737
REMARK INTRA:                  -1.667
REMARK UNBOUND:                -2.005
REMARK SMILES CCCCCCCCCCCCCCCC(=O)[O-]
REMARK SMILES IDX 9 1 10 2 11 3 12 4 13 5 14 6 15 7 16 8 17 9 18 10 8 11 7 12
REMARK SMILES IDX 6 13 5 14 4 15 3 16 2 17 1 18
REMARK H PARENT
REMARK Flexibility Score: inf
ROOT
ATOM      1  C   UNL     1     103.955  97.105  98.178  1.00  0.00     0.000 C 
ENDROOT
BRANCH   1   2
ATOM      2  C   UNL     1     104.823  96.340  97.165  1.00  0.00     0.000 C 
BRANCH   2   3
ATOM      3  C   UNL     1     105.449  97.266  96.107  1.00  0.00     0.000 C 
BRANCH   3   4
ATOM      4  C   UNL     1     104.396  97.967  95.233  1.00  0.00     0.000 C 
BRANCH   4   5
ATOM      5  C   UNL     1     104.348  99.501  95.373  1.00  0.00     0.000 C 
BRANCH   5   6
ATOM      6  C   UNL     1     105.252 100.053  96.497  1.00  0.00     0.006 C 
BRANCH   6   7
ATOM      7  C   UNL     1     106.262 101.085  95.977  1.00  0.00     0.053 C 
BRANCH   7   8
ATOM      8  C   UNL     1     107.118 100.487  94.907  1.00  0.00     0.041 C 
ATOM      9  O   UNL     1     107.107 100.967  93.743  1.00  0.00    -0.550 OA
ATOM     10  O   UNL     1     107.968  99.430  95.206  1.00  0.00    -0.550 OA
ENDBRANCH   7   8
ENDBRANCH   6   7
ENDBRANCH   5   6
ENDBRANCH   4   5
ENDBRANCH   3   4
ENDBRANCH   2   3
ENDBRANCH   1   2
BRANCH   1  11
ATOM     11  C   UNL     1     102.936  96.196  98.887  1.00  0.00     0.000 C 
BRANCH  11  12
ATOM     12  C   UNL     1     101.483  96.476  98.460  1.00  0.00    -0.000 C 
BRANCH  12  13
ATOM     13  C   UNL     1     101.263  97.793  97.693  1.00  0.00    -0.000 C 
BRANCH  13  14
ATOM     14  C   UNL     1     100.911  97.573  96.212  1.00  0.00    -0.000 C 
BRANCH  14  15
ATOM     15  C   UNL     1      99.405  97.345  95.983  1.00  0.00    -0.000 C 
BRANCH  15  16
ATOM     16  C   UNL     1      98.968  95.869  95.880  1.00  0.00    -0.000 C 
BRANCH  16  17
ATOM     17  C   UNL     1      98.288  95.302  97.139  1.00  0.00    -0.003 C 
ATOM     18  C   UNL     1      98.856  93.948  97.563  1.00  0.00     0.004 C 
ENDBRANCH  16  17
ENDBRANCH  15  16
ENDBRANCH  14  15
ENDBRANCH  13  14
ENDBRANCH  12  13
ENDBRANCH  11  12
ENDBRANCH   1  11
TORSDOF 14
ENDMDL
MODEL 4
REMARK VINA RESULT:    -4.012     10.182     11.918
REMARK INTER + INTRA:          -9.301
REMARK INTER:                  -7.701
REMARK INTRA:                  -1.600
REMARK UNBOUND:                -2.005
REMARK SMILES CCCCCCCCCCCCCCCC(=O)[O-]
REMARK SMILES IDX 9 1 10 2 11 3 12 4 13 5 14 6 15 7 16 8 17 9 18 10 8 11 7 12
REMARK SMILES IDX 6 13 5 14 4 15 3 16 2 17 1 18
REMARK H PARENT
REMARK Flexibility Score: inf
ROOT
ATOM      1  C   UNL     1     102.590  96.733  99.386  1.00  0.00     0.000 C 
ENDROOT
BRANCH   1   2
ATOM      2  C   UNL     1     103.099  95.389  98.840  1.00  0.00     0.000 C 
BRANCH   2   3
ATOM      3  C   UNL     1     104.393  95.538  98.019  1.00  0.00     0.000 C 
BRANCH   3   4
ATOM      4  C   UNL     1     104.559  96.946  97.422  1.00  0.00     0.000 C 
BRANCH   4   5
ATOM      5  C   UNL     1     105.537  97.040  96.234  1.00  0.00     0.000 C 
BRANCH   5   6
ATOM      6  C   UNL     1     104.949  97.756  94.998  1.00  0.00     0.006 C 
BRANCH   6   7
ATOM      7  C   UNL     1     103.534  98.293  95.256  1.00  0.00     0.053 C 
BRANCH   7   8
ATOM      8  C   UNL     1     103.494  99.776  95.061  1.00  0.00     0.041 C 
ATOM      9  O   UNL     1     103.122 100.260  93.960  1.00  0.00    -0.550 OA
ATOM     10  O   UNL     1     103.820 100.624  96.111  1.00  0.00    -0.550 OA
ENDBRANCH   7   8
ENDBRANCH   6   7
ENDBRANCH   5   6
ENDBRANCH   4   5
ENDBRANCH   3   4
ENDBRANCH   2   3
ENDBRANCH   1   2
BRANCH   1  11
ATOM     11  C   UNL     1     101.263  97.168  98.740  1.00  0.00     0.000 C 
BRANCH  11  12
ATOM     12  C   UNL     1     100.806  96.222  97.614  1.00  0.00    -0.000 C 
BRANCH  12  13
ATOM     13  C   UNL     1     100.004  96.885  96.480  1.00  0.00    -0.000 C 
BRANCH  13  14
ATOM     14  C   UNL     1      98.764  96.074  96.066  1.00  0.00    -0.000 C 
BRANCH  14  15
ATOM     15  C   UNL     1      98.259  95.141  97.184  1.00  0.00    -0.000 C 
BRANCH  15  16
ATOM     16  C   UNL     1      97.056  95.670  97.992  1.00  0.00    -0.000 C 
BRANCH  16  17
ATOM     17  C   UNL     1      97.405  96.702  99.079  1.00  0.00    -0.003 C 
ATOM     18  C   UNL     1      97.040  98.131  98.683  1.00  0.00     0.004 C 
ENDBRANCH  16  17
ENDBRANCH  15  16
ENDBRANCH  14  15
ENDBRANCH  13  14
ENDBRANCH  12  13
ENDBRANCH  11  12
ENDBRANCH   1  11
TORSDOF 14
ENDMDL
MODEL 5
REMARK VINA RESULT:    -3.944     11.270     12.929
REMARK INTER + INTRA:          -9.176
REMARK INTER:                  -7.437
REMARK INTRA:                  -1.740
REMARK UNBOUND:                -2.005
REMARK SMILES CCCCCCCCCCCCCCCC(=O)[O-]
REMARK SMILES IDX 9 1 10 2 11 3 12 4 13 5 14 6 15 7 16 8 17 9 18 10 8 11 7 12
REMARK SMILES IDX 6 13 5 14 4 15 3 16 2 17 1 18
REMARK H PARENT
REMARK Flexibility Score: inf
ROOT
ATOM      1  C   UNL     1     102.162 100.834  95.567  1.00  0.00     0.000 C 
ENDROOT
BRANCH   1   2
ATOM      2  C   UNL     1     103.171 100.075  94.689  1.00  0.00     0.000 C 
BRANCH   2   3
ATOM      3  C   UNL     1     103.203  98.567  94.996  1.00  0.00     0.000 C 
BRANCH   3   4
ATOM      4  C   UNL     1     103.922  98.245  96.317  1.00  0.00     0.000 C 
BRANCH   4   5
ATOM      5  C   UNL     1     105.160  97.337  96.181  1.00  0.00     0.000 C 
BRANCH   5   6
ATOM      6  C   UNL     1     106.133  97.773  95.064  1.00  0.00     0.006 C 
BRANCH   6   7
ATOM      7  C   UNL     1     107.152  98.811  95.552  1.00  0.00     0.053 C 
BRANCH   7   8
ATOM      8  C   UNL     1     106.868 100.149  94.948  1.00  0.00     0.041 C 
ATOM      9  O   UNL     1     106.913 100.303  93.699  1.00  0.00    -0.550 OA
ATOM     10  O   UNL     1     106.503 101.215  95.760  1.00  0.00    -0.550 OA
ENDBRANCH   7   8
ENDBRANCH   6   7
ENDBRANCH   5   6
ENDBRANCH   4   5
ENDBRANCH   3   4
ENDBRANCH   2   3
ENDBRANCH   1   2
BRANCH   1  11
ATOM     11  C   UNL     1     100.703 100.547  95.171  1.00  0.00     0.000 C 
BRANCH  11  12
ATOM     12  C   UNL     1      99.924  99.788  96.261  1.00  0.00    -0.000 C 
BRANCH  12  13
ATOM     13  C   UNL     1      98.861  98.800  95.745  1.00  0.00    -0.000 C 
BRANCH  13  14
ATOM     14  C   UNL     1      98.980  97.404  96.380  1.00  0.00    -0.000 C 
BRANCH  14  15
ATOM     15  C   UNL     1     100.434  97.019  96.710  1.00  0.00    -0.000 C 
BRANCH  15  16
ATOM     16  C   UNL     1     100.643  96.342  98.081  1.00  0.00    -0.000 C 
BRANCH  16  17
ATOM     17  C   UNL     1     101.910  96.779  98.837  1.00  0.00    -0.003 C 
ATOM     18  C   UNL     1     102.971  95.681  98.905  1.00  0.00     0.004 C 
ENDBRANCH  16  17
ENDBRANCH  15  16
ENDBRANCH  14  15
ENDBRANCH  13  14
ENDBRANCH  12  13
ENDBRANCH  11  12
ENDBRANCH   1  11
TORSDOF 14
ENDMDL
MODEL 6
REMARK VINA RESULT:    -3.932     10.034     11.872
REMARK INTER + INTRA:          -9.156
REMARK INTER:                  -7.055
REMARK INTRA:                  -2.101
REMARK UNBOUND:                -2.005
REMARK SMILES CCCCCCCCCCCCCCCC(=O)[O-]
REMARK SMILES IDX 9 1 10 2 11 3 12 4 13 5 14 6 15 7 16 8 17 9 18 10 8 11 7 12
REMARK SMILES IDX 6 13 5 14 4 15 3 16 2 17 1 18
REMARK H PARENT
REMARK Flexibility Score: inf
ROOT
ATOM      1  C   UNL     1     102.809  96.196  99.029  1.00  0.00     0.000 C 
ENDROOT
BRANCH   1   2
ATOM      2  C   UNL     1     103.644  97.341  98.431  1.00  0.00     0.000 C 
BRANCH   2   3
ATOM      3  C   UNL     1     104.540  96.872  97.270  1.00  0.00     0.000 C 
BRANCH   3   4
ATOM      4  C   UNL     1     104.831  97.990  96.254  1.00  0.00     0.000 C 
BRANCH   4   5
ATOM      5  C   UNL     1     103.825  98.091  95.090  1.00  0.00     0.000 C 
BRANCH   5   6
ATOM      6  C   UNL     1     103.323  99.527  94.824  1.00  0.00     0.006 C 
BRANCH   6   7
ATOM      7  C   UNL     1     102.802 100.206  96.097  1.00  0.00     0.053 C 
BRANCH   7   8
ATOM      8  C   UNL     1     101.658 101.115  95.775  1.00  0.00     0.041 C 
ATOM      9  O   UNL     1     101.701 102.329  96.105  1.00  0.00    -0.550 OA
ATOM     10  O   UNL     1     100.566 100.632  95.066  1.00  0.00    -0.550 OA
ENDBRANCH   7   8
ENDBRANCH   6   7
ENDBRANCH   5   6
ENDBRANCH   4   5
ENDBRANCH   3   4
ENDBRANCH   2   3
ENDBRANCH   1   2
BRANCH   1  11
ATOM     11  C   UNL     1     101.437  96.048  98.348  1.00  0.00     0.000 C 
BRANCH  11  12
ATOM     12  C   UNL     1     100.924  97.366  97.740  1.00  0.00    -0.000 C 
BRANCH  12  13
ATOM     13  C   UNL     1     100.435  97.273  96.283  1.00  0.00    -0.000 C 
BRANCH  13  14
ATOM     14  C   UNL     1      98.954  97.656  96.121  1.00  0.00    -0.000 C 
BRANCH  14  15
ATOM     15  C   UNL     1      98.006  96.447  96.238  1.00  0.00    -0.000 C 
BRANCH  15  16
ATOM     16  C   UNL     1      97.406  96.213  97.640  1.00  0.00    -0.000 C 
BRANCH  16  17
ATOM     17  C   UNL     1      97.830  94.898  98.319  1.00  0.00    -0.003 C 
ATOM     18  C   UNL     1      98.576  93.955  97.376  1.00  0.00     0.004 C 
ENDBRANCH  16  17
ENDBRANCH  15  16
ENDBRANCH  14  15
ENDBRANCH  13  14
ENDBRANCH  12  13
ENDBRANCH  11  12
ENDBRANCH   1  11
TORSDOF 14
ENDMDL
MODEL 7
REMARK VINA RESULT:    -3.898     10.581     12.484
REMARK INTER + INTRA:          -9.093
REMARK INTER:                  -7.447
REMARK INTRA:                  -1.646
REMARK UNBOUND:                -2.005
REMARK SMILES CCCCCCCCCCCCCCCC(=O)[O-]
REMARK SMILES IDX 9 1 10 2 11 3 12 4 13 5 14 6 15 7 16 8 17 9 18 10 8 11 7 12
REMARK SMILES IDX 6 13 5 14 4 15 3 16 2 17 1 18
REMARK H PARENT
REMARK Flexibility Score: inf
ROOT
ATOM      1  C   UNL     1     102.429  97.373  99.525  1.00  0.00     0.000 C 
ENDROOT
BRANCH   1   2
ATOM      2  C   UNL     1     102.607  95.923  99.042  1.00  0.00     0.000 C 
BRANCH   2   3
ATOM      3  C   UNL     1     103.886  95.733  98.207  1.00  0.00     0.000 C 
BRANCH   3   4
ATOM      4  C   UNL     1     104.248  96.979  97.381  1.00  0.00     0.000 C 
BRANCH   4   5
ATOM      5  C   UNL     1     105.607  96.910  96.658  1.00  0.00     0.000 C 
BRANCH   5   6
ATOM      6  C   UNL     1     105.551  97.360  95.182  1.00  0.00     0.006 C 
BRANCH   6   7
ATOM      7  C   UNL     1     105.636  98.885  95.035  1.00  0.00     0.053 C 
BRANCH   7   8
ATOM      8  C   UNL     1     106.825  99.416  95.771  1.00  0.00     0.041 C 
ATOM      9  O   UNL     1     107.989  99.166  95.361  1.00  0.00    -0.550 OA
ATOM     10  O   UNL     1     106.647 100.231  96.882  1.00  0.00    -0.550 OA
ENDBRANCH   7   8
ENDBRANCH   6   7
ENDBRANCH   5   6
ENDBRANCH   4   5
ENDBRANCH   3   4
ENDBRANCH   2   3
ENDBRANCH   1   2
BRANCH   1  11
ATOM     11  C   UNL     1     101.064  97.963  99.130  1.00  0.00     0.000 C 
BRANCH  11  12
ATOM     12  C   UNL     1     101.141  98.881  97.896  1.00  0.00    -0.000 C 
BRANCH  12  13
ATOM     13  C   UNL     1     100.883  98.192  96.543  1.00  0.00    -0.000 C 
BRANCH  13  14
ATOM     14  C   UNL     1      99.449  98.403  96.027  1.00  0.00    -0.000 C 
BRANCH  14  15
ATOM     15  C   UNL     1      98.538  97.186  96.278  1.00  0.00    -0.000 C 
BRANCH  15  16
ATOM     16  C   UNL     1      99.244  95.815  96.251  1.00  0.00    -0.000 C 
BRANCH  16  17
ATOM     17  C   UNL     1      99.218  95.042  97.581  1.00  0.00    -0.003 C 
ATOM     18  C   UNL     1      97.907  95.218  98.346  1.00  0.00     0.004 C 
ENDBRANCH  16  17
ENDBRANCH  15  16
ENDBRANCH  14  15
ENDBRANCH  13  14
ENDBRANCH  12  13
ENDBRANCH  11  12
ENDBRANCH   1  11
TORSDOF 14
ENDMDL
MODEL 8
REMARK VINA RESULT:    -3.888     10.628     12.737
REMARK INTER + INTRA:          -9.074
REMARK INTER:                  -7.112
REMARK INTRA:                  -1.962
REMARK UNBOUND:                -2.005
REMARK SMILES CCCCCCCCCCCCCCCC(=O)[O-]
REMARK SMILES IDX 9 1 10 2 11 3 12 4 13 5 14 6 15 7 16 8 17 9 18 10 8 11 7 12
REMARK SMILES IDX 6 13 5 14 4 15 3 16 2 17 1 18
REMARK H PARENT
REMARK Flexibility Score: inf
ROOT
ATOM      1  C   UNL     1     102.683  99.495  99.637  1.00  0.00     0.000 C 
ENDROOT
BRANCH   1   2
ATOM      2  C   UNL     1     104.167  99.209  99.356  1.00  0.00     0.000 C 
BRANCH   2   3
ATOM      3  C   UNL     1     104.582  99.600  97.926  1.00  0.00     0.000 C 
BRANCH   3   4
ATOM      4  C   UNL     1     103.449  99.409  96.905  1.00  0.00     0.000 C 
BRANCH   4   5
ATOM      5  C   UNL     1     103.678  98.281  95.879  1.00  0.00     0.000 C 
BRANCH   5   6
ATOM      6  C   UNL     1     104.963  97.461  96.132  1.00  0.00     0.006 C 
BRANCH   6   7
ATOM      7  C   UNL     1     105.942  97.533  94.953  1.00  0.00     0.053 C 
BRANCH   7   8
ATOM      8  C   UNL     1     106.752  98.788  95.022  1.00  0.00     0.041 C 
ATOM      9  O   UNL     1     106.353  99.834  94.445  1.00  0.00    -0.550 OA
ATOM     10  O   UNL     1     107.924  98.818  95.767  1.00  0.00    -0.550 OA
ENDBRANCH   7   8
ENDBRANCH   6   7
ENDBRANCH   5   6
ENDBRANCH   4   5
ENDBRANCH   3   4
ENDBRANCH   2   3
ENDBRANCH   1   2
BRANCH   1  11
ATOM     11  C   UNL     1     101.938  98.265 100.185  1.00  0.00     0.000 C 
BRANCH  11  12
ATOM     12  C   UNL     1     102.447  96.941  99.587  1.00  0.00    -0.000 C 
BRANCH  12  13
ATOM     13  C   UNL     1     101.669  96.428  98.361  1.00  0.00    -0.000 C 
BRANCH  13  14
ATOM     14  C   UNL     1     100.458  97.308  98.008  1.00  0.00    -0.000 C 
BRANCH  14  15
ATOM     15  C   UNL     1     100.102  97.264  96.510  1.00  0.00    -0.000 C 
BRANCH  15  16
ATOM     16  C   UNL     1      99.394  95.977  96.037  1.00  0.00    -0.000 C 
BRANCH  16  17
ATOM     17  C   UNL     1      98.415  95.362  97.051  1.00  0.00    -0.003 C 
ATOM     18  C   UNL     1      98.712  93.893  97.350  1.00  0.00     0.004 C 
ENDBRANCH  16  17
ENDBRANCH  15  16
ENDBRANCH  14  15
ENDBRANCH  13  14
ENDBRANCH  12  13
ENDBRANCH  11  12
ENDBRANCH   1  11
TORSDOF 14
ENDMDL
MODEL 9
REMARK VINA RESULT:    -3.874     11.461     13.074
REMARK INTER + INTRA:          -9.049
REMARK INTER:                  -6.757
REMARK INTRA:                  -2.293
REMARK UNBOUND:                -2.005
REMARK SMILES CCCCCCCCCCCCCCCC(=O)[O-]
REMARK SMILES IDX 9 1 10 2 11 3 12 4 13 5 14 6 15 7 16 8 17 9 18 10 8 11 7 12
REMARK SMILES IDX 6 13 5 14 4 15 3 16 2 17 1 18
REMARK H PARENT
REMARK Flexibility Score: inf
ROOT
ATOM      1  C   UNL     1     101.153  97.567  98.897  1.00  0.00     0.000 C 
ENDROOT
BRANCH   1   2
ATOM      2  C   UNL     1     102.573  97.155  99.319  1.00  0.00     0.000 C 
BRANCH   2   3
ATOM      3  C   UNL     1     102.959  95.757  98.802  1.00  0.00     0.000 C 
BRANCH   3   4
ATOM      4  C   UNL     1     104.239  95.772  97.949  1.00  0.00     0.000 C 
BRANCH   4   5
ATOM      5  C   UNL     1     104.544  97.113  97.253  1.00  0.00     0.000 C 
BRANCH   5   6
ATOM      6  C   UNL     1     105.395  96.971  95.972  1.00  0.00     0.006 C 
BRANCH   6   7
ATOM      7  C   UNL     1     105.644  98.321  95.286  1.00  0.00     0.053 C 
BRANCH   7   8
ATOM      8  C   UNL     1     107.022  98.816  95.589  1.00  0.00     0.041 C 
ATOM      9  O   UNL     1     107.506  99.781  94.940  1.00  0.00    -0.550 OA
ATOM     10  O   UNL     1     107.754  98.246  96.622  1.00  0.00    -0.550 OA
ENDBRANCH   7   8
ENDBRANCH   6   7
ENDBRANCH   5   6
ENDBRANCH   4   5
ENDBRANCH   3   4
ENDBRANCH   2   3
ENDBRANCH   1   2
BRANCH   1  11
ATOM     11  C   UNL     1     100.561  96.633  97.827  1.00  0.00     0.000 C 
BRANCH  11  12
ATOM     12  C   UNL     1     100.354  97.331  96.470  1.00  0.00    -0.000 C 
BRANCH  12  13
ATOM     13  C   UNL     1     100.754  98.817  96.425  1.00  0.00    -0.000 C 
BRANCH  13  14
ATOM     14  C   UNL     1     102.024  99.073  95.597  1.00  0.00    -0.000 C 
BRANCH  14  15
ATOM     15  C   UNL     1     102.478 100.544  95.634  1.00  0.00    -0.000 C 
BRANCH  15  16
ATOM     16  C   UNL     1     102.595 101.164  97.043  1.00  0.00    -0.000 C 
BRANCH  16  17
ATOM     17  C   UNL     1     103.700 100.562  97.929  1.00  0.00    -0.003 C 
ATOM     18  C   UNL     1     105.059 101.227  97.720  1.00  0.00     0.004 C 
ENDBRANCH  16  17
ENDBRANCH  15  16
ENDBRANCH  14  15
ENDBRANCH  13  14
ENDBRANCH  12  13
ENDBRANCH  11  12
ENDBRANCH   1  11
TORSDOF 14
ENDMDL
