MODEL 1
REMARK VINA RESULT:    -5.245      0.000      0.000
REMARK INTER + INTRA:         -11.776
REMARK INTER:                  -9.537
REMARK INTRA:                  -2.239
REMARK UNBOUND:                -2.239
REMARK SMILES CCCCCCCCCCCCCCCC(=O)[O-]
REMARK SMILES IDX 9 1 10 2 11 3 12 4 13 5 14 6 15 7 16 8 17 9 18 10 8 11 7 12
REMARK SMILES IDX 6 13 5 14 4 15 3 16 2 17 1 18
REMARK H PARENT
REMARK Flexibility Score: inf
ROOT
ATOM      1  C   UNL     1     -11.090  -5.072  11.816  1.00  0.00     0.000 C 
ENDROOT
BRANCH   1   2
ATOM      2  C   UNL     1     -10.077  -5.649  10.819  1.00  0.00     0.000 C 
BRANCH   2   3
ATOM      3  C   UNL     1      -8.712  -5.868  11.489  1.00  0.00     0.000 C 
BRANCH   3   4
ATOM      4  C   UNL     1      -8.540  -5.035  12.768  1.00  0.00     0.000 C 
BRANCH   4   5
ATOM      5  C   UNL     1      -7.245  -4.204  12.766  1.00  0.00     0.000 C 
BRANCH   5   6
ATOM      6  C   UNL     1      -7.395  -2.876  13.526  1.00  0.00     0.006 C 
BRANCH   6   7
ATOM      7  C   UNL     1      -8.862  -2.469  13.717  1.00  0.00     0.053 C 
BRANCH   7   8
ATOM      8  C   UNL     1      -9.081  -1.071  13.232  1.00  0.00     0.041 C 
ATOM      9  O   UNL     1      -8.142  -0.233  13.266  1.00  0.00    -0.550 OA
ATOM     10  O   UNL     1     -10.310  -0.705  12.698  1.00  0.00    -0.550 OA
ENDBRANCH   7   8
ENDBRANCH   6   7
ENDBRANCH   5   6
ENDBRANCH   4   5
ENDBRANCH   3   4
ENDBRANCH   2   3
ENDBRANCH   1   2
BRANCH   1  11
ATOM     11  C   UNL     1     -12.406  -5.863  11.785  1.00  0.00     0.000 C 
BRANCH  11  12
ATOM     12  C   UNL     1     -12.772  -6.452  13.157  1.00  0.00    -0.000 C 
BRANCH  12  13
ATOM     13  C   UNL     1     -11.533  -6.833  13.985  1.00  0.00    -0.000 C 
BRANCH  13  14
ATOM     14  C   UNL     1     -11.566  -6.248  15.409  1.00  0.00    -0.000 C 
BRANCH  14  15
ATOM     15  C   UNL     1     -10.960  -4.837  15.548  1.00  0.00    -0.000 C 
BRANCH  15  16
ATOM     16  C   UNL     1     -11.843  -3.817  16.289  1.00  0.00    -0.000 C 
BRANCH  16  17
ATOM     17  C   UNL     1     -13.131  -3.476  15.526  1.00  0.00    -0.003 C 
ATOM     18  C   UNL     1     -12.818  -2.845  14.172  1.00  0.00     0.004 C 
ENDBRANCH  16  17
ENDBRANCH  15  16
ENDBRANCH  14  15
ENDBRANCH  13  14
ENDBRANCH  12  13
ENDBRANCH  11  12
ENDBRANCH   1  11
TORSDOF 14
ENDMDL
MODEL 2
REMARK VINA RESULT:    -5.228      1.513      4.528
REMARK INTER + INTRA:         -11.746
REMARK INTER:                  -9.104
REMARK INTRA:                  -2.642
REMARK UNBOUND:                -2.239
REMARK SMILES CCCCCCCCCCCCCCCC(=O)[O-]
REMARK SMILES IDX 9 1 10 2 11 3 12 4 13 5 14 6 15 7 16 8 17 9 18 10 8 11 7 12
REMARK SMILES IDX 6 13 5 14 4 15 3 16 2 17 1 18
REMARK H PARENT
REMARK Flexibility Score: inf
ROOT
ATOM      1  C   UNL     1     -11.406  -5.860  15.645  1.00  0.00     0.000 C 
ENDROOT
BRANCH   1   2
ATOM      2  C   UNL     1     -10.630  -4.553  15.847  1.00  0.00     0.000 C 
BRANCH   2   3
ATOM      3  C   UNL     1     -11.411  -3.357  15.279  1.00  0.00     0.000 C 
BRANCH   3   4
ATOM      4  C   UNL     1     -12.909  -3.417  15.611  1.00  0.00     0.000 C 
BRANCH   4   5
ATOM      5  C   UNL     1     -13.800  -3.264  14.366  1.00  0.00     0.000 C 
BRANCH   5   6
ATOM      6  C   UNL     1     -13.647  -1.888  13.697  1.00  0.00     0.006 C 
BRANCH   6   7
ATOM      7  C   UNL     1     -13.046  -1.982  12.288  1.00  0.00     0.053 C 
BRANCH   7   8
ATOM      8  C   UNL     1     -12.047  -0.889  12.075  1.00  0.00     0.041 C 
ATOM      9  O   UNL     1     -10.909  -0.956  12.609  1.00  0.00    -0.550 OA
ATOM     10  O   UNL     1     -12.356   0.183  11.248  1.00  0.00    -0.550 OA
ENDBRANCH   7   8
ENDBRANCH   6   7
ENDBRANCH   5   6
ENDBRANCH   4   5
ENDBRANCH   3   4
ENDBRANCH   2   3
ENDBRANCH   1   2
BRANCH   1  11
ATOM     11  C   UNL     1     -10.542  -6.910  14.932  1.00  0.00     0.000 C 
BRANCH  11  12
ATOM     12  C   UNL     1     -11.170  -7.394  13.615  1.00  0.00    -0.000 C 
BRANCH  12  13
ATOM     13  C   UNL     1     -12.483  -6.666  13.285  1.00  0.00    -0.000 C 
BRANCH  13  14
ATOM     14  C   UNL     1     -12.343  -5.691  12.102  1.00  0.00    -0.000 C 
BRANCH  14  15
ATOM     15  C   UNL     1     -10.916  -5.559  11.531  1.00  0.00    -0.000 C 
BRANCH  15  16
ATOM     16  C   UNL     1     -10.087  -4.398  12.107  1.00  0.00    -0.000 C 
BRANCH  16  17
ATOM     17  C   UNL     1      -8.673  -4.823  12.526  1.00  0.00    -0.003 C 
ATOM     18  C   UNL     1      -8.220  -6.060  11.757  1.00  0.00     0.004 C 
ENDBRANCH  16  17
ENDBRANCH  15  16
ENDBRANCH  14  15
ENDBRANCH  13  14
ENDBRANCH  12  13
ENDBRANCH  11  12
ENDBRANCH   1  11
TORSDOF 14
ENDMDL
MODEL 3
REMARK VINA RESULT:    -5.228      2.864      4.836
REMARK INTER + INTRA:         -11.745
REMARK INTER:                  -9.776
REMARK INTRA:                  -1.970
REMARK UNBOUND:                -2.239
REMARK SMILES CCCCCCCCCCCCCCCC(=O)[O-]
REMARK SMILES IDX 9 1 10 2 11 3 12 4 13 5 14 6 15 7 16 8 17 9 18 10 8 11 7 12
REMARK SMILES IDX 6 13 5 14 4 15 3 16 2 17 1 18
REMARK H PARENT
REMARK Flexibility Score: inf
ROOT
ATOM      1  C   UNL     1      -8.762  -4.725  15.575  1.00  0.00     0.000 C 
ENDROOT
BRANCH   1   2
ATOM      2  C   UNL     1      -9.236  -6.160  15.838  1.00  0.00     0.000 C 
BRANCH   2   3
ATOM      3  C   UNL     1     -10.693  -6.347  15.388  1.00  0.00     0.000 C 
BRANCH   3   4
ATOM      4  C   UNL     1     -10.815  -7.204  14.119  1.00  0.00     0.000 C 
BRANCH   4   5
ATOM      5  C   UNL     1     -11.825  -6.630  13.110  1.00  0.00     0.000 C 
BRANCH   5   6
ATOM      6  C   UNL     1     -11.255  -5.443  12.316  1.00  0.00     0.006 C 
BRANCH   6   7
ATOM      7  C   UNL     1     -12.219  -4.944  11.231  1.00  0.00     0.053 C 
BRANCH   7   8
ATOM      8  C   UNL     1     -11.849  -5.521   9.902  1.00  0.00     0.041 C 
ATOM      9  O   UNL     1     -10.650  -5.514   9.518  1.00  0.00    -0.550 OA
ATOM     10  O   UNL     1     -12.823  -6.110   9.105  1.00  0.00    -0.550 OA
ENDBRANCH   7   8
ENDBRANCH   6   7
ENDBRANCH   5   6
ENDBRANCH   4   5
ENDBRANCH   3   4
ENDBRANCH   2   3
ENDBRANCH   1   2
BRANCH   1  11
ATOM     11  C   UNL     1      -9.013  -3.828  16.797  1.00  0.00     0.000 C 
BRANCH  11  12
ATOM     12  C   UNL     1     -10.058  -2.735  16.519  1.00  0.00    -0.000 C 
BRANCH  12  13
ATOM     13  C   UNL     1     -11.334  -2.913  17.358  1.00  0.00    -0.000 C 
BRANCH  13  14
ATOM     14  C   UNL     1     -12.514  -3.468  16.539  1.00  0.00    -0.000 C 
BRANCH  14  15
ATOM     15  C   UNL     1     -12.424  -3.223  15.019  1.00  0.00    -0.000 C 
BRANCH  15  16
ATOM     16  C   UNL     1     -13.757  -2.877  14.332  1.00  0.00    -0.000 C 
BRANCH  16  17
ATOM     17  C   UNL     1     -13.623  -1.747  13.303  1.00  0.00    -0.003 C 
ATOM     18  C   UNL     1     -12.180  -1.603  12.828  1.00  0.00     0.004 C 
ENDBRANCH  16  17
ENDBRANCH  15  16
ENDBRANCH  14  15
ENDBRANCH  13  14
ENDBRANCH  12  13
ENDBRANCH  11  12
ENDBRANCH   1  11
TORSDOF 14
ENDMDL
MODEL 4
REMARK VINA RESULT:    -5.223      1.648      3.069
REMARK INTER + INTRA:         -11.737
REMARK INTER:                  -9.560
REMARK INTRA:                  -2.177
REMARK UNBOUND:                -2.239
REMARK SMILES CCCCCCCCCCCCCCCC(=O)[O-]
REMARK SMILES IDX 9 1 10 2 11 3 12 4 13 5 14 6 15 7 16 8 17 9 18 10 8 11 7 12
REMARK SMILES IDX 6 13 5 14 4 15 3 16 2 17 1 18
REMARK H PARENT
REMARK Flexibility Score: inf
ROOT
ATOM      1  C   UNL     1     -11.948  -7.202  13.660  1.00  0.00     0.000 C 
ENDROOT
BRANCH   1   2
ATOM      2  C   UNL     1     -12.245  -5.759  13.233  1.00  0.00     0.000 C 
BRANCH   2   3
ATOM      3  C   UNL     1     -12.225  -5.624  11.703  1.00  0.00     0.000 C 
BRANCH   3   4
ATOM      4  C   UNL     1     -10.962  -4.918  11.187  1.00  0.00     0.000 C 
BRANCH   4   5
ATOM      5  C   UNL     1      -9.831  -5.902  10.840  1.00  0.00     0.000 C 
BRANCH   5   6
ATOM      6  C   UNL     1      -8.589  -5.709  11.724  1.00  0.00     0.006 C 
BRANCH   6   7
ATOM      7  C   UNL     1      -8.737  -4.535  12.700  1.00  0.00     0.053 C 
BRANCH   7   8
ATOM      8  C   UNL     1      -7.392  -4.021  13.104  1.00  0.00     0.041 C 
ATOM      9  O   UNL     1      -7.014  -2.877  12.739  1.00  0.00    -0.550 OA
ATOM     10  O   UNL     1      -6.572  -4.787  13.923  1.00  0.00    -0.550 OA
ENDBRANCH   7   8
ENDBRANCH   6   7
ENDBRANCH   5   6
ENDBRANCH   4   5
ENDBRANCH   3   4
ENDBRANCH   2   3
ENDBRANCH   1   2
BRANCH   1  11
ATOM     11  C   UNL     1     -10.588  -7.300  14.367  1.00  0.00     0.000 C 
BRANCH  11  12
ATOM     12  C   UNL     1     -10.570  -6.559  15.714  1.00  0.00    -0.000 C 
BRANCH  12  13
ATOM     13  C   UNL     1      -9.239  -5.832  15.970  1.00  0.00    -0.000 C 
BRANCH  13  14
ATOM     14  C   UNL     1      -9.435  -4.371  16.415  1.00  0.00    -0.000 C 
BRANCH  14  15
ATOM     15  C   UNL     1     -10.671  -3.668  15.819  1.00  0.00    -0.000 C 
BRANCH  15  16
ATOM     16  C   UNL     1     -11.795  -3.358  16.824  1.00  0.00    -0.000 C 
BRANCH  16  17
ATOM     17  C   UNL     1     -13.197  -3.554  16.232  1.00  0.00    -0.003 C 
ATOM     18  C   UNL     1     -13.285  -2.977  14.822  1.00  0.00     0.004 C 
ENDBRANCH  16  17
ENDBRANCH  15  16
ENDBRANCH  14  15
ENDBRANCH  13  14
ENDBRANCH  12  13
ENDBRANCH  11  12
ENDBRANCH   1  11
TORSDOF 14
ENDMDL
MODEL 5
REMARK VINA RESULT:    -5.202      1.757      5.048
REMARK INTER + INTRA:         -11.699
REMARK INTER:                  -9.433
REMARK INTRA:                  -2.265
REMARK UNBOUND:                -2.239
REMARK SMILES CCCCCCCCCCCCCCCC(=O)[O-]
REMARK SMILES IDX 9 1 10 2 11 3 12 4 13 5 14 6 15 7 16 8 17 9 18 10 8 11 7 12
REMARK SMILES IDX 6 13 5 14 4 15 3 16 2 17 1 18
REMARK H PARENT
REMARK Flexibility Score: inf
ROOT
ATOM      1  C   UNL     1      -9.042  -4.139  16.534  1.00  0.00     0.000 C 
ENDROOT
BRANCH   1   2
ATOM      2  C   UNL     1     -10.076  -3.108  16.065  1.00  0.00     0.000 C 
BRANCH   2   3
ATOM      3  C   UNL     1     -11.232  -2.993  17.070  1.00  0.00     0.000 C 
BRANCH   3   4
ATOM      4  C   UNL     1     -12.514  -3.681  16.578  1.00  0.00     0.000 C 
BRANCH   4   5
ATOM      5  C   UNL     1     -12.663  -3.636  15.048  1.00  0.00     0.000 C 
BRANCH   5   6
ATOM      6  C   UNL     1     -14.034  -3.102  14.604  1.00  0.00     0.006 C 
BRANCH   6   7
ATOM      7  C   UNL     1     -13.933  -1.761  13.863  1.00  0.00     0.053 C 
BRANCH   7   8
ATOM      8  C   UNL     1     -13.190  -1.933  12.576  1.00  0.00     0.041 C 
ATOM      9  O   UNL     1     -12.231  -1.169  12.289  1.00  0.00    -0.550 OA
ATOM     10  O   UNL     1     -13.526  -2.968  11.712  1.00  0.00    -0.550 OA
ENDBRANCH   7   8
ENDBRANCH   6   7
ENDBRANCH   5   6
ENDBRANCH   4   5
ENDBRANCH   3   4
ENDBRANCH   2   3
ENDBRANCH   1   2
BRANCH   1  11
ATOM     11  C   UNL     1      -8.208  -4.660  15.355  1.00  0.00     0.000 C 
BRANCH  11  12
ATOM     12  C   UNL     1      -8.673  -4.087  14.006  1.00  0.00    -0.000 C 
BRANCH  12  13
ATOM     13  C   UNL     1      -8.144  -4.895  12.809  1.00  0.00    -0.000 C 
BRANCH  13  14
ATOM     14  C   UNL     1      -9.241  -5.728  12.122  1.00  0.00    -0.000 C 
BRANCH  14  15
ATOM     15  C   UNL     1     -10.687  -5.309  12.458  1.00  0.00    -0.000 C 
BRANCH  15  16
ATOM     16  C   UNL     1     -11.587  -6.437  12.992  1.00  0.00    -0.000 C 
BRANCH  16  17
ATOM     17  C   UNL     1     -10.859  -7.371  13.969  1.00  0.00    -0.003 C 
ATOM     18  C   UNL     1     -11.156  -6.991  15.417  1.00  0.00     0.004 C 
ENDBRANCH  16  17
ENDBRANCH  15  16
ENDBRANCH  14  15
ENDBRANCH  13  14
ENDBRANCH  12  13
ENDBRANCH  11  12
ENDBRANCH   1  11
TORSDOF 14
ENDMDL
MODEL 6
REMARK VINA RESULT:    -5.201      1.973      4.987
REMARK INTER + INTRA:         -11.696
REMARK INTER:                  -9.612
REMARK INTRA:                  -2.084
REMARK UNBOUND:                -2.239
REMARK SMILES CCCCCCCCCCCCCCCC(=O)[O-]
REMARK SMILES IDX 9 1 10 2 11 3 12 4 13 5 14 6 15 7 16 8 17 9 18 10 8 11 7 12
REMARK SMILES IDX 6 13 5 14 4 15 3 16 2 17 1 18
REMARK H PARENT
REMARK Flexibility Score: inf
ROOT
ATOM      1  C   UNL     1      -7.618  -2.686  14.429  1.00  0.00     0.000 C 
ENDROOT
BRANCH   1   2
ATOM      2  C   UNL     1      -7.598  -3.907  15.358  1.00  0.00     0.000 C 
BRANCH   2   3
ATOM      3  C   UNL     1      -8.690  -3.795  16.433  1.00  0.00     0.000 C 
BRANCH   3   4
ATOM      4  C   UNL     1     -10.062  -3.425  15.847  1.00  0.00     0.000 C 
BRANCH   4   5
ATOM      5  C   UNL     1     -11.111  -3.132  16.934  1.00  0.00     0.000 C 
BRANCH   5   6
ATOM      6  C   UNL     1     -12.532  -3.533  16.505  1.00  0.00     0.006 C 
BRANCH   6   7
ATOM      7  C   UNL     1     -12.668  -3.679  14.984  1.00  0.00     0.053 C 
BRANCH   7   8
ATOM      8  C   UNL     1     -13.812  -2.855  14.483  1.00  0.00     0.041 C 
ATOM      9  O   UNL     1     -14.992  -3.139  14.815  1.00  0.00    -0.550 OA
ATOM     10  O   UNL     1     -13.570  -1.744  13.685  1.00  0.00    -0.550 OA
ENDBRANCH   7   8
ENDBRANCH   6   7
ENDBRANCH   5   6
ENDBRANCH   4   5
ENDBRANCH   3   4
ENDBRANCH   2   3
ENDBRANCH   1   2
BRANCH   1  11
ATOM     11  C   UNL     1      -7.665  -3.115  12.955  1.00  0.00     0.000 C 
BRANCH  11  12
ATOM     12  C   UNL     1      -7.219  -4.572  12.751  1.00  0.00    -0.000 C 
BRANCH  12  13
ATOM     13  C   UNL     1      -8.333  -5.453  12.161  1.00  0.00    -0.000 C 
BRANCH  13  14
ATOM     14  C   UNL     1      -9.739  -5.019  12.614  1.00  0.00    -0.000 C 
BRANCH  14  15
ATOM     15  C   UNL     1     -10.881  -5.966  12.194  1.00  0.00    -0.000 C 
BRANCH  15  16
ATOM     16  C   UNL     1     -11.516  -6.773  13.341  1.00  0.00    -0.000 C 
BRANCH  16  17
ATOM     17  C   UNL     1     -10.581  -6.933  14.547  1.00  0.00    -0.003 C 
ATOM     18  C   UNL     1     -11.373  -7.025  15.849  1.00  0.00     0.004 C 
ENDBRANCH  16  17
ENDBRANCH  15  16
ENDBRANCH  14  15
ENDBRANCH  13  14
ENDBRANCH  12  13
ENDBRANCH  11  12
ENDBRANCH   1  11
TORSDOF 14
ENDMDL
MODEL 7
REMARK VINA RESULT:    -5.159      1.802      4.052
REMARK INTER + INTRA:         -11.621
REMARK INTER:                  -9.374
REMARK INTRA:                  -2.247
REMARK UNBOUND:                -2.239
REMARK SMILES CCCCCCCCCCCCCCCC(=O)[O-]
REMARK SMILES IDX 9 1 10 2 11 3 12 4 13 5 14 6 15 7 16 8 17 9 18 10 8 11 7 12
REMARK SMILES IDX 6 13 5 14 4 15 3 16 2 17 1 18
REMARK H PARENT
REMARK Flexibility Score: inf
ROOT
ATOM      1  C   UNL     1     -11.841  -5.079  15.892  1.00  0.00     0.000 C 
ENDROOT
BRANCH   1   2
ATOM      2  C   UNL     1     -11.431  -3.602  15.828  1.00  0.00     0.000 C 
BRANCH   2   3
ATOM      3  C   UNL     1     -11.322  -3.002  17.238  1.00  0.00     0.000 C 
BRANCH   3   4
ATOM      4  C   UNL     1      -9.950  -2.362  17.504  1.00  0.00     0.000 C 
BRANCH   4   5
ATOM      5  C   UNL     1      -8.812  -3.396  17.546  1.00  0.00     0.000 C 
BRANCH   5   6
ATOM      6  C   UNL     1      -7.662  -3.046  16.587  1.00  0.00     0.006 C 
BRANCH   6   7
ATOM      7  C   UNL     1      -7.735  -3.829  15.270  1.00  0.00     0.053 C 
BRANCH   7   8
ATOM      8  C   UNL     1      -7.892  -2.890  14.115  1.00  0.00     0.041 C 
ATOM      9  O   UNL     1      -7.184  -3.029  13.084  1.00  0.00    -0.550 OA
ATOM     10  O   UNL     1      -8.854  -1.889  14.160  1.00  0.00    -0.550 OA
ENDBRANCH   7   8
ENDBRANCH   6   7
ENDBRANCH   5   6
ENDBRANCH   4   5
ENDBRANCH   3   4
ENDBRANCH   2   3
ENDBRANCH   1   2
BRANCH   1  11
ATOM     11  C   UNL     1     -10.659  -5.995  15.542  1.00  0.00     0.000 C 
BRANCH  11  12
ATOM     12  C   UNL     1     -11.087  -7.220  14.718  1.00  0.00    -0.000 C 
BRANCH  12  13
ATOM     13  C   UNL     1     -10.310  -7.341  13.396  1.00  0.00    -0.000 C 
BRANCH  13  14
ATOM     14  C   UNL     1      -9.685  -6.007  12.948  1.00  0.00    -0.000 C 
BRANCH  14  15
ATOM     15  C   UNL     1      -9.774  -5.720  11.435  1.00  0.00    -0.000 C 
BRANCH  15  16
ATOM     16  C   UNL     1     -11.117  -5.139  10.959  1.00  0.00    -0.000 C 
BRANCH  16  17
ATOM     17  C   UNL     1     -11.825  -4.307  12.037  1.00  0.00    -0.003 C 
ATOM     18  C   UNL     1     -13.172  -4.920  12.410  1.00  0.00     0.004 C 
ENDBRANCH  16  17
ENDBRANCH  15  16
ENDBRANCH  14  15
ENDBRANCH  13  14
ENDBRANCH  12  13
ENDBRANCH  11  12
ENDBRANCH   1  11
TORSDOF 14
ENDMDL
MODEL 8
REMARK VINA RESULT:    -5.157      2.401      4.405
REMARK INTER + INTRA:         -11.616
REMARK INTER:                  -9.390
REMARK INTRA:                  -2.226
REMARK UNBOUND:                -2.239
REMARK SMILES CCCCCCCCCCCCCCCC(=O)[O-]
REMARK SMILES IDX 9 1 10 2 11 3 12 4 13 5 14 6 15 7 16 8 17 9 18 10 8 11 7 12
REMARK SMILES IDX 6 13 5 14 4 15 3 16 2 17 1 18
REMARK H PARENT
REMARK Flexibility Score: inf
ROOT
ATOM      1  C   UNL     1      -8.258  -2.024  13.232  1.00  0.00     0.000 C 
ENDROOT
BRANCH   1   2
ATOM      2  C   UNL     1      -8.063  -3.010  14.391  1.00  0.00     0.000 C 
BRANCH   2   3
ATOM      3  C   UNL     1      -8.323  -4.453  13.933  1.00  0.00     0.000 C 
BRANCH   3   4
ATOM      4  C   UNL     1      -7.884  -4.702  12.482  1.00  0.00     0.000 C 
BRANCH   4   5
ATOM      5  C   UNL     1      -8.563  -5.935  11.860  1.00  0.00     0.000 C 
BRANCH   5   6
ATOM      6  C   UNL     1     -10.064  -5.719  11.609  1.00  0.00     0.006 C 
BRANCH   6   7
ATOM      7  C   UNL     1     -10.390  -5.517  10.123  1.00  0.00     0.053 C 
BRANCH   7   8
ATOM      8  C   UNL     1     -11.867  -5.392   9.927  1.00  0.00     0.041 C 
ATOM      9  O   UNL     1     -12.559  -4.713  10.731  1.00  0.00    -0.550 OA
ATOM     10  O   UNL     1     -12.476  -5.987   8.829  1.00  0.00    -0.550 OA
ENDBRANCH   7   8
ENDBRANCH   6   7
ENDBRANCH   5   6
ENDBRANCH   4   5
ENDBRANCH   3   4
ENDBRANCH   2   3
ENDBRANCH   1   2
BRANCH   1  11
ATOM     11  C   UNL     1      -9.636  -1.351  13.307  1.00  0.00     0.000 C 
BRANCH  11  12
ATOM     12  C   UNL     1     -10.711  -2.122  12.523  1.00  0.00    -0.000 C 
BRANCH  12  13
ATOM     13  C   UNL     1     -12.139  -1.724  12.932  1.00  0.00    -0.000 C 
BRANCH  13  14
ATOM     14  C   UNL     1     -12.769  -2.711  13.932  1.00  0.00    -0.000 C 
BRANCH  14  15
ATOM     15  C   UNL     1     -11.972  -4.013  14.153  1.00  0.00    -0.000 C 
BRANCH  15  16
ATOM     16  C   UNL     1     -11.960  -4.533  15.602  1.00  0.00    -0.000 C 
BRANCH  16  17
ATOM     17  C   UNL     1     -12.042  -3.407  16.642  1.00  0.00    -0.003 C 
ATOM     18  C   UNL     1     -10.650  -2.925  17.042  1.00  0.00     0.004 C 
ENDBRANCH  16  17
ENDBRANCH  15  16
ENDBRANCH  14  15
ENDBRANCH  13  14
ENDBRANCH  12  13
ENDBRANCH  11  12
ENDBRANCH   1  11
TORSDOF 14
ENDMDL
MODEL 9
REMARK VINA RESULT:    -5.121      1.732      4.108
REMARK INTER + INTRA:         -11.551
REMARK INTER:                  -9.068
REMARK INTRA:                  -2.484
REMARK UNBOUND:                -2.239
REMARK SMILES CCCCCCCCCCCCCCCC(=O)[O-]
REMARK SMILES IDX 9 1 10 2 11 3 12 4 13 5 14 6 15 7 16 8 17 9 18 10 8 11 7 12
REMARK SMILES IDX 6 13 5 14 4 15 3 16 2 17 1 18
REMARK H PARENT
REMARK Flexibility Score: inf
ROOT
ATOM      1  C   UNL     1      -7.774  -3.092  16.880  1.00  0.00     0.000 C 
ENDROOT
BRANCH   1   2
ATOM      2  C   UNL     1      -6.876  -2.974  15.642  1.00  0.00     0.000 C 
BRANCH   2   3
ATOM      3  C   UNL     1      -7.404  -3.850  14.496  1.00  0.00     0.000 C 
BRANCH   3   4
ATOM      4  C   UNL     1      -7.657  -3.050  13.208  1.00  0.00     0.000 C 
BRANCH   4   5
ATOM      5  C   UNL     1      -7.876  -1.551  13.475  1.00  0.00     0.000 C 
BRANCH   5   6
ATOM      6  C   UNL     1      -9.360  -1.194  13.655  1.00  0.00     0.006 C 
BRANCH   6   7
ATOM      7  C   UNL     1     -10.283  -2.063  12.790  1.00  0.00     0.053 C 
BRANCH   7   8
ATOM      8  C   UNL     1     -11.548  -1.327  12.478  1.00  0.00     0.041 C 
ATOM      9  O   UNL     1     -11.533  -0.343  11.692  1.00  0.00    -0.550 OA
ATOM     10  O   UNL     1     -12.753  -1.754  13.021  1.00  0.00    -0.550 OA
ENDBRANCH   7   8
ENDBRANCH   6   7
ENDBRANCH   5   6
ENDBRANCH   4   5
ENDBRANCH   3   4
ENDBRANCH   2   3
ENDBRANCH   1   2
BRANCH   1  11
ATOM     11  C   UNL     1      -9.037  -3.907  16.569  1.00  0.00     0.000 C 
BRANCH  11  12
ATOM     12  C   UNL     1     -10.328  -3.100  16.786  1.00  0.00    -0.000 C 
BRANCH  12  13
ATOM     13  C   UNL     1     -11.488  -3.595  15.907  1.00  0.00    -0.000 C 
BRANCH  13  14
ATOM     14  C   UNL     1     -11.511  -5.127  15.759  1.00  0.00    -0.000 C 
BRANCH  14  15
ATOM     15  C   UNL     1     -11.634  -5.641  14.311  1.00  0.00    -0.000 C 
BRANCH  15  16
ATOM     16  C   UNL     1     -10.298  -5.937  13.607  1.00  0.00    -0.000 C 
BRANCH  16  17
ATOM     17  C   UNL     1     -10.359  -5.714  12.090  1.00  0.00    -0.003 C 
ATOM     18  C   UNL     1      -9.012  -6.006  11.435  1.00  0.00     0.004 C 
ENDBRANCH  16  17
ENDBRANCH  15  16
ENDBRANCH  14  15
ENDBRANCH  13  14
ENDBRANCH  12  13
ENDBRANCH  11  12
ENDBRANCH   1  11
TORSDOF 14
ENDMDL
