MODEL 1
REMARK VINA RESULT:    -6.285      0.000      0.000
REMARK INTER + INTRA:         -10.168
REMARK INTER:                  -9.224
REMARK INTRA:                  -0.945
REMARK UNBOUND:                -0.945
REMARK SMILES O=c1c(O[C@@H]2O[C@@H](CO)[C@H](O)[C@@H](O)[C@@H]2O)c(-c2ccc(O)c(O)c2)oc2cc(O)cc(O)c12
REMARK SMILES IDX 4 1 3 2 16 3 25 4 2 5 26 6 1 7 33 8 27 9 31 10 28 11 30 12
REMARK SMILES IDX 17 13 18 14 19 15 20 16 24 17 22 18 21 19 23 21 32 23 29 25
REMARK SMILES IDX 5 27 14 28 6 29 12 30 7 31 10 32 15 33 13 35 8 37 9 38 11 40
REMARK H PARENT 21 20 23 22 32 24 29 26 15 34 13 36 9 39 11 41
REMARK Flexibility Score: inf
ROOT
ATOM      1  O   UNL     1      17.873  42.179  76.070  1.00  0.00    -0.454 OA
ENDROOT
BRANCH   1   2
ATOM      2  C   UNL     1      18.453  41.015  76.611  1.00  0.00     0.214 A 
ATOM      3  C   UNL     1      18.920  41.020  77.938  1.00  0.00     0.180 A 
ATOM      4  O   UNL     1      19.291  39.884  78.511  1.00  0.00    -0.452 OA
ATOM      5  C   UNL     1      18.555  39.821  75.869  1.00  0.00     0.239 A 
ATOM      6  C   UNL     1      19.317  38.717  77.881  1.00  0.00     0.146 A 
ATOM      7  O   UNL     1      18.241  39.828  74.649  1.00  0.00    -0.285 OA
ATOM      8  C   UNL     1      18.997  38.631  76.501  1.00  0.00     0.111 A 
ATOM      9  C   UNL     1      19.688  37.577  78.599  1.00  0.00     0.094 A 
ATOM     10  C   UNL     1      19.096  37.359  75.859  1.00  0.00     0.134 A 
ATOM     11  C   UNL     1      19.732  36.335  77.975  1.00  0.00     0.123 A 
ATOM     12  C   UNL     1      19.411  36.226  76.621  1.00  0.00     0.093 A 
BRANCH   3  13
ATOM     13  C   UNL     1      18.991  42.257  78.742  1.00  0.00     0.025 A 
ATOM     14  C   UNL     1      20.075  43.132  78.576  1.00  0.00     0.016 A 
ATOM     15  C   UNL     1      20.121  44.342  79.273  1.00  0.00     0.051 A 
ATOM     16  C   UNL     1      19.080  44.713  80.126  1.00  0.00     0.157 A 
ATOM     17  C   UNL     1      17.939  42.631  79.594  1.00  0.00     0.062 A 
ATOM     18  C   UNL     1      17.975  43.846  80.290  1.00  0.00     0.158 A 
BRANCH  16  19
ATOM     19  O   UNL     1      19.181  45.946  80.779  1.00  0.00    -0.504 OA
ATOM     20  H   UNL     1      19.441  46.804  80.315  1.00  0.00     0.293 HD
ENDBRANCH  16  19
BRANCH  18  21
ATOM     21  O   UNL     1      16.897  44.148  81.128  1.00  0.00    -0.504 OA
ATOM     22  H   UNL     1      16.046  43.607  81.167  1.00  0.00     0.293 HD
ENDBRANCH  18  21
ENDBRANCH   3  13
BRANCH  10  23
ATOM     23  O   UNL     1      18.937  37.164  74.481  1.00  0.00    -0.507 OA
ATOM     24  H   UNL     1      18.654  36.290  74.053  1.00  0.00     0.293 HD
ENDBRANCH  10  23
BRANCH  11  25
ATOM     25  O   UNL     1      20.116  35.218  78.709  1.00  0.00    -0.508 OA
ATOM     26  H   UNL     1      20.159  34.294  78.289  1.00  0.00     0.293 HD
ENDBRANCH  11  25
ENDBRANCH   1   2
BRANCH   1  27
ATOM     27  C   UNL     1      18.617  43.370  75.765  1.00  0.00     0.339 C 
ATOM     28  C   UNL     1      19.063  43.397  74.291  1.00  0.00     0.214 C 
ATOM     29  O   UNL     1      17.885  44.509  76.191  1.00  0.00    -0.332 OA
ATOM     30  C   UNL     1      17.853  43.477  73.364  1.00  0.00     0.180 C 
ATOM     31  C   UNL     1      17.123  45.212  75.212  1.00  0.00     0.179 C 
ATOM     32  C   UNL     1      16.772  44.458  73.886  1.00  0.00     0.177 C 
BRANCH  28  33
ATOM     33  O   UNL     1      19.804  42.244  73.981  1.00  0.00    -0.384 OA
ATOM     34  H   UNL     1      19.963  41.761  74.834  1.00  0.00     0.211 HD
ENDBRANCH  28  33
BRANCH  30  35
ATOM     35  O   UNL     1      18.268  43.871  72.082  1.00  0.00    -0.387 OA
ATOM     36  H   UNL     1      19.214  44.162  72.160  1.00  0.00     0.211 HD
ENDBRANCH  30  35
BRANCH  31  37
ATOM     37  C   UNL     1      17.717  46.612  74.978  1.00  0.00     0.191 C 
BRANCH  37  38
ATOM     38  O   UNL     1      17.677  46.986  73.628  1.00  0.00    -0.394 OA
ATOM     39  H   UNL     1      18.563  47.378  73.416  1.00  0.00     0.210 HD
ENDBRANCH  37  38
ENDBRANCH  31  37
BRANCH  32  40
ATOM     40  O   UNL     1      15.543  43.790  74.023  1.00  0.00    -0.387 OA
ATOM     41  H   UNL     1      14.906  44.428  74.431  1.00  0.00     0.211 HD
ENDBRANCH  32  40
ENDBRANCH   1  27
TORSDOF 12
ENDMDL
MODEL 2
REMARK VINA RESULT:    -6.265      0.849      1.528
REMARK INTER + INTRA:         -10.140
REMARK INTER:                  -9.143
REMARK INTRA:                  -0.997
REMARK UNBOUND:                -0.945
REMARK SMILES O=c1c(O[C@@H]2O[C@@H](CO)[C@H](O)[C@@H](O)[C@@H]2O)c(-c2ccc(O)c(O)c2)oc2cc(O)cc(O)c12
REMARK SMILES IDX 4 1 3 2 16 3 25 4 2 5 26 6 1 7 33 8 27 9 31 10 28 11 30 12
REMARK SMILES IDX 17 13 18 14 19 15 20 16 24 17 22 18 21 19 23 21 32 23 29 25
REMARK SMILES IDX 5 27 14 28 6 29 12 30 7 31 10 32 15 33 13 35 8 37 9 38 11 40
REMARK H PARENT 21 20 23 22 32 24 29 26 15 34 13 36 9 39 11 41
REMARK Flexibility Score: inf
ROOT
ATOM      1  O   UNL     1      17.897  42.125  75.891  1.00  0.00    -0.454 OA
ENDROOT
BRANCH   1   2
ATOM      2  C   UNL     1      18.473  41.002  76.516  1.00  0.00     0.214 A 
ATOM      3  C   UNL     1      18.919  41.097  77.846  1.00  0.00     0.180 A 
ATOM      4  O   UNL     1      19.285  40.003  78.499  1.00  0.00    -0.452 OA
ATOM      5  C   UNL     1      18.590  39.762  75.855  1.00  0.00     0.239 A 
ATOM      6  C   UNL     1      19.326  38.797  77.947  1.00  0.00     0.146 A 
ATOM      7  O   UNL     1      18.296  39.688  74.633  1.00  0.00    -0.285 OA
ATOM      8  C   UNL     1      19.027  38.619  76.571  1.00  0.00     0.111 A 
ATOM      9  C   UNL     1      19.690  37.708  78.744  1.00  0.00     0.094 A 
ATOM     10  C   UNL     1      19.142  37.308  76.015  1.00  0.00     0.134 A 
ATOM     11  C   UNL     1      19.748  36.428  78.204  1.00  0.00     0.123 A 
ATOM     12  C   UNL     1      19.449  36.229  76.855  1.00  0.00     0.093 A 
BRANCH   3  13
ATOM     13  C   UNL     1      18.973  42.384  78.569  1.00  0.00     0.025 A 
ATOM     14  C   UNL     1      19.879  43.373  78.158  1.00  0.00     0.016 A 
ATOM     15  C   UNL     1      19.892  44.624  78.781  1.00  0.00     0.051 A 
ATOM     16  C   UNL     1      18.989  44.920  79.803  1.00  0.00     0.157 A 
ATOM     17  C   UNL     1      18.058  42.682  79.592  1.00  0.00     0.062 A 
ATOM     18  C   UNL     1      18.061  43.936  80.216  1.00  0.00     0.158 A 
BRANCH  16  19
ATOM     19  O   UNL     1      19.044  46.197  80.373  1.00  0.00    -0.504 OA
ATOM     20  H   UNL     1      19.005  46.366  81.368  1.00  0.00     0.293 HD
ENDBRANCH  16  19
BRANCH  18  21
ATOM     21  O   UNL     1      17.128  44.158  81.234  1.00  0.00    -0.504 OA
ATOM     22  H   UNL     1      16.986  45.051  81.681  1.00  0.00     0.293 HD
ENDBRANCH  18  21
ENDBRANCH   3  13
BRANCH  10  23
ATOM     23  O   UNL     1      19.005  37.023  74.651  1.00  0.00    -0.507 OA
ATOM     24  H   UNL     1      19.220  37.672  73.903  1.00  0.00     0.293 HD
ENDBRANCH  10  23
BRANCH  11  25
ATOM     25  O   UNL     1      20.125  35.364  79.015  1.00  0.00    -0.508 OA
ATOM     26  H   UNL     1      20.635  35.509  79.881  1.00  0.00     0.293 HD
ENDBRANCH  11  25
ENDBRANCH   1   2
BRANCH   1  27
ATOM     27  C   UNL     1      18.211  42.538  74.551  1.00  0.00     0.339 C 
ATOM     28  C   UNL     1      16.981  43.129  73.837  1.00  0.00     0.214 C 
ATOM     29  O   UNL     1      19.355  43.378  74.568  1.00  0.00    -0.332 OA
ATOM     30  C   UNL     1      16.532  44.419  74.518  1.00  0.00     0.180 C 
ATOM     31  C   UNL     1      19.143  44.788  74.528  1.00  0.00     0.179 C 
ATOM     32  C   UNL     1      17.726  45.321  74.923  1.00  0.00     0.177 C 
BRANCH  28  33
ATOM     33  O   UNL     1      15.918  42.210  73.847  1.00  0.00    -0.384 OA
ATOM     34  H   UNL     1      15.721  41.981  72.901  1.00  0.00     0.211 HD
ENDBRANCH  28  33
BRANCH  30  35
ATOM     35  O   UNL     1      15.673  45.128  73.663  1.00  0.00    -0.387 OA
ATOM     36  H   UNL     1      14.814  44.633  73.638  1.00  0.00     0.211 HD
ENDBRANCH  30  35
BRANCH  31  37
ATOM     37  C   UNL     1      19.665  45.369  73.201  1.00  0.00     0.191 C 
BRANCH  37  38
ATOM     38  O   UNL     1      18.639  45.932  72.430  1.00  0.00    -0.394 OA
ATOM     39  H   UNL     1      19.033  46.140  71.544  1.00  0.00     0.210 HD
ENDBRANCH  37  38
ENDBRANCH  31  37
BRANCH  32  40
ATOM     40  O   UNL     1      17.680  45.589  76.302  1.00  0.00    -0.387 OA
ATOM     41  H   UNL     1      18.611  45.572  76.635  1.00  0.00     0.211 HD
ENDBRANCH  32  40
ENDBRANCH   1  27
TORSDOF 12
ENDMDL
MODEL 3
REMARK VINA RESULT:    -5.905      3.213      7.644
REMARK INTER + INTRA:          -9.611
REMARK INTER:                  -8.396
REMARK INTRA:                  -1.216
REMARK UNBOUND:                -0.945
REMARK SMILES O=c1c(O[C@@H]2O[C@@H](CO)[C@H](O)[C@@H](O)[C@@H]2O)c(-c2ccc(O)c(O)c2)oc2cc(O)cc(O)c12
REMARK SMILES IDX 4 1 3 2 16 3 25 4 2 5 26 6 1 7 33 8 27 9 31 10 28 11 30 12
REMARK SMILES IDX 17 13 18 14 19 15 20 16 24 17 22 18 21 19 23 21 32 23 29 25
REMARK SMILES IDX 5 27 14 28 6 29 12 30 7 31 10 32 15 33 13 35 8 37 9 38 11 40
REMARK H PARENT 21 20 23 22 32 24 29 26 15 34 13 36 9 39 11 41
REMARK Flexibility Score: inf
ROOT
ATOM      1  O   UNL     1      17.499  45.997  73.638  1.00  0.00    -0.454 OA
ENDROOT
BRANCH   1   2
ATOM      2  C   UNL     1      16.177  45.716  74.032  1.00  0.00     0.214 A 
ATOM      3  C   UNL     1      15.899  44.542  74.754  1.00  0.00     0.180 A 
ATOM      4  O   UNL     1      14.699  44.363  75.288  1.00  0.00    -0.452 OA
ATOM      5  C   UNL     1      15.113  46.598  73.750  1.00  0.00     0.239 A 
ATOM      6  C   UNL     1      13.690  45.210  75.128  1.00  0.00     0.146 A 
ATOM      7  O   UNL     1      15.324  47.597  73.013  1.00  0.00    -0.285 OA
ATOM      8  C   UNL     1      13.830  46.356  74.301  1.00  0.00     0.111 A 
ATOM      9  C   UNL     1      12.480  44.939  75.771  1.00  0.00     0.094 A 
ATOM     10  C   UNL     1      12.695  47.203  74.117  1.00  0.00     0.134 A 
ATOM     11  C   UNL     1      11.397  45.800  75.627  1.00  0.00     0.123 A 
ATOM     12  C   UNL     1      11.515  46.936  74.826  1.00  0.00     0.093 A 
BRANCH   3  13
ATOM     13  C   UNL     1      16.914  43.491  74.969  1.00  0.00     0.025 A 
ATOM     14  C   UNL     1      17.359  43.210  76.269  1.00  0.00     0.016 A 
ATOM     15  C   UNL     1      18.263  42.169  76.500  1.00  0.00     0.051 A 
ATOM     16  C   UNL     1      18.719  41.376  75.447  1.00  0.00     0.157 A 
ATOM     17  C   UNL     1      17.365  42.689  73.908  1.00  0.00     0.062 A 
ATOM     18  C   UNL     1      18.266  41.639  74.132  1.00  0.00     0.158 A 
BRANCH  16  19
ATOM     19  O   UNL     1      19.608  40.339  75.748  1.00  0.00    -0.504 OA
ATOM     20  H   UNL     1      19.402  39.363  75.590  1.00  0.00     0.293 HD
ENDBRANCH  16  19
BRANCH  18  21
ATOM     21  O   UNL     1      18.679  40.889  73.027  1.00  0.00    -0.504 OA
ATOM     22  H   UNL     1      19.645  40.755  72.768  1.00  0.00     0.293 HD
ENDBRANCH  18  21
ENDBRANCH   3  13
BRANCH  10  23
ATOM     23  O   UNL     1      12.662  48.284  73.228  1.00  0.00    -0.507 OA
ATOM     24  H   UNL     1      12.251  49.188  73.436  1.00  0.00     0.293 HD
ENDBRANCH  10  23
BRANCH  11  25
ATOM     25  O   UNL     1      10.200  45.501  76.268  1.00  0.00    -0.508 OA
ATOM     26  H   UNL     1       9.550  44.817  75.892  1.00  0.00     0.293 HD
ENDBRANCH  11  25
ENDBRANCH   1   2
BRANCH   1  27
ATOM     27  C   UNL     1      18.570  46.241  74.565  1.00  0.00     0.339 C 
ATOM     28  C   UNL     1      19.639  47.173  73.963  1.00  0.00     0.214 C 
ATOM     29  O   UNL     1      18.035  46.668  75.809  1.00  0.00    -0.332 OA
ATOM     30  C   UNL     1      19.058  48.562  73.705  1.00  0.00     0.180 C 
ATOM     31  C   UNL     1      18.015  48.068  76.077  1.00  0.00     0.179 C 
ATOM     32  C   UNL     1      18.141  49.043  74.859  1.00  0.00     0.177 C 
BRANCH  28  33
ATOM     33  O   UNL     1      20.125  46.647  72.754  1.00  0.00    -0.384 OA
ATOM     34  H   UNL     1      19.352  46.240  72.281  1.00  0.00     0.211 HD
ENDBRANCH  28  33
BRANCH  30  35
ATOM     35  O   UNL     1      20.103  49.481  73.517  1.00  0.00    -0.387 OA
ATOM     36  H   UNL     1      20.496  49.659  74.410  1.00  0.00     0.211 HD
ENDBRANCH  30  35
BRANCH  31  37
ATOM     37  C   UNL     1      18.978  48.405  77.229  1.00  0.00     0.191 C 
BRANCH  37  38
ATOM     38  O   UNL     1      18.472  48.012  78.474  1.00  0.00    -0.394 OA
ATOM     39  H   UNL     1      19.238  47.650  78.990  1.00  0.00     0.210 HD
ENDBRANCH  37  38
ENDBRANCH  31  37
BRANCH  32  40
ATOM     40  O   UNL     1      16.866  49.358  74.360  1.00  0.00    -0.387 OA
ATOM     41  H   UNL     1      16.388  49.856  75.068  1.00  0.00     0.211 HD
ENDBRANCH  32  40
ENDBRANCH   1  27
TORSDOF 12
ENDMDL
MODEL 4
REMARK VINA RESULT:    -5.718      3.962      6.189
REMARK INTER + INTRA:          -9.337
REMARK INTER:                  -8.429
REMARK INTRA:                  -0.908
REMARK UNBOUND:                -0.945
REMARK SMILES O=c1c(O[C@@H]2O[C@@H](CO)[C@H](O)[C@@H](O)[C@@H]2O)c(-c2ccc(O)c(O)c2)oc2cc(O)cc(O)c12
REMARK SMILES IDX 4 1 3 2 16 3 25 4 2 5 26 6 1 7 33 8 27 9 31 10 28 11 30 12
REMARK SMILES IDX 17 13 18 14 19 15 20 16 24 17 22 18 21 19 23 21 32 23 29 25
REMARK SMILES IDX 5 27 14 28 6 29 12 30 7 31 10 32 15 33 13 35 8 37 9 38 11 40
REMARK H PARENT 21 20 23 22 32 24 29 26 15 34 13 36 9 39 11 41
REMARK Flexibility Score: inf
ROOT
ATOM      1  O   UNL     1      16.812  46.248  74.147  1.00  0.00    -0.454 OA
ENDROOT
BRANCH   1   2
ATOM      2  C   UNL     1      16.578  44.866  74.283  1.00  0.00     0.214 A 
ATOM      3  C   UNL     1      15.261  44.392  74.417  1.00  0.00     0.180 A 
ATOM      4  O   UNL     1      15.019  43.091  74.356  1.00  0.00    -0.452 OA
ATOM      5  C   UNL     1      17.630  43.928  74.260  1.00  0.00     0.239 A 
ATOM      6  C   UNL     1      15.968  42.171  74.242  1.00  0.00     0.146 A 
ATOM      7  O   UNL     1      18.820  44.340  74.250  1.00  0.00    -0.285 OA
ATOM      8  C   UNL     1      17.339  42.541  74.240  1.00  0.00     0.111 A 
ATOM      9  C   UNL     1      15.592  40.829  74.147  1.00  0.00     0.094 A 
ATOM     10  C   UNL     1      18.321  41.506  74.172  1.00  0.00     0.134 A 
ATOM     11  C   UNL     1      16.557  39.833  74.030  1.00  0.00     0.123 A 
ATOM     12  C   UNL     1      17.909  40.176  74.016  1.00  0.00     0.093 A 
BRANCH   3  13
ATOM     13  C   UNL     1      14.111  45.302  74.599  1.00  0.00     0.025 A 
ATOM     14  C   UNL     1      14.061  46.509  73.887  1.00  0.00     0.016 A 
ATOM     15  C   UNL     1      12.947  47.347  73.989  1.00  0.00     0.051 A 
ATOM     16  C   UNL     1      11.855  46.986  74.779  1.00  0.00     0.157 A 
ATOM     17  C   UNL     1      13.011  44.932  75.389  1.00  0.00     0.062 A 
ATOM     18  C   UNL     1      11.887  45.763  75.491  1.00  0.00     0.158 A 
BRANCH  16  19
ATOM     19  O   UNL     1      10.765  47.860  74.824  1.00  0.00    -0.504 OA
ATOM     20  H   UNL     1      10.536  48.425  75.630  1.00  0.00     0.293 HD
ENDBRANCH  16  19
BRANCH  18  21
ATOM     21  O   UNL     1      10.833  45.336  76.304  1.00  0.00    -0.504 OA
ATOM     22  H   UNL     1      10.913  44.594  76.984  1.00  0.00     0.293 HD
ENDBRANCH  18  21
ENDBRANCH   3  13
BRANCH  10  23
ATOM     23  O   UNL     1      19.698  41.727  74.294  1.00  0.00    -0.507 OA
ATOM     24  H   UNL     1      20.241  41.530  75.128  1.00  0.00     0.293 HD
ENDBRANCH  10  23
BRANCH  11  25
ATOM     25  O   UNL     1      16.156  38.504  73.949  1.00  0.00    -0.508 OA
ATOM     26  H   UNL     1      15.588  38.074  74.673  1.00  0.00     0.293 HD
ENDBRANCH  11  25
ENDBRANCH   1   2
BRANCH   1  27
ATOM     27  C   UNL     1      17.426  47.056  75.165  1.00  0.00     0.339 C 
ATOM     28  C   UNL     1      18.597  47.883  74.602  1.00  0.00     0.214 C 
ATOM     29  O   UNL     1      16.430  47.809  75.840  1.00  0.00    -0.332 OA
ATOM     30  C   UNL     1      18.095  48.903  73.584  1.00  0.00     0.180 C 
ATOM     31  C   UNL     1      16.239  49.164  75.440  1.00  0.00     0.179 C 
ATOM     32  C   UNL     1      16.779  49.590  74.034  1.00  0.00     0.177 C 
BRANCH  28  33
ATOM     33  O   UNL     1      19.540  47.043  73.985  1.00  0.00    -0.384 OA
ATOM     34  H   UNL     1      19.129  46.714  73.142  1.00  0.00     0.211 HD
ENDBRANCH  28  33
BRANCH  30  35
ATOM     35  O   UNL     1      19.084  49.876  73.365  1.00  0.00    -0.387 OA
ATOM     36  H   UNL     1      18.854  50.657  73.932  1.00  0.00     0.211 HD
ENDBRANCH  30  35
BRANCH  31  37
ATOM     37  C   UNL     1      16.661  50.119  76.570  1.00  0.00     0.191 C 
BRANCH  37  38
ATOM     38  O   UNL     1      16.367  49.603  77.838  1.00  0.00    -0.394 OA
ATOM     39  H   UNL     1      15.590  48.997  77.724  1.00  0.00     0.210 HD
ENDBRANCH  37  38
ENDBRANCH  31  37
BRANCH  32  40
ATOM     40  O   UNL     1      15.784  49.407  73.060  1.00  0.00    -0.387 OA
ATOM     41  H   UNL     1      15.129  48.763  73.427  1.00  0.00     0.211 HD
ENDBRANCH  32  40
ENDBRANCH   1  27
TORSDOF 12
ENDMDL
MODEL 5
REMARK VINA RESULT:    -5.621     16.156     19.355
REMARK INTER + INTRA:          -9.195
REMARK INTER:                  -8.903
REMARK INTRA:                  -0.292
REMARK UNBOUND:                -0.945
REMARK SMILES O=c1c(O[C@@H]2O[C@@H](CO)[C@H](O)[C@@H](O)[C@@H]2O)c(-c2ccc(O)c(O)c2)oc2cc(O)cc(O)c12
REMARK SMILES IDX 4 1 3 2 16 3 25 4 2 5 26 6 1 7 33 8 27 9 31 10 28 11 30 12
REMARK SMILES IDX 17 13 18 14 19 15 20 16 24 17 22 18 21 19 23 21 32 23 29 25
REMARK SMILES IDX 5 27 14 28 6 29 12 30 7 31 10 32 15 33 13 35 8 37 9 38 11 40
REMARK H PARENT 21 20 23 22 32 24 29 26 15 34 13 36 9 39 11 41
REMARK Flexibility Score: inf
ROOT
ATOM      1  O   UNL     1       4.782  31.893  69.944  1.00  0.00    -0.454 OA
ENDROOT
BRANCH   1   2
ATOM      2  C   UNL     1       4.161  32.916  69.202  1.00  0.00     0.214 A 
ATOM      3  C   UNL     1       4.761  33.382  68.019  1.00  0.00     0.180 A 
ATOM      4  O   UNL     1       4.096  34.204  67.221  1.00  0.00    -0.452 OA
ATOM      5  C   UNL     1       2.928  33.476  69.594  1.00  0.00     0.239 A 
ATOM      6  C   UNL     1       2.893  34.687  67.501  1.00  0.00     0.146 A 
ATOM      7  O   UNL     1       2.431  33.149  70.704  1.00  0.00    -0.285 OA
ATOM      8  C   UNL     1       2.262  34.387  68.737  1.00  0.00     0.111 A 
ATOM      9  C   UNL     1       2.269  35.517  66.566  1.00  0.00     0.094 A 
ATOM     10  C   UNL     1       0.991  34.980  69.012  1.00  0.00     0.134 A 
ATOM     11  C   UNL     1       1.009  36.047  66.823  1.00  0.00     0.123 A 
ATOM     12  C   UNL     1       0.367  35.756  68.027  1.00  0.00     0.093 A 
BRANCH   3  13
ATOM     13  C   UNL     1       6.117  32.964  67.607  1.00  0.00     0.025 A 
ATOM     14  C   UNL     1       7.232  33.690  68.051  1.00  0.00     0.016 A 
ATOM     15  C   UNL     1       8.526  33.267  67.734  1.00  0.00     0.051 A 
ATOM     16  C   UNL     1       8.732  32.102  66.992  1.00  0.00     0.157 A 
ATOM     17  C   UNL     1       6.322  31.788  66.867  1.00  0.00     0.062 A 
ATOM     18  C   UNL     1       7.616  31.353  66.551  1.00  0.00     0.158 A 
BRANCH  16  19
ATOM     19  O   UNL     1      10.052  31.724  66.724  1.00  0.00    -0.504 OA
ATOM     20  H   UNL     1      10.424  30.810  66.936  1.00  0.00     0.293 HD
ENDBRANCH  16  19
BRANCH  18  21
ATOM     21  O   UNL     1       7.743  30.179  65.804  1.00  0.00    -0.504 OA
ATOM     22  H   UNL     1       8.396  29.440  66.022  1.00  0.00     0.293 HD
ENDBRANCH  18  21
ENDBRANCH   3  13
BRANCH  10  23
ATOM     23  O   UNL     1       0.327  34.871  70.240  1.00  0.00    -0.507 OA
ATOM     24  H   UNL     1      -0.614  35.205  70.417  1.00  0.00     0.293 HD
ENDBRANCH  10  23
BRANCH  11  25
ATOM     25  O   UNL     1       0.416  36.879  65.880  1.00  0.00    -0.508 OA
ATOM     26  H   UNL     1       0.574  37.882  65.881  1.00  0.00     0.293 HD
ENDBRANCH  11  25
ENDBRANCH   1   2
BRANCH   1  27
ATOM     27  C   UNL     1       6.149  31.946  70.383  1.00  0.00     0.339 C 
ATOM     28  C   UNL     1       6.313  32.853  71.617  1.00  0.00     0.214 C 
ATOM     29  O   UNL     1       6.651  30.627  70.538  1.00  0.00    -0.332 OA
ATOM     30  C   UNL     1       5.570  32.269  72.816  1.00  0.00     0.180 C 
ATOM     31  C   UNL     1       6.666  30.073  71.852  1.00  0.00     0.179 C 
ATOM     32  C   UNL     1       5.743  30.732  72.929  1.00  0.00     0.177 C 
BRANCH  28  33
ATOM     33  O   UNL     1       5.817  34.140  71.351  1.00  0.00    -0.384 OA
ATOM     34  H   UNL     1       6.474  34.788  71.717  1.00  0.00     0.211 HD
ENDBRANCH  28  33
BRANCH  30  35
ATOM     35  O   UNL     1       6.023  32.883  73.995  1.00  0.00    -0.387 OA
ATOM     36  H   UNL     1       6.563  32.210  74.484  1.00  0.00     0.211 HD
ENDBRANCH  30  35
BRANCH  31  37
ATOM     37  C   UNL     1       8.115  29.875  72.330  1.00  0.00     0.191 C 
BRANCH  37  38
ATOM     38  O   UNL     1       8.280  30.219  73.678  1.00  0.00    -0.394 OA
ATOM     39  H   UNL     1       8.051  29.411  74.207  1.00  0.00     0.210 HD
ENDBRANCH  37  38
ENDBRANCH  31  37
BRANCH  32  40
ATOM     40  O   UNL     1       4.485  30.106  72.934  1.00  0.00    -0.387 OA
ATOM     41  H   UNL     1       3.808  30.810  73.092  1.00  0.00     0.211 HD
ENDBRANCH  32  40
ENDBRANCH   1  27
TORSDOF 12
ENDMDL
MODEL 6
REMARK VINA RESULT:    -5.553      3.632      6.218
REMARK INTER + INTRA:          -9.095
REMARK INTER:                  -8.338
REMARK INTRA:                  -0.757
REMARK UNBOUND:                -0.945
REMARK SMILES O=c1c(O[C@@H]2O[C@@H](CO)[C@H](O)[C@@H](O)[C@@H]2O)c(-c2ccc(O)c(O)c2)oc2cc(O)cc(O)c12
REMARK SMILES IDX 4 1 3 2 16 3 25 4 2 5 26 6 1 7 33 8 27 9 31 10 28 11 30 12
REMARK SMILES IDX 17 13 18 14 19 15 20 16 24 17 22 18 21 19 23 21 32 23 29 25
REMARK SMILES IDX 5 27 14 28 6 29 12 30 7 31 10 32 15 33 13 35 8 37 9 38 11 40
REMARK H PARENT 21 20 23 22 32 24 29 26 15 34 13 36 9 39 11 41
REMARK Flexibility Score: inf
ROOT
ATOM      1  O   UNL     1      16.765  46.130  75.109  1.00  0.00    -0.454 OA
ENDROOT
BRANCH   1   2
ATOM      2  C   UNL     1      16.512  44.749  74.998  1.00  0.00     0.214 A 
ATOM      3  C   UNL     1      15.205  44.297  74.741  1.00  0.00     0.180 A 
ATOM      4  O   UNL     1      14.992  43.022  74.450  1.00  0.00    -0.452 OA
ATOM      5  C   UNL     1      17.542  43.793  75.109  1.00  0.00     0.239 A 
ATOM      6  C   UNL     1      15.946  42.100  74.451  1.00  0.00     0.146 A 
ATOM      7  O   UNL     1      18.696  44.170  75.445  1.00  0.00    -0.285 OA
ATOM      8  C   UNL     1      17.273  42.429  74.833  1.00  0.00     0.111 A 
ATOM      9  C   UNL     1      15.612  40.792  74.089  1.00  0.00     0.094 A 
ATOM     10  C   UNL     1      18.247  41.385  74.871  1.00  0.00     0.134 A 
ATOM     11  C   UNL     1      16.581  39.794  74.080  1.00  0.00     0.123 A 
ATOM     12  C   UNL     1      17.893  40.098  74.443  1.00  0.00     0.093 A 
BRANCH   3  13
ATOM     13  C   UNL     1      14.041  45.207  74.755  1.00  0.00     0.025 A 
ATOM     14  C   UNL     1      14.034  46.340  73.928  1.00  0.00     0.016 A 
ATOM     15  C   UNL     1      12.912  47.170  73.872  1.00  0.00     0.051 A 
ATOM     16  C   UNL     1      11.770  46.874  74.618  1.00  0.00     0.157 A 
ATOM     17  C   UNL     1      12.891  44.903  75.501  1.00  0.00     0.062 A 
ATOM     18  C   UNL     1      11.758  45.727  75.445  1.00  0.00     0.158 A 
BRANCH  16  19
ATOM     19  O   UNL     1      10.674  47.736  74.504  1.00  0.00    -0.504 OA
ATOM     20  H   UNL     1       9.804  47.477  74.061  1.00  0.00     0.293 HD
ENDBRANCH  16  19
BRANCH  18  21
ATOM     21  O   UNL     1      10.654  45.367  76.222  1.00  0.00    -0.504 OA
ATOM     22  H   UNL     1      10.564  44.480  76.696  1.00  0.00     0.293 HD
ENDBRANCH  18  21
ENDBRANCH   3  13
BRANCH  10  23
ATOM     23  O   UNL     1      19.551  41.549  75.355  1.00  0.00    -0.507 OA
ATOM     24  H   UNL     1      20.094  42.401  75.266  1.00  0.00     0.293 HD
ENDBRANCH  10  23
BRANCH  11  25
ATOM     25  O   UNL     1      16.220  38.499  73.727  1.00  0.00    -0.508 OA
ATOM     26  H   UNL     1      16.620  38.036  72.916  1.00  0.00     0.293 HD
ENDBRANCH  11  25
ENDBRANCH   1   2
BRANCH   1  27
ATOM     27  C   UNL     1      17.038  46.981  73.984  1.00  0.00     0.339 C 
ATOM     28  C   UNL     1      17.243  48.445  74.417  1.00  0.00     0.214 C 
ATOM     29  O   UNL     1      18.097  46.429  73.216  1.00  0.00    -0.332 OA
ATOM     30  C   UNL     1      18.491  48.579  75.285  1.00  0.00     0.180 C 
ATOM     31  C   UNL     1      19.408  46.951  73.423  1.00  0.00     0.179 C 
ATOM     32  C   UNL     1      19.677  47.734  74.751  1.00  0.00     0.177 C 
BRANCH  28  33
ATOM     33  O   UNL     1      16.129  48.903  75.140  1.00  0.00    -0.384 OA
ATOM     34  H   UNL     1      15.722  49.640  74.613  1.00  0.00     0.211 HD
ENDBRANCH  28  33
BRANCH  30  35
ATOM     35  O   UNL     1      18.869  49.929  75.359  1.00  0.00    -0.387 OA
ATOM     36  H   UNL     1      19.836  49.972  75.139  1.00  0.00     0.211 HD
ENDBRANCH  30  35
BRANCH  31  37
ATOM     37  C   UNL     1      19.890  47.699  72.168  1.00  0.00     0.191 C 
BRANCH  37  38
ATOM     38  O   UNL     1      18.845  47.955  71.270  1.00  0.00    -0.394 OA
ATOM     39  H   UNL     1      18.377  48.764  71.604  1.00  0.00     0.210 HD
ENDBRANCH  37  38
ENDBRANCH  31  37
BRANCH  32  40
ATOM     40  O   UNL     1      20.124  46.851  75.749  1.00  0.00    -0.387 OA
ATOM     41  H   UNL     1      19.467  46.886  76.488  1.00  0.00     0.211 HD
ENDBRANCH  32  40
ENDBRANCH   1  27
TORSDOF 12
ENDMDL
MODEL 7
REMARK VINA RESULT:    -5.537      1.554      2.439
REMARK INTER + INTRA:          -9.070
REMARK INTER:                  -8.084
REMARK INTRA:                  -0.986
REMARK UNBOUND:                -0.945
REMARK SMILES O=c1c(O[C@@H]2O[C@@H](CO)[C@H](O)[C@@H](O)[C@@H]2O)c(-c2ccc(O)c(O)c2)oc2cc(O)cc(O)c12
REMARK SMILES IDX 4 1 3 2 16 3 25 4 2 5 26 6 1 7 33 8 27 9 31 10 28 11 30 12
REMARK SMILES IDX 17 13 18 14 19 15 20 16 24 17 22 18 21 19 23 21 32 23 29 25
REMARK SMILES IDX 5 27 14 28 6 29 12 30 7 31 10 32 15 33 13 35 8 37 9 38 11 40
REMARK H PARENT 21 20 23 22 32 24 29 26 15 34 13 36 9 39 11 41
REMARK Flexibility Score: inf
ROOT
ATOM      1  O   UNL     1      17.396  43.750  75.689  1.00  0.00    -0.454 OA
ENDROOT
BRANCH   1   2
ATOM      2  C   UNL     1      18.025  42.583  76.161  1.00  0.00     0.214 A 
ATOM      3  C   UNL     1      18.828  42.641  77.315  1.00  0.00     0.180 A 
ATOM      4  O   UNL     1      19.267  41.522  77.871  1.00  0.00    -0.452 OA
ATOM      5  C   UNL     1      17.851  41.336  75.528  1.00  0.00     0.239 A 
ATOM      6  C   UNL     1      19.052  40.316  77.363  1.00  0.00     0.146 A 
ATOM      7  O   UNL     1      17.225  41.283  74.436  1.00  0.00    -0.285 OA
ATOM      8  C   UNL     1      18.371  40.161  76.127  1.00  0.00     0.111 A 
ATOM      9  C   UNL     1      19.529  39.201  78.058  1.00  0.00     0.094 A 
ATOM     10  C   UNL     1      18.216  38.843  75.597  1.00  0.00     0.134 A 
ATOM     11  C   UNL     1      19.328  37.919  77.558  1.00  0.00     0.123 A 
ATOM     12  C   UNL     1      18.652  37.744  76.350  1.00  0.00     0.093 A 
BRANCH   3  13
ATOM     13  C   UNL     1      19.188  43.921  77.959  1.00  0.00     0.025 A 
ATOM     14  C   UNL     1      19.812  44.927  77.206  1.00  0.00     0.016 A 
ATOM     15  C   UNL     1      20.092  46.171  77.778  1.00  0.00     0.051 A 
ATOM     16  C   UNL     1      19.732  46.443  79.099  1.00  0.00     0.157 A 
ATOM     17  C   UNL     1      18.818  44.196  79.286  1.00  0.00     0.062 A 
ATOM     18  C   UNL     1      19.089  45.443  79.865  1.00  0.00     0.158 A 
BRANCH  16  19
ATOM     19  O   UNL     1      20.025  47.714  79.606  1.00  0.00    -0.504 OA
ATOM     20  H   UNL     1      20.961  48.028  79.816  1.00  0.00     0.293 HD
ENDBRANCH  16  19
BRANCH  18  21
ATOM     21  O   UNL     1      18.701  45.641  81.193  1.00  0.00    -0.504 OA
ATOM     22  H   UNL     1      19.042  46.395  81.772  1.00  0.00     0.293 HD
ENDBRANCH  18  21
ENDBRANCH   3  13
BRANCH  10  23
ATOM     23  O   UNL     1      17.684  38.566  74.332  1.00  0.00    -0.507 OA
ATOM     24  H   UNL     1      16.706  38.668  74.085  1.00  0.00     0.293 HD
ENDBRANCH  10  23
BRANCH  11  25
ATOM     25  O   UNL     1      19.823  36.828  78.263  1.00  0.00    -0.508 OA
ATOM     26  H   UNL     1      20.056  36.893  79.249  1.00  0.00     0.293 HD
ENDBRANCH  11  25
ENDBRANCH   1   2
BRANCH   1  27
ATOM     27  C   UNL     1      17.451  44.186  74.320  1.00  0.00     0.339 C 
ATOM     28  C   UNL     1      16.081  44.690  73.830  1.00  0.00     0.214 C 
ATOM     29  O   UNL     1      18.522  45.104  74.156  1.00  0.00    -0.332 OA
ATOM     30  C   UNL     1      15.665  45.945  74.593  1.00  0.00     0.180 C 
ATOM     31  C   UNL     1      18.210  46.495  74.170  1.00  0.00     0.179 C 
ATOM     32  C   UNL     1      16.846  46.928  74.804  1.00  0.00     0.177 C 
BRANCH  28  33
ATOM     33  O   UNL     1      15.101  43.699  74.007  1.00  0.00    -0.384 OA
ATOM     34  H   UNL     1      15.518  42.965  74.530  1.00  0.00     0.211 HD
ENDBRANCH  28  33
BRANCH  30  35
ATOM     35  O   UNL     1      14.628  46.594  73.903  1.00  0.00    -0.387 OA
ATOM     36  H   UNL     1      14.477  46.086  73.064  1.00  0.00     0.211 HD
ENDBRANCH  30  35
BRANCH  31  37
ATOM     37  C   UNL     1      18.460  47.112  72.783  1.00  0.00     0.191 C 
BRANCH  37  38
ATOM     38  O   UNL     1      17.268  47.466  72.138  1.00  0.00    -0.394 OA
ATOM     39  H   UNL     1      16.554  46.898  72.529  1.00  0.00     0.210 HD
ENDBRANCH  37  38
ENDBRANCH  31  37
BRANCH  32  40
ATOM     40  O   UNL     1      17.014  47.190  76.174  1.00  0.00    -0.387 OA
ATOM     41  H   UNL     1      16.489  48.003  76.383  1.00  0.00     0.211 HD
ENDBRANCH  32  40
ENDBRANCH   1  27
TORSDOF 12
ENDMDL
MODEL 8
REMARK VINA RESULT:    -5.380      2.851      5.033
REMARK INTER + INTRA:          -8.841
REMARK INTER:                  -7.904
REMARK INTRA:                  -0.938
REMARK UNBOUND:                -0.945
REMARK SMILES O=c1c(O[C@@H]2O[C@@H](CO)[C@H](O)[C@@H](O)[C@@H]2O)c(-c2ccc(O)c(O)c2)oc2cc(O)cc(O)c12
REMARK SMILES IDX 4 1 3 2 16 3 25 4 2 5 26 6 1 7 33 8 27 9 31 10 28 11 30 12
REMARK SMILES IDX 17 13 18 14 19 15 20 16 24 17 22 18 21 19 23 21 32 23 29 25
REMARK SMILES IDX 5 27 14 28 6 29 12 30 7 31 10 32 15 33 13 35 8 37 9 38 11 40
REMARK H PARENT 21 20 23 22 32 24 29 26 15 34 13 36 9 39 11 41
REMARK Flexibility Score: inf
ROOT
ATOM      1  O   UNL     1      15.750  45.545  74.985  1.00  0.00    -0.454 OA
ENDROOT
BRANCH   1   2
ATOM      2  C   UNL     1      16.543  44.381  75.001  1.00  0.00     0.214 A 
ATOM      3  C   UNL     1      17.859  44.440  75.492  1.00  0.00     0.180 A 
ATOM      4  O   UNL     1      18.543  43.322  75.685  1.00  0.00    -0.452 OA
ATOM      5  C   UNL     1      16.045  43.137  74.563  1.00  0.00     0.239 A 
ATOM      6  C   UNL     1      18.083  42.117  75.375  1.00  0.00     0.146 A 
ATOM      7  O   UNL     1      14.910  43.085  74.022  1.00  0.00    -0.285 OA
ATOM      8  C   UNL     1      16.820  41.963  74.745  1.00  0.00     0.111 A 
ATOM      9  C   UNL     1      18.877  41.003  75.660  1.00  0.00     0.094 A 
ATOM     10  C   UNL     1      16.399  40.648  74.380  1.00  0.00     0.134 A 
ATOM     11  C   UNL     1      18.433  39.722  75.347  1.00  0.00     0.123 A 
ATOM     12  C   UNL     1      17.191  39.548  74.737  1.00  0.00     0.093 A 
BRANCH   3  13
ATOM     13  C   UNL     1      18.515  45.719  75.834  1.00  0.00     0.025 A 
ATOM     14  C   UNL     1      18.650  46.714  74.853  1.00  0.00     0.016 A 
ATOM     15  C   UNL     1      19.200  47.957  75.176  1.00  0.00     0.051 A 
ATOM     16  C   UNL     1      19.599  48.241  76.483  1.00  0.00     0.157 A 
ATOM     17  C   UNL     1      18.909  46.005  77.151  1.00  0.00     0.062 A 
ATOM     18  C   UNL     1      19.454  47.252  77.485  1.00  0.00     0.158 A 
BRANCH  16  19
ATOM     19  O   UNL     1      20.125  49.511  76.743  1.00  0.00    -0.504 OA
ATOM     20  H   UNL     1      20.019  50.297  76.118  1.00  0.00     0.293 HD
ENDBRANCH  16  19
BRANCH  18  21
ATOM     21  O   UNL     1      19.832  47.462  78.813  1.00  0.00    -0.504 OA
ATOM     22  H   UNL     1      19.740  48.346  79.292  1.00  0.00     0.293 HD
ENDBRANCH  18  21
ENDBRANCH   3  13
BRANCH  10  23
ATOM     23  O   UNL     1      15.242  40.374  73.640  1.00  0.00    -0.507 OA
ATOM     24  H   UNL     1      14.298  40.570  73.955  1.00  0.00     0.293 HD
ENDBRANCH  10  23
BRANCH  11  25
ATOM     25  O   UNL     1      19.248  38.632  75.631  1.00  0.00    -0.508 OA
ATOM     26  H   UNL     1      20.208  38.751  75.940  1.00  0.00     0.293 HD
ENDBRANCH  11  25
ENDBRANCH   1   2
BRANCH   1  27
ATOM     27  C   UNL     1      14.931  45.934  73.871  1.00  0.00     0.339 C 
ATOM     28  C   UNL     1      13.530  46.385  74.327  1.00  0.00     0.214 C 
ATOM     29  O   UNL     1      15.632  46.874  73.071  1.00  0.00    -0.332 OA
ATOM     30  C   UNL     1      13.622  47.654  75.172  1.00  0.00     0.180 C 
ATOM     31  C   UNL     1      15.337  48.257  73.260  1.00  0.00     0.179 C 
ATOM     32  C   UNL     1      14.638  48.674  74.597  1.00  0.00     0.177 C 
BRANCH  28  33
ATOM     33  O   UNL     1      12.911  45.374  75.082  1.00  0.00    -0.384 OA
ATOM     34  H   UNL     1      12.545  45.803  75.900  1.00  0.00     0.211 HD
ENDBRANCH  28  33
BRANCH  30  35
ATOM     35  O   UNL     1      12.354  48.250  75.263  1.00  0.00    -0.387 OA
ATOM     36  H   UNL     1      11.901  47.850  76.051  1.00  0.00     0.211 HD
ENDBRANCH  30  35
BRANCH  31  37
ATOM     37  C   UNL     1      14.651  48.833  72.009  1.00  0.00     0.191 C 
BRANCH  37  38
ATOM     38  O   UNL     1      14.492  47.872  71.002  1.00  0.00    -0.394 OA
ATOM     39  H   UNL     1      14.152  47.052  71.444  1.00  0.00     0.210 HD
ENDBRANCH  37  38
ENDBRANCH  31  37
BRANCH  32  40
ATOM     40  O   UNL     1      15.605  48.988  75.568  1.00  0.00    -0.387 OA
ATOM     41  H   UNL     1      15.244  48.701  76.443  1.00  0.00     0.211 HD
ENDBRANCH  32  40
ENDBRANCH   1  27
TORSDOF 12
ENDMDL
MODEL 9
REMARK VINA RESULT:    -5.167      2.243      6.888
REMARK INTER + INTRA:          -8.529
REMARK INTER:                  -7.248
REMARK INTRA:                  -1.281
REMARK UNBOUND:                -0.945
REMARK SMILES O=c1c(O[C@@H]2O[C@@H](CO)[C@H](O)[C@@H](O)[C@@H]2O)c(-c2ccc(O)c(O)c2)oc2cc(O)cc(O)c12
REMARK SMILES IDX 4 1 3 2 16 3 25 4 2 5 26 6 1 7 33 8 27 9 31 10 28 11 30 12
REMARK SMILES IDX 17 13 18 14 19 15 20 16 24 17 22 18 21 19 23 21 32 23 29 25
REMARK SMILES IDX 5 27 14 28 6 29 12 30 7 31 10 32 15 33 13 35 8 37 9 38 11 40
REMARK H PARENT 21 20 23 22 32 24 29 26 15 34 13 36 9 39 11 41
REMARK Flexibility Score: inf
ROOT
ATOM      1  O   UNL     1      18.913  45.602  76.390  1.00  0.00    -0.454 OA
ENDROOT
BRANCH   1   2
ATOM      2  C   UNL     1      18.985  45.855  77.774  1.00  0.00     0.214 A 
ATOM      3  C   UNL     1      19.175  44.787  78.669  1.00  0.00     0.180 A 
ATOM      4  O   UNL     1      19.432  45.033  79.945  1.00  0.00    -0.452 OA
ATOM      5  C   UNL     1      18.904  47.162  78.296  1.00  0.00     0.239 A 
ATOM      6  C   UNL     1      19.457  46.252  80.468  1.00  0.00     0.146 A 
ATOM      7  O   UNL     1      18.627  48.116  77.523  1.00  0.00    -0.285 OA
ATOM      8  C   UNL     1      19.141  47.387  79.675  1.00  0.00     0.111 A 
ATOM      9  C   UNL     1      19.779  46.394  81.820  1.00  0.00     0.094 A 
ATOM     10  C   UNL     1      19.128  48.670  80.303  1.00  0.00     0.134 A 
ATOM     11  C   UNL     1      19.813  47.654  82.408  1.00  0.00     0.123 A 
ATOM     12  C   UNL     1      19.516  48.784  81.645  1.00  0.00     0.093 A 
BRANCH   3  13
ATOM     13  C   UNL     1      19.125  43.376  78.233  1.00  0.00     0.025 A 
ATOM     14  C   UNL     1      19.998  42.928  77.230  1.00  0.00     0.016 A 
ATOM     15  C   UNL     1      20.017  41.581  76.857  1.00  0.00     0.051 A 
ATOM     16  C   UNL     1      19.189  40.655  77.492  1.00  0.00     0.157 A 
ATOM     17  C   UNL     1      18.296  42.445  78.879  1.00  0.00     0.062 A 
ATOM     18  C   UNL     1      18.315  41.092  78.516  1.00  0.00     0.158 A 
BRANCH  16  19
ATOM     19  O   UNL     1      19.270  39.320  77.084  1.00  0.00    -0.504 OA
ATOM     20  H   UNL     1      19.893  38.995  76.359  1.00  0.00     0.293 HD
ENDBRANCH  16  19
BRANCH  18  21
ATOM     21  O   UNL     1      17.455  40.224  79.195  1.00  0.00    -0.504 OA
ATOM     22  H   UNL     1      17.765  39.410  79.705  1.00  0.00     0.293 HD
ENDBRANCH  18  21
ENDBRANCH   3  13
BRANCH  10  23
ATOM     23  O   UNL     1      18.707  49.846  79.669  1.00  0.00    -0.507 OA
ATOM     24  H   UNL     1      18.392  50.679  80.153  1.00  0.00     0.293 HD
ENDBRANCH  10  23
BRANCH  11  25
ATOM     25  O   UNL     1      20.125  47.767  83.758  1.00  0.00    -0.508 OA
ATOM     26  H   UNL     1      20.985  47.385  84.140  1.00  0.00     0.293 HD
ENDBRANCH  11  25
ENDBRANCH   1   2
BRANCH   1  27
ATOM     27  C   UNL     1      17.684  45.602  75.645  1.00  0.00     0.339 C 
ATOM     28  C   UNL     1      17.799  46.446  74.362  1.00  0.00     0.214 C 
ATOM     29  O   UNL     1      17.249  44.266  75.446  1.00  0.00    -0.332 OA
ATOM     30  C   UNL     1      18.808  45.826  73.399  1.00  0.00     0.180 C 
ATOM     31  C   UNL     1      17.545  43.651  74.194  1.00  0.00     0.179 C 
ATOM     32  C   UNL     1      18.685  44.282  73.327  1.00  0.00     0.177 C 
BRANCH  28  33
ATOM     33  O   UNL     1      18.204  47.756  74.671  1.00  0.00    -0.384 OA
ATOM     34  H   UNL     1      17.841  47.969  75.570  1.00  0.00     0.211 HD
ENDBRANCH  28  33
BRANCH  30  35
ATOM     35  O   UNL     1      18.633  46.374  72.117  1.00  0.00    -0.387 OA
ATOM     36  H   UNL     1      19.257  45.896  71.510  1.00  0.00     0.211 HD
ENDBRANCH  30  35
BRANCH  31  37
ATOM     37  C   UNL     1      16.249  43.397  73.404  1.00  0.00     0.191 C 
BRANCH  37  38
ATOM     38  O   UNL     1      15.348  42.590  74.110  1.00  0.00    -0.394 OA
ATOM     39  H   UNL     1      14.625  42.349  73.475  1.00  0.00     0.210 HD
ENDBRANCH  37  38
ENDBRANCH  31  37
BRANCH  32  40
ATOM     40  O   UNL     1      19.918  43.687  73.645  1.00  0.00    -0.387 OA
ATOM     41  H   UNL     1      19.731  42.940  74.267  1.00  0.00     0.211 HD
ENDBRANCH  32  40
ENDBRANCH   1  27
TORSDOF 12
ENDMDL
