MODEL 1
REMARK VINA RESULT:     0.000      0.000      0.000
REMARK INTER + INTRA:          -6.867
REMARK INTER:                   0.000
REMARK INTRA:                  -6.867
REMARK UNBOUND:                -6.867
REMARK SMILES CCCCCCCCCCCCCCCCCCCCCCCCCCCC(=O)[O-]
REMARK SMILES IDX 15 1 16 2 17 3 18 4 19 5 20 6 21 7 22 8 23 9 24 10 25 11
REMARK SMILES IDX 26 12 27 13 28 14 29 15 30 16 14 17 13 18 12 19 11 20 10 21
REMARK SMILES IDX 9 22 8 23 7 24 6 25 5 26 4 27 3 28 2 29 1 30
REMARK H PARENT
REMARK Flexibility Score: inf
ROOT
ATOM      1  C   UNL     1     187.653 189.434 185.659  1.00  0.00     0.000 C 
ENDROOT
BRANCH   1   2
ATOM      2  C   UNL     1     188.238 188.097 185.172  1.00  0.00     0.000 C 
BRANCH   2   3
ATOM      3  C   UNL     1     189.549 187.724 185.886  1.00  0.00     0.000 C 
BRANCH   3   4
ATOM      4  C   UNL     1     189.496 186.337 186.552  1.00  0.00     0.000 C 
BRANCH   4   5
ATOM      5  C   UNL     1     188.099 185.697 186.637  1.00  0.00     0.000 C 
BRANCH   5   6
ATOM      6  C   UNL     1     187.616 185.491 188.083  1.00  0.00     0.000 C 
BRANCH   6   7
ATOM      7  C   UNL     1     188.606 186.033 189.130  1.00  0.00     0.000 C 
BRANCH   7   8
ATOM      8  C   UNL     1     188.052 187.139 190.050  1.00  0.00     0.000 C 
BRANCH   8   9
ATOM      9  C   UNL     1     187.197 186.643 191.232  1.00  0.00     0.000 C 
BRANCH   9  10
ATOM     10  C   UNL     1     187.776 185.432 191.986  1.00  0.00     0.000 C 
BRANCH  10  11
ATOM     11  C   UNL     1     186.809 184.238 192.028  1.00  0.00     0.000 C 
BRANCH  11  12
ATOM     12  C   UNL     1     185.554 184.518 191.187  1.00  0.00     0.006 C 
BRANCH  12  13
ATOM     13  C   UNL     1     185.319 183.441 190.119  1.00  0.00     0.053 C 
BRANCH  13  14
ATOM     14  C   UNL     1     184.036 182.702 190.345  1.00  0.00     0.041 C 
ATOM     15  O   UNL     1     183.443 182.151 189.381  1.00  0.00    -0.550 OA
ATOM     16  O   UNL     1     183.514 182.591 191.627  1.00  0.00    -0.550 OA
ENDBRANCH  13  14
ENDBRANCH  12  13
ENDBRANCH  11  12
ENDBRANCH  10  11
ENDBRANCH   9  10
ENDBRANCH   8   9
ENDBRANCH   7   8
ENDBRANCH   6   7
ENDBRANCH   5   6
ENDBRANCH   4   5
ENDBRANCH   3   4
ENDBRANCH   2   3
ENDBRANCH   1   2
BRANCH   1  17
ATOM     17  C   UNL     1     187.292 189.490 187.156  1.00  0.00     0.000 C 
BRANCH  17  18
ATOM     18  C   UNL     1     185.989 188.768 187.541  1.00  0.00     0.000 C 
BRANCH  18  19
ATOM     19  C   UNL     1     185.297 189.397 188.760  1.00  0.00     0.000 C 
BRANCH  19  20
ATOM     20  C   UNL     1     184.356 188.389 189.440  1.00  0.00     0.000 C 
BRANCH  20  21
ATOM     21  C   UNL     1     184.381 187.003 188.776  1.00  0.00     0.000 C 
BRANCH  21  22
ATOM     22  C   UNL     1     183.057 186.239 188.951  1.00  0.00    -0.000 C 
BRANCH  22  23
ATOM     23  C   UNL     1     182.791 185.239 187.810  1.00  0.00    -0.000 C 
BRANCH  23  24
ATOM     24  C   UNL     1     184.006 184.932 186.913  1.00  0.00    -0.000 C 
BRANCH  24  25
ATOM     25  C   UNL     1     183.863 185.361 185.438  1.00  0.00    -0.000 C 
BRANCH  25  26
ATOM     26  C   UNL     1     184.909 186.382 184.954  1.00  0.00    -0.000 C 
BRANCH  26  27
ATOM     27  C   UNL     1     184.281 187.714 184.511  1.00  0.00    -0.000 C 
BRANCH  27  28
ATOM     28  C   UNL     1     182.849 187.894 185.057  1.00  0.00    -0.000 C 
BRANCH  28  29
ATOM     29  C   UNL     1     182.701 189.085 186.019  1.00  0.00    -0.003 C 
ATOM     30  C   UNL     1     181.513 188.947 186.967  1.00  0.00     0.004 C 
ENDBRANCH  28  29
ENDBRANCH  27  28
ENDBRANCH  26  27
ENDBRANCH  25  26
ENDBRANCH  24  25
ENDBRANCH  23  24
ENDBRANCH  22  23
ENDBRANCH  21  22
ENDBRANCH  20  21
ENDBRANCH  19  20
ENDBRANCH  18  19
ENDBRANCH  17  18
ENDBRANCH   1  17
TORSDOF 26
ENDMDL
MODEL 2
REMARK VINA RESULT:     0.001      4.307      7.627
REMARK INTER + INTRA:          -6.865
REMARK INTER:                   0.000
REMARK INTRA:                  -6.865
REMARK UNBOUND:                -6.867
REMARK SMILES CCCCCCCCCCCCCCCCCCCCCCCCCCCC(=O)[O-]
REMARK SMILES IDX 15 1 16 2 17 3 18 4 19 5 20 6 21 7 22 8 23 9 24 10 25 11
REMARK SMILES IDX 26 12 27 13 28 14 29 15 30 16 14 17 13 18 12 19 11 20 10 21
REMARK SMILES IDX 9 22 8 23 7 24 6 25 5 26 4 27 3 28 2 29 1 30
REMARK H PARENT
REMARK Flexibility Score: inf
ROOT
ATOM      1  C   UNL     1     179.328 186.498 190.872  1.00  0.00     0.000 C 
ENDROOT
BRANCH   1   2
ATOM      2  C   UNL     1     179.109 187.269 192.186  1.00  0.00     0.000 C 
BRANCH   2   3
ATOM      3  C   UNL     1     178.735 188.743 191.958  1.00  0.00     0.000 C 
BRANCH   3   4
ATOM      4  C   UNL     1     179.775 189.723 192.533  1.00  0.00     0.000 C 
BRANCH   4   5
ATOM      5  C   UNL     1     181.169 189.125 192.800  1.00  0.00     0.000 C 
BRANCH   5   6
ATOM      6  C   UNL     1     181.587 189.208 194.279  1.00  0.00     0.000 C 
BRANCH   6   7
ATOM      7  C   UNL     1     182.548 188.081 194.695  1.00  0.00     0.000 C 
BRANCH   7   8
ATOM      8  C   UNL     1     182.098 186.657 194.312  1.00  0.00     0.000 C 
BRANCH   8   9
ATOM      9  C   UNL     1     183.092 185.867 193.438  1.00  0.00     0.000 C 
BRANCH   9  10
ATOM     10  C   UNL     1     184.043 186.733 192.594  1.00  0.00     0.000 C 
BRANCH  10  11
ATOM     11  C   UNL     1     184.432 186.070 191.265  1.00  0.00     0.000 C 
BRANCH  11  12
ATOM     12  C   UNL     1     185.797 186.578 190.775  1.00  0.00     0.006 C 
BRANCH  12  13
ATOM     13  C   UNL     1     186.629 187.191 191.910  1.00  0.00     0.053 C 
BRANCH  13  14
ATOM     14  C   UNL     1     187.853 187.882 191.392  1.00  0.00     0.041 C 
ATOM     15  O   UNL     1     188.835 188.085 192.153  1.00  0.00    -0.550 OA
ATOM     16  O   UNL     1     187.922 188.270 190.061  1.00  0.00    -0.550 OA
ENDBRANCH  13  14
ENDBRANCH  12  13
ENDBRANCH  11  12
ENDBRANCH  10  11
ENDBRANCH   9  10
ENDBRANCH   8   9
ENDBRANCH   7   8
ENDBRANCH   6   7
ENDBRANCH   5   6
ENDBRANCH   4   5
ENDBRANCH   3   4
ENDBRANCH   2   3
ENDBRANCH   1   2
BRANCH   1  17
ATOM     17  C   UNL     1     180.794 186.148 190.550  1.00  0.00     0.000 C 
BRANCH  17  18
ATOM     18  C   UNL     1     181.337 186.754 189.243  1.00  0.00     0.000 C 
BRANCH  18  19
ATOM     19  C   UNL     1     180.533 187.975 188.774  1.00  0.00     0.000 C 
BRANCH  19  20
ATOM     20  C   UNL     1     181.292 189.280 189.065  1.00  0.00     0.000 C 
BRANCH  20  21
ATOM     21  C   UNL     1     182.819 189.108 189.022  1.00  0.00     0.000 C 
BRANCH  21  22
ATOM     22  C   UNL     1     183.498 189.523 190.338  1.00  0.00    -0.000 C 
BRANCH  22  23
ATOM     23  C   UNL     1     184.881 190.163 190.119  1.00  0.00    -0.000 C 
BRANCH  23  24
ATOM     24  C   UNL     1     185.520 190.789 191.375  1.00  0.00    -0.000 C 
BRANCH  24  25
ATOM     25  C   UNL     1     184.861 190.398 192.714  1.00  0.00    -0.000 C 
BRANCH  25  26
ATOM     26  C   UNL     1     184.307 191.577 193.535  1.00  0.00    -0.000 C 
BRANCH  26  27
ATOM     27  C   UNL     1     183.737 192.701 192.654  1.00  0.00    -0.000 C 
BRANCH  27  28
ATOM     28  C   UNL     1     182.199 192.640 192.555  1.00  0.00    -0.000 C 
BRANCH  28  29
ATOM     29  C   UNL     1     181.674 192.611 191.109  1.00  0.00    -0.003 C 
ATOM     30  C   UNL     1     182.673 193.169 190.098  1.00  0.00     0.004 C 
ENDBRANCH  28  29
ENDBRANCH  27  28
ENDBRANCH  26  27
ENDBRANCH  25  26
ENDBRANCH  24  25
ENDBRANCH  23  24
ENDBRANCH  22  23
ENDBRANCH  21  22
ENDBRANCH  20  21
ENDBRANCH  19  20
ENDBRANCH  18  19
ENDBRANCH  17  18
ENDBRANCH   1  17
TORSDOF 26
ENDMDL
MODEL 3
REMARK VINA RESULT:     0.009      7.182     10.397
REMARK INTER + INTRA:          -6.843
REMARK INTER:                   0.000
REMARK INTRA:                  -6.843
REMARK UNBOUND:                -6.867
REMARK SMILES CCCCCCCCCCCCCCCCCCCCCCCCCCCC(=O)[O-]
REMARK SMILES IDX 15 1 16 2 17 3 18 4 19 5 20 6 21 7 22 8 23 9 24 10 25 11
REMARK SMILES IDX 26 12 27 13 28 14 29 15 30 16 14 17 13 18 12 19 11 20 10 21
REMARK SMILES IDX 9 22 8 23 7 24 6 25 5 26 4 27 3 28 2 29 1 30
REMARK H PARENT
REMARK Flexibility Score: inf
ROOT
ATOM      1  C   UNL     1     179.240 190.576 190.920  1.00  0.00     0.000 C 
ENDROOT
BRANCH   1   2
ATOM      2  C   UNL     1     180.442 190.002 190.150  1.00  0.00     0.000 C 
BRANCH   2   3
ATOM      3  C   UNL     1     180.704 190.732 188.821  1.00  0.00     0.000 C 
BRANCH   3   4
ATOM      4  C   UNL     1     180.499 189.830 187.591  1.00  0.00     0.000 C 
BRANCH   4   5
ATOM      5  C   UNL     1     179.476 190.342 186.560  1.00  0.00     0.000 C 
BRANCH   5   6
ATOM      6  C   UNL     1     178.032 189.920 186.883  1.00  0.00     0.000 C 
BRANCH   6   7
ATOM      7  C   UNL     1     177.937 188.501 187.471  1.00  0.00     0.000 C 
BRANCH   7   8
ATOM      8  C   UNL     1     177.102 188.378 188.762  1.00  0.00     0.000 C 
BRANCH   8   9
ATOM      9  C   UNL     1     175.627 188.808 188.633  1.00  0.00     0.000 C 
BRANCH   9  10
ATOM     10  C   UNL     1     174.847 188.853 189.958  1.00  0.00     0.000 C 
BRANCH  10  11
ATOM     11  C   UNL     1     174.784 190.262 190.566  1.00  0.00     0.000 C 
BRANCH  11  12
ATOM     12  C   UNL     1     175.116 190.230 192.066  1.00  0.00     0.006 C 
BRANCH  12  13
ATOM     13  C   UNL     1     176.186 189.181 192.401  1.00  0.00     0.053 C 
BRANCH  13  14
ATOM     14  C   UNL     1     176.930 189.526 193.655  1.00  0.00     0.041 C 
ATOM     15  O   UNL     1     177.355 188.614 194.411  1.00  0.00    -0.550 OA
ATOM     16  O   UNL     1     177.185 190.854 193.969  1.00  0.00    -0.550 OA
ENDBRANCH  13  14
ENDBRANCH  12  13
ENDBRANCH  11  12
ENDBRANCH  10  11
ENDBRANCH   9  10
ENDBRANCH   8   9
ENDBRANCH   7   8
ENDBRANCH   6   7
ENDBRANCH   5   6
ENDBRANCH   4   5
ENDBRANCH   3   4
ENDBRANCH   2   3
ENDBRANCH   1   2
BRANCH   1  17
ATOM     17  C   UNL     1     178.353 191.555 190.124  1.00  0.00     0.000 C 
BRANCH  17  18
ATOM     18  C   UNL     1     177.703 192.673 190.959  1.00  0.00     0.000 C 
BRANCH  18  19
ATOM     19  C   UNL     1     176.668 193.484 190.166  1.00  0.00     0.000 C 
BRANCH  19  20
ATOM     20  C   UNL     1     176.514 192.935 188.739  1.00  0.00     0.000 C 
BRANCH  20  21
ATOM     21  C   UNL     1     176.758 193.999 187.657  1.00  0.00     0.000 C 
BRANCH  21  22
ATOM     22  C   UNL     1     177.958 193.663 186.756  1.00  0.00    -0.000 C 
BRANCH  22  23
ATOM     23  C   UNL     1     179.310 193.983 187.421  1.00  0.00    -0.000 C 
BRANCH  23  24
ATOM     24  C   UNL     1     179.404 195.376 188.075  1.00  0.00    -0.000 C 
BRANCH  24  25
ATOM     25  C   UNL     1     179.886 195.386 189.541  1.00  0.00    -0.000 C 
BRANCH  25  26
ATOM     26  C   UNL     1     180.907 194.290 189.896  1.00  0.00    -0.000 C 
BRANCH  26  27
ATOM     27  C   UNL     1     181.128 194.148 191.411  1.00  0.00    -0.000 C 
BRANCH  27  28
ATOM     28  C   UNL     1     182.026 192.942 191.759  1.00  0.00    -0.000 C 
BRANCH  28  29
ATOM     29  C   UNL     1     181.678 192.283 193.104  1.00  0.00    -0.003 C 
ATOM     30  C   UNL     1     180.364 192.786 193.697  1.00  0.00     0.004 C 
ENDBRANCH  28  29
ENDBRANCH  27  28
ENDBRANCH  26  27
ENDBRANCH  25  26
ENDBRANCH  24  25
ENDBRANCH  23  24
ENDBRANCH  22  23
ENDBRANCH  21  22
ENDBRANCH  20  21
ENDBRANCH  19  20
ENDBRANCH  18  19
ENDBRANCH  17  18
ENDBRANCH   1  17
TORSDOF 26
ENDMDL
MODEL 4
REMARK VINA RESULT:     0.010      4.124      5.673
REMARK INTER + INTRA:          -6.840
REMARK INTER:                   0.000
REMARK INTRA:                  -6.840
REMARK UNBOUND:                -6.867
REMARK SMILES CCCCCCCCCCCCCCCCCCCCCCCCCCCC(=O)[O-]
REMARK SMILES IDX 15 1 16 2 17 3 18 4 19 5 20 6 21 7 22 8 23 9 24 10 25 11
REMARK SMILES IDX 26 12 27 13 28 14 29 15 30 16 14 17 13 18 12 19 11 20 10 21
REMARK SMILES IDX 9 22 8 23 7 24 6 25 5 26 4 27 3 28 2 29 1 30
REMARK H PARENT
REMARK Flexibility Score: inf
ROOT
ATOM      1  C   UNL     1     188.228 192.611 189.509  1.00  0.00     0.000 C 
ENDROOT
BRANCH   1   2
ATOM      2  C   UNL     1     188.371 191.225 188.855  1.00  0.00     0.000 C 
BRANCH   2   3
ATOM      3  C   UNL     1     187.490 190.156 189.524  1.00  0.00     0.000 C 
BRANCH   3   4
ATOM      4  C   UNL     1     187.766 188.736 188.998  1.00  0.00     0.000 C 
BRANCH   4   5
ATOM      5  C   UNL     1     188.610 187.840 189.924  1.00  0.00     0.000 C 
BRANCH   5   6
ATOM      6  C   UNL     1     190.064 187.680 189.446  1.00  0.00     0.000 C 
BRANCH   6   7
ATOM      7  C   UNL     1     190.989 188.802 189.952  1.00  0.00     0.000 C 
BRANCH   7   8
ATOM      8  C   UNL     1     190.832 189.162 191.443  1.00  0.00     0.000 C 
BRANCH   8   9
ATOM      9  C   UNL     1     190.668 190.665 191.742  1.00  0.00     0.000 C 
BRANCH   9  10
ATOM     10  C   UNL     1     189.531 191.011 192.720  1.00  0.00     0.000 C 
BRANCH  10  11
ATOM     11  C   UNL     1     188.682 189.789 193.102  1.00  0.00     0.000 C 
BRANCH  11  12
ATOM     12  C   UNL     1     187.183 190.124 193.054  1.00  0.00     0.006 C 
BRANCH  12  13
ATOM     13  C   UNL     1     186.305 188.890 193.307  1.00  0.00     0.053 C 
BRANCH  13  14
ATOM     14  C   UNL     1     185.799 188.846 194.717  1.00  0.00     0.041 C 
ATOM     15  O   UNL     1     185.631 187.742 195.296  1.00  0.00    -0.550 OA
ATOM     16  O   UNL     1     185.547 190.028 195.402  1.00  0.00    -0.550 OA
ENDBRANCH  13  14
ENDBRANCH  12  13
ENDBRANCH  11  12
ENDBRANCH  10  11
ENDBRANCH   9  10
ENDBRANCH   8   9
ENDBRANCH   7   8
ENDBRANCH   6   7
ENDBRANCH   5   6
ENDBRANCH   4   5
ENDBRANCH   3   4
ENDBRANCH   2   3
ENDBRANCH   1   2
BRANCH   1  17
ATOM     17  C   UNL     1     187.026 192.770 190.461  1.00  0.00     0.000 C 
BRANCH  17  18
ATOM     18  C   UNL     1     187.272 193.686 191.674  1.00  0.00     0.000 C 
BRANCH  18  19
ATOM     19  C   UNL     1     186.093 193.700 192.658  1.00  0.00     0.000 C 
BRANCH  19  20
ATOM     20  C   UNL     1     184.835 193.092 192.019  1.00  0.00     0.000 C 
BRANCH  20  21
ATOM     21  C   UNL     1     184.065 192.166 192.974  1.00  0.00     0.000 C 
BRANCH  21  22
ATOM     22  C   UNL     1     183.430 190.966 192.251  1.00  0.00    -0.000 C 
BRANCH  22  23
ATOM     23  C   UNL     1     184.004 190.749 190.838  1.00  0.00    -0.000 C 
BRANCH  23  24
ATOM     24  C   UNL     1     184.020 189.285 190.355  1.00  0.00    -0.000 C 
BRANCH  24  25
ATOM     25  C   UNL     1     183.933 189.093 188.827  1.00  0.00    -0.000 C 
BRANCH  25  26
ATOM     26  C   UNL     1     183.626 190.374 188.029  1.00  0.00    -0.000 C 
BRANCH  26  27
ATOM     27  C   UNL     1     184.801 190.821 187.143  1.00  0.00    -0.000 C 
BRANCH  27  28
ATOM     28  C   UNL     1     185.134 192.316 187.327  1.00  0.00    -0.000 C 
BRANCH  28  29
ATOM     29  C   UNL     1     184.026 193.110 188.040  1.00  0.00    -0.003 C 
ATOM     30  C   UNL     1     184.483 194.490 188.506  1.00  0.00     0.004 C 
ENDBRANCH  28  29
ENDBRANCH  27  28
ENDBRANCH  26  27
ENDBRANCH  25  26
ENDBRANCH  24  25
ENDBRANCH  23  24
ENDBRANCH  22  23
ENDBRANCH  21  22
ENDBRANCH  20  21
ENDBRANCH  19  20
ENDBRANCH  18  19
ENDBRANCH  17  18
ENDBRANCH   1  17
TORSDOF 26
ENDMDL
MODEL 5
REMARK VINA RESULT:     0.024      4.430      7.480
REMARK INTER + INTRA:          -6.806
REMARK INTER:                   0.000
REMARK INTRA:                  -6.806
REMARK UNBOUND:                -6.867
REMARK SMILES CCCCCCCCCCCCCCCCCCCCCCCCCCCC(=O)[O-]
REMARK SMILES IDX 15 1 16 2 17 3 18 4 19 5 20 6 21 7 22 8 23 9 24 10 25 11
REMARK SMILES IDX 26 12 27 13 28 14 29 15 30 16 14 17 13 18 12 19 11 20 10 21
REMARK SMILES IDX 9 22 8 23 7 24 6 25 5 26 4 27 3 28 2 29 1 30
REMARK H PARENT
REMARK Flexibility Score: inf
ROOT
ATOM      1  C   UNL     1     183.337 182.850 190.911  1.00  0.00     0.000 C 
ENDROOT
BRANCH   1   2
ATOM      2  C   UNL     1     184.850 182.575 190.833  1.00  0.00     0.000 C 
BRANCH   2   3
ATOM      3  C   UNL     1     185.341 181.622 191.936  1.00  0.00     0.000 C 
BRANCH   3   4
ATOM      4  C   UNL     1     186.490 182.213 192.773  1.00  0.00     0.000 C 
BRANCH   4   5
ATOM      5  C   UNL     1     186.429 183.735 192.997  1.00  0.00     0.000 C 
BRANCH   5   6
ATOM      6  C   UNL     1     186.274 184.120 194.479  1.00  0.00     0.000 C 
BRANCH   6   7
ATOM      7  C   UNL     1     185.955 182.916 195.383  1.00  0.00     0.000 C 
BRANCH   7   8
ATOM      8  C   UNL     1     184.637 183.020 196.177  1.00  0.00     0.000 C 
BRANCH   8   9
ATOM      9  C   UNL     1     183.563 181.979 195.806  1.00  0.00     0.000 C 
BRANCH   9  10
ATOM     10  C   UNL     1     182.140 182.319 196.283  1.00  0.00     0.000 C 
BRANCH  10  11
ATOM     11  C   UNL     1     182.101 183.530 197.227  1.00  0.00     0.000 C 
BRANCH  11  12
ATOM     12  C   UNL     1     180.874 184.410 196.942  1.00  0.00     0.006 C 
BRANCH  12  13
ATOM     13  C   UNL     1     179.899 183.747 195.961  1.00  0.00     0.053 C 
BRANCH  13  14
ATOM     14  C   UNL     1     179.120 184.760 195.178  1.00  0.00     0.041 C 
ATOM     15  O   UNL     1     178.550 184.430 194.106  1.00  0.00    -0.550 OA
ATOM     16  O   UNL     1     178.995 186.059 195.653  1.00  0.00    -0.550 OA
ENDBRANCH  13  14
ENDBRANCH  12  13
ENDBRANCH  11  12
ENDBRANCH  10  11
ENDBRANCH   9  10
ENDBRANCH   8   9
ENDBRANCH   7   8
ENDBRANCH   6   7
ENDBRANCH   5   6
ENDBRANCH   4   5
ENDBRANCH   3   4
ENDBRANCH   2   3
ENDBRANCH   1   2
BRANCH   1  17
ATOM     17  C   UNL     1     182.699 182.636 192.298  1.00  0.00     0.000 C 
BRANCH  17  18
ATOM     18  C   UNL     1     181.880 183.827 192.829  1.00  0.00     0.000 C 
BRANCH  18  19
ATOM     19  C   UNL     1     182.746 184.871 193.549  1.00  0.00     0.000 C 
BRANCH  19  20
ATOM     20  C   UNL     1     182.056 186.244 193.564  1.00  0.00     0.000 C 
BRANCH  20  21
ATOM     21  C   UNL     1     182.496 187.125 194.744  1.00  0.00     0.000 C 
BRANCH  21  22
ATOM     22  C   UNL     1     183.599 186.471 195.592  1.00  0.00    -0.000 C 
BRANCH  22  23
ATOM     23  C   UNL     1     184.901 187.293 195.613  1.00  0.00    -0.000 C 
BRANCH  23  24
ATOM     24  C   UNL     1     185.075 188.275 194.437  1.00  0.00    -0.000 C 
BRANCH  24  25
ATOM     25  C   UNL     1     185.843 187.717 193.220  1.00  0.00    -0.000 C 
BRANCH  25  26
ATOM     26  C   UNL     1     185.104 187.838 191.875  1.00  0.00    -0.000 C 
BRANCH  26  27
ATOM     27  C   UNL     1     184.946 186.487 191.158  1.00  0.00    -0.000 C 
BRANCH  27  28
ATOM     28  C   UNL     1     183.743 186.476 190.193  1.00  0.00    -0.000 C 
BRANCH  28  29
ATOM     29  C   UNL     1     184.055 185.844 188.826  1.00  0.00    -0.003 C 
ATOM     30  C   UNL     1     185.534 185.510 188.642  1.00  0.00     0.004 C 
ENDBRANCH  28  29
ENDBRANCH  27  28
ENDBRANCH  26  27
ENDBRANCH  25  26
ENDBRANCH  24  25
ENDBRANCH  23  24
ENDBRANCH  22  23
ENDBRANCH  21  22
ENDBRANCH  20  21
ENDBRANCH  19  20
ENDBRANCH  18  19
ENDBRANCH  17  18
ENDBRANCH   1  17
TORSDOF 26
ENDMDL
MODEL 6
REMARK VINA RESULT:     0.024      3.973      6.728
REMARK INTER + INTRA:          -6.806
REMARK INTER:                   0.000
REMARK INTRA:                  -6.806
REMARK UNBOUND:                -6.867
REMARK SMILES CCCCCCCCCCCCCCCCCCCCCCCCCCCC(=O)[O-]
REMARK SMILES IDX 15 1 16 2 17 3 18 4 19 5 20 6 21 7 22 8 23 9 24 10 25 11
REMARK SMILES IDX 26 12 27 13 28 14 29 15 30 16 14 17 13 18 12 19 11 20 10 21
REMARK SMILES IDX 9 22 8 23 7 24 6 25 5 26 4 27 3 28 2 29 1 30
REMARK H PARENT
REMARK Flexibility Score: inf
ROOT
ATOM      1  C   UNL     1     182.779 186.597 188.972  1.00  0.00     0.000 C 
ENDROOT
BRANCH   1   2
ATOM      2  C   UNL     1     184.120 187.351 189.005  1.00  0.00     0.000 C 
BRANCH   2   3
ATOM      3  C   UNL     1     185.106 186.861 187.930  1.00  0.00     0.000 C 
BRANCH   3   4
ATOM      4  C   UNL     1     184.452 185.932 186.892  1.00  0.00     0.000 C 
BRANCH   4   5
ATOM      5  C   UNL     1     184.893 186.156 185.434  1.00  0.00     0.000 C 
BRANCH   5   6
ATOM      6  C   UNL     1     186.413 186.346 185.286  1.00  0.00     0.000 C 
BRANCH   6   7
ATOM      7  C   UNL     1     186.787 187.643 184.547  1.00  0.00     0.000 C 
BRANCH   7   8
ATOM      8  C   UNL     1     185.650 188.284 183.726  1.00  0.00     0.000 C 
BRANCH   8   9
ATOM      9  C   UNL     1     185.140 189.639 184.256  1.00  0.00     0.000 C 
BRANCH   9  10
ATOM     10  C   UNL     1     185.638 190.012 185.664  1.00  0.00     0.000 C 
BRANCH  10  11
ATOM     11  C   UNL     1     184.491 190.294 186.646  1.00  0.00     0.000 C 
BRANCH  11  12
ATOM     12  C   UNL     1     183.196 189.601 186.194  1.00  0.00     0.006 C 
BRANCH  12  13
ATOM     13  C   UNL     1     181.975 190.524 186.301  1.00  0.00     0.053 C 
BRANCH  13  14
ATOM     14  C   UNL     1     182.028 191.637 185.299  1.00  0.00     0.041 C 
ATOM     15  O   UNL     1     182.136 192.830 185.683  1.00  0.00    -0.550 OA
ATOM     16  O   UNL     1     181.993 191.351 183.941  1.00  0.00    -0.550 OA
ENDBRANCH  13  14
ENDBRANCH  12  13
ENDBRANCH  11  12
ENDBRANCH  10  11
ENDBRANCH   9  10
ENDBRANCH   8   9
ENDBRANCH   7   8
ENDBRANCH   6   7
ENDBRANCH   5   6
ENDBRANCH   4   5
ENDBRANCH   3   4
ENDBRANCH   2   3
ENDBRANCH   1   2
BRANCH   1  17
ATOM     17  C   UNL     1     181.522 187.481 189.092  1.00  0.00     0.000 C 
BRANCH  17  18
ATOM     18  C   UNL     1     180.595 187.467 187.863  1.00  0.00     0.000 C 
BRANCH  18  19
ATOM     19  C   UNL     1     180.788 186.221 186.985  1.00  0.00     0.000 C 
BRANCH  19  20
ATOM     20  C   UNL     1     181.135 186.613 185.541  1.00  0.00     0.000 C 
BRANCH  20  21
ATOM     21  C   UNL     1     180.111 187.576 184.917  1.00  0.00     0.000 C 
BRANCH  21  22
ATOM     22  C   UNL     1     180.555 188.102 183.542  1.00  0.00    -0.000 C 
BRANCH  22  23
ATOM     23  C   UNL     1     182.041 187.826 183.249  1.00  0.00    -0.000 C 
BRANCH  23  24
ATOM     24  C   UNL     1     182.314 186.986 181.984  1.00  0.00    -0.000 C 
BRANCH  24  25
ATOM     25  C   UNL     1     183.300 185.815 182.171  1.00  0.00    -0.000 C 
BRANCH  25  26
ATOM     26  C   UNL     1     182.689 184.545 182.792  1.00  0.00    -0.000 C 
BRANCH  26  27
ATOM     27  C   UNL     1     181.242 184.294 182.336  1.00  0.00    -0.000 C 
BRANCH  27  28
ATOM     28  C   UNL     1     180.382 183.660 183.449  1.00  0.00    -0.000 C 
BRANCH  28  29
ATOM     29  C   UNL     1     178.969 184.258 183.551  1.00  0.00    -0.003 C 
ATOM     30  C   UNL     1     178.623 185.185 182.388  1.00  0.00     0.004 C 
ENDBRANCH  28  29
ENDBRANCH  27  28
ENDBRANCH  26  27
ENDBRANCH  25  26
ENDBRANCH  24  25
ENDBRANCH  23  24
ENDBRANCH  22  23
ENDBRANCH  21  22
ENDBRANCH  20  21
ENDBRANCH  19  20
ENDBRANCH  18  19
ENDBRANCH  17  18
ENDBRANCH   1  17
TORSDOF 26
ENDMDL
MODEL 7
REMARK VINA RESULT:     0.025      7.676     10.546
REMARK INTER + INTRA:          -6.804
REMARK INTER:                   0.000
REMARK INTRA:                  -6.804
REMARK UNBOUND:                -6.867
REMARK SMILES CCCCCCCCCCCCCCCCCCCCCCCCCCCC(=O)[O-]
REMARK SMILES IDX 15 1 16 2 17 3 18 4 19 5 20 6 21 7 22 8 23 9 24 10 25 11
REMARK SMILES IDX 26 12 27 13 28 14 29 15 30 16 14 17 13 18 12 19 11 20 10 21
REMARK SMILES IDX 9 22 8 23 7 24 6 25 5 26 4 27 3 28 2 29 1 30
REMARK H PARENT
REMARK Flexibility Score: inf
ROOT
ATOM      1  C   UNL     1     189.958 190.198 195.342  1.00  0.00     0.000 C 
ENDROOT
BRANCH   1   2
ATOM      2  C   UNL     1     189.164 191.470 195.687  1.00  0.00     0.000 C 
BRANCH   2   3
ATOM      3  C   UNL     1     187.743 191.465 195.098  1.00  0.00     0.000 C 
BRANCH   3   4
ATOM      4  C   UNL     1     186.709 190.805 196.029  1.00  0.00     0.000 C 
BRANCH   4   5
ATOM      5  C   UNL     1     185.409 191.602 196.242  1.00  0.00     0.000 C 
BRANCH   5   6
ATOM      6  C   UNL     1     184.739 191.312 197.596  1.00  0.00     0.000 C 
BRANCH   6   7
ATOM      7  C   UNL     1     185.740 190.874 198.680  1.00  0.00     0.000 C 
BRANCH   7   8
ATOM      8  C   UNL     1     186.278 192.008 199.577  1.00  0.00     0.000 C 
BRANCH   8   9
ATOM      9  C   UNL     1     187.724 192.450 199.280  1.00  0.00     0.000 C 
BRANCH   9  10
ATOM     10  C   UNL     1     187.851 193.675 198.357  1.00  0.00     0.000 C 
BRANCH  10  11
ATOM     11  C   UNL     1     186.597 194.561 198.367  1.00  0.00     0.000 C 
BRANCH  11  12
ATOM     12  C   UNL     1     186.265 195.061 196.953  1.00  0.00     0.006 C 
BRANCH  12  13
ATOM     13  C   UNL     1     187.489 195.036 196.026  1.00  0.00     0.053 C 
BRANCH  13  14
ATOM     14  C   UNL     1     187.095 195.063 194.581  1.00  0.00     0.041 C 
ATOM     15  O   UNL     1     187.854 195.591 193.727  1.00  0.00    -0.550 OA
ATOM     16  O   UNL     1     185.905 194.474 194.174  1.00  0.00    -0.550 OA
ENDBRANCH  13  14
ENDBRANCH  12  13
ENDBRANCH  11  12
ENDBRANCH  10  11
ENDBRANCH   9  10
ENDBRANCH   8   9
ENDBRANCH   7   8
ENDBRANCH   6   7
ENDBRANCH   5   6
ENDBRANCH   4   5
ENDBRANCH   3   4
ENDBRANCH   2   3
ENDBRANCH   1   2
BRANCH   1  17
ATOM     17  C   UNL     1     190.360 189.324 196.547  1.00  0.00     0.000 C 
BRANCH  17  18
ATOM     18  C   UNL     1     189.938 189.873 197.921  1.00  0.00     0.000 C 
BRANCH  18  19
ATOM     19  C   UNL     1     188.898 188.987 198.623  1.00  0.00     0.000 C 
BRANCH  19  20
ATOM     20  C   UNL     1     188.543 187.766 197.760  1.00  0.00     0.000 C 
BRANCH  20  21
ATOM     21  C   UNL     1     187.027 187.553 197.615  1.00  0.00     0.000 C 
BRANCH  21  22
ATOM     22  C   UNL     1     186.620 187.147 196.189  1.00  0.00    -0.000 C 
BRANCH  22  23
ATOM     23  C   UNL     1     187.811 187.124 195.213  1.00  0.00    -0.000 C 
BRANCH  23  24
ATOM     24  C   UNL     1     187.432 187.142 193.718  1.00  0.00    -0.000 C 
BRANCH  24  25
ATOM     25  C   UNL     1     187.480 188.528 193.042  1.00  0.00    -0.000 C 
BRANCH  25  26
ATOM     26  C   UNL     1     186.144 189.003 192.441  1.00  0.00    -0.000 C 
BRANCH  26  27
ATOM     27  C   UNL     1     184.946 188.745 193.370  1.00  0.00    -0.000 C 
BRANCH  27  28
ATOM     28  C   UNL     1     183.928 189.904 193.343  1.00  0.00    -0.000 C 
BRANCH  28  29
ATOM     29  C   UNL     1     182.791 189.748 194.368  1.00  0.00    -0.003 C 
ATOM     30  C   UNL     1     183.095 188.713 195.449  1.00  0.00     0.004 C 
ENDBRANCH  28  29
ENDBRANCH  27  28
ENDBRANCH  26  27
ENDBRANCH  25  26
ENDBRANCH  24  25
ENDBRANCH  23  24
ENDBRANCH  22  23
ENDBRANCH  21  22
ENDBRANCH  20  21
ENDBRANCH  19  20
ENDBRANCH  18  19
ENDBRANCH  17  18
ENDBRANCH   1  17
TORSDOF 26
ENDMDL
MODEL 8
REMARK VINA RESULT:     0.044      5.111      8.032
REMARK INTER + INTRA:          -6.756
REMARK INTER:                   0.000
REMARK INTRA:                  -6.756
REMARK UNBOUND:                -6.867
REMARK SMILES CCCCCCCCCCCCCCCCCCCCCCCCCCCC(=O)[O-]
REMARK SMILES IDX 15 1 16 2 17 3 18 4 19 5 20 6 21 7 22 8 23 9 24 10 25 11
REMARK SMILES IDX 26 12 27 13 28 14 29 15 30 16 14 17 13 18 12 19 11 20 10 21
REMARK SMILES IDX 9 22 8 23 7 24 6 25 5 26 4 27 3 28 2 29 1 30
REMARK H PARENT
REMARK Flexibility Score: inf
ROOT
ATOM      1  C   UNL     1     185.018 188.684 192.429  1.00  0.00     0.000 C 
ENDROOT
BRANCH   1   2
ATOM      2  C   UNL     1     185.693 189.582 191.378  1.00  0.00     0.000 C 
BRANCH   2   3
ATOM      3  C   UNL     1     186.880 190.378 191.947  1.00  0.00     0.000 C 
BRANCH   3   4
ATOM      4  C   UNL     1     186.848 191.867 191.556  1.00  0.00     0.000 C 
BRANCH   4   5
ATOM      5  C   UNL     1     188.225 192.528 191.358  1.00  0.00     0.000 C 
BRANCH   5   6
ATOM      6  C   UNL     1     189.398 191.586 191.680  1.00  0.00     0.000 C 
BRANCH   6   7
ATOM      7  C   UNL     1     190.143 191.973 192.970  1.00  0.00     0.000 C 
BRANCH   7   8
ATOM      8  C   UNL     1     189.678 193.289 193.629  1.00  0.00     0.000 C 
BRANCH   8   9
ATOM      9  C   UNL     1     188.920 193.124 194.960  1.00  0.00     0.000 C 
BRANCH   9  10
ATOM     10  C   UNL     1     188.869 191.685 195.503  1.00  0.00     0.000 C 
BRANCH  10  11
ATOM     11  C   UNL     1     187.441 191.123 195.567  1.00  0.00     0.000 C 
BRANCH  11  12
ATOM     12  C   UNL     1     186.408 192.203 195.212  1.00  0.00     0.006 C 
BRANCH  12  13
ATOM     13  C   UNL     1     184.993 191.626 195.061  1.00  0.00     0.053 C 
BRANCH  13  14
ATOM     14  C   UNL     1     184.155 192.442 194.125  1.00  0.00     0.041 C 
ATOM     15  O   UNL     1     183.637 191.909 193.110  1.00  0.00    -0.550 OA
ATOM     16  O   UNL     1     183.918 193.784 194.395  1.00  0.00    -0.550 OA
ENDBRANCH  13  14
ENDBRANCH  12  13
ENDBRANCH  11  12
ENDBRANCH  10  11
ENDBRANCH   9  10
ENDBRANCH   8   9
ENDBRANCH   7   8
ENDBRANCH   6   7
ENDBRANCH   5   6
ENDBRANCH   4   5
ENDBRANCH   3   4
ENDBRANCH   2   3
ENDBRANCH   1   2
BRANCH   1  17
ATOM     17  C   UNL     1     185.875 188.360 193.669  1.00  0.00     0.000 C 
BRANCH  17  18
ATOM     18  C   UNL     1     185.657 186.958 194.265  1.00  0.00     0.000 C 
BRANCH  18  19
ATOM     19  C   UNL     1     186.915 186.397 194.944  1.00  0.00     0.000 C 
BRANCH  19  20
ATOM     20  C   UNL     1     187.821 187.531 195.449  1.00  0.00     0.000 C 
BRANCH  20  21
ATOM     21  C   UNL     1     189.264 187.422 194.932  1.00  0.00     0.000 C 
BRANCH  21  22
ATOM     22  C   UNL     1     189.569 188.430 193.811  1.00  0.00    -0.000 C 
BRANCH  22  23
ATOM     23  C   UNL     1     190.308 187.792 192.620  1.00  0.00    -0.000 C 
BRANCH  23  24
ATOM     24  C   UNL     1     189.589 187.917 191.261  1.00  0.00    -0.000 C 
BRANCH  24  25
ATOM     25  C   UNL     1     188.322 187.051 191.103  1.00  0.00    -0.000 C 
BRANCH  25  26
ATOM     26  C   UNL     1     188.446 185.616 191.646  1.00  0.00    -0.000 C 
BRANCH  26  27
ATOM     27  C   UNL     1     187.129 184.826 191.551  1.00  0.00    -0.000 C 
BRANCH  27  28
ATOM     28  C   UNL     1     186.046 185.593 190.764  1.00  0.00    -0.000 C 
BRANCH  28  29
ATOM     29  C   UNL     1     184.614 185.122 191.069  1.00  0.00    -0.003 C 
ATOM     30  C   UNL     1     184.542 184.130 192.228  1.00  0.00     0.004 C 
ENDBRANCH  28  29
ENDBRANCH  27  28
ENDBRANCH  26  27
ENDBRANCH  25  26
ENDBRANCH  24  25
ENDBRANCH  23  24
ENDBRANCH  22  23
ENDBRANCH  21  22
ENDBRANCH  20  21
ENDBRANCH  19  20
ENDBRANCH  18  19
ENDBRANCH  17  18
ENDBRANCH   1  17
TORSDOF 26
ENDMDL
MODEL 9
REMARK VINA RESULT:     0.046      4.659      8.237
REMARK INTER + INTRA:          -6.750
REMARK INTER:                   0.000
REMARK INTRA:                  -6.750
REMARK UNBOUND:                -6.867
REMARK SMILES CCCCCCCCCCCCCCCCCCCCCCCCCCCC(=O)[O-]
REMARK SMILES IDX 15 1 16 2 17 3 18 4 19 5 20 6 21 7 22 8 23 9 24 10 25 11
REMARK SMILES IDX 26 12 27 13 28 14 29 15 30 16 14 17 13 18 12 19 11 20 10 21
REMARK SMILES IDX 9 22 8 23 7 24 6 25 5 26 4 27 3 28 2 29 1 30
REMARK H PARENT
REMARK Flexibility Score: inf
ROOT
ATOM      1  C   UNL     1     177.991 187.058 189.993  1.00  0.00     0.000 C 
ENDROOT
BRANCH   1   2
ATOM      2  C   UNL     1     177.827 187.795 191.333  1.00  0.00     0.000 C 
BRANCH   2   3
ATOM      3  C   UNL     1     177.284 189.225 191.165  1.00  0.00     0.000 C 
BRANCH   3   4
ATOM      4  C   UNL     1     178.271 190.303 191.649  1.00  0.00     0.000 C 
BRANCH   4   5
ATOM      5  C   UNL     1     179.741 189.856 191.748  1.00  0.00     0.000 C 
BRANCH   5   6
ATOM      6  C   UNL     1     180.309 189.963 193.175  1.00  0.00     0.000 C 
BRANCH   6   7
ATOM      7  C   UNL     1     181.412 188.930 193.462  1.00  0.00     0.000 C 
BRANCH   7   8
ATOM      8  C   UNL     1     181.096 187.488 193.014  1.00  0.00     0.000 C 
BRANCH   8   9
ATOM      9  C   UNL     1     182.140 186.848 192.078  1.00  0.00     0.000 C 
BRANCH   9  10
ATOM     10  C   UNL     1     182.893 187.839 191.173  1.00  0.00     0.000 C 
BRANCH  10  11
ATOM     11  C   UNL     1     183.169 187.276 189.771  1.00  0.00     0.000 C 
BRANCH  11  12
ATOM     12  C   UNL     1     184.345 188.007 189.106  1.00  0.00     0.006 C 
BRANCH  12  13
ATOM     13  C   UNL     1     185.298 188.630 190.136  1.00  0.00     0.053 C 
BRANCH  13  14
ATOM     14  C   UNL     1     186.339 189.488 189.484  1.00  0.00     0.041 C 
ATOM     15  O   UNL     1     187.429 189.717 190.069  1.00  0.00    -0.550 OA
ATOM     16  O   UNL     1     186.118 190.006 188.214  1.00  0.00    -0.550 OA
ENDBRANCH  13  14
ENDBRANCH  12  13
ENDBRANCH  11  12
ENDBRANCH  10  11
ENDBRANCH   9  10
ENDBRANCH   8   9
ENDBRANCH   7   8
ENDBRANCH   6   7
ENDBRANCH   5   6
ENDBRANCH   4   5
ENDBRANCH   3   4
ENDBRANCH   2   3
ENDBRANCH   1   2
BRANCH   1  17
ATOM     17  C   UNL     1     179.447 186.830 189.539  1.00  0.00     0.000 C 
BRANCH  17  18
ATOM     18  C   UNL     1     179.823 187.486 188.199  1.00  0.00     0.000 C 
BRANCH  18  19
ATOM     19  C   UNL     1     178.850 188.601 187.788  1.00  0.00     0.000 C 
BRANCH  19  20
ATOM     20  C   UNL     1     179.489 189.986 187.972  1.00  0.00     0.000 C 
BRANCH  20  21
ATOM     21  C   UNL     1     181.025 189.947 187.943  1.00  0.00     0.000 C 
BRANCH  21  22
ATOM     22  C   UNL     1     181.659 190.651 189.154  1.00  0.00    -0.000 C 
BRANCH  22  23
ATOM     23  C   UNL     1     182.908 191.471 188.781  1.00  0.00    -0.000 C 
BRANCH  23  24
ATOM     24  C   UNL     1     183.672 192.080 189.974  1.00  0.00    -0.000 C 
BRANCH  24  25
ATOM     25  C   UNL     1     183.302 191.504 191.357  1.00  0.00    -0.000 C 
BRANCH  25  26
ATOM     26  C   UNL     1     182.729 192.528 192.354  1.00  0.00    -0.000 C 
BRANCH  26  27
ATOM     27  C   UNL     1     182.069 193.731 191.660  1.00  0.00    -0.000 C 
BRANCH  27  28
ATOM     28  C   UNL     1     180.567 193.497 191.393  1.00  0.00    -0.000 C 
BRANCH  28  29
ATOM     29  C   UNL     1     180.123 193.903 189.977  1.00  0.00    -0.003 C 
ATOM     30  C   UNL     1     178.804 193.260 189.554  1.00  0.00     0.004 C 
ENDBRANCH  28  29
ENDBRANCH  27  28
ENDBRANCH  26  27
ENDBRANCH  25  26
ENDBRANCH  24  25
ENDBRANCH  23  24
ENDBRANCH  22  23
ENDBRANCH  21  22
ENDBRANCH  20  21
ENDBRANCH  19  20
ENDBRANCH  18  19
ENDBRANCH  17  18
ENDBRANCH   1  17
TORSDOF 26
ENDMDL
