MODEL 1
REMARK VINA RESULT:    -5.175      0.000      0.000
REMARK INTER + INTRA:          -6.377
REMARK INTER:                  -6.083
REMARK INTRA:                  -0.295
REMARK UNBOUND:                -0.295
REMARK SMILES O=c1cc(-c2ccc(O)c(O)c2)oc2cc(O)cc(O)c12
REMARK SMILES IDX 4 1 3 2 2 3 1 4 21 5 19 6 18 7 16 8 15 9 14 10 13 11 5 12
REMARK SMILES IDX 6 13 7 14 8 15 12 16 10 17 9 18 11 20 20 22 17 24
REMARK H PARENT 9 19 11 21 20 23 17 25
REMARK Flexibility Score: inf
ROOT
ATOM      1  C   UNL     1      -6.580  -1.797 -11.325  1.00  0.00     0.138 A 
ATOM      2  C   UNL     1      -6.027  -1.110 -12.418  1.00  0.00     0.100 A 
ATOM      3  C   UNL     1      -6.358  -1.504 -13.715  1.00  0.00     0.197 A 
ATOM      4  O   UNL     1      -5.858  -0.881 -14.690  1.00  0.00    -0.289 OA
ATOM      5  C   UNL     1      -7.243  -2.584 -13.910  1.00  0.00     0.107 A 
ATOM      6  C   UNL     1      -7.630  -3.047 -15.190  1.00  0.00     0.134 A 
ATOM      7  C   UNL     1      -8.521  -4.124 -15.299  1.00  0.00     0.093 A 
ATOM      8  C   UNL     1      -9.033  -4.744 -14.156  1.00  0.00     0.123 A 
ATOM      9  C   UNL     1      -8.655  -4.290 -12.888  1.00  0.00     0.094 A 
ATOM     10  C   UNL     1      -7.766  -3.218 -12.759  1.00  0.00     0.146 A 
ATOM     11  O   UNL     1      -7.421  -2.806 -11.543  1.00  0.00    -0.456 OA
ENDROOT
BRANCH   1  12
ATOM     12  C   UNL     1      -6.265  -1.422  -9.923  1.00  0.00     0.021 A 
ATOM     13  C   UNL     1      -6.573  -2.315  -8.883  1.00  0.00     0.016 A 
ATOM     14  C   UNL     1      -6.281  -1.988  -7.556  1.00  0.00     0.051 A 
ATOM     15  C   UNL     1      -5.667  -0.768  -7.247  1.00  0.00     0.157 A 
ATOM     16  C   UNL     1      -5.636  -0.202  -9.607  1.00  0.00     0.062 A 
ATOM     17  C   UNL     1      -5.340   0.127  -8.279  1.00  0.00     0.158 A 
BRANCH  15  18
ATOM     18  O   UNL     1      -5.378  -0.445  -5.923  1.00  0.00    -0.504 OA
ATOM     19  H   UNL     1      -4.426  -0.425  -5.575  1.00  0.00     0.293 HD
ENDBRANCH  15  18
BRANCH  17  20
ATOM     20  O   UNL     1      -4.719   1.345  -8.005  1.00  0.00    -0.504 OA
ATOM     21  H   UNL     1      -4.305   1.914  -8.734  1.00  0.00     0.293 HD
ENDBRANCH  17  20
ENDBRANCH   1  12
BRANCH   6  22
ATOM     22  O   UNL     1      -7.135  -2.448 -16.350  1.00  0.00    -0.507 OA
ATOM     23  H   UNL     1      -6.161  -2.183 -16.439  1.00  0.00     0.293 HD
ENDBRANCH   6  22
BRANCH   8  24
ATOM     24  O   UNL     1      -9.917  -5.812 -14.292  1.00  0.00    -0.508 OA
ATOM     25  H   UNL     1      -9.958  -6.362 -15.143  1.00  0.00     0.293 HD
ENDBRANCH   8  24
TORSDOF 5
ENDMDL
MODEL 2
REMARK VINA RESULT:    -5.080      5.755      8.310
REMARK INTER + INTRA:          -6.266
REMARK INTER:                  -5.949
REMARK INTRA:                  -0.317
REMARK UNBOUND:                -0.295
REMARK SMILES O=c1cc(-c2ccc(O)c(O)c2)oc2cc(O)cc(O)c12
REMARK SMILES IDX 4 1 3 2 2 3 1 4 21 5 19 6 18 7 16 8 15 9 14 10 13 11 5 12
REMARK SMILES IDX 6 13 7 14 8 15 12 16 10 17 9 18 11 20 20 22 17 24
REMARK H PARENT 9 19 11 21 20 23 17 25
REMARK Flexibility Score: inf
ROOT
ATOM      1  C   UNL     1      -4.366  -4.797  -6.729  1.00  0.00     0.138 A 
ATOM      2  C   UNL     1      -3.024  -5.144  -6.504  1.00  0.00     0.100 A 
ATOM      3  C   UNL     1      -2.029  -4.177  -6.653  1.00  0.00     0.197 A 
ATOM      4  O   UNL     1      -0.828  -4.498  -6.448  1.00  0.00    -0.289 OA
ATOM      5  C   UNL     1      -2.385  -2.865  -7.026  1.00  0.00     0.107 A 
ATOM      6  C   UNL     1      -1.440  -1.826  -7.199  1.00  0.00     0.134 A 
ATOM      7  C   UNL     1      -1.876  -0.544  -7.565  1.00  0.00     0.093 A 
ATOM      8  C   UNL     1      -3.235  -0.282  -7.759  1.00  0.00     0.123 A 
ATOM      9  C   UNL     1      -4.173  -1.305  -7.589  1.00  0.00     0.094 A 
ATOM     10  C   UNL     1      -3.759  -2.590  -7.224  1.00  0.00     0.146 A 
ATOM     11  O   UNL     1      -4.669  -3.546  -7.070  1.00  0.00    -0.456 OA
ENDROOT
BRANCH   1  12
ATOM     12  C   UNL     1      -5.466  -5.783  -6.584  1.00  0.00     0.021 A 
ATOM     13  C   UNL     1      -5.194  -7.045  -6.029  1.00  0.00     0.016 A 
ATOM     14  C   UNL     1      -6.212  -7.989  -5.875  1.00  0.00     0.051 A 
ATOM     15  C   UNL     1      -7.523  -7.683  -6.263  1.00  0.00     0.157 A 
ATOM     16  C   UNL     1      -6.789  -5.478  -6.960  1.00  0.00     0.062 A 
ATOM     17  C   UNL     1      -7.812  -6.421  -6.805  1.00  0.00     0.158 A 
BRANCH  15  18
ATOM     18  O   UNL     1      -8.536  -8.628  -6.110  1.00  0.00    -0.504 OA
ATOM     19  H   UNL     1      -8.866  -8.910  -5.194  1.00  0.00     0.293 HD
ENDBRANCH  15  18
BRANCH  17  20
ATOM     20  O   UNL     1      -9.108  -6.083  -7.191  1.00  0.00    -0.504 OA
ATOM     21  H   UNL     1      -9.795  -6.784  -7.443  1.00  0.00     0.293 HD
ENDBRANCH  17  20
ENDBRANCH   1  12
BRANCH   6  22
ATOM     22  O   UNL     1      -0.076  -2.058  -7.013  1.00  0.00    -0.507 OA
ATOM     23  H   UNL     1       0.581  -1.297  -6.890  1.00  0.00     0.293 HD
ENDBRANCH   6  22
BRANCH   8  24
ATOM     24  O   UNL     1      -3.641   1.000  -8.122  1.00  0.00    -0.508 OA
ATOM     25  H   UNL     1      -3.813   1.248  -9.090  1.00  0.00     0.293 HD
ENDBRANCH   8  24
TORSDOF 5
ENDMDL
MODEL 3
REMARK VINA RESULT:    -5.080     13.085     14.984
REMARK INTER + INTRA:          -6.265
REMARK INTER:                  -5.972
REMARK INTRA:                  -0.294
REMARK UNBOUND:                -0.295
REMARK SMILES O=c1cc(-c2ccc(O)c(O)c2)oc2cc(O)cc(O)c12
REMARK SMILES IDX 4 1 3 2 2 3 1 4 21 5 19 6 18 7 16 8 15 9 14 10 13 11 5 12
REMARK SMILES IDX 6 13 7 14 8 15 12 16 10 17 9 18 11 20 20 22 17 24
REMARK H PARENT 9 19 11 21 20 23 17 25
REMARK Flexibility Score: inf
ROOT
ATOM      1  C   UNL     1       6.663   1.666 -11.416  1.00  0.00     0.138 A 
ATOM      2  C   UNL     1       6.045   0.955 -12.458  1.00  0.00     0.100 A 
ATOM      3  C   UNL     1       6.350   1.273 -13.782  1.00  0.00     0.197 A 
ATOM      4  O   UNL     1       5.791   0.629 -14.710  1.00  0.00    -0.289 OA
ATOM      5  C   UNL     1       7.274   2.301 -14.055  1.00  0.00     0.107 A 
ATOM      6  C   UNL     1       7.638   2.687 -15.367  1.00  0.00     0.134 A 
ATOM      7  C   UNL     1       8.572   3.717 -15.555  1.00  0.00     0.093 A 
ATOM      8  C   UNL     1       9.147   4.366 -14.460  1.00  0.00     0.123 A 
ATOM      9  C   UNL     1       8.792   3.989 -13.160  1.00  0.00     0.094 A 
ATOM     10  C   UNL     1       7.863   2.964 -12.952  1.00  0.00     0.146 A 
ATOM     11  O   UNL     1       7.540   2.625 -11.708  1.00  0.00    -0.456 OA
ENDROOT
BRANCH   1  12
ATOM     12  C   UNL     1       6.379   1.371  -9.989  1.00  0.00     0.021 A 
ATOM     13  C   UNL     1       6.721   2.315  -9.006  1.00  0.00     0.016 A 
ATOM     14  C   UNL     1       6.458   2.064  -7.657  1.00  0.00     0.051 A 
ATOM     15  C   UNL     1       5.840   0.869  -7.268  1.00  0.00     0.157 A 
ATOM     16  C   UNL     1       5.746   0.176  -9.592  1.00  0.00     0.062 A 
ATOM     17  C   UNL     1       5.479  -0.076  -8.242  1.00  0.00     0.158 A 
BRANCH  15  18
ATOM     18  O   UNL     1       5.580   0.622  -5.922  1.00  0.00    -0.504 OA
ATOM     19  H   UNL     1       5.645  -0.311  -5.530  1.00  0.00     0.293 HD
ENDBRANCH  15  18
BRANCH  17  20
ATOM     20  O   UNL     1       4.853  -1.271  -7.887  1.00  0.00    -0.504 OA
ATOM     21  H   UNL     1       3.863  -1.425  -8.039  1.00  0.00     0.293 HD
ENDBRANCH  17  20
ENDBRANCH   1  12
BRANCH   6  22
ATOM     22  O   UNL     1       7.080   2.058 -16.481  1.00  0.00    -0.507 OA
ATOM     23  H   UNL     1       6.211   2.377 -16.894  1.00  0.00     0.293 HD
ENDBRANCH   6  22
BRANCH   8  24
ATOM     24  O   UNL     1      10.072   5.386 -14.674  1.00  0.00    -0.508 OA
ATOM     25  H   UNL     1       9.995   6.014 -15.465  1.00  0.00     0.293 HD
ENDBRANCH   8  24
TORSDOF 5
ENDMDL
MODEL 4
REMARK VINA RESULT:    -5.018     11.168     14.412
REMARK INTER + INTRA:          -6.192
REMARK INTER:                  -5.874
REMARK INTRA:                  -0.318
REMARK UNBOUND:                -0.295
REMARK SMILES O=c1cc(-c2ccc(O)c(O)c2)oc2cc(O)cc(O)c12
REMARK SMILES IDX 4 1 3 2 2 3 1 4 21 5 19 6 18 7 16 8 15 9 14 10 13 11 5 12
REMARK SMILES IDX 6 13 7 14 8 15 12 16 10 17 9 18 11 20 20 22 17 24
REMARK H PARENT 9 19 11 21 20 23 17 25
REMARK Flexibility Score: inf
ROOT
ATOM      1  C   UNL     1       4.593   4.675  -6.650  1.00  0.00     0.138 A 
ATOM      2  C   UNL     1       3.268   4.948  -6.274  1.00  0.00     0.100 A 
ATOM      3  C   UNL     1       2.305   3.942  -6.370  1.00  0.00     0.197 A 
ATOM      4  O   UNL     1       1.119   4.195  -6.030  1.00  0.00    -0.289 OA
ATOM      5  C   UNL     1       2.678   2.666  -6.841  1.00  0.00     0.107 A 
ATOM      6  C   UNL     1       1.766   1.592  -6.970  1.00  0.00     0.134 A 
ATOM      7  C   UNL     1       2.217   0.350  -7.440  1.00  0.00     0.093 A 
ATOM      8  C   UNL     1       3.558   0.162  -7.782  1.00  0.00     0.123 A 
ATOM      9  C   UNL     1       4.465   1.220  -7.656  1.00  0.00     0.094 A 
ATOM     10  C   UNL     1       4.034   2.466  -7.190  1.00  0.00     0.146 A 
ATOM     11  O   UNL     1       4.914   3.457  -7.080  1.00  0.00    -0.456 OA
ENDROOT
BRANCH   1  12
ATOM     12  C   UNL     1       5.659   5.706  -6.567  1.00  0.00     0.021 A 
ATOM     13  C   UNL     1       5.374   6.948  -5.975  1.00  0.00     0.016 A 
ATOM     14  C   UNL     1       6.361   7.932  -5.879  1.00  0.00     0.051 A 
ATOM     15  C   UNL     1       7.652   7.688  -6.363  1.00  0.00     0.157 A 
ATOM     16  C   UNL     1       6.963   5.462  -7.040  1.00  0.00     0.062 A 
ATOM     17  C   UNL     1       7.954   6.446  -6.943  1.00  0.00     0.158 A 
BRANCH  15  18
ATOM     18  O   UNL     1       8.634   8.673  -6.266  1.00  0.00    -0.504 OA
ATOM     19  H   UNL     1       9.506   8.606  -6.778  1.00  0.00     0.293 HD
ENDBRANCH  15  18
BRANCH  17  20
ATOM     20  O   UNL     1       9.233   6.168  -7.425  1.00  0.00    -0.504 OA
ATOM     21  H   UNL     1       9.664   5.257  -7.315  1.00  0.00     0.293 HD
ENDBRANCH  17  20
ENDBRANCH   1  12
BRANCH   6  22
ATOM     22  O   UNL     1       0.420   1.749  -6.636  1.00  0.00    -0.507 OA
ATOM     23  H   UNL     1      -0.229   2.230  -7.249  1.00  0.00     0.293 HD
ENDBRANCH   6  22
BRANCH   8  24
ATOM     24  O   UNL     1       3.981  -1.082  -8.247  1.00  0.00    -0.508 OA
ATOM     25  H   UNL     1       4.846  -1.188  -8.763  1.00  0.00     0.293 HD
ENDBRANCH   8  24
TORSDOF 5
ENDMDL
MODEL 5
REMARK VINA RESULT:    -4.997      2.442      6.814
REMARK INTER + INTRA:          -6.168
REMARK INTER:                  -5.904
REMARK INTRA:                  -0.264
REMARK UNBOUND:                -0.295
REMARK SMILES O=c1cc(-c2ccc(O)c(O)c2)oc2cc(O)cc(O)c12
REMARK SMILES IDX 4 1 3 2 2 3 1 4 21 5 19 6 18 7 16 8 15 9 14 10 13 11 5 12
REMARK SMILES IDX 6 13 7 14 8 15 12 16 10 17 9 18 11 20 20 22 17 24
REMARK H PARENT 9 19 11 21 20 23 17 25
REMARK Flexibility Score: inf
ROOT
ATOM      1  C   UNL     1      -6.085  -1.025 -12.260  1.00  0.00     0.138 A 
ATOM      2  C   UNL     1      -6.387  -2.397 -12.242  1.00  0.00     0.100 A 
ATOM      3  C   UNL     1      -6.495  -3.060 -11.018  1.00  0.00     0.197 A 
ATOM      4  O   UNL     1      -6.768  -4.291 -11.011  1.00  0.00    -0.289 OA
ATOM      5  C   UNL     1      -6.303  -2.344  -9.820  1.00  0.00     0.107 A 
ATOM      6  C   UNL     1      -6.394  -2.939  -8.539  1.00  0.00     0.134 A 
ATOM      7  C   UNL     1      -6.194  -2.155  -7.393  1.00  0.00     0.093 A 
ATOM      8  C   UNL     1      -5.908  -0.792  -7.502  1.00  0.00     0.123 A 
ATOM      9  C   UNL     1      -5.817  -0.198  -8.766  1.00  0.00     0.094 A 
ATOM     10  C   UNL     1      -6.012  -0.963  -9.921  1.00  0.00     0.146 A 
ATOM     11  O   UNL     1      -5.919  -0.376 -11.110  1.00  0.00    -0.456 OA
ENDROOT
BRANCH   1  12
ATOM     12  C   UNL     1      -5.959  -0.268 -13.531  1.00  0.00     0.021 A 
ATOM     13  C   UNL     1      -4.690  -0.097 -14.111  1.00  0.00     0.016 A 
ATOM     14  C   UNL     1      -4.546   0.605 -15.309  1.00  0.00     0.051 A 
ATOM     15  C   UNL     1      -5.667   1.140 -15.955  1.00  0.00     0.157 A 
ATOM     16  C   UNL     1      -7.085   0.261 -14.193  1.00  0.00     0.062 A 
ATOM     17  C   UNL     1      -6.942   0.963 -15.395  1.00  0.00     0.158 A 
BRANCH  15  18
ATOM     18  O   UNL     1      -5.519   1.842 -17.150  1.00  0.00    -0.504 OA
ATOM     19  H   UNL     1      -5.729   2.831 -17.216  1.00  0.00     0.293 HD
ENDBRANCH  15  18
BRANCH  17  20
ATOM     20  O   UNL     1      -8.080   1.474 -16.019  1.00  0.00    -0.504 OA
ATOM     21  H   UNL     1      -8.419   2.412 -15.837  1.00  0.00     0.293 HD
ENDBRANCH  17  20
ENDBRANCH   1  12
BRANCH   6  22
ATOM     22  O   UNL     1      -6.678  -4.298  -8.398  1.00  0.00    -0.507 OA
ATOM     23  H   UNL     1      -6.274  -4.994  -9.014  1.00  0.00     0.293 HD
ENDBRANCH   6  22
BRANCH   8  24
ATOM     24  O   UNL     1      -5.715  -0.036  -6.348  1.00  0.00    -0.508 OA
ATOM     25  H   UNL     1      -6.454   0.089  -5.667  1.00  0.00     0.293 HD
ENDBRANCH   8  24
TORSDOF 5
ENDMDL
MODEL 6
REMARK VINA RESULT:    -4.997     12.669     15.195
REMARK INTER + INTRA:          -6.168
REMARK INTER:                  -5.904
REMARK INTRA:                  -0.264
REMARK UNBOUND:                -0.295
REMARK SMILES O=c1cc(-c2ccc(O)c(O)c2)oc2cc(O)cc(O)c12
REMARK SMILES IDX 4 1 3 2 2 3 1 4 21 5 19 6 18 7 16 8 15 9 14 10 13 11 5 12
REMARK SMILES IDX 6 13 7 14 8 15 12 16 10 17 9 18 11 20 20 22 17 24
REMARK H PARENT 9 19 11 21 20 23 17 25
REMARK Flexibility Score: inf
ROOT
ATOM      1  C   UNL     1       6.338   0.978 -12.369  1.00  0.00     0.138 A 
ATOM      2  C   UNL     1       6.649   2.347 -12.349  1.00  0.00     0.100 A 
ATOM      3  C   UNL     1       6.761   3.010 -11.126  1.00  0.00     0.197 A 
ATOM      4  O   UNL     1       7.042   4.238 -11.119  1.00  0.00    -0.289 OA
ATOM      5  C   UNL     1       6.562   2.294  -9.928  1.00  0.00     0.107 A 
ATOM      6  C   UNL     1       6.656   2.888  -8.646  1.00  0.00     0.134 A 
ATOM      7  C   UNL     1       6.450   2.106  -7.501  1.00  0.00     0.093 A 
ATOM      8  C   UNL     1       6.154   0.745  -7.611  1.00  0.00     0.123 A 
ATOM      9  C   UNL     1       6.061   0.152  -8.875  1.00  0.00     0.094 A 
ATOM     10  C   UNL     1       6.262   0.915 -10.029  1.00  0.00     0.146 A 
ATOM     11  O   UNL     1       6.166   0.330 -11.218  1.00  0.00    -0.456 OA
ENDROOT
BRANCH   1  12
ATOM     12  C   UNL     1       6.208   0.222 -13.639  1.00  0.00     0.021 A 
ATOM     13  C   UNL     1       4.933   0.019 -14.196  1.00  0.00     0.016 A 
ATOM     14  C   UNL     1       4.784  -0.683 -15.394  1.00  0.00     0.051 A 
ATOM     15  C   UNL     1       5.907  -1.186 -16.063  1.00  0.00     0.157 A 
ATOM     16  C   UNL     1       7.334  -0.276 -14.324  1.00  0.00     0.062 A 
ATOM     17  C   UNL     1       7.188  -0.977 -15.526  1.00  0.00     0.158 A 
BRANCH  15  18
ATOM     18  O   UNL     1       5.755  -1.887 -17.258  1.00  0.00    -0.504 OA
ATOM     19  H   UNL     1       5.153  -1.549 -18.000  1.00  0.00     0.293 HD
ENDBRANCH  15  18
BRANCH  17  20
ATOM     20  O   UNL     1       8.326  -1.456 -16.174  1.00  0.00    -0.504 OA
ATOM     21  H   UNL     1       8.463  -1.349 -17.173  1.00  0.00     0.293 HD
ENDBRANCH  17  20
ENDBRANCH   1  12
BRANCH   6  22
ATOM     22  O   UNL     1       6.950   4.246  -8.505  1.00  0.00    -0.507 OA
ATOM     23  H   UNL     1       6.476   4.825  -7.822  1.00  0.00     0.293 HD
ENDBRANCH   6  22
BRANCH   8  24
ATOM     24  O   UNL     1       5.954  -0.010  -6.457  1.00  0.00    -0.508 OA
ATOM     25  H   UNL     1       5.316  -0.797  -6.443  1.00  0.00     0.293 HD
ENDBRANCH   8  24
TORSDOF 5
ENDMDL
MODEL 7
REMARK VINA RESULT:    -4.938      6.191      8.364
REMARK INTER + INTRA:          -6.099
REMARK INTER:                  -5.824
REMARK INTRA:                  -0.275
REMARK UNBOUND:                -0.295
REMARK SMILES O=c1cc(-c2ccc(O)c(O)c2)oc2cc(O)cc(O)c12
REMARK SMILES IDX 4 1 3 2 2 3 1 4 21 5 19 6 18 7 16 8 15 9 14 10 13 11 5 12
REMARK SMILES IDX 6 13 7 14 8 15 12 16 10 17 9 18 11 20 20 22 17 24
REMARK H PARENT 9 19 11 21 20 23 17 25
REMARK Flexibility Score: inf
ROOT
ATOM      1  C   UNL     1      -4.448  -4.472  -6.765  1.00  0.00     0.138 A 
ATOM      2  C   UNL     1      -4.701  -3.158  -6.339  1.00  0.00     0.100 A 
ATOM      3  C   UNL     1      -3.716  -2.182  -6.499  1.00  0.00     0.197 A 
ATOM      4  O   UNL     1      -3.953  -1.005  -6.115  1.00  0.00    -0.289 OA
ATOM      5  C   UNL     1      -2.483  -2.529  -7.087  1.00  0.00     0.107 A 
ATOM      6  C   UNL     1      -1.432  -1.602  -7.285  1.00  0.00     0.134 A 
ATOM      7  C   UNL     1      -0.236  -2.026  -7.884  1.00  0.00     0.093 A 
ATOM      8  C   UNL     1      -0.072  -3.353  -8.288  1.00  0.00     0.123 A 
ATOM      9  C   UNL     1      -1.108  -4.273  -8.096  1.00  0.00     0.094 A 
ATOM     10  C   UNL     1      -2.308  -3.871  -7.500  1.00  0.00     0.146 A 
ATOM     11  O   UNL     1      -3.277  -4.764  -7.326  1.00  0.00    -0.456 OA
ENDROOT
BRANCH   1  12
ATOM     12  C   UNL     1      -5.459  -5.550  -6.622  1.00  0.00     0.021 A 
ATOM     13  C   UNL     1      -5.086  -6.774  -6.042  1.00  0.00     0.016 A 
ATOM     14  C   UNL     1      -6.020  -7.802  -5.889  1.00  0.00     0.051 A 
ATOM     15  C   UNL     1      -7.344  -7.621  -6.304  1.00  0.00     0.157 A 
ATOM     16  C   UNL     1      -6.797  -5.370  -7.026  1.00  0.00     0.062 A 
ATOM     17  C   UNL     1      -7.734  -6.398  -6.872  1.00  0.00     0.158 A 
BRANCH  15  18
ATOM     18  O   UNL     1      -8.273  -8.650  -6.152  1.00  0.00    -0.504 OA
ATOM     19  H   UNL     1      -8.049  -9.498  -5.645  1.00  0.00     0.293 HD
ENDBRANCH  15  18
BRANCH  17  20
ATOM     20  O   UNL     1      -9.048  -6.182  -7.286  1.00  0.00    -0.504 OA
ATOM     21  H   UNL     1      -9.602  -5.407  -6.939  1.00  0.00     0.293 HD
ENDBRANCH  17  20
ENDBRANCH   1  12
BRANCH   6  22
ATOM     22  O   UNL     1      -1.566  -0.270  -6.892  1.00  0.00    -0.507 OA
ATOM     23  H   UNL     1      -0.778   0.265  -6.544  1.00  0.00     0.293 HD
ENDBRANCH   6  22
BRANCH   8  24
ATOM     24  O   UNL     1       1.125  -3.747  -8.881  1.00  0.00    -0.508 OA
ATOM     25  H   UNL     1       1.147  -4.435  -9.625  1.00  0.00     0.293 HD
ENDBRANCH   8  24
TORSDOF 5
ENDMDL
MODEL 8
REMARK VINA RESULT:    -4.883     12.876     14.023
REMARK INTER + INTRA:          -6.034
REMARK INTER:                  -5.716
REMARK INTRA:                  -0.318
REMARK UNBOUND:                -0.295
REMARK SMILES O=c1cc(-c2ccc(O)c(O)c2)oc2cc(O)cc(O)c12
REMARK SMILES IDX 4 1 3 2 2 3 1 4 21 5 19 6 18 7 16 8 15 9 14 10 13 11 5 12
REMARK SMILES IDX 6 13 7 14 8 15 12 16 10 17 9 18 11 20 20 22 17 24
REMARK H PARENT 9 19 11 21 20 23 17 25
REMARK Flexibility Score: inf
ROOT
ATOM      1  C   UNL     1       6.674   1.559 -11.444  1.00  0.00     0.138 A 
ATOM      2  C   UNL     1       7.365   2.685 -11.922  1.00  0.00     0.100 A 
ATOM      3  C   UNL     1       7.579   2.829 -13.293  1.00  0.00     0.197 A 
ATOM      4  O   UNL     1       8.198   3.843 -13.713  1.00  0.00    -0.289 OA
ATOM      5  C   UNL     1       7.097   1.843 -14.179  1.00  0.00     0.107 A 
ATOM      6  C   UNL     1       7.272   1.911 -15.582  1.00  0.00     0.134 A 
ATOM      7  C   UNL     1       6.756   0.892 -16.396  1.00  0.00     0.093 A 
ATOM      8  C   UNL     1       6.071  -0.190 -15.837  1.00  0.00     0.123 A 
ATOM      9  C   UNL     1       5.895  -0.262 -14.451  1.00  0.00     0.094 A 
ATOM     10  C   UNL     1       6.402   0.744 -13.622  1.00  0.00     0.146 A 
ATOM     11  O   UNL     1       6.224   0.652 -12.308  1.00  0.00    -0.456 OA
ENDROOT
BRANCH   1  12
ATOM     12  C   UNL     1       6.416   1.355  -9.996  1.00  0.00     0.021 A 
ATOM     13  C   UNL     1       6.781   2.357  -9.081  1.00  0.00     0.016 A 
ATOM     14  C   UNL     1       6.543   2.192  -7.714  1.00  0.00     0.051 A 
ATOM     15  C   UNL     1       5.926   1.028  -7.239  1.00  0.00     0.157 A 
ATOM     16  C   UNL     1       5.785   0.192  -9.513  1.00  0.00     0.062 A 
ATOM     17  C   UNL     1       5.543   0.026  -8.144  1.00  0.00     0.158 A 
BRANCH  15  18
ATOM     18  O   UNL     1       5.692   0.866  -5.875  1.00  0.00    -0.504 OA
ATOM     19  H   UNL     1       5.723  -0.046  -5.434  1.00  0.00     0.293 HD
ENDBRANCH  15  18
BRANCH  17  20
ATOM     20  O   UNL     1       4.918  -1.141  -7.705  1.00  0.00    -0.504 OA
ATOM     21  H   UNL     1       3.910  -1.248  -7.714  1.00  0.00     0.293 HD
ENDBRANCH  17  20
ENDBRANCH   1  12
BRANCH   6  22
ATOM     22  O   UNL     1       7.952   2.979 -16.170  1.00  0.00    -0.507 OA
ATOM     23  H   UNL     1       7.459   3.739 -16.624  1.00  0.00     0.293 HD
ENDBRANCH   6  22
BRANCH   8  24
ATOM     24  O   UNL     1       5.569  -1.188 -16.668  1.00  0.00    -0.508 OA
ATOM     25  H   UNL     1       5.960  -2.123 -16.669  1.00  0.00     0.293 HD
ENDBRANCH   8  24
TORSDOF 5
ENDMDL
MODEL 9
REMARK VINA RESULT:    -4.877      6.074      8.519
REMARK INTER + INTRA:          -6.027
REMARK INTER:                  -5.737
REMARK INTRA:                  -0.291
REMARK UNBOUND:                -0.295
REMARK SMILES O=c1cc(-c2ccc(O)c(O)c2)oc2cc(O)cc(O)c12
REMARK SMILES IDX 4 1 3 2 2 3 1 4 21 5 19 6 18 7 16 8 15 9 14 10 13 11 5 12
REMARK SMILES IDX 6 13 7 14 8 15 12 16 10 17 9 18 11 20 20 22 17 24
REMARK H PARENT 9 19 11 21 20 23 17 25
REMARK Flexibility Score: inf
ROOT
ATOM      1  C   UNL     1       0.072  -0.100  -8.155  1.00  0.00     0.138 A 
ATOM      2  C   UNL     1      -0.159  -0.330  -9.521  1.00  0.00     0.100 A 
ATOM      3  C   UNL     1      -1.469  -0.457  -9.985  1.00  0.00     0.197 A 
ATOM      4  O   UNL     1      -1.666  -0.663 -11.213  1.00  0.00    -0.289 OA
ATOM      5  C   UNL     1      -2.542  -0.351  -9.077  1.00  0.00     0.107 A 
ATOM      6  C   UNL     1      -3.898  -0.468  -9.463  1.00  0.00     0.134 A 
ATOM      7  C   UNL     1      -4.909  -0.343  -8.498  1.00  0.00     0.093 A 
ATOM      8  C   UNL     1      -4.590  -0.103  -7.160  1.00  0.00     0.123 A 
ATOM      9  C   UNL     1      -3.251   0.015  -6.772  1.00  0.00     0.094 A 
ATOM     10  C   UNL     1      -2.229  -0.107  -7.718  1.00  0.00     0.146 A 
ATOM     11  O   UNL     1      -0.965   0.006  -7.325  1.00  0.00    -0.456 OA
ENDROOT
BRANCH   1  12
ATOM     12  C   UNL     1       1.443   0.046  -7.605  1.00  0.00     0.021 A 
ATOM     13  C   UNL     1       1.638   0.770  -6.417  1.00  0.00     0.016 A 
ATOM     14  C   UNL     1       2.918   0.915  -5.875  1.00  0.00     0.051 A 
ATOM     15  C   UNL     1       4.023   0.331  -6.506  1.00  0.00     0.157 A 
ATOM     16  C   UNL     1       2.558  -0.550  -8.228  1.00  0.00     0.062 A 
ATOM     17  C   UNL     1       3.840  -0.408  -7.686  1.00  0.00     0.158 A 
BRANCH  15  18
ATOM     18  O   UNL     1       5.298   0.480  -5.964  1.00  0.00    -0.504 OA
ATOM     19  H   UNL     1       5.511   0.188  -5.017  1.00  0.00     0.293 HD
ENDBRANCH  15  18
BRANCH  17  20
ATOM     20  O   UNL     1       4.918  -1.011  -8.332  1.00  0.00    -0.504 OA
ATOM     21  H   UNL     1       5.863  -0.958  -7.968  1.00  0.00     0.293 HD
ENDBRANCH  17  20
ENDBRANCH   1  12
BRANCH   6  22
ATOM     22  O   UNL     1      -4.247  -0.708 -10.793  1.00  0.00    -0.507 OA
ATOM     23  H   UNL     1      -5.149  -0.434 -11.165  1.00  0.00     0.293 HD
ENDBRANCH   6  22
BRANCH   8  24
ATOM     24  O   UNL     1      -5.613   0.018  -6.221  1.00  0.00    -0.508 OA
ATOM     25  H   UNL     1      -5.571  -0.459  -5.328  1.00  0.00     0.293 HD
ENDBRANCH   8  24
TORSDOF 5
ENDMDL
