MODEL 1
REMARK VINA RESULT:    -3.125      0.000      0.000
REMARK INTER + INTRA:          -7.591
REMARK INTER:                  -5.683
REMARK INTRA:                  -1.908
REMARK UNBOUND:                -1.908
REMARK SMILES CCCCCCCCCCCCCCCC(=O)[O-]
REMARK SMILES IDX 9 1 10 2 11 3 12 4 13 5 14 6 15 7 16 8 17 9 18 10 8 11 7 12
REMARK SMILES IDX 6 13 5 14 4 15 3 16 2 17 1 18
REMARK H PARENT
REMARK Flexibility Score: inf
ROOT
ATOM      1  C   UNL     1      -6.666   9.363   7.132  1.00  0.00     0.000 C 
ENDROOT
BRANCH   1   2
ATOM      2  C   UNL     1      -5.900  10.015   8.293  1.00  0.00     0.000 C 
BRANCH   2   3
ATOM      3  C   UNL     1      -4.832   9.064   8.848  1.00  0.00     0.000 C 
BRANCH   3   4
ATOM      4  C   UNL     1      -5.222   7.598   8.608  1.00  0.00     0.000 C 
BRANCH   4   5
ATOM      5  C   UNL     1      -4.952   6.706   9.830  1.00  0.00     0.000 C 
BRANCH   5   6
ATOM      6  C   UNL     1      -6.026   5.621  10.021  1.00  0.00     0.006 C 
BRANCH   6   7
ATOM      7  C   UNL     1      -7.012   5.570   8.847  1.00  0.00     0.053 C 
BRANCH   7   8
ATOM      8  C   UNL     1      -8.072   4.532   9.056  1.00  0.00     0.041 C 
ATOM      9  O   UNL     1      -9.275   4.792   8.788  1.00  0.00    -0.550 OA
ATOM     10  O   UNL     1      -7.737   3.291   9.583  1.00  0.00    -0.550 OA
ENDBRANCH   7   8
ENDBRANCH   6   7
ENDBRANCH   5   6
ENDBRANCH   4   5
ENDBRANCH   3   4
ENDBRANCH   2   3
ENDBRANCH   1   2
BRANCH   1  11
ATOM     11  C   UNL     1      -8.177   9.642   7.191  1.00  0.00     0.000 C 
BRANCH  11  12
ATOM     12  C   UNL     1      -8.965   8.490   7.839  1.00  0.00    -0.000 C 
BRANCH  12  13
ATOM     13  C   UNL     1      -9.823   7.718   6.825  1.00  0.00    -0.000 C 
BRANCH  13  14
ATOM     14  C   UNL     1      -8.984   6.824   5.899  1.00  0.00    -0.000 C 
BRANCH  14  15
ATOM     15  C   UNL     1      -9.537   6.841   4.469  1.00  0.00    -0.000 C 
BRANCH  15  16
ATOM     16  C   UNL     1      -9.459   8.247   3.863  1.00  0.00    -0.000 C 
BRANCH  16  17
ATOM     17  C   UNL     1      -8.290   8.356   2.879  1.00  0.00    -0.003 C 
ATOM     18  C   UNL     1      -7.146   9.173   3.470  1.00  0.00     0.004 C 
ENDBRANCH  16  17
ENDBRANCH  15  16
ENDBRANCH  14  15
ENDBRANCH  13  14
ENDBRANCH  12  13
ENDBRANCH  11  12
ENDBRANCH   1  11
TORSDOF 14
ENDMDL
MODEL 2
REMARK VINA RESULT:    -2.891      1.154      4.734
REMARK INTER + INTRA:          -7.164
REMARK INTER:                  -5.234
REMARK INTRA:                  -1.931
REMARK UNBOUND:                -1.908
REMARK SMILES CCCCCCCCCCCCCCCC(=O)[O-]
REMARK SMILES IDX 9 1 10 2 11 3 12 4 13 5 14 6 15 7 16 8 17 9 18 10 8 11 7 12
REMARK SMILES IDX 6 13 5 14 4 15 3 16 2 17 1 18
REMARK H PARENT
REMARK Flexibility Score: inf
ROOT
ATOM      1  C   UNL     1      -7.285   9.098   3.352  1.00  0.00     0.000 C 
ENDROOT
BRANCH   1   2
ATOM      2  C   UNL     1      -7.706   7.639   3.580  1.00  0.00     0.000 C 
BRANCH   2   3
ATOM      3  C   UNL     1      -9.085   7.563   4.248  1.00  0.00     0.000 C 
BRANCH   3   4
ATOM      4  C   UNL     1      -9.010   6.803   5.580  1.00  0.00     0.000 C 
BRANCH   4   5
ATOM      5  C   UNL     1     -10.002   7.340   6.624  1.00  0.00     0.000 C 
BRANCH   5   6
ATOM      6  C   UNL     1      -9.791   6.719   8.016  1.00  0.00     0.006 C 
BRANCH   6   7
ATOM      7  C   UNL     1      -9.149   5.328   7.939  1.00  0.00     0.053 C 
BRANCH   7   8
ATOM      8  C   UNL     1      -8.254   5.063   9.111  1.00  0.00     0.041 C 
ATOM      9  O   UNL     1      -7.830   3.899   9.334  1.00  0.00    -0.550 OA
ATOM     10  O   UNL     1      -7.918   6.095   9.979  1.00  0.00    -0.550 OA
ENDBRANCH   7   8
ENDBRANCH   6   7
ENDBRANCH   5   6
ENDBRANCH   4   5
ENDBRANCH   3   4
ENDBRANCH   2   3
ENDBRANCH   1   2
BRANCH   1  11
ATOM     11  C   UNL     1      -7.818  10.044   4.441  1.00  0.00     0.000 C 
BRANCH  11  12
ATOM     12  C   UNL     1      -6.995   9.972   5.740  1.00  0.00    -0.000 C 
BRANCH  12  13
ATOM     13  C   UNL     1      -7.865  10.125   6.998  1.00  0.00    -0.000 C 
BRANCH  13  14
ATOM     14  C   UNL     1      -7.215   9.509   8.246  1.00  0.00    -0.000 C 
BRANCH  14  15
ATOM     15  C   UNL     1      -6.260   8.372   7.864  1.00  0.00    -0.000 C 
BRANCH  15  16
ATOM     16  C   UNL     1      -4.909   8.526   8.572  1.00  0.00    -0.000 C 
BRANCH  16  17
ATOM     17  C   UNL     1      -4.749   7.483   9.684  1.00  0.00    -0.003 C 
ATOM     18  C   UNL     1      -4.492   6.095   9.105  1.00  0.00     0.004 C 
ENDBRANCH  16  17
ENDBRANCH  15  16
ENDBRANCH  14  15
ENDBRANCH  13  14
ENDBRANCH  12  13
ENDBRANCH  11  12
ENDBRANCH   1  11
TORSDOF 14
ENDMDL
MODEL 3
REMARK VINA RESULT:    -2.806      2.689      4.204
REMARK INTER + INTRA:          -7.011
REMARK INTER:                  -5.855
REMARK INTRA:                  -1.156
REMARK UNBOUND:                -1.908
REMARK SMILES CCCCCCCCCCCCCCCC(=O)[O-]
REMARK SMILES IDX 9 1 10 2 11 3 12 4 13 5 14 6 15 7 16 8 17 9 18 10 8 11 7 12
REMARK SMILES IDX 6 13 5 14 4 15 3 16 2 17 1 18
REMARK H PARENT
REMARK Flexibility Score: inf
ROOT
ATOM      1  C   UNL     1      -8.679   6.070   6.420  1.00  0.00     0.000 C 
ENDROOT
BRANCH   1   2
ATOM      2  C   UNL     1      -9.678   5.635   7.503  1.00  0.00     0.000 C 
BRANCH   2   3
ATOM      3  C   UNL     1      -8.961   4.931   8.662  1.00  0.00     0.000 C 
BRANCH   3   4
ATOM      4  C   UNL     1      -7.455   5.233   8.641  1.00  0.00     0.000 C 
BRANCH   4   5
ATOM      5  C   UNL     1      -6.979   5.953   9.913  1.00  0.00     0.000 C 
BRANCH   5   6
ATOM      6  C   UNL     1      -7.073   7.484   9.798  1.00  0.00     0.006 C 
BRANCH   6   7
ATOM      7  C   UNL     1      -6.406   8.011   8.521  1.00  0.00     0.053 C 
BRANCH   7   8
ATOM      8  C   UNL     1      -5.042   8.567   8.796  1.00  0.00     0.041 C 
ATOM      9  O   UNL     1      -4.426   8.245   9.846  1.00  0.00    -0.550 OA
ATOM     10  O   UNL     1      -4.466   9.469   7.911  1.00  0.00    -0.550 OA
ENDBRANCH   7   8
ENDBRANCH   6   7
ENDBRANCH   5   6
ENDBRANCH   4   5
ENDBRANCH   3   4
ENDBRANCH   2   3
ENDBRANCH   1   2
BRANCH   1  11
ATOM     11  C   UNL     1      -9.364   6.748   5.222  1.00  0.00     0.000 C 
BRANCH  11  12
ATOM     12  C   UNL     1      -9.584   8.255   5.443  1.00  0.00    -0.000 C 
BRANCH  12  13
ATOM     13  C   UNL     1      -9.693   9.034   4.124  1.00  0.00    -0.000 C 
BRANCH  13  14
ATOM     14  C   UNL     1      -9.105   8.266   2.931  1.00  0.00    -0.000 C 
BRANCH  14  15
ATOM     15  C   UNL     1      -7.871   8.981   2.370  1.00  0.00    -0.000 C 
BRANCH  15  16
ATOM     16  C   UNL     1      -8.257   9.943   1.241  1.00  0.00    -0.000 C 
BRANCH  16  17
ATOM     17  C   UNL     1      -9.437   9.394   0.431  1.00  0.00    -0.003 C 
ATOM     18  C   UNL     1      -9.004   9.006  -0.980  1.00  0.00     0.004 C 
ENDBRANCH  16  17
ENDBRANCH  15  16
ENDBRANCH  14  15
ENDBRANCH  13  14
ENDBRANCH  12  13
ENDBRANCH  11  12
ENDBRANCH   1  11
TORSDOF 14
ENDMDL
MODEL 4
REMARK VINA RESULT:    -2.788      3.922      7.266
REMARK INTER + INTRA:          -6.978
REMARK INTER:                  -5.719
REMARK INTRA:                  -1.259
REMARK UNBOUND:                -1.908
REMARK SMILES CCCCCCCCCCCCCCCC(=O)[O-]
REMARK SMILES IDX 9 1 10 2 11 3 12 4 13 5 14 6 15 7 16 8 17 9 18 10 8 11 7 12
REMARK SMILES IDX 6 13 5 14 4 15 3 16 2 17 1 18
REMARK H PARENT
REMARK Flexibility Score: inf
ROOT
ATOM      1  C   UNL     1      -9.269   7.084   6.193  1.00  0.00     0.000 C 
ENDROOT
BRANCH   1   2
ATOM      2  C   UNL     1      -9.022   7.161   4.679  1.00  0.00     0.000 C 
BRANCH   2   3
ATOM      3  C   UNL     1      -8.374   8.498   4.295  1.00  0.00     0.000 C 
BRANCH   3   4
ATOM      4  C   UNL     1      -7.553   8.360   3.005  1.00  0.00     0.000 C 
BRANCH   4   5
ATOM      5  C   UNL     1      -7.963   9.379   1.930  1.00  0.00     0.000 C 
BRANCH   5   6
ATOM      6  C   UNL     1      -9.487   9.440   1.724  1.00  0.00     0.006 C 
BRANCH   6   7
ATOM      7  C   UNL     1     -10.014   8.233   0.938  1.00  0.00     0.053 C 
BRANCH   7   8
ATOM      8  C   UNL     1      -9.941   8.458  -0.542  1.00  0.00     0.041 C 
ATOM      9  O   UNL     1     -10.010   9.625  -1.009  1.00  0.00    -0.550 OA
ATOM     10  O   UNL     1      -9.833   7.376  -1.407  1.00  0.00    -0.550 OA
ENDBRANCH   7   8
ENDBRANCH   6   7
ENDBRANCH   5   6
ENDBRANCH   4   5
ENDBRANCH   3   4
ENDBRANCH   2   3
ENDBRANCH   1   2
BRANCH   1  11
ATOM     11  C   UNL     1      -9.024   5.676   6.761  1.00  0.00     0.000 C 
BRANCH  11  12
ATOM     12  C   UNL     1      -9.647   5.484   8.155  1.00  0.00    -0.000 C 
BRANCH  12  13
ATOM     13  C   UNL     1      -8.640   5.729   9.289  1.00  0.00    -0.000 C 
BRANCH  13  14
ATOM     14  C   UNL     1      -7.376   4.868   9.154  1.00  0.00    -0.000 C 
BRANCH  14  15
ATOM     15  C   UNL     1      -6.178   5.541   9.835  1.00  0.00    -0.000 C 
BRANCH  15  16
ATOM     16  C   UNL     1      -5.340   6.331   8.824  1.00  0.00    -0.000 C 
BRANCH  16  17
ATOM     17  C   UNL     1      -5.465   7.839   9.067  1.00  0.00    -0.003 C 
ATOM     18  C   UNL     1      -6.382   8.490   8.036  1.00  0.00     0.004 C 
ENDBRANCH  16  17
ENDBRANCH  15  16
ENDBRANCH  14  15
ENDBRANCH  13  14
ENDBRANCH  12  13
ENDBRANCH  11  12
ENDBRANCH   1  11
TORSDOF 14
ENDMDL
MODEL 5
REMARK VINA RESULT:    -2.720      3.739      7.356
REMARK INTER + INTRA:          -6.854
REMARK INTER:                  -5.283
REMARK INTRA:                  -1.570
REMARK UNBOUND:                -1.908
REMARK SMILES CCCCCCCCCCCCCCCC(=O)[O-]
REMARK SMILES IDX 9 1 10 2 11 3 12 4 13 5 14 6 15 7 16 8 17 9 18 10 8 11 7 12
REMARK SMILES IDX 6 13 5 14 4 15 3 16 2 17 1 18
REMARK H PARENT
REMARK Flexibility Score: inf
ROOT
ATOM      1  C   UNL     1      -8.297   7.354   5.989  1.00  0.00     0.000 C 
ENDROOT
BRANCH   1   2
ATOM      2  C   UNL     1      -9.607   7.260   5.192  1.00  0.00     0.000 C 
BRANCH   2   3
ATOM      3  C   UNL     1      -9.401   7.717   3.741  1.00  0.00     0.000 C 
BRANCH   3   4
ATOM      4  C   UNL     1      -7.907   7.791   3.395  1.00  0.00     0.000 C 
BRANCH   4   5
ATOM      5  C   UNL     1      -7.542   9.066   2.618  1.00  0.00     0.000 C 
BRANCH   5   6
ATOM      6  C   UNL     1      -8.707   9.591   1.761  1.00  0.00     0.006 C 
BRANCH   6   7
ATOM      7  C   UNL     1      -8.368   9.594   0.264  1.00  0.00     0.053 C 
BRANCH   7   8
ATOM      8  C   UNL     1      -9.343   8.776  -0.528  1.00  0.00     0.041 C 
ATOM      9  O   UNL     1     -10.064   7.918   0.047  1.00  0.00    -0.550 OA
ATOM     10  O   UNL     1      -9.428   8.935  -1.905  1.00  0.00    -0.550 OA
ENDBRANCH   7   8
ENDBRANCH   6   7
ENDBRANCH   5   6
ENDBRANCH   4   5
ENDBRANCH   3   4
ENDBRANCH   2   3
ENDBRANCH   1   2
BRANCH   1  11
ATOM     11  C   UNL     1      -8.239   8.604   6.883  1.00  0.00     0.000 C 
BRANCH  11  12
ATOM     12  C   UNL     1      -6.942   9.409   6.690  1.00  0.00    -0.000 C 
BRANCH  12  13
ATOM     13  C   UNL     1      -6.410   9.996   8.007  1.00  0.00    -0.000 C 
BRANCH  13  14
ATOM     14  C   UNL     1      -5.149   9.278   8.508  1.00  0.00    -0.000 C 
BRANCH  14  15
ATOM     15  C   UNL     1      -5.511   8.115   9.439  1.00  0.00    -0.000 C 
BRANCH  15  16
ATOM     16  C   UNL     1      -5.072   6.773   8.842  1.00  0.00    -0.000 C 
BRANCH  16  17
ATOM     17  C   UNL     1      -6.078   5.667   9.177  1.00  0.00    -0.003 C 
ATOM     18  C   UNL     1      -7.427   6.253   9.583  1.00  0.00     0.004 C 
ENDBRANCH  16  17
ENDBRANCH  15  16
ENDBRANCH  14  15
ENDBRANCH  13  14
ENDBRANCH  12  13
ENDBRANCH  11  12
ENDBRANCH   1  11
TORSDOF 14
ENDMDL
MODEL 6
REMARK VINA RESULT:    -2.505      2.191      3.892
REMARK INTER + INTRA:          -6.463
REMARK INTER:                  -4.851
REMARK INTRA:                  -1.612
REMARK UNBOUND:                -1.908
REMARK SMILES CCCCCCCCCCCCCCCC(=O)[O-]
REMARK SMILES IDX 9 1 10 2 11 3 12 4 13 5 14 6 15 7 16 8 17 9 18 10 8 11 7 12
REMARK SMILES IDX 6 13 5 14 4 15 3 16 2 17 1 18
REMARK H PARENT
REMARK Flexibility Score: inf
ROOT
ATOM      1  C   UNL     1      -6.608  10.123   4.436  1.00  0.00     0.000 C 
ENDROOT
BRANCH   1   2
ATOM      2  C   UNL     1      -7.496  10.027   5.686  1.00  0.00     0.000 C 
BRANCH   2   3
ATOM      3  C   UNL     1      -6.649  10.041   6.965  1.00  0.00     0.000 C 
BRANCH   3   4
ATOM      4  C   UNL     1      -7.532   9.883   8.211  1.00  0.00     0.000 C 
BRANCH   4   5
ATOM      5  C   UNL     1      -6.727   9.494   9.461  1.00  0.00     0.000 C 
BRANCH   5   6
ATOM      6  C   UNL     1      -6.937   8.026   9.869  1.00  0.00     0.006 C 
BRANCH   6   7
ATOM      7  C   UNL     1      -6.362   7.050   8.835  1.00  0.00     0.053 C 
BRANCH   7   8
ATOM      8  C   UNL     1      -4.864   7.060   8.834  1.00  0.00     0.041 C 
ATOM      9  O   UNL     1      -4.237   8.026   8.327  1.00  0.00    -0.550 OA
ATOM     10  O   UNL     1      -4.160   5.984   9.361  1.00  0.00    -0.550 OA
ENDBRANCH   7   8
ENDBRANCH   6   7
ENDBRANCH   5   6
ENDBRANCH   4   5
ENDBRANCH   3   4
ENDBRANCH   2   3
ENDBRANCH   1   2
BRANCH   1  11
ATOM     11  C   UNL     1      -7.186   9.348   3.240  1.00  0.00     0.000 C 
BRANCH  11  12
ATOM     12  C   UNL     1      -8.722   9.262   3.280  1.00  0.00    -0.000 C 
BRANCH  12  13
ATOM     13  C   UNL     1      -9.239   7.837   3.027  1.00  0.00    -0.000 C 
BRANCH  13  14
ATOM     14  C   UNL     1     -10.038   7.278   4.214  1.00  0.00    -0.000 C 
BRANCH  14  15
ATOM     15  C   UNL     1      -9.115   6.577   5.217  1.00  0.00    -0.000 C 
BRANCH  15  16
ATOM     16  C   UNL     1      -9.374   7.073   6.644  1.00  0.00    -0.000 C 
BRANCH  16  17
ATOM     17  C   UNL     1      -9.712   5.907   7.579  1.00  0.00    -0.003 C 
ATOM     18  C   UNL     1     -10.123   6.409   8.960  1.00  0.00     0.004 C 
ENDBRANCH  16  17
ENDBRANCH  15  16
ENDBRANCH  14  15
ENDBRANCH  13  14
ENDBRANCH  12  13
ENDBRANCH  11  12
ENDBRANCH   1  11
TORSDOF 14
ENDMDL
MODEL 7
REMARK VINA RESULT:    -2.470      2.326      3.546
REMARK INTER + INTRA:          -6.399
REMARK INTER:                  -5.227
REMARK INTRA:                  -1.172
REMARK UNBOUND:                -1.908
REMARK SMILES CCCCCCCCCCCCCCCC(=O)[O-]
REMARK SMILES IDX 9 1 10 2 11 3 12 4 13 5 14 6 15 7 16 8 17 9 18 10 8 11 7 12
REMARK SMILES IDX 6 13 5 14 4 15 3 16 2 17 1 18
REMARK H PARENT
REMARK Flexibility Score: inf
ROOT
ATOM      1  C   UNL     1      -8.082   9.780   5.900  1.00  0.00     0.000 C 
ENDROOT
BRANCH   1   2
ATOM      2  C   UNL     1      -7.664   9.802   7.379  1.00  0.00     0.000 C 
BRANCH   2   3
ATOM      3  C   UNL     1      -6.360   9.022   7.592  1.00  0.00     0.000 C 
BRANCH   3   4
ATOM      4  C   UNL     1      -6.235   8.548   9.048  1.00  0.00     0.000 C 
BRANCH   4   5
ATOM      5  C   UNL     1      -7.285   7.488   9.417  1.00  0.00     0.000 C 
BRANCH   5   6
ATOM      6  C   UNL     1      -6.871   6.069   8.989  1.00  0.00     0.006 C 
BRANCH   6   7
ATOM      7  C   UNL     1      -8.038   5.286   8.375  1.00  0.00     0.053 C 
BRANCH   7   8
ATOM      8  C   UNL     1      -8.637   6.007   7.206  1.00  0.00     0.041 C 
ATOM      9  O   UNL     1      -8.015   6.071   6.114  1.00  0.00    -0.550 OA
ATOM     10  O   UNL     1      -9.867   6.641   7.335  1.00  0.00    -0.550 OA
ENDBRANCH   7   8
ENDBRANCH   6   7
ENDBRANCH   5   6
ENDBRANCH   4   5
ENDBRANCH   3   4
ENDBRANCH   2   3
ENDBRANCH   1   2
BRANCH   1  11
ATOM     11  C   UNL     1      -6.877   9.776   4.946  1.00  0.00     0.000 C 
BRANCH  11  12
ATOM     12  C   UNL     1      -7.272  10.106   3.495  1.00  0.00    -0.000 C 
BRANCH  12  13
ATOM     13  C   UNL     1      -7.467   8.846   2.637  1.00  0.00    -0.000 C 
BRANCH  13  14
ATOM     14  C   UNL     1      -8.931   8.633   2.223  1.00  0.00    -0.000 C 
BRANCH  14  15
ATOM     15  C   UNL     1      -9.373   9.688   1.202  1.00  0.00    -0.000 C 
BRANCH  15  16
ATOM     16  C   UNL     1      -8.499   9.639  -0.056  1.00  0.00    -0.000 C 
BRANCH  16  17
ATOM     17  C   UNL     1      -9.124   8.735  -1.124  1.00  0.00    -0.003 C 
ATOM     18  C   UNL     1      -9.453   9.523  -2.389  1.00  0.00     0.004 C 
ENDBRANCH  16  17
ENDBRANCH  15  16
ENDBRANCH  14  15
ENDBRANCH  13  14
ENDBRANCH  12  13
ENDBRANCH  11  12
ENDBRANCH   1  11
TORSDOF 14
ENDMDL
MODEL 8
REMARK VINA RESULT:    -1.546      2.396      3.777
REMARK INTER + INTRA:          -4.719
REMARK INTER:                  -3.182
REMARK INTRA:                  -1.537
REMARK UNBOUND:                -1.908
REMARK SMILES CCCCCCCCCCCCCCCC(=O)[O-]
REMARK SMILES IDX 9 1 10 2 11 3 12 4 13 5 14 6 15 7 16 8 17 9 18 10 8 11 7 12
REMARK SMILES IDX 6 13 5 14 4 15 3 16 2 17 1 18
REMARK H PARENT
REMARK Flexibility Score: inf
ROOT
ATOM      1  C   UNL     1      -8.997   6.248   6.369  1.00  0.00     0.000 C 
ENDROOT
BRANCH   1   2
ATOM      2  C   UNL     1      -9.422   5.292   7.495  1.00  0.00     0.000 C 
BRANCH   2   3
ATOM      3  C   UNL     1      -8.448   5.370   8.678  1.00  0.00     0.000 C 
BRANCH   3   4
ATOM      4  C   UNL     1      -7.092   5.940   8.237  1.00  0.00     0.000 C 
BRANCH   4   5
ATOM      5  C   UNL     1      -5.980   5.682   9.266  1.00  0.00     0.000 C 
BRANCH   5   6
ATOM      6  C   UNL     1      -5.668   6.921  10.125  1.00  0.00     0.006 C 
BRANCH   6   7
ATOM      7  C   UNL     1      -4.518   7.754   9.544  1.00  0.00     0.053 C 
BRANCH   7   8
ATOM      8  C   UNL     1      -5.018   8.989   8.859  1.00  0.00     0.041 C 
ATOM      9  O   UNL     1      -6.232   9.311   8.940  1.00  0.00    -0.550 OA
ATOM     10  O   UNL     1      -4.150   9.764   8.100  1.00  0.00    -0.550 OA
ENDBRANCH   7   8
ENDBRANCH   6   7
ENDBRANCH   5   6
ENDBRANCH   4   5
ENDBRANCH   3   4
ENDBRANCH   2   3
ENDBRANCH   1   2
BRANCH   1  11
ATOM     11  C   UNL     1      -9.895   7.494   6.283  1.00  0.00     0.000 C 
BRANCH  11  12
ATOM     12  C   UNL     1      -9.256   8.729   6.942  1.00  0.00    -0.000 C 
BRANCH  12  13
ATOM     13  C   UNL     1      -9.147   9.921   5.978  1.00  0.00    -0.000 C 
BRANCH  13  14
ATOM     14  C   UNL     1     -10.103   9.805   4.782  1.00  0.00    -0.000 C 
BRANCH  14  15
ATOM     15  C   UNL     1      -9.377  10.103   3.466  1.00  0.00    -0.000 C 
BRANCH  15  16
ATOM     16  C   UNL     1      -9.045   8.810   2.713  1.00  0.00    -0.000 C 
BRANCH  16  17
ATOM     17  C   UNL     1      -7.680   8.260   3.140  1.00  0.00    -0.003 C 
ATOM     18  C   UNL     1      -6.662   9.384   3.312  1.00  0.00     0.004 C 
ENDBRANCH  16  17
ENDBRANCH  15  16
ENDBRANCH  14  15
ENDBRANCH  13  14
ENDBRANCH  12  13
ENDBRANCH  11  12
ENDBRANCH   1  11
TORSDOF 14
ENDMDL
MODEL 9
REMARK VINA RESULT:    -1.476      2.678      4.284
REMARK INTER + INTRA:          -4.592
REMARK INTER:                  -3.762
REMARK INTRA:                  -0.830
REMARK UNBOUND:                -1.908
REMARK SMILES CCCCCCCCCCCCCCCC(=O)[O-]
REMARK SMILES IDX 9 1 10 2 11 3 12 4 13 5 14 6 15 7 16 8 17 9 18 10 8 11 7 12
REMARK SMILES IDX 6 13 5 14 4 15 3 16 2 17 1 18
REMARK H PARENT
REMARK Flexibility Score: inf
ROOT
ATOM      1  C   UNL     1      -9.470   7.826   6.118  1.00  0.00     0.000 C 
ENDROOT
BRANCH   1   2
ATOM      2  C   UNL     1      -8.600   6.572   6.295  1.00  0.00     0.000 C 
BRANCH   2   3
ATOM      3  C   UNL     1      -9.285   5.555   7.217  1.00  0.00     0.000 C 
BRANCH   3   4
ATOM      4  C   UNL     1      -8.321   5.067   8.309  1.00  0.00     0.000 C 
BRANCH   4   5
ATOM      5  C   UNL     1      -7.687   6.225   9.097  1.00  0.00     0.000 C 
BRANCH   5   6
ATOM      6  C   UNL     1      -6.366   5.824   9.779  1.00  0.00     0.006 C 
BRANCH   6   7
ATOM      7  C   UNL     1      -5.142   6.376   9.037  1.00  0.00     0.053 C 
BRANCH   7   8
ATOM      8  C   UNL     1      -5.072   7.870   9.116  1.00  0.00     0.041 C 
ATOM      9  O   UNL     1      -4.376   8.516   8.289  1.00  0.00    -0.550 OA
ATOM     10  O   UNL     1      -5.746   8.547  10.125  1.00  0.00    -0.550 OA
ENDBRANCH   7   8
ENDBRANCH   6   7
ENDBRANCH   5   6
ENDBRANCH   4   5
ENDBRANCH   3   4
ENDBRANCH   2   3
ENDBRANCH   1   2
BRANCH   1  11
ATOM     11  C   UNL     1      -9.216   8.537   4.779  1.00  0.00     0.000 C 
BRANCH  11  12
ATOM     12  C   UNL     1      -8.309   7.721   3.840  1.00  0.00    -0.000 C 
BRANCH  12  13
ATOM     13  C   UNL     1      -7.715   8.572   2.708  1.00  0.00    -0.000 C 
BRANCH  13  14
ATOM     14  C   UNL     1      -8.396   9.943   2.578  1.00  0.00    -0.000 C 
BRANCH  14  15
ATOM     15  C   UNL     1      -9.155  10.057   1.251  1.00  0.00    -0.000 C 
BRANCH  15  16
ATOM     16  C   UNL     1      -9.299   8.686   0.579  1.00  0.00    -0.000 C 
BRANCH  16  17
ATOM     17  C   UNL     1      -9.335   8.824  -0.947  1.00  0.00    -0.003 C 
ATOM     18  C   UNL     1      -8.389   9.922  -1.424  1.00  0.00     0.004 C 
ENDBRANCH  16  17
ENDBRANCH  15  16
ENDBRANCH  14  15
ENDBRANCH  13  14
ENDBRANCH  12  13
ENDBRANCH  11  12
ENDBRANCH   1  11
TORSDOF 14
ENDMDL
