MODEL 1
REMARK VINA RESULT:    -7.871      0.000      0.000
REMARK INTER + INTRA:          -9.424
REMARK INTER:                  -9.482
REMARK INTRA:                   0.058
REMARK UNBOUND:                 0.058
REMARK SMILES O=c1c(O)c(-c2ccc(O)c(O)c2)oc2cc(O)cc(O)c12
REMARK SMILES IDX 5 1 3 2 2 3 1 4 22 5 20 6 19 7 17 8 16 9 15 10 14 11 6 12
REMARK SMILES IDX 7 13 8 14 9 15 13 16 11 17 10 18 12 20 4 22 21 24 18 26
REMARK H PARENT 10 19 12 21 4 23 21 25 18 27
REMARK Flexibility Score: inf
ROOT
ATOM      1  C   UNL     1     -11.280  32.028  27.759  1.00  0.00     0.180 A 
ATOM      2  C   UNL     1     -10.686  30.755  27.770  1.00  0.00     0.208 A 
ATOM      3  C   UNL     1     -11.182  29.778  28.648  1.00  0.00     0.238 A 
ATOM      4  O   UNL     1     -10.598  28.665  28.705  1.00  0.00    -0.285 OA
ATOM      5  C   UNL     1     -12.301  30.069  29.466  1.00  0.00     0.111 A 
ATOM      6  C   UNL     1     -12.916  29.141  30.361  1.00  0.00     0.134 A 
ATOM      7  C   UNL     1     -13.952  29.573  31.199  1.00  0.00     0.093 A 
ATOM      8  C   UNL     1     -14.439  30.880  31.128  1.00  0.00     0.123 A 
ATOM      9  C   UNL     1     -13.882  31.777  30.219  1.00  0.00     0.094 A 
ATOM     10  C   UNL     1     -12.822  31.388  29.398  1.00  0.00     0.146 A 
ATOM     11  O   UNL     1     -12.308  32.281  28.562  1.00  0.00    -0.452 OA
ENDROOT
BRANCH   1  12
ATOM     12  C   UNL     1     -10.804  33.113  26.872  1.00  0.00     0.025 A 
ATOM     13  C   UNL     1      -9.431  33.390  26.799  1.00  0.00     0.016 A 
ATOM     14  C   UNL     1      -8.957  34.394  25.953  1.00  0.00     0.051 A 
ATOM     15  C   UNL     1      -9.838  35.128  25.152  1.00  0.00     0.157 A 
ATOM     16  C   UNL     1     -11.689  33.832  26.053  1.00  0.00     0.062 A 
ATOM     17  C   UNL     1     -11.222  34.839  25.198  1.00  0.00     0.158 A 
BRANCH  15  18
ATOM     18  O   UNL     1      -9.301  36.123  24.333  1.00  0.00    -0.504 OA
ATOM     19  H   UNL     1      -8.975  35.965  23.391  1.00  0.00     0.293 HD
ENDBRANCH  15  18
BRANCH  17  20
ATOM     20  O   UNL     1     -12.160  35.515  24.414  1.00  0.00    -0.504 OA
ATOM     21  H   UNL     1     -13.040  35.118  24.118  1.00  0.00     0.293 HD
ENDBRANCH  17  20
ENDBRANCH   1  12
BRANCH   2  22
ATOM     22  O   UNL     1      -9.632  30.463  26.899  1.00  0.00    -0.502 OA
ATOM     23  H   UNL     1      -9.646  30.727  25.921  1.00  0.00     0.293 HD
ENDBRANCH   2  22
BRANCH   6  24
ATOM     24  O   UNL     1     -12.568  27.789  30.449  1.00  0.00    -0.507 OA
ATOM     25  H   UNL     1     -11.693  27.440  30.808  1.00  0.00     0.293 HD
ENDBRANCH   6  24
BRANCH   8  26
ATOM     26  O   UNL     1     -15.481  31.296  31.953  1.00  0.00    -0.508 OA
ATOM     27  H   UNL     1     -16.213  30.658  32.245  1.00  0.00     0.293 HD
ENDBRANCH   8  26
TORSDOF 6
ENDMDL
MODEL 2
REMARK VINA RESULT:    -7.629      1.781      6.702
REMARK INTER + INTRA:          -9.132
REMARK INTER:                  -8.831
REMARK INTRA:                  -0.301
REMARK UNBOUND:                 0.058
REMARK SMILES O=c1c(O)c(-c2ccc(O)c(O)c2)oc2cc(O)cc(O)c12
REMARK SMILES IDX 5 1 3 2 2 3 1 4 22 5 20 6 19 7 17 8 16 9 15 10 14 11 6 12
REMARK SMILES IDX 7 13 8 14 9 15 13 16 11 17 10 18 12 20 4 22 21 24 18 26
REMARK H PARENT 10 19 12 21 4 23 21 25 18 27
REMARK Flexibility Score: inf
ROOT
ATOM      1  C   UNL     1     -11.880  32.028  28.053  1.00  0.00     0.180 A 
ATOM      2  C   UNL     1     -10.688  32.758  27.902  1.00  0.00     0.208 A 
ATOM      3  C   UNL     1     -10.637  33.791  26.953  1.00  0.00     0.238 A 
ATOM      4  O   UNL     1      -9.546  34.391  26.771  1.00  0.00    -0.285 OA
ATOM      5  C   UNL     1     -11.794  34.119  26.205  1.00  0.00     0.111 A 
ATOM      6  C   UNL     1     -11.870  35.176  25.247  1.00  0.00     0.134 A 
ATOM      7  C   UNL     1     -13.037  35.339  24.490  1.00  0.00     0.093 A 
ATOM      8  C   UNL     1     -14.153  34.526  24.701  1.00  0.00     0.123 A 
ATOM      9  C   UNL     1     -14.107  33.528  25.671  1.00  0.00     0.094 A 
ATOM     10  C   UNL     1     -12.945  33.315  26.415  1.00  0.00     0.146 A 
ATOM     11  O   UNL     1     -12.939  32.338  27.314  1.00  0.00    -0.452 OA
ENDROOT
BRANCH   1  12
ATOM     12  C   UNL     1     -12.006  30.917  29.023  1.00  0.00     0.025 A 
ATOM     13  C   UNL     1     -11.511  29.650  28.685  1.00  0.00     0.016 A 
ATOM     14  C   UNL     1     -11.600  28.592  29.592  1.00  0.00     0.051 A 
ATOM     15  C   UNL     1     -12.167  28.781  30.856  1.00  0.00     0.157 A 
ATOM     16  C   UNL     1     -12.555  31.117  30.300  1.00  0.00     0.062 A 
ATOM     17  C   UNL     1     -12.646  30.063  31.218  1.00  0.00     0.158 A 
BRANCH  15  18
ATOM     18  O   UNL     1     -12.233  27.681  31.715  1.00  0.00    -0.504 OA
ATOM     19  H   UNL     1     -11.583  26.910  31.694  1.00  0.00     0.293 HD
ENDBRANCH  15  18
BRANCH  17  20
ATOM     20  O   UNL     1     -13.206  30.333  32.468  1.00  0.00    -0.504 OA
ATOM     21  H   UNL     1     -12.723  30.198  33.345  1.00  0.00     0.293 HD
ENDBRANCH  17  20
ENDBRANCH   1  12
BRANCH   2  22
ATOM     22  O   UNL     1      -9.581  32.470  28.705  1.00  0.00    -0.502 OA
ATOM     23  H   UNL     1      -8.760  33.063  28.731  1.00  0.00     0.293 HD
ENDBRANCH   2  22
BRANCH   6  24
ATOM     24  O   UNL     1     -10.847  36.102  25.020  1.00  0.00    -0.507 OA
ATOM     25  H   UNL     1      -9.902  35.867  24.763  1.00  0.00     0.293 HD
ENDBRANCH   6  24
BRANCH   8  26
ATOM     26  O   UNL     1     -15.315  34.707  23.955  1.00  0.00    -0.508 OA
ATOM     27  H   UNL     1     -16.232  34.680  24.386  1.00  0.00     0.293 HD
ENDBRANCH   8  26
TORSDOF 6
ENDMDL
MODEL 3
REMARK VINA RESULT:    -7.569      1.515      3.270
REMARK INTER + INTRA:          -9.060
REMARK INTER:                  -9.610
REMARK INTRA:                   0.550
REMARK UNBOUND:                 0.058
REMARK SMILES O=c1c(O)c(-c2ccc(O)c(O)c2)oc2cc(O)cc(O)c12
REMARK SMILES IDX 5 1 3 2 2 3 1 4 22 5 20 6 19 7 17 8 16 9 15 10 14 11 6 12
REMARK SMILES IDX 7 13 8 14 9 15 13 16 11 17 10 18 12 20 4 22 21 24 18 26
REMARK H PARENT 10 19 12 21 4 23 21 25 18 27
REMARK Flexibility Score: inf
ROOT
ATOM      1  C   UNL     1     -12.176  32.946  28.247  1.00  0.00     0.180 A 
ATOM      2  C   UNL     1     -13.433  33.450  28.627  1.00  0.00     0.208 A 
ATOM      3  C   UNL     1     -14.199  32.735  29.561  1.00  0.00     0.238 A 
ATOM      4  O   UNL     1     -15.353  33.151  29.840  1.00  0.00    -0.285 OA
ATOM      5  C   UNL     1     -13.678  31.555  30.145  1.00  0.00     0.111 A 
ATOM      6  C   UNL     1     -14.348  30.773  31.136  1.00  0.00     0.134 A 
ATOM      7  C   UNL     1     -13.780  29.567  31.563  1.00  0.00     0.093 A 
ATOM      8  C   UNL     1     -12.537  29.145  31.086  1.00  0.00     0.123 A 
ATOM      9  C   UNL     1     -11.851  29.928  30.161  1.00  0.00     0.094 A 
ATOM     10  C   UNL     1     -12.408  31.117  29.686  1.00  0.00     0.146 A 
ATOM     11  O   UNL     1     -11.728  31.820  28.788  1.00  0.00    -0.452 OA
ENDROOT
BRANCH   1  12
ATOM     12  C   UNL     1     -11.318  33.637  27.258  1.00  0.00     0.025 A 
ATOM     13  C   UNL     1     -11.741  34.856  26.711  1.00  0.00     0.016 A 
ATOM     14  C   UNL     1     -10.939  35.536  25.793  1.00  0.00     0.051 A 
ATOM     15  C   UNL     1      -9.694  35.021  25.415  1.00  0.00     0.157 A 
ATOM     16  C   UNL     1     -10.059  33.129  26.899  1.00  0.00     0.062 A 
ATOM     17  C   UNL     1      -9.244  33.804  25.981  1.00  0.00     0.158 A 
BRANCH  15  18
ATOM     18  O   UNL     1      -8.942  35.745  24.487  1.00  0.00    -0.504 OA
ATOM     19  H   UNL     1      -7.952  35.619  24.341  1.00  0.00     0.293 HD
ENDBRANCH  15  18
BRANCH  17  20
ATOM     20  O   UNL     1      -8.007  33.239  25.668  1.00  0.00    -0.504 OA
ATOM     21  H   UNL     1      -7.439  33.522  24.882  1.00  0.00     0.293 HD
ENDBRANCH  17  20
ENDBRANCH   1  12
BRANCH   2  22
ATOM     22  O   UNL     1     -13.897  34.657  28.096  1.00  0.00    -0.502 OA
ATOM     23  H   UNL     1     -13.422  35.538  28.254  1.00  0.00     0.293 HD
ENDBRANCH   2  22
BRANCH   6  24
ATOM     24  O   UNL     1     -15.550  31.146  31.745  1.00  0.00    -0.507 OA
ATOM     25  H   UNL     1     -15.673  31.956  32.333  1.00  0.00     0.293 HD
ENDBRANCH   6  24
BRANCH   8  26
ATOM     26  O   UNL     1     -11.973  27.952  31.531  1.00  0.00    -0.508 OA
ATOM     27  H   UNL     1     -12.163  27.588  32.458  1.00  0.00     0.293 HD
ENDBRANCH   8  26
TORSDOF 6
ENDMDL
MODEL 4
REMARK VINA RESULT:    -6.753      3.772      8.175
REMARK INTER + INTRA:          -8.076
REMARK INTER:                  -7.759
REMARK INTRA:                  -0.317
REMARK UNBOUND:                 0.058
REMARK SMILES O=c1c(O)c(-c2ccc(O)c(O)c2)oc2cc(O)cc(O)c12
REMARK SMILES IDX 5 1 3 2 2 3 1 4 22 5 20 6 19 7 17 8 16 9 15 10 14 11 6 12
REMARK SMILES IDX 7 13 8 14 9 15 13 16 11 17 10 18 12 20 4 22 21 24 18 26
REMARK H PARENT 10 19 12 21 4 23 21 25 18 27
REMARK Flexibility Score: inf
ROOT
ATOM      1  C   UNL     1     -14.008  28.708  31.332  1.00  0.00     0.180 A 
ATOM      2  C   UNL     1     -12.637  28.921  31.104  1.00  0.00     0.208 A 
ATOM      3  C   UNL     1     -12.203  30.193  30.698  1.00  0.00     0.238 A 
ATOM      4  O   UNL     1     -10.986  30.356  30.423  1.00  0.00    -0.285 OA
ATOM      5  C   UNL     1     -13.137  31.251  30.577  1.00  0.00     0.111 A 
ATOM      6  C   UNL     1     -12.803  32.592  30.216  1.00  0.00     0.134 A 
ATOM      7  C   UNL     1     -13.825  33.530  30.024  1.00  0.00     0.093 A 
ATOM      8  C   UNL     1     -15.163  33.194  30.244  1.00  0.00     0.123 A 
ATOM      9  C   UNL     1     -15.493  31.904  30.651  1.00  0.00     0.094 A 
ATOM     10  C   UNL     1     -14.501  30.935  30.813  1.00  0.00     0.146 A 
ATOM     11  O   UNL     1     -14.864  29.712  31.180  1.00  0.00    -0.452 OA
ENDROOT
BRANCH   1  12
ATOM     12  C   UNL     1     -14.542  27.392  31.749  1.00  0.00     0.025 A 
ATOM     13  C   UNL     1     -14.836  26.428  30.775  1.00  0.00     0.016 A 
ATOM     14  C   UNL     1     -15.320  25.173  31.146  1.00  0.00     0.051 A 
ATOM     15  C   UNL     1     -15.505  24.849  32.494  1.00  0.00     0.157 A 
ATOM     16  C   UNL     1     -14.705  27.063  33.105  1.00  0.00     0.062 A 
ATOM     17  C   UNL     1     -15.187  25.804  33.488  1.00  0.00     0.158 A 
BRANCH  15  18
ATOM     18  O   UNL     1     -16.000  23.579  32.799  1.00  0.00    -0.504 OA
ATOM     19  H   UNL     1     -16.163  22.857  32.113  1.00  0.00     0.293 HD
ENDBRANCH  15  18
BRANCH  17  20
ATOM     20  O   UNL     1     -15.326  25.548  34.853  1.00  0.00    -0.504 OA
ATOM     21  H   UNL     1     -14.759  25.977  35.569  1.00  0.00     0.293 HD
ENDBRANCH  17  20
ENDBRANCH   1  12
BRANCH   2  22
ATOM     22  O   UNL     1     -11.722  27.884  31.303  1.00  0.00    -0.502 OA
ATOM     23  H   UNL     1     -11.049  27.610  30.597  1.00  0.00     0.293 HD
ENDBRANCH   2  22
BRANCH   6  24
ATOM     24  O   UNL     1     -11.494  33.058  30.058  1.00  0.00    -0.507 OA
ATOM     25  H   UNL     1     -11.002  33.111  29.180  1.00  0.00     0.293 HD
ENDBRANCH   6  24
BRANCH   8  26
ATOM     26  O   UNL     1     -16.171  34.139  30.069  1.00  0.00    -0.508 OA
ATOM     27  H   UNL     1     -15.974  35.133  30.079  1.00  0.00     0.293 HD
ENDBRANCH   8  26
TORSDOF 6
ENDMDL
MODEL 5
REMARK VINA RESULT:    -6.617      2.641      8.414
REMARK INTER + INTRA:          -7.913
REMARK INTER:                  -7.688
REMARK INTRA:                  -0.225
REMARK UNBOUND:                 0.058
REMARK SMILES O=c1c(O)c(-c2ccc(O)c(O)c2)oc2cc(O)cc(O)c12
REMARK SMILES IDX 5 1 3 2 2 3 1 4 22 5 20 6 19 7 17 8 16 9 15 10 14 11 6 12
REMARK SMILES IDX 7 13 8 14 9 15 13 16 11 17 10 18 12 20 4 22 21 24 18 26
REMARK H PARENT 10 19 12 21 4 23 21 25 18 27
REMARK Flexibility Score: inf
ROOT
ATOM      1  C   UNL     1     -13.631  28.730  30.785  1.00  0.00     0.180 A 
ATOM      2  C   UNL     1     -14.012  30.069  30.982  1.00  0.00     0.208 A 
ATOM      3  C   UNL     1     -13.338  31.080  30.279  1.00  0.00     0.238 A 
ATOM      4  O   UNL     1     -13.634  32.280  30.515  1.00  0.00    -0.285 OA
ATOM      5  C   UNL     1     -12.329  30.738  29.347  1.00  0.00     0.111 A 
ATOM      6  C   UNL     1     -11.610  31.677  28.545  1.00  0.00     0.134 A 
ATOM      7  C   UNL     1     -10.560  31.230  27.734  1.00  0.00     0.093 A 
ATOM      8  C   UNL     1     -10.243  29.873  27.645  1.00  0.00     0.123 A 
ATOM      9  C   UNL     1     -10.975  28.944  28.381  1.00  0.00     0.094 A 
ATOM     10  C   UNL     1     -12.003  29.361  29.229  1.00  0.00     0.146 A 
ATOM     11  O   UNL     1     -12.659  28.443  29.928  1.00  0.00    -0.452 OA
ENDROOT
BRANCH   1  12
ATOM     12  C   UNL     1     -14.285  27.612  31.501  1.00  0.00     0.025 A 
ATOM     13  C   UNL     1     -15.033  26.674  30.775  1.00  0.00     0.016 A 
ATOM     14  C   UNL     1     -15.642  25.599  31.426  1.00  0.00     0.051 A 
ATOM     15  C   UNL     1     -15.504  25.431  32.808  1.00  0.00     0.157 A 
ATOM     16  C   UNL     1     -14.126  27.434  32.885  1.00  0.00     0.062 A 
ATOM     17  C   UNL     1     -14.730  26.357  33.547  1.00  0.00     0.158 A 
BRANCH  15  18
ATOM     18  O   UNL     1     -16.143  24.339  33.400  1.00  0.00    -0.504 OA
ATOM     19  H   UNL     1     -17.115  24.108  33.257  1.00  0.00     0.293 HD
ENDBRANCH  15  18
BRANCH  17  20
ATOM     20  O   UNL     1     -14.530  26.243  34.924  1.00  0.00    -0.504 OA
ATOM     21  H   UNL     1     -13.626  26.306  35.371  1.00  0.00     0.293 HD
ENDBRANCH  17  20
ENDBRANCH   1  12
BRANCH   2  22
ATOM     22  O   UNL     1     -15.063  30.381  31.850  1.00  0.00    -0.502 OA
ATOM     23  H   UNL     1     -15.884  29.795  31.941  1.00  0.00     0.293 HD
ENDBRANCH   2  22
BRANCH   6  24
ATOM     24  O   UNL     1     -11.902  33.043  28.488  1.00  0.00    -0.507 OA
ATOM     25  H   UNL     1     -11.994  33.647  29.290  1.00  0.00     0.293 HD
ENDBRANCH   6  24
BRANCH   8  26
ATOM     26  O   UNL     1      -9.208  29.436  26.823  1.00  0.00    -0.508 OA
ATOM     27  H   UNL     1      -8.571  28.704  27.114  1.00  0.00     0.293 HD
ENDBRANCH   8  26
TORSDOF 6
ENDMDL
MODEL 6
REMARK VINA RESULT:    -6.548      2.710      6.671
REMARK INTER + INTRA:          -7.830
REMARK INTER:                  -7.654
REMARK INTRA:                  -0.176
REMARK UNBOUND:                 0.058
REMARK SMILES O=c1c(O)c(-c2ccc(O)c(O)c2)oc2cc(O)cc(O)c12
REMARK SMILES IDX 5 1 3 2 2 3 1 4 22 5 20 6 19 7 17 8 16 9 15 10 14 11 6 12
REMARK SMILES IDX 7 13 8 14 9 15 13 16 11 17 10 18 12 20 4 22 21 24 18 26
REMARK H PARENT 10 19 12 21 4 23 21 25 18 27
REMARK Flexibility Score: inf
ROOT
ATOM      1  C   UNL     1     -13.138  33.998  29.355  1.00  0.00     0.180 A 
ATOM      2  C   UNL     1     -12.715  32.657  29.353  1.00  0.00     0.208 A 
ATOM      3  C   UNL     1     -11.786  32.237  28.388  1.00  0.00     0.238 A 
ATOM      4  O   UNL     1     -11.469  31.020  28.345  1.00  0.00    -0.285 OA
ATOM      5  C   UNL     1     -11.250  33.174  27.471  1.00  0.00     0.111 A 
ATOM      6  C   UNL     1     -10.268  32.869  26.479  1.00  0.00     0.134 A 
ATOM      7  C   UNL     1      -9.890  33.853  25.557  1.00  0.00     0.093 A 
ATOM      8  C   UNL     1     -10.408  35.148  25.631  1.00  0.00     0.123 A 
ATOM      9  C   UNL     1     -11.323  35.470  26.630  1.00  0.00     0.094 A 
ATOM     10  C   UNL     1     -11.750  34.500  27.540  1.00  0.00     0.146 A 
ATOM     11  O   UNL     1     -12.641  34.846  28.461  1.00  0.00    -0.452 OA
ENDROOT
BRANCH   1  12
ATOM     12  C   UNL     1     -14.124  34.511  30.332  1.00  0.00     0.025 A 
ATOM     13  C   UNL     1     -13.754  35.542  31.207  1.00  0.00     0.016 A 
ATOM     14  C   UNL     1     -14.674  36.056  32.123  1.00  0.00     0.051 A 
ATOM     15  C   UNL     1     -15.983  35.564  32.173  1.00  0.00     0.157 A 
ATOM     16  C   UNL     1     -15.444  34.031  30.363  1.00  0.00     0.062 A 
ATOM     17  C   UNL     1     -16.376  34.542  31.276  1.00  0.00     0.158 A 
BRANCH  15  18
ATOM     18  O   UNL     1     -16.853  36.115  33.116  1.00  0.00    -0.504 OA
ATOM     19  H   UNL     1     -16.580  36.805  33.800  1.00  0.00     0.293 HD
ENDBRANCH  15  18
BRANCH  17  20
ATOM     20  O   UNL     1     -17.668  34.016  31.252  1.00  0.00    -0.504 OA
ATOM     21  H   UNL     1     -17.956  33.251  30.659  1.00  0.00     0.293 HD
ENDBRANCH  17  20
ENDBRANCH   1  12
BRANCH   2  22
ATOM     22  O   UNL     1     -13.199  31.766  30.315  1.00  0.00    -0.502 OA
ATOM     23  H   UNL     1     -12.617  31.405  31.062  1.00  0.00     0.293 HD
ENDBRANCH   2  22
BRANCH   6  24
ATOM     24  O   UNL     1      -9.621  31.634  26.371  1.00  0.00    -0.507 OA
ATOM     25  H   UNL     1      -8.919  31.408  25.684  1.00  0.00     0.293 HD
ENDBRANCH   6  24
BRANCH   8  26
ATOM     26  O   UNL     1     -10.012  36.125  24.721  1.00  0.00    -0.508 OA
ATOM     27  H   UNL     1      -9.063  36.167  24.366  1.00  0.00     0.293 HD
ENDBRANCH   8  26
TORSDOF 6
ENDMDL
MODEL 7
REMARK VINA RESULT:    -6.348      2.864      6.507
REMARK INTER + INTRA:          -7.589
REMARK INTER:                  -7.357
REMARK INTRA:                  -0.233
REMARK UNBOUND:                 0.058
REMARK SMILES O=c1c(O)c(-c2ccc(O)c(O)c2)oc2cc(O)cc(O)c12
REMARK SMILES IDX 5 1 3 2 2 3 1 4 22 5 20 6 19 7 17 8 16 9 15 10 14 11 6 12
REMARK SMILES IDX 7 13 8 14 9 15 13 16 11 17 10 18 12 20 4 22 21 24 18 26
REMARK H PARENT 10 19 12 21 4 23 21 25 18 27
REMARK Flexibility Score: inf
ROOT
ATOM      1  C   UNL     1     -14.643  32.483  29.670  1.00  0.00     0.180 A 
ATOM      2  C   UNL     1     -14.158  31.369  30.376  1.00  0.00     0.208 A 
ATOM      3  C   UNL     1     -13.094  30.630  29.834  1.00  0.00     0.238 A 
ATOM      4  O   UNL     1     -12.714  29.590  30.434  1.00  0.00    -0.285 OA
ATOM      5  C   UNL     1     -12.491  31.045  28.622  1.00  0.00     0.111 A 
ATOM      6  C   UNL     1     -11.377  30.398  28.004  1.00  0.00     0.134 A 
ATOM      7  C   UNL     1     -10.934  30.836  26.750  1.00  0.00     0.093 A 
ATOM      8  C   UNL     1     -11.519  31.937  26.122  1.00  0.00     0.123 A 
ATOM      9  C   UNL     1     -12.570  32.608  26.742  1.00  0.00     0.094 A 
ATOM     10  C   UNL     1     -13.061  32.173  27.975  1.00  0.00     0.146 A 
ATOM     11  O   UNL     1     -14.078  32.830  28.519  1.00  0.00    -0.452 OA
ENDROOT
BRANCH   1  12
ATOM     12  C   UNL     1     -15.770  33.302  30.170  1.00  0.00     0.025 A 
ATOM     13  C   UNL     1     -17.027  33.189  29.561  1.00  0.00     0.016 A 
ATOM     14  C   UNL     1     -18.109  33.936  30.028  1.00  0.00     0.051 A 
ATOM     15  C   UNL     1     -17.963  34.797  31.121  1.00  0.00     0.157 A 
ATOM     16  C   UNL     1     -15.624  34.148  31.281  1.00  0.00     0.062 A 
ATOM     17  C   UNL     1     -16.705  34.900  31.761  1.00  0.00     0.158 A 
BRANCH  15  18
ATOM     18  O   UNL     1     -19.082  35.522  31.536  1.00  0.00    -0.504 OA
ATOM     19  H   UNL     1     -19.098  36.525  31.641  1.00  0.00     0.293 HD
ENDBRANCH  15  18
BRANCH  17  20
ATOM     20  O   UNL     1     -16.487  35.722  32.868  1.00  0.00    -0.504 OA
ATOM     21  H   UNL     1     -15.639  36.248  33.023  1.00  0.00     0.293 HD
ENDBRANCH  17  20
ENDBRANCH   1  12
BRANCH   2  22
ATOM     22  O   UNL     1     -14.715  31.020  31.609  1.00  0.00    -0.502 OA
ATOM     23  H   UNL     1     -15.391  30.271  31.708  1.00  0.00     0.293 HD
ENDBRANCH   2  22
BRANCH   6  24
ATOM     24  O   UNL     1     -10.662  29.346  28.585  1.00  0.00    -0.507 OA
ATOM     25  H   UNL     1      -9.696  29.393  28.871  1.00  0.00     0.293 HD
ENDBRANCH   6  24
BRANCH   8  26
ATOM     26  O   UNL     1     -11.059  32.376  24.883  1.00  0.00    -0.508 OA
ATOM     27  H   UNL     1     -11.600  33.016  24.312  1.00  0.00     0.293 HD
ENDBRANCH   8  26
TORSDOF 6
ENDMDL
MODEL 8
REMARK VINA RESULT:    -6.299      3.109      6.431
REMARK INTER + INTRA:          -7.530
REMARK INTER:                  -7.222
REMARK INTRA:                  -0.308
REMARK UNBOUND:                 0.058
REMARK SMILES O=c1c(O)c(-c2ccc(O)c(O)c2)oc2cc(O)cc(O)c12
REMARK SMILES IDX 5 1 3 2 2 3 1 4 22 5 20 6 19 7 17 8 16 9 15 10 14 11 6 12
REMARK SMILES IDX 7 13 8 14 9 15 13 16 11 17 10 18 12 20 4 22 21 24 18 26
REMARK H PARENT 10 19 12 21 4 23 21 25 18 27
REMARK Flexibility Score: inf
ROOT
ATOM      1  C   UNL     1     -14.970  32.767  30.040  1.00  0.00     0.180 A 
ATOM      2  C   UNL     1     -14.203  33.119  28.916  1.00  0.00     0.208 A 
ATOM      3  C   UNL     1     -13.119  32.306  28.549  1.00  0.00     0.238 A 
ATOM      4  O   UNL     1     -12.391  32.667  27.588  1.00  0.00    -0.285 OA
ATOM      5  C   UNL     1     -12.849  31.120  29.275  1.00  0.00     0.111 A 
ATOM      6  C   UNL     1     -11.804  30.197  28.965  1.00  0.00     0.134 A 
ATOM      7  C   UNL     1     -11.565  29.113  29.818  1.00  0.00     0.093 A 
ATOM      8  C   UNL     1     -12.373  28.881  30.934  1.00  0.00     0.123 A 
ATOM      9  C   UNL     1     -13.429  29.745  31.213  1.00  0.00     0.094 A 
ATOM     10  C   UNL     1     -13.669  30.857  30.404  1.00  0.00     0.146 A 
ATOM     11  O   UNL     1     -14.673  31.666  30.721  1.00  0.00    -0.452 OA
ENDROOT
BRANCH   1  12
ATOM     12  C   UNL     1     -16.118  33.582  30.496  1.00  0.00     0.025 A 
ATOM     13  C   UNL     1     -17.372  33.403  29.895  1.00  0.00     0.016 A 
ATOM     14  C   UNL     1     -18.474  34.145  30.323  1.00  0.00     0.051 A 
ATOM     15  C   UNL     1     -18.351  35.067  31.368  1.00  0.00     0.157 A 
ATOM     16  C   UNL     1     -15.996  34.490  31.560  1.00  0.00     0.062 A 
ATOM     17  C   UNL     1     -17.096  35.238  32.000  1.00  0.00     0.158 A 
BRANCH  15  18
ATOM     18  O   UNL     1     -19.489  35.784  31.745  1.00  0.00    -0.504 OA
ATOM     19  H   UNL     1     -20.151  35.469  32.438  1.00  0.00     0.293 HD
ENDBRANCH  15  18
BRANCH  17  20
ATOM     20  O   UNL     1     -16.900  36.123  33.061  1.00  0.00    -0.504 OA
ATOM     21  H   UNL     1     -16.055  36.166  33.612  1.00  0.00     0.293 HD
ENDBRANCH  17  20
ENDBRANCH   1  12
BRANCH   2  22
ATOM     22  O   UNL     1     -14.532  34.251  28.167  1.00  0.00    -0.502 OA
ATOM     23  H   UNL     1     -14.167  34.412  27.235  1.00  0.00     0.293 HD
ENDBRANCH   2  22
BRANCH   6  24
ATOM     24  O   UNL     1     -10.995  30.283  27.827  1.00  0.00    -0.507 OA
ATOM     25  H   UNL     1     -10.927  29.576  27.112  1.00  0.00     0.293 HD
ENDBRANCH   6  24
BRANCH   8  26
ATOM     26  O   UNL     1     -12.139  27.790  31.767  1.00  0.00    -0.508 OA
ATOM     27  H   UNL     1     -12.760  27.566  32.536  1.00  0.00     0.293 HD
ENDBRANCH   8  26
TORSDOF 6
ENDMDL
MODEL 9
REMARK VINA RESULT:    -6.211      3.158      4.861
REMARK INTER + INTRA:          -7.424
REMARK INTER:                  -7.133
REMARK INTRA:                  -0.291
REMARK UNBOUND:                 0.058
REMARK SMILES O=c1c(O)c(-c2ccc(O)c(O)c2)oc2cc(O)cc(O)c12
REMARK SMILES IDX 5 1 3 2 2 3 1 4 22 5 20 6 19 7 17 8 16 9 15 10 14 11 6 12
REMARK SMILES IDX 7 13 8 14 9 15 13 16 11 17 10 18 12 20 4 22 21 24 18 26
REMARK H PARENT 10 19 12 21 4 23 21 25 18 27
REMARK Flexibility Score: inf
ROOT
ATOM      1  C   UNL     1     -13.676  33.528  27.374  1.00  0.00     0.180 A 
ATOM      2  C   UNL     1     -14.759  33.624  26.483  1.00  0.00     0.208 A 
ATOM      3  C   UNL     1     -16.048  33.834  26.998  1.00  0.00     0.238 A 
ATOM      4  O   UNL     1     -17.022  33.845  26.201  1.00  0.00    -0.285 OA
ATOM      5  C   UNL     1     -16.232  34.001  28.392  1.00  0.00     0.111 A 
ATOM      6  C   UNL     1     -17.488  34.264  29.020  1.00  0.00     0.134 A 
ATOM      7  C   UNL     1     -17.565  34.304  30.418  1.00  0.00     0.093 A 
ATOM      8  C   UNL     1     -16.423  34.157  31.208  1.00  0.00     0.123 A 
ATOM      9  C   UNL     1     -15.185  33.955  30.602  1.00  0.00     0.094 A 
ATOM     10  C   UNL     1     -15.081  33.871  29.212  1.00  0.00     0.146 A 
ATOM     11  O   UNL     1     -13.885  33.656  28.679  1.00  0.00    -0.452 OA
ENDROOT
BRANCH   1  12
ATOM     12  C   UNL     1     -12.291  33.294  26.907  1.00  0.00     0.025 A 
ATOM     13  C   UNL     1     -11.539  34.369  26.413  1.00  0.00     0.016 A 
ATOM     14  C   UNL     1     -10.224  34.176  25.987  1.00  0.00     0.051 A 
ATOM     15  C   UNL     1      -9.629  32.912  26.059  1.00  0.00     0.157 A 
ATOM     16  C   UNL     1     -11.689  32.028  27.002  1.00  0.00     0.062 A 
ATOM     17  C   UNL     1     -10.369  31.824  26.580  1.00  0.00     0.158 A 
BRANCH  15  18
ATOM     18  O   UNL     1      -8.313  32.783  25.611  1.00  0.00    -0.504 OA
ATOM     19  H   UNL     1      -8.048  32.288  24.772  1.00  0.00     0.293 HD
ENDBRANCH  15  18
BRANCH  17  20
ATOM     20  O   UNL     1      -9.837  30.540  26.702  1.00  0.00    -0.504 OA
ATOM     21  H   UNL     1      -9.657  29.926  25.921  1.00  0.00     0.293 HD
ENDBRANCH  17  20
ENDBRANCH   1  12
BRANCH   2  22
ATOM     22  O   UNL     1     -14.546  33.534  25.104  1.00  0.00    -0.502 OA
ATOM     23  H   UNL     1     -14.720  32.683  24.582  1.00  0.00     0.293 HD
ENDBRANCH   2  22
BRANCH   6  24
ATOM     24  O   UNL     1     -18.675  34.515  28.325  1.00  0.00    -0.507 OA
ATOM     25  H   UNL     1     -18.878  35.361  27.817  1.00  0.00     0.293 HD
ENDBRANCH   6  24
BRANCH   8  26
ATOM     26  O   UNL     1     -16.507  34.216  32.597  1.00  0.00    -0.508 OA
ATOM     27  H   UNL     1     -17.257  34.713  33.062  1.00  0.00     0.293 HD
ENDBRANCH   8  26
TORSDOF 6
ENDMDL
