MODEL 1
REMARK VINA RESULT:    76.653      0.000      0.000
REMARK INTER + INTRA:         112.685
REMARK INTER:                 112.503
REMARK INTRA:                   0.182
REMARK UNBOUND:                 0.182
REMARK SMILES O=c1c(O[C@H]2O[C@H](CO)[C@H](O)[C@H](O)[C@@H]2O)c(-c2ccc(O)c(O)c2)oc2cc(O)cc(O)c12
REMARK SMILES IDX 4 1 3 2 16 3 25 4 2 5 26 6 1 7 33 8 27 9 31 10 28 11 30 12
REMARK SMILES IDX 17 13 18 14 19 15 20 16 24 17 22 18 21 19 23 21 32 23 29 25
REMARK SMILES IDX 5 27 14 28 6 29 12 30 7 31 10 32 15 33 13 35 8 37 9 38 11 40
REMARK H PARENT 21 20 23 22 32 24 29 26 15 34 13 36 9 39 11 41
REMARK Flexibility Score: inf
ROOT
ATOM      1  O   UNL     1      20.415  41.386   9.062  1.00  0.00    -0.454 OA
ENDROOT
BRANCH   1   2
ATOM      2  C   UNL     1      20.022  42.090   7.910  1.00  0.00     0.214 A 
ATOM      3  C   UNL     1      18.676  42.363   7.601  1.00  0.00     0.180 A 
ATOM      4  O   UNL     1      18.367  42.971   6.463  1.00  0.00    -0.452 OA
ATOM      5  C   UNL     1      21.016  42.532   7.027  1.00  0.00     0.239 A 
ATOM      6  C   UNL     1      19.271  43.373   5.580  1.00  0.00     0.146 A 
ATOM      7  O   UNL     1      22.219  42.351   7.351  1.00  0.00    -0.285 OA
ATOM      8  C   UNL     1      20.659  43.163   5.810  1.00  0.00     0.111 A 
ATOM      9  C   UNL     1      18.830  44.020   4.424  1.00  0.00     0.094 A 
ATOM     10  C   UNL     1      21.585  43.607   4.815  1.00  0.00     0.134 A 
ATOM     11  C   UNL     1      19.742  44.480   3.480  1.00  0.00     0.123 A 
ATOM     12  C   UNL     1      21.109  44.278   3.680  1.00  0.00     0.093 A 
BRANCH   3  13
ATOM     13  C   UNL     1      17.578  42.032   8.519  1.00  0.00     0.025 A 
ATOM     14  C   UNL     1      16.510  42.923   8.679  1.00  0.00     0.016 A 
ATOM     15  C   UNL     1      15.449  42.600   9.531  1.00  0.00     0.051 A 
ATOM     16  C   UNL     1      15.460  41.398  10.248  1.00  0.00     0.157 A 
ATOM     17  C   UNL     1      17.604  40.836   9.255  1.00  0.00     0.062 A 
ATOM     18  C   UNL     1      16.545  40.513  10.116  1.00  0.00     0.158 A 
BRANCH  16  19
ATOM     19  O   UNL     1      14.384  41.100  11.086  1.00  0.00    -0.504 OA
ATOM     20  H   UNL     1      14.453  41.171  12.094  1.00  0.00     0.293 HD
ENDBRANCH  16  19
BRANCH  18  21
ATOM     21  O   UNL     1      16.567  39.320  10.836  1.00  0.00    -0.504 OA
ATOM     22  H   UNL     1      15.755  38.993  11.347  1.00  0.00     0.293 HD
ENDBRANCH  18  21
ENDBRANCH   3  13
BRANCH  10  23
ATOM     23  O   UNL     1      22.968  43.404   4.875  1.00  0.00    -0.507 OA
ATOM     24  H   UNL     1      23.672  44.122   4.823  1.00  0.00     0.293 HD
ENDBRANCH  10  23
BRANCH  11  25
ATOM     25  O   UNL     1      19.279  45.125   2.336  1.00  0.00    -0.508 OA
ATOM     26  H   UNL     1      18.467  45.732   2.361  1.00  0.00     0.293 HD
ENDBRANCH  11  25
ENDBRANCH   1   2
BRANCH   1  27
ATOM     27  C   UNL     1      20.241  41.828  10.417  1.00  0.00     0.339 C 
ATOM     28  C   UNL     1      20.502  43.355  10.581  1.00  0.00     0.214 C 
ATOM     29  O   UNL     1      21.063  41.072  11.282  1.00  0.00    -0.332 OA
ATOM     30  C   UNL     1      20.925  43.686  12.033  1.00  0.00     0.180 C 
ATOM     31  C   UNL     1      20.738  41.255  12.658  1.00  0.00     0.179 C 
ATOM     32  C   UNL     1      20.282  42.703  13.023  1.00  0.00     0.177 C 
BRANCH  28  33
ATOM     33  O   UNL     1      19.338  44.068  10.244  1.00  0.00    -0.384 OA
ATOM     34  H   UNL     1      18.830  44.195  11.087  1.00  0.00     0.211 HD
ENDBRANCH  28  33
BRANCH  30  35
ATOM     35  O   UNL     1      20.586  45.006  12.374  1.00  0.00    -0.387 OA
ATOM     36  H   UNL     1      21.398  45.414  12.773  1.00  0.00     0.211 HD
ENDBRANCH  30  35
BRANCH  31  37
ATOM     37  C   UNL     1      19.768  40.155  13.123  1.00  0.00     0.191 C 
BRANCH  37  38
ATOM     38  O   UNL     1      19.207  39.490  12.022  1.00  0.00    -0.394 OA
ATOM     39  H   UNL     1      19.839  39.600  11.266  1.00  0.00     0.210 HD
ENDBRANCH  37  38
ENDBRANCH  31  37
BRANCH  32  40
ATOM     40  O   UNL     1      18.881  42.817  12.975  1.00  0.00    -0.387 OA
ATOM     41  H   UNL     1      18.675  43.762  12.750  1.00  0.00     0.211 HD
ENDBRANCH  32  40
ENDBRANCH   1  27
TORSDOF 12
ENDMDL
MODEL 2
REMARK VINA RESULT:    77.291      2.898      6.661
REMARK INTER + INTRA:         113.621
REMARK INTER:                 114.053
REMARK INTRA:                  -0.433
REMARK UNBOUND:                 0.182
REMARK SMILES O=c1c(O[C@H]2O[C@H](CO)[C@H](O)[C@H](O)[C@@H]2O)c(-c2ccc(O)c(O)c2)oc2cc(O)cc(O)c12
REMARK SMILES IDX 4 1 3 2 16 3 25 4 2 5 26 6 1 7 33 8 27 9 31 10 28 11 30 12
REMARK SMILES IDX 17 13 18 14 19 15 20 16 24 17 22 18 21 19 23 21 32 23 29 25
REMARK SMILES IDX 5 27 14 28 6 29 12 30 7 31 10 32 15 33 13 35 8 37 9 38 11 40
REMARK H PARENT 21 20 23 22 32 24 29 26 15 34 13 36 9 39 11 41
REMARK Flexibility Score: inf
ROOT
ATOM      1  O   UNL     1      20.915  39.842   9.743  1.00  0.00    -0.454 OA
ENDROOT
BRANCH   1   2
ATOM      2  C   UNL     1      19.539  40.115   9.842  1.00  0.00     0.214 A 
ATOM      3  C   UNL     1      19.024  41.202  10.574  1.00  0.00     0.180 A 
ATOM      4  O   UNL     1      17.712  41.365  10.686  1.00  0.00    -0.452 OA
ATOM      5  C   UNL     1      18.641  39.261   9.189  1.00  0.00     0.239 A 
ATOM      6  C   UNL     1      16.825  40.560  10.116  1.00  0.00     0.146 A 
ATOM      7  O   UNL     1      19.114  38.338   8.475  1.00  0.00    -0.285 OA
ATOM      8  C   UNL     1      17.244  39.445   9.339  1.00  0.00     0.111 A 
ATOM      9  C   UNL     1      15.468  40.840  10.288  1.00  0.00     0.094 A 
ATOM     10  C   UNL     1      16.240  38.607   8.762  1.00  0.00     0.134 A 
ATOM     11  C   UNL     1      14.500  40.038   9.692  1.00  0.00     0.123 A 
ATOM     12  C   UNL     1      14.888  38.933   8.930  1.00  0.00     0.093 A 
BRANCH   3  13
ATOM     13  C   UNL     1      19.894  42.208  11.199  1.00  0.00     0.025 A 
ATOM     14  C   UNL     1      19.555  43.565  11.127  1.00  0.00     0.016 A 
ATOM     15  C   UNL     1      20.365  44.522  11.744  1.00  0.00     0.051 A 
ATOM     16  C   UNL     1      21.530  44.136  12.416  1.00  0.00     0.157 A 
ATOM     17  C   UNL     1      21.075  41.818  11.851  1.00  0.00     0.062 A 
ATOM     18  C   UNL     1      21.893  42.778  12.465  1.00  0.00     0.158 A 
BRANCH  16  19
ATOM     19  O   UNL     1      22.315  45.114  13.028  1.00  0.00    -0.504 OA
ATOM     20  H   UNL     1      22.669  45.007  13.972  1.00  0.00     0.293 HD
ENDBRANCH  16  19
BRANCH  18  21
ATOM     21  O   UNL     1      23.058  42.388  13.122  1.00  0.00    -0.504 OA
ATOM     22  H   UNL     1      23.037  41.741  13.903  1.00  0.00     0.293 HD
ENDBRANCH  18  21
ENDBRANCH   3  13
BRANCH  10  23
ATOM     23  O   UNL     1      16.506  37.440   8.036  1.00  0.00    -0.507 OA
ATOM     24  H   UNL     1      17.310  37.279   7.453  1.00  0.00     0.293 HD
ENDBRANCH  10  23
BRANCH  11  25
ATOM     25  O   UNL     1      13.153  40.338   9.873  1.00  0.00    -0.508 OA
ATOM     26  H   UNL     1      12.507  39.662  10.266  1.00  0.00     0.293 HD
ENDBRANCH  11  25
ENDBRANCH   1   2
BRANCH   1  27
ATOM     27  C   UNL     1      21.702  39.918   8.545  1.00  0.00     0.339 C 
ATOM     28  C   UNL     1      23.088  40.587   8.786  1.00  0.00     0.214 C 
ATOM     29  O   UNL     1      20.979  40.590   7.533  1.00  0.00    -0.332 OA
ATOM     30  C   UNL     1      23.628  41.217   7.480  1.00  0.00     0.180 C 
ATOM     31  C   UNL     1      21.572  40.455   6.244  1.00  0.00     0.179 C 
ATOM     32  C   UNL     1      23.133  40.434   6.254  1.00  0.00     0.177 C 
BRANCH  28  33
ATOM     33  O   UNL     1      23.994  39.626   9.268  1.00  0.00    -0.384 OA
ATOM     34  H   UNL     1      24.394  40.003  10.095  1.00  0.00     0.211 HD
ENDBRANCH  28  33
BRANCH  30  35
ATOM     35  O   UNL     1      25.032  41.271   7.483  1.00  0.00    -0.387 OA
ATOM     36  H   UNL     1      25.341  40.672   6.753  1.00  0.00     0.211 HD
ENDBRANCH  30  35
BRANCH  31  37
ATOM     37  C   UNL     1      20.932  39.279   5.488  1.00  0.00     0.191 C 
BRANCH  37  38
ATOM     38  O   UNL     1      20.750  39.598   4.134  1.00  0.00    -0.394 OA
ATOM     39  H   UNL     1      21.269  38.935   3.609  1.00  0.00     0.210 HD
ENDBRANCH  37  38
ENDBRANCH  31  37
BRANCH  32  40
ATOM     40  O   UNL     1      23.618  39.114   6.296  1.00  0.00    -0.387 OA
ATOM     41  H   UNL     1      22.919  38.562   6.734  1.00  0.00     0.211 HD
ENDBRANCH  32  40
ENDBRANCH   1  27
TORSDOF 12
ENDMDL
MODEL 3
REMARK VINA RESULT:    77.781      1.292      2.332
REMARK INTER + INTRA:         114.339
REMARK INTER:                 112.420
REMARK INTRA:                   1.919
REMARK UNBOUND:                 0.182
REMARK SMILES O=c1c(O[C@H]2O[C@H](CO)[C@H](O)[C@H](O)[C@@H]2O)c(-c2ccc(O)c(O)c2)oc2cc(O)cc(O)c12
REMARK SMILES IDX 4 1 3 2 16 3 25 4 2 5 26 6 1 7 33 8 27 9 31 10 28 11 30 12
REMARK SMILES IDX 17 13 18 14 19 15 20 16 24 17 22 18 21 19 23 21 32 23 29 25
REMARK SMILES IDX 5 27 14 28 6 29 12 30 7 31 10 32 15 33 13 35 8 37 9 38 11 40
REMARK H PARENT 21 20 23 22 32 24 29 26 15 34 13 36 9 39 11 41
REMARK Flexibility Score: inf
ROOT
ATOM      1  O   UNL     1      20.078  43.438   8.894  1.00  0.00    -0.454 OA
ENDROOT
BRANCH   1   2
ATOM      2  C   UNL     1      19.682  43.251   7.558  1.00  0.00     0.214 A 
ATOM      3  C   UNL     1      18.427  42.727   7.197  1.00  0.00     0.180 A 
ATOM      4  O   UNL     1      18.140  42.510   5.919  1.00  0.00    -0.452 OA
ATOM      5  C   UNL     1      20.582  43.596   6.541  1.00  0.00     0.239 A 
ATOM      6  C   UNL     1      18.976  42.787   4.927  1.00  0.00     0.146 A 
ATOM      7  O   UNL     1      21.671  44.135   6.873  1.00  0.00    -0.285 OA
ATOM      8  C   UNL     1      20.260  43.338   5.186  1.00  0.00     0.111 A 
ATOM      9  C   UNL     1      18.559  42.533   3.618  1.00  0.00     0.094 A 
ATOM     10  C   UNL     1      21.121  43.601   4.075  1.00  0.00     0.134 A 
ATOM     11  C   UNL     1      19.391  42.826   2.543  1.00  0.00     0.123 A 
ATOM     12  C   UNL     1      20.660  43.362   2.773  1.00  0.00     0.093 A 
BRANCH   3  13
ATOM     13  C   UNL     1      17.382  42.439   8.189  1.00  0.00     0.025 A 
ATOM     14  C   UNL     1      16.551  43.469   8.646  1.00  0.00     0.016 A 
ATOM     15  C   UNL     1      15.538  43.195   9.569  1.00  0.00     0.051 A 
ATOM     16  C   UNL     1      15.364  41.897  10.063  1.00  0.00     0.157 A 
ATOM     17  C   UNL     1      17.227  41.140   8.700  1.00  0.00     0.062 A 
ATOM     18  C   UNL     1      16.216  40.864   9.632  1.00  0.00     0.158 A 
BRANCH  16  19
ATOM     19  O   UNL     1      14.340  41.652  10.979  1.00  0.00    -0.504 OA
ATOM     20  H   UNL     1      13.378  41.910  10.792  1.00  0.00     0.293 HD
ENDBRANCH  16  19
BRANCH  18  21
ATOM     21  O   UNL     1      16.055  39.571  10.128  1.00  0.00    -0.504 OA
ATOM     22  H   UNL     1      16.612  38.797   9.783  1.00  0.00     0.293 HD
ENDBRANCH  18  21
ENDBRANCH   3  13
BRANCH  10  23
ATOM     23  O   UNL     1      22.433  44.075   4.186  1.00  0.00    -0.507 OA
ATOM     24  H   UNL     1      23.250  43.652   3.777  1.00  0.00     0.293 HD
ENDBRANCH  10  23
BRANCH  11  25
ATOM     25  O   UNL     1      18.954  42.569   1.246  1.00  0.00    -0.508 OA
ATOM     26  H   UNL     1      19.576  42.649   0.450  1.00  0.00     0.293 HD
ENDBRANCH  11  25
ENDBRANCH   1   2
BRANCH   1  27
ATOM     27  C   UNL     1      20.069  42.435   9.921  1.00  0.00     0.339 C 
ATOM     28  C   UNL     1      19.880  40.999   9.348  1.00  0.00     0.214 C 
ATOM     29  O   UNL     1      19.079  42.737  10.883  1.00  0.00    -0.332 OA
ATOM     30  C   UNL     1      19.259  40.061  10.412  1.00  0.00     0.180 C 
ATOM     31  C   UNL     1      19.200  41.955  12.069  1.00  0.00     0.179 C 
ATOM     32  C   UNL     1      19.682  40.490  11.825  1.00  0.00     0.177 C 
BRANCH  28  33
ATOM     33  O   UNL     1      21.123  40.496   8.927  1.00  0.00    -0.384 OA
ATOM     34  H   UNL     1      21.663  40.352   9.748  1.00  0.00     0.211 HD
ENDBRANCH  28  33
BRANCH  30  35
ATOM     35  O   UNL     1      19.623  38.723  10.185  1.00  0.00    -0.387 OA
ATOM     36  H   UNL     1      19.111  38.175  10.835  1.00  0.00     0.211 HD
ENDBRANCH  30  35
BRANCH  31  37
ATOM     37  C   UNL     1      20.017  42.717  13.125  1.00  0.00     0.191 C 
BRANCH  37  38
ATOM     38  O   UNL     1      21.017  43.491  12.516  1.00  0.00    -0.394 OA
ATOM     39  H   UNL     1      20.565  44.084  11.862  1.00  0.00     0.210 HD
ENDBRANCH  37  38
ENDBRANCH  31  37
BRANCH  32  40
ATOM     40  O   UNL     1      21.077  40.389  11.964  1.00  0.00    -0.387 OA
ATOM     41  H   UNL     1      21.475  41.134  11.441  1.00  0.00     0.211 HD
ENDBRANCH  32  40
ENDBRANCH   1  27
TORSDOF 12
ENDMDL
MODEL 4
REMARK VINA RESULT:    77.943     12.428     14.783
REMARK INTER + INTRA:         114.577
REMARK INTER:                 115.121
REMARK INTRA:                  -0.544
REMARK UNBOUND:                 0.182
REMARK SMILES O=c1c(O[C@H]2O[C@H](CO)[C@H](O)[C@H](O)[C@@H]2O)c(-c2ccc(O)c(O)c2)oc2cc(O)cc(O)c12
REMARK SMILES IDX 4 1 3 2 16 3 25 4 2 5 26 6 1 7 33 8 27 9 31 10 28 11 30 12
REMARK SMILES IDX 17 13 18 14 19 15 20 16 24 17 22 18 21 19 23 21 32 23 29 25
REMARK SMILES IDX 5 27 14 28 6 29 12 30 7 31 10 32 15 33 13 35 8 37 9 38 11 40
REMARK H PARENT 21 20 23 22 32 24 29 26 15 34 13 36 9 39 11 41
REMARK Flexibility Score: inf
ROOT
ATOM      1  O   UNL     1      21.442  32.896  -0.418  1.00  0.00    -0.454 OA
ENDROOT
BRANCH   1   2
ATOM      2  C   UNL     1      22.202  33.665  -1.318  1.00  0.00     0.214 A 
ATOM      3  C   UNL     1      23.301  33.148  -2.029  1.00  0.00     0.180 A 
ATOM      4  O   UNL     1      24.019  33.944  -2.811  1.00  0.00    -0.452 OA
ATOM      5  C   UNL     1      21.850  35.008  -1.510  1.00  0.00     0.239 A 
ATOM      6  C   UNL     1      23.746  35.229  -2.993  1.00  0.00     0.146 A 
ATOM      7  O   UNL     1      20.819  35.438  -0.930  1.00  0.00    -0.285 OA
ATOM      8  C   UNL     1      22.643  35.841  -2.336  1.00  0.00     0.111 A 
ATOM      9  C   UNL     1      24.561  35.966  -3.855  1.00  0.00     0.094 A 
ATOM     10  C   UNL     1      22.408  37.233  -2.562  1.00  0.00     0.134 A 
ATOM     11  C   UNL     1      24.302  37.311  -4.095  1.00  0.00     0.123 A 
ATOM     12  C   UNL     1      23.228  37.935  -3.456  1.00  0.00     0.093 A 
BRANCH   3  13
ATOM     13  C   UNL     1      23.675  31.729  -1.971  1.00  0.00     0.025 A 
ATOM     14  C   UNL     1      23.478  30.909  -3.090  1.00  0.00     0.016 A 
ATOM     15  C   UNL     1      23.857  29.565  -3.049  1.00  0.00     0.051 A 
ATOM     16  C   UNL     1      24.412  29.022  -1.885  1.00  0.00     0.157 A 
ATOM     17  C   UNL     1      24.209  31.182  -0.793  1.00  0.00     0.062 A 
ATOM     18  C   UNL     1      24.583  29.831  -0.747  1.00  0.00     0.158 A 
BRANCH  16  19
ATOM     19  O   UNL     1      24.786  27.678  -1.876  1.00  0.00    -0.504 OA
ATOM     20  H   UNL     1      24.481  27.039  -1.150  1.00  0.00     0.293 HD
ENDBRANCH  16  19
BRANCH  18  21
ATOM     21  O   UNL     1      25.124  29.294   0.419  1.00  0.00    -0.504 OA
ATOM     22  H   UNL     1      26.009  28.798   0.415  1.00  0.00     0.293 HD
ENDBRANCH  18  21
ENDBRANCH   3  13
BRANCH  10  23
ATOM     23  O   UNL     1      21.406  37.979  -1.931  1.00  0.00    -0.507 OA
ATOM     24  H   UNL     1      21.540  38.612  -1.160  1.00  0.00     0.293 HD
ENDBRANCH  10  23
BRANCH  11  25
ATOM     25  O   UNL     1      25.125  38.025  -4.961  1.00  0.00    -0.508 OA
ATOM     26  H   UNL     1      24.967  38.027  -5.963  1.00  0.00     0.293 HD
ENDBRANCH  11  25
ENDBRANCH   1   2
BRANCH   1  27
ATOM     27  C   UNL     1      20.035  33.037  -0.173  1.00  0.00     0.339 C 
ATOM     28  C   UNL     1      19.588  32.334   1.144  1.00  0.00     0.214 C 
ATOM     29  O   UNL     1      19.301  32.560  -1.282  1.00  0.00    -0.332 OA
ATOM     30  C   UNL     1      18.090  31.950   1.079  1.00  0.00     0.180 C 
ATOM     31  C   UNL     1      17.923  32.925  -1.235  1.00  0.00     0.179 C 
ATOM     32  C   UNL     1      17.313  32.943   0.201  1.00  0.00     0.177 C 
BRANCH  28  33
ATOM     33  O   UNL     1      19.820  33.192   2.234  1.00  0.00    -0.384 OA
ATOM     34  H   UNL     1      19.489  34.088   1.964  1.00  0.00     0.211 HD
ENDBRANCH  28  33
BRANCH  30  35
ATOM     35  O   UNL     1      17.523  31.895   2.363  1.00  0.00    -0.387 OA
ATOM     36  H   UNL     1      17.473  30.936   2.612  1.00  0.00     0.211 HD
ENDBRANCH  30  35
BRANCH  31  37
ATOM     37  C   UNL     1      17.692  34.220  -2.032  1.00  0.00     0.191 C 
BRANCH  37  38
ATOM     38  O   UNL     1      16.430  34.761  -1.746  1.00  0.00    -0.394 OA
ATOM     39  H   UNL     1      16.128  34.354  -0.893  1.00  0.00     0.210 HD
ENDBRANCH  37  38
ENDBRANCH  31  37
BRANCH  32  40
ATOM     40  O   UNL     1      17.375  34.232   0.759  1.00  0.00    -0.387 OA
ATOM     41  H   UNL     1      16.470  34.439   1.113  1.00  0.00     0.211 HD
ENDBRANCH  32  40
ENDBRANCH   1  27
TORSDOF 12
ENDMDL
MODEL 5
REMARK VINA RESULT:    78.205      1.497      2.798
REMARK INTER + INTRA:         114.963
REMARK INTER:                 116.022
REMARK INTRA:                  -1.059
REMARK UNBOUND:                 0.182
REMARK SMILES O=c1c(O[C@H]2O[C@H](CO)[C@H](O)[C@H](O)[C@@H]2O)c(-c2ccc(O)c(O)c2)oc2cc(O)cc(O)c12
REMARK SMILES IDX 4 1 3 2 16 3 25 4 2 5 26 6 1 7 33 8 27 9 31 10 28 11 30 12
REMARK SMILES IDX 17 13 18 14 19 15 20 16 24 17 22 18 21 19 23 21 32 23 29 25
REMARK SMILES IDX 5 27 14 28 6 29 12 30 7 31 10 32 15 33 13 35 8 37 9 38 11 40
REMARK H PARENT 21 20 23 22 32 24 29 26 15 34 13 36 9 39 11 41
REMARK Flexibility Score: inf
ROOT
ATOM      1  O   UNL     1      18.667  43.113  10.370  1.00  0.00    -0.454 OA
ENDROOT
BRANCH   1   2
ATOM      2  C   UNL     1      18.635  43.030   8.966  1.00  0.00     0.214 A 
ATOM      3  C   UNL     1      17.617  42.359   8.262  1.00  0.00     0.180 A 
ATOM      4  O   UNL     1      17.681  42.257   6.940  1.00  0.00    -0.452 OA
ATOM      5  C   UNL     1      19.666  43.637   8.238  1.00  0.00     0.239 A 
ATOM      6  C   UNL     1      18.658  42.784   6.214  1.00  0.00     0.146 A 
ATOM      7  O   UNL     1      20.528  44.299   8.873  1.00  0.00    -0.285 OA
ATOM      8  C   UNL     1      19.722  43.498   6.829  1.00  0.00     0.111 A 
ATOM      9  C   UNL     1      18.612  42.629   4.827  1.00  0.00     0.094 A 
ATOM     10  C   UNL     1      20.753  44.031   5.994  1.00  0.00     0.134 A 
ATOM     11  C   UNL     1      19.602  43.182   4.020  1.00  0.00     0.123 A 
ATOM     12  C   UNL     1      20.660  43.882   4.603  1.00  0.00     0.093 A 
BRANCH   3  13
ATOM     13  C   UNL     1      16.443  41.787   8.935  1.00  0.00     0.025 A 
ATOM     14  C   UNL     1      16.366  40.406   9.150  1.00  0.00     0.016 A 
ATOM     15  C   UNL     1      15.264  39.861   9.815  1.00  0.00     0.051 A 
ATOM     16  C   UNL     1      14.220  40.687  10.247  1.00  0.00     0.157 A 
ATOM     17  C   UNL     1      15.387  42.617   9.345  1.00  0.00     0.062 A 
ATOM     18  C   UNL     1      14.277  42.072  10.006  1.00  0.00     0.158 A 
BRANCH  16  19
ATOM     19  O   UNL     1      13.135  40.115  10.914  1.00  0.00    -0.504 OA
ATOM     20  H   UNL     1      12.902  40.359  11.869  1.00  0.00     0.293 HD
ENDBRANCH  16  19
BRANCH  18  21
ATOM     21  O   UNL     1      13.235  42.898  10.424  1.00  0.00    -0.504 OA
ATOM     22  H   UNL     1      12.280  42.745  10.118  1.00  0.00     0.293 HD
ENDBRANCH  18  21
ENDBRANCH   3  13
BRANCH  10  23
ATOM     23  O   UNL     1      21.891  44.693   6.467  1.00  0.00    -0.507 OA
ATOM     24  H   UNL     1      22.589  45.144   5.900  1.00  0.00     0.293 HD
ENDBRANCH  10  23
BRANCH  11  25
ATOM     25  O   UNL     1      19.533  43.018   2.640  1.00  0.00    -0.508 OA
ATOM     26  H   UNL     1      18.704  43.277   2.115  1.00  0.00     0.293 HD
ENDBRANCH  11  25
ENDBRANCH   1   2
BRANCH   1  27
ATOM     27  C   UNL     1      19.713  42.613  11.217  1.00  0.00     0.339 C 
ATOM     28  C   UNL     1      19.515  41.112  11.583  1.00  0.00     0.214 C 
ATOM     29  O   UNL     1      19.819  43.414  12.377  1.00  0.00    -0.332 OA
ATOM     30  C   UNL     1      20.222  40.776  12.918  1.00  0.00     0.180 C 
ATOM     31  C   UNL     1      21.008  43.158  13.121  1.00  0.00     0.179 C 
ATOM     32  C   UNL     1      21.460  41.664  13.115  1.00  0.00     0.177 C 
BRANCH  28  33
ATOM     33  O   UNL     1      20.026  40.307  10.550  1.00  0.00    -0.384 OA
ATOM     34  H   UNL     1      19.343  39.609  10.371  1.00  0.00     0.211 HD
ENDBRANCH  28  33
BRANCH  30  35
ATOM     35  O   UNL     1      20.587  39.420  12.973  1.00  0.00    -0.387 OA
ATOM     36  H   UNL     1      21.356  39.358  13.598  1.00  0.00     0.211 HD
ENDBRANCH  30  35
BRANCH  31  37
ATOM     37  C   UNL     1      22.111  44.149  12.712  1.00  0.00     0.191 C 
BRANCH  37  38
ATOM     38  O   UNL     1      21.910  44.603  11.400  1.00  0.00    -0.394 OA
ATOM     39  H   UNL     1      22.706  45.141  11.155  1.00  0.00     0.210 HD
ENDBRANCH  37  38
ENDBRANCH  31  37
BRANCH  32  40
ATOM     40  O   UNL     1      22.394  41.424  12.092  1.00  0.00    -0.387 OA
ATOM     41  H   UNL     1      21.898  41.456  11.233  1.00  0.00     0.211 HD
ENDBRANCH  32  40
ENDBRANCH   1  27
TORSDOF 12
ENDMDL
MODEL 6
REMARK VINA RESULT:    78.427     12.920     15.144
REMARK INTER + INTRA:         115.289
REMARK INTER:                 112.675
REMARK INTRA:                   2.614
REMARK UNBOUND:                 0.182
REMARK SMILES O=c1c(O[C@H]2O[C@H](CO)[C@H](O)[C@H](O)[C@@H]2O)c(-c2ccc(O)c(O)c2)oc2cc(O)cc(O)c12
REMARK SMILES IDX 4 1 3 2 16 3 25 4 2 5 26 6 1 7 33 8 27 9 31 10 28 11 30 12
REMARK SMILES IDX 17 13 18 14 19 15 20 16 24 17 22 18 21 19 23 21 32 23 29 25
REMARK SMILES IDX 5 27 14 28 6 29 12 30 7 31 10 32 15 33 13 35 8 37 9 38 11 40
REMARK H PARENT 21 20 23 22 32 24 29 26 15 34 13 36 9 39 11 41
REMARK Flexibility Score: inf
ROOT
ATOM      1  O   UNL     1      21.821  32.189  -0.500  1.00  0.00    -0.454 OA
ENDROOT
BRANCH   1   2
ATOM      2  C   UNL     1      22.467  33.022  -1.431  1.00  0.00     0.214 A 
ATOM      3  C   UNL     1      23.517  32.578  -2.257  1.00  0.00     0.180 A 
ATOM      4  O   UNL     1      24.131  33.432  -3.066  1.00  0.00    -0.452 OA
ATOM      5  C   UNL     1      22.049  34.355  -1.536  1.00  0.00     0.239 A 
ATOM      6  C   UNL     1      23.794  34.710  -3.171  1.00  0.00     0.146 A 
ATOM      7  O   UNL     1      21.059  34.720  -0.849  1.00  0.00    -0.285 OA
ATOM      8  C   UNL     1      22.732  35.251  -2.394  1.00  0.00     0.111 A 
ATOM      9  C   UNL     1      24.499  35.512  -4.070  1.00  0.00     0.094 A 
ATOM     10  C   UNL     1      22.425  36.640  -2.541  1.00  0.00     0.134 A 
ATOM     11  C   UNL     1      24.169  36.854  -4.231  1.00  0.00     0.123 A 
ATOM     12  C   UNL     1      23.134  37.408  -3.474  1.00  0.00     0.093 A 
BRANCH   3  13
ATOM     13  C   UNL     1      23.947  31.174  -2.292  1.00  0.00     0.025 A 
ATOM     14  C   UNL     1      24.315  30.527  -1.106  1.00  0.00     0.016 A 
ATOM     15  C   UNL     1      24.698  29.183  -1.130  1.00  0.00     0.051 A 
ATOM     16  C   UNL     1      24.742  28.482  -2.341  1.00  0.00     0.157 A 
ATOM     17  C   UNL     1      24.013  30.481  -3.512  1.00  0.00     0.062 A 
ATOM     18  C   UNL     1      24.404  29.135  -3.540  1.00  0.00     0.158 A 
BRANCH  16  19
ATOM     19  O   UNL     1      25.123  27.140  -2.333  1.00  0.00    -0.504 OA
ATOM     20  H   UNL     1      24.443  26.388  -2.345  1.00  0.00     0.293 HD
ENDBRANCH  16  19
BRANCH  18  21
ATOM     21  O   UNL     1      24.457  28.446  -4.751  1.00  0.00    -0.504 OA
ATOM     22  H   UNL     1      24.157  28.874  -5.619  1.00  0.00     0.293 HD
ENDBRANCH  18  21
ENDBRANCH   3  13
BRANCH  10  23
ATOM     23  O   UNL     1      21.457  37.319  -1.793  1.00  0.00    -0.507 OA
ATOM     24  H   UNL     1      21.586  37.702  -0.871  1.00  0.00     0.293 HD
ENDBRANCH  10  23
BRANCH  11  25
ATOM     25  O   UNL     1      24.883  37.633  -5.136  1.00  0.00    -0.508 OA
ATOM     26  H   UNL     1      24.563  38.555  -5.411  1.00  0.00     0.293 HD
ENDBRANCH  11  25
ENDBRANCH   1   2
BRANCH   1  27
ATOM     27  C   UNL     1      20.507  32.393   0.040  1.00  0.00     0.339 C 
ATOM     28  C   UNL     1      19.415  32.470  -1.068  1.00  0.00     0.214 C 
ATOM     29  O   UNL     1      20.493  33.548   0.855  1.00  0.00    -0.332 OA
ATOM     30  C   UNL     1      18.192  33.281  -0.576  1.00  0.00     0.180 C 
ATOM     31  C   UNL     1      19.312  33.655   1.647  1.00  0.00     0.179 C 
ATOM     32  C   UNL     1      18.019  33.135   0.943  1.00  0.00     0.177 C 
BRANCH  28  33
ATOM     33  O   UNL     1      19.019  31.170  -1.426  1.00  0.00    -0.384 OA
ATOM     34  H   UNL     1      19.727  30.812  -2.023  1.00  0.00     0.211 HD
ENDBRANCH  28  33
BRANCH  30  35
ATOM     35  O   UNL     1      17.017  32.882  -1.236  1.00  0.00    -0.387 OA
ATOM     36  H   UNL     1      16.272  33.009  -0.592  1.00  0.00     0.211 HD
ENDBRANCH  30  35
BRANCH  31  37
ATOM     37  C   UNL     1      19.554  33.052   3.041  1.00  0.00     0.191 C 
BRANCH  37  38
ATOM     38  O   UNL     1      20.724  33.576   3.612  1.00  0.00    -0.394 OA
ATOM     39  H   UNL     1      21.020  32.932   4.305  1.00  0.00     0.210 HD
ENDBRANCH  37  38
ENDBRANCH  31  37
BRANCH  32  40
ATOM     40  O   UNL     1      17.771  31.791   1.274  1.00  0.00    -0.387 OA
ATOM     41  H   UNL     1      16.790  31.700   1.401  1.00  0.00     0.211 HD
ENDBRANCH  32  40
ENDBRANCH   1  27
TORSDOF 12
ENDMDL
MODEL 7
REMARK VINA RESULT:    78.541      2.467      4.687
REMARK INTER + INTRA:         115.456
REMARK INTER:                 113.249
REMARK INTRA:                   2.206
REMARK UNBOUND:                 0.182
REMARK SMILES O=c1c(O[C@H]2O[C@H](CO)[C@H](O)[C@H](O)[C@@H]2O)c(-c2ccc(O)c(O)c2)oc2cc(O)cc(O)c12
REMARK SMILES IDX 4 1 3 2 16 3 25 4 2 5 26 6 1 7 33 8 27 9 31 10 28 11 30 12
REMARK SMILES IDX 17 13 18 14 19 15 20 16 24 17 22 18 21 19 23 21 32 23 29 25
REMARK SMILES IDX 5 27 14 28 6 29 12 30 7 31 10 32 15 33 13 35 8 37 9 38 11 40
REMARK H PARENT 21 20 23 22 32 24 29 26 15 34 13 36 9 39 11 41
REMARK Flexibility Score: inf
ROOT
ATOM      1  O   UNL     1      20.173  39.600   9.670  1.00  0.00    -0.454 OA
ENDROOT
BRANCH   1   2
ATOM      2  C   UNL     1      20.927  40.368   8.764  1.00  0.00     0.214 A 
ATOM      3  C   UNL     1      21.018  41.771   8.838  1.00  0.00     0.180 A 
ATOM      4  O   UNL     1      21.690  42.442   7.912  1.00  0.00    -0.452 OA
ATOM      5  C   UNL     1      21.613  39.705   7.738  1.00  0.00     0.239 A 
ATOM      6  C   UNL     1      22.323  41.859   6.903  1.00  0.00     0.146 A 
ATOM      7  O   UNL     1      21.589  38.446   7.727  1.00  0.00    -0.285 OA
ATOM      8  C   UNL     1      22.309  40.446   6.752  1.00  0.00     0.111 A 
ATOM      9  C   UNL     1      23.014  42.667   5.998  1.00  0.00     0.094 A 
ATOM     10  C   UNL     1      22.999  39.878   5.635  1.00  0.00     0.134 A 
ATOM     11  C   UNL     1      23.712  42.101   4.935  1.00  0.00     0.123 A 
ATOM     12  C   UNL     1      23.707  40.715   4.762  1.00  0.00     0.093 A 
BRANCH   3  13
ATOM     13  C   UNL     1      20.421  42.537   9.940  1.00  0.00     0.025 A 
ATOM     14  C   UNL     1      19.075  42.345  10.276  1.00  0.00     0.016 A 
ATOM     15  C   UNL     1      18.510  43.052  11.341  1.00  0.00     0.051 A 
ATOM     16  C   UNL     1      19.276  43.974  12.063  1.00  0.00     0.157 A 
ATOM     17  C   UNL     1      21.186  43.480  10.646  1.00  0.00     0.062 A 
ATOM     18  C   UNL     1      20.620  44.196  11.710  1.00  0.00     0.158 A 
BRANCH  16  19
ATOM     19  O   UNL     1      18.687  44.660  13.125  1.00  0.00    -0.504 OA
ATOM     20  H   UNL     1      19.232  45.030  13.895  1.00  0.00     0.293 HD
ENDBRANCH  16  19
BRANCH  18  21
ATOM     21  O   UNL     1      21.385  45.122  12.417  1.00  0.00    -0.504 OA
ATOM     22  H   UNL     1      21.444  46.092  12.129  1.00  0.00     0.293 HD
ENDBRANCH  18  21
ENDBRANCH   3  13
BRANCH  10  23
ATOM     23  O   UNL     1      23.011  38.513   5.323  1.00  0.00    -0.507 OA
ATOM     24  H   UNL     1      23.751  38.023   4.850  1.00  0.00     0.293 HD
ENDBRANCH  10  23
BRANCH  11  25
ATOM     25  O   UNL     1      24.397  42.925   4.047  1.00  0.00    -0.508 OA
ATOM     26  H   UNL     1      23.908  43.560   3.427  1.00  0.00     0.293 HD
ENDBRANCH  11  25
ENDBRANCH   1   2
BRANCH   1  27
ATOM     27  C   UNL     1      18.827  39.875  10.086  1.00  0.00     0.339 C 
ATOM     28  C   UNL     1      18.406  39.036  11.329  1.00  0.00     0.214 C 
ATOM     29  O   UNL     1      17.936  39.674   9.007  1.00  0.00    -0.332 OA
ATOM     30  C   UNL     1      16.870  38.857  11.375  1.00  0.00     0.180 C 
ATOM     31  C   UNL     1      16.633  40.196   9.257  1.00  0.00     0.179 C 
ATOM     32  C   UNL     1      16.163  40.064  10.740  1.00  0.00     0.177 C 
BRANCH  28  33
ATOM     33  O   UNL     1      18.853  39.676  12.498  1.00  0.00    -0.384 OA
ATOM     34  H   UNL     1      19.661  39.184  12.799  1.00  0.00     0.211 HD
ENDBRANCH  28  33
BRANCH  30  35
ATOM     35  O   UNL     1      16.418  38.672  12.693  1.00  0.00    -0.387 OA
ATOM     36  H   UNL     1      15.838  39.449  12.906  1.00  0.00     0.211 HD
ENDBRANCH  30  35
BRANCH  31  37
ATOM     37  C   UNL     1      16.515  41.618   8.684  1.00  0.00     0.191 C 
BRANCH  37  38
ATOM     38  O   UNL     1      15.467  42.317   9.303  1.00  0.00    -0.394 OA
ATOM     39  H   UNL     1      15.758  43.261   9.383  1.00  0.00     0.210 HD
ENDBRANCH  37  38
ENDBRANCH  31  37
BRANCH  32  40
ATOM     40  O   UNL     1      16.455  41.232  11.467  1.00  0.00    -0.387 OA
ATOM     41  H   UNL     1      16.511  41.975  10.811  1.00  0.00     0.211 HD
ENDBRANCH  32  40
ENDBRANCH   1  27
TORSDOF 12
ENDMDL
MODEL 8
REMARK VINA RESULT:    79.580      2.754      6.675
REMARK INTER + INTRA:         116.980
REMARK INTER:                 113.618
REMARK INTRA:                   3.362
REMARK UNBOUND:                 0.182
REMARK SMILES O=c1c(O[C@H]2O[C@H](CO)[C@H](O)[C@H](O)[C@@H]2O)c(-c2ccc(O)c(O)c2)oc2cc(O)cc(O)c12
REMARK SMILES IDX 4 1 3 2 16 3 25 4 2 5 26 6 1 7 33 8 27 9 31 10 28 11 30 12
REMARK SMILES IDX 17 13 18 14 19 15 20 16 24 17 22 18 21 19 23 21 32 23 29 25
REMARK SMILES IDX 5 27 14 28 6 29 12 30 7 31 10 32 15 33 13 35 8 37 9 38 11 40
REMARK H PARENT 21 20 23 22 32 24 29 26 15 34 13 36 9 39 11 41
REMARK Flexibility Score: inf
ROOT
ATOM      1  O   UNL     1      17.439  43.300  10.065  1.00  0.00    -0.454 OA
ENDROOT
BRANCH   1   2
ATOM      2  C   UNL     1      16.681  42.134  10.278  1.00  0.00     0.214 A 
ATOM      3  C   UNL     1      17.263  40.863  10.448  1.00  0.00     0.180 A 
ATOM      4  O   UNL     1      16.490  39.792  10.577  1.00  0.00    -0.452 OA
ATOM      5  C   UNL     1      15.285  42.243  10.317  1.00  0.00     0.239 A 
ATOM      6  C   UNL     1      15.165  39.844  10.581  1.00  0.00     0.146 A 
ATOM      7  O   UNL     1      14.779  43.394  10.241  1.00  0.00    -0.285 OA
ATOM      8  C   UNL     1      14.482  41.083  10.437  1.00  0.00     0.111 A 
ATOM      9  C   UNL     1      14.454  38.653  10.741  1.00  0.00     0.094 A 
ATOM     10  C   UNL     1      13.052  41.072  10.435  1.00  0.00     0.134 A 
ATOM     11  C   UNL     1      13.063  38.658  10.774  1.00  0.00     0.123 A 
ATOM     12  C   UNL     1      12.371  39.862  10.628  1.00  0.00     0.093 A 
BRANCH   3  13
ATOM     13  C   UNL     1      18.717  40.671  10.530  1.00  0.00     0.025 A 
ATOM     14  C   UNL     1      19.434  40.280   9.392  1.00  0.00     0.016 A 
ATOM     15  C   UNL     1      20.821  40.123   9.458  1.00  0.00     0.051 A 
ATOM     16  C   UNL     1      21.500  40.330  10.665  1.00  0.00     0.157 A 
ATOM     17  C   UNL     1      19.390  40.856  11.748  1.00  0.00     0.062 A 
ATOM     18  C   UNL     1      20.781  40.692  11.819  1.00  0.00     0.158 A 
BRANCH  16  19
ATOM     19  O   UNL     1      22.885  40.171  10.699  1.00  0.00    -0.504 OA
ATOM     20  H   UNL     1      23.509  40.778  10.179  1.00  0.00     0.293 HD
ENDBRANCH  16  19
BRANCH  18  21
ATOM     21  O   UNL     1      21.449  40.888  13.027  1.00  0.00    -0.504 OA
ATOM     22  H   UNL     1      21.007  41.360  13.807  1.00  0.00     0.293 HD
ENDBRANCH  18  21
ENDBRANCH   3  13
BRANCH  10  23
ATOM     23  O   UNL     1      12.253  42.202  10.233  1.00  0.00    -0.507 OA
ATOM     24  H   UNL     1      12.368  42.882   9.500  1.00  0.00     0.293 HD
ENDBRANCH  10  23
BRANCH  11  25
ATOM     25  O   UNL     1      12.376  37.459  10.939  1.00  0.00    -0.508 OA
ATOM     26  H   UNL     1      11.700  37.136  10.256  1.00  0.00     0.293 HD
ENDBRANCH  11  25
ENDBRANCH   1   2
BRANCH   1  27
ATOM     27  C   UNL     1      18.820  43.480  10.413  1.00  0.00     0.339 C 
ATOM     28  C   UNL     1      18.999  44.246  11.757  1.00  0.00     0.214 C 
ATOM     29  O   UNL     1      19.503  44.127   9.358  1.00  0.00    -0.332 OA
ATOM     30  C   UNL     1      20.371  44.961  11.801  1.00  0.00     0.180 C 
ATOM     31  C   UNL     1      20.921  44.084   9.506  1.00  0.00     0.179 C 
ATOM     32  C   UNL     1      21.415  44.185  10.984  1.00  0.00     0.177 C 
BRANCH  28  33
ATOM     33  O   UNL     1      18.892  43.342  12.829  1.00  0.00    -0.384 OA
ATOM     34  H   UNL     1      19.348  43.765  13.602  1.00  0.00     0.211 HD
ENDBRANCH  28  33
BRANCH  30  35
ATOM     35  O   UNL     1      20.818  45.125  13.123  1.00  0.00    -0.387 OA
ATOM     36  H   UNL     1      21.090  44.226  13.444  1.00  0.00     0.211 HD
ENDBRANCH  30  35
BRANCH  31  37
ATOM     37  C   UNL     1      21.497  42.888   8.731  1.00  0.00     0.191 C 
BRANCH  37  38
ATOM     38  O   UNL     1      21.495  43.143   7.351  1.00  0.00    -0.394 OA
ATOM     39  H   UNL     1      22.440  43.277   7.081  1.00  0.00     0.210 HD
ENDBRANCH  37  38
ENDBRANCH  31  37
BRANCH  32  40
ATOM     40  O   UNL     1      21.608  42.907  11.538  1.00  0.00    -0.387 OA
ATOM     41  H   UNL     1      20.734  42.615  11.907  1.00  0.00     0.211 HD
ENDBRANCH  32  40
ENDBRANCH   1  27
TORSDOF 12
ENDMDL
