MODEL 1
REMARK VINA RESULT:    -5.027      0.000      0.000
REMARK INTER + INTRA:          -5.912
REMARK INTER:                  -5.762
REMARK INTRA:                  -0.150
REMARK UNBOUND:                -0.150
REMARK SMILES O=C([O-])C=Cc1ccc(O)cc1
REMARK SMILES IDX 6 1 7 2 12 3 8 4 11 5 9 6 5 7 4 8 2 9 1 10 3 11 10 12
REMARK H PARENT 10 13
REMARK Flexibility Score: inf
ROOT
ATOM      1  C   UNL     1       2.588  -8.616   4.063  1.00  0.00    -0.025 A 
ATOM      2  C   UNL     1       3.121  -7.515   4.754  1.00  0.00     0.012 A 
ATOM      3  C   UNL     1       3.466  -9.473   3.366  1.00  0.00     0.012 A 
ATOM      4  C   UNL     1       4.501  -7.286   4.770  1.00  0.00     0.047 A 
ATOM      5  C   UNL     1       4.844  -9.239   3.386  1.00  0.00     0.047 A 
ATOM      6  C   UNL     1       5.366  -8.150   4.088  1.00  0.00     0.115 A 
ENDROOT
BRANCH   1   7
ATOM      7  C   UNL     1       1.116  -8.811   4.067  1.00  0.00     0.010 C 
ATOM      8  C   UNL     1       0.239  -7.857   4.405  1.00  0.00     0.025 C 
BRANCH   8   9
ATOM      9  C   UNL     1      -1.213  -8.093   4.383  1.00  0.00     0.064 C 
ATOM     10  O   UNL     1      -1.872  -7.817   3.346  1.00  0.00    -0.545 OA
ATOM     11  O   UNL     1      -1.872  -8.613   5.491  1.00  0.00    -0.545 OA
ENDBRANCH   8   9
ENDBRANCH   1   7
BRANCH   6  12
ATOM     12  O   UNL     1       6.742  -7.932   4.098  1.00  0.00    -0.508 OA
ATOM     13  H   UNL     1       7.132  -7.003   3.986  1.00  0.00     0.293 HD
ENDBRANCH   6  12
TORSDOF 3
ENDMDL
MODEL 2
REMARK VINA RESULT:    -5.017      0.114      1.402
REMARK INTER + INTRA:          -5.900
REMARK INTER:                  -5.761
REMARK INTRA:                  -0.140
REMARK UNBOUND:                -0.150
REMARK SMILES O=C([O-])C=Cc1ccc(O)cc1
REMARK SMILES IDX 6 1 7 2 12 3 8 4 11 5 9 6 5 7 4 8 2 9 1 10 3 11 10 12
REMARK H PARENT 10 13
REMARK Flexibility Score: inf
ROOT
ATOM      1  C   UNL     1       2.508  -8.524   4.084  1.00  0.00    -0.025 A 
ATOM      2  C   UNL     1       3.354  -9.437   3.431  1.00  0.00     0.012 A 
ATOM      3  C   UNL     1       3.083  -7.445   4.787  1.00  0.00     0.012 A 
ATOM      4  C   UNL     1       4.741  -9.263   3.457  1.00  0.00     0.047 A 
ATOM      5  C   UNL     1       4.471  -7.277   4.809  1.00  0.00     0.047 A 
ATOM      6  C   UNL     1       5.303  -8.180   4.144  1.00  0.00     0.115 A 
ENDROOT
BRANCH   1   7
ATOM      7  C   UNL     1       1.042  -8.756   4.037  1.00  0.00     0.010 C 
ATOM      8  C   UNL     1       0.133  -7.862   4.447  1.00  0.00     0.025 C 
BRANCH   8   9
ATOM      9  C   UNL     1      -1.312  -8.131   4.371  1.00  0.00     0.064 C 
ATOM     10  O   UNL     1      -1.953  -7.800   3.339  1.00  0.00    -0.545 OA
ATOM     11  O   UNL     1      -1.983  -8.745   5.422  1.00  0.00    -0.545 OA
ENDBRANCH   8   9
ENDBRANCH   1   7
BRANCH   6  12
ATOM     12  O   UNL     1       6.683  -7.998   4.175  1.00  0.00    -0.508 OA
ATOM     13  H   UNL     1       7.238  -8.003   3.327  1.00  0.00     0.293 HD
ENDBRANCH   6  12
TORSDOF 3
ENDMDL
MODEL 3
REMARK VINA RESULT:    -4.459      2.416      6.547
REMARK INTER + INTRA:          -5.261
REMARK INTER:                  -5.123
REMARK INTRA:                  -0.138
REMARK UNBOUND:                -0.150
REMARK SMILES O=C([O-])C=Cc1ccc(O)cc1
REMARK SMILES IDX 6 1 7 2 12 3 8 4 11 5 9 6 5 7 4 8 2 9 1 10 3 11 10 12
REMARK H PARENT 10 13
REMARK Flexibility Score: inf
ROOT
ATOM      1  C   UNL     1       5.214  -7.962   4.036  1.00  0.00    -0.025 A 
ATOM      2  C   UNL     1       5.141  -9.119   3.242  1.00  0.00     0.012 A 
ATOM      3  C   UNL     1       4.032  -7.462   4.622  1.00  0.00     0.012 A 
ATOM      4  C   UNL     1       3.921  -9.777   3.056  1.00  0.00     0.047 A 
ATOM      5  C   UNL     1       2.815  -8.124   4.432  1.00  0.00     0.047 A 
ATOM      6  C   UNL     1       2.755  -9.282   3.652  1.00  0.00     0.115 A 
ENDROOT
BRANCH   1   7
ATOM      7  C   UNL     1       6.530  -7.293   4.196  1.00  0.00     0.010 C 
ATOM      8  C   UNL     1       7.025  -6.406   3.325  1.00  0.00     0.025 C 
BRANCH   8   9
ATOM      9  C   UNL     1       8.330  -5.758   3.530  1.00  0.00     0.064 C 
ATOM     10  O   UNL     1       9.251  -6.388   4.113  1.00  0.00    -0.545 OA
ATOM     11  O   UNL     1       8.564  -4.460   3.093  1.00  0.00    -0.545 OA
ENDBRANCH   8   9
ENDBRANCH   1   7
BRANCH   6  12
ATOM     12  O   UNL     1       1.535  -9.930   3.474  1.00  0.00    -0.508 OA
ATOM     13  H   UNL     1       0.927 -10.141   4.256  1.00  0.00     0.293 HD
ENDBRANCH   6  12
TORSDOF 3
ENDMDL
MODEL 4
REMARK VINA RESULT:    -4.201      1.576      6.013
REMARK INTER + INTRA:          -4.965
REMARK INTER:                  -4.817
REMARK INTRA:                  -0.148
REMARK UNBOUND:                -0.150
REMARK SMILES O=C([O-])C=Cc1ccc(O)cc1
REMARK SMILES IDX 6 1 7 2 12 3 8 4 11 5 9 6 5 7 4 8 2 9 1 10 3 11 10 12
REMARK H PARENT 10 13
REMARK Flexibility Score: inf
ROOT
ATOM      1  C   UNL     1       4.056  -8.339   4.137  1.00  0.00    -0.025 A 
ATOM      2  C   UNL     1       3.191  -7.397   4.720  1.00  0.00     0.012 A 
ATOM      3  C   UNL     1       3.505  -9.500   3.554  1.00  0.00     0.012 A 
ATOM      4  C   UNL     1       1.807  -7.595   4.699  1.00  0.00     0.047 A 
ATOM      5  C   UNL     1       2.121  -9.693   3.536  1.00  0.00     0.047 A 
ATOM      6  C   UNL     1       1.268  -8.743   4.105  1.00  0.00     0.115 A 
ENDROOT
BRANCH   1   7
ATOM      7  C   UNL     1       5.519  -8.090   4.193  1.00  0.00     0.010 C 
ATOM      8  C   UNL     1       6.066  -6.867   4.199  1.00  0.00     0.025 C 
BRANCH   8   9
ATOM      9  C   UNL     1       7.522  -6.668   4.266  1.00  0.00     0.064 C 
ATOM     10  O   UNL     1       8.171  -7.141   5.236  1.00  0.00    -0.545 OA
ATOM     11  O   UNL     1       8.196  -5.962   3.276  1.00  0.00    -0.545 OA
ENDBRANCH   8   9
ENDBRANCH   1   7
BRANCH   6  12
ATOM     12  O   UNL     1      -0.109  -8.950   4.079  1.00  0.00    -0.508 OA
ATOM     13  H   UNL     1      -0.504  -9.866   3.904  1.00  0.00     0.293 HD
ENDBRANCH   6  12
TORSDOF 3
ENDMDL
MODEL 5
REMARK VINA RESULT:    -4.197      1.137      5.952
REMARK INTER + INTRA:          -4.961
REMARK INTER:                  -4.810
REMARK INTRA:                  -0.151
REMARK UNBOUND:                -0.150
REMARK SMILES O=C([O-])C=Cc1ccc(O)cc1
REMARK SMILES IDX 6 1 7 2 12 3 8 4 11 5 9 6 5 7 4 8 2 9 1 10 3 11 10 12
REMARK H PARENT 10 13
REMARK Flexibility Score: inf
ROOT
ATOM      1  C   UNL     1       2.917  -7.428   4.727  1.00  0.00    -0.025 A 
ATOM      2  C   UNL     1       2.631  -8.652   4.099  1.00  0.00     0.012 A 
ATOM      3  C   UNL     1       1.845  -6.625   5.173  1.00  0.00     0.012 A 
ATOM      4  C   UNL     1       1.308  -9.078   3.941  1.00  0.00     0.047 A 
ATOM      5  C   UNL     1       0.525  -7.056   5.012  1.00  0.00     0.047 A 
ATOM      6  C   UNL     1       0.252  -8.281   4.400  1.00  0.00     0.115 A 
ENDROOT
BRANCH   1   7
ATOM      7  C   UNL     1       4.336  -7.014   4.863  1.00  0.00     0.010 C 
ATOM      8  C   UNL     1       5.360  -7.672   4.304  1.00  0.00     0.025 C 
BRANCH   8   9
ATOM      9  C   UNL     1       6.752  -7.218   4.456  1.00  0.00     0.064 C 
ATOM     10  O   UNL     1       7.259  -6.466   3.583  1.00  0.00    -0.545 OA
ATOM     11  O   UNL     1       7.518  -7.607   5.549  1.00  0.00    -0.545 OA
ENDBRANCH   8   9
ENDBRANCH   1   7
BRANCH   6  12
ATOM     12  O   UNL     1      -1.069  -8.697   4.248  1.00  0.00    -0.508 OA
ATOM     13  H   UNL     1      -1.476  -9.400   4.853  1.00  0.00     0.293 HD
ENDBRANCH   6  12
TORSDOF 3
ENDMDL
MODEL 6
REMARK VINA RESULT:    -4.146      1.954      2.525
REMARK INTER + INTRA:          -4.902
REMARK INTER:                  -4.761
REMARK INTRA:                  -0.142
REMARK UNBOUND:                -0.150
REMARK SMILES O=C([O-])C=Cc1ccc(O)cc1
REMARK SMILES IDX 6 1 7 2 12 3 8 4 11 5 9 6 5 7 4 8 2 9 1 10 3 11 10 12
REMARK H PARENT 10 13
REMARK Flexibility Score: inf
ROOT
ATOM      1  C   UNL     1       2.139  -7.561   4.743  1.00  0.00    -0.025 A 
ATOM      2  C   UNL     1       2.266  -8.775   4.047  1.00  0.00     0.012 A 
ATOM      3  C   UNL     1       3.306  -6.844   5.080  1.00  0.00     0.012 A 
ATOM      4  C   UNL     1       3.527  -9.251   3.673  1.00  0.00     0.047 A 
ATOM      5  C   UNL     1       4.564  -7.325   4.704  1.00  0.00     0.047 A 
ATOM      6  C   UNL     1       4.679  -8.525   3.999  1.00  0.00     0.115 A 
ENDROOT
BRANCH   1   7
ATOM      7  C   UNL     1       0.780  -7.102   5.127  1.00  0.00     0.010 C 
ATOM      8  C   UNL     1       0.540  -5.973   5.805  1.00  0.00     0.025 C 
BRANCH   8   9
ATOM      9  C   UNL     1      -0.826  -5.551   6.154  1.00  0.00     0.064 C 
ATOM     10  O   UNL     1      -1.015  -4.416   6.664  1.00  0.00    -0.545 OA
ATOM     11  O   UNL     1      -1.914  -6.388   5.933  1.00  0.00    -0.545 OA
ENDBRANCH   8   9
ENDBRANCH   1   7
BRANCH   6  12
ATOM     12  O   UNL     1       5.939  -8.990   3.630  1.00  0.00    -0.508 OA
ATOM     13  H   UNL     1       6.341  -8.772   2.726  1.00  0.00     0.293 HD
ENDBRANCH   6  12
TORSDOF 3
ENDMDL
MODEL 7
REMARK VINA RESULT:    -4.044     15.042     15.885
REMARK INTER + INTRA:          -4.785
REMARK INTER:                  -4.638
REMARK INTRA:                  -0.147
REMARK UNBOUND:                -0.150
REMARK SMILES O=C([O-])C=Cc1ccc(O)cc1
REMARK SMILES IDX 6 1 7 2 12 3 8 4 11 5 9 6 5 7 4 8 2 9 1 10 3 11 10 12
REMARK H PARENT 10 13
REMARK Flexibility Score: inf
ROOT
ATOM      1  C   UNL     1       3.822   7.511   6.363  1.00  0.00    -0.025 A 
ATOM      2  C   UNL     1       3.861   6.223   5.802  1.00  0.00     0.012 A 
ATOM      3  C   UNL     1       5.038   8.162   6.659  1.00  0.00     0.012 A 
ATOM      4  C   UNL     1       5.085   5.608   5.520  1.00  0.00     0.047 A 
ATOM      5  C   UNL     1       6.258   7.542   6.374  1.00  0.00     0.047 A 
ATOM      6  C   UNL     1       6.287   6.268   5.803  1.00  0.00     0.115 A 
ENDROOT
BRANCH   1   7
ATOM      7  C   UNL     1       2.499   8.118   6.654  1.00  0.00     0.010 C 
ATOM      8  C   UNL     1       1.453   7.431   7.133  1.00  0.00     0.025 C 
BRANCH   8   9
ATOM      9  C   UNL     1       0.162   8.078   7.418  1.00  0.00     0.064 C 
ATOM     10  O   UNL     1       0.142   9.199   7.991  1.00  0.00    -0.545 OA
ATOM     11  O   UNL     1      -1.037   7.471   7.067  1.00  0.00    -0.545 OA
ENDBRANCH   8   9
ENDBRANCH   1   7
BRANCH   6  12
ATOM     12  O   UNL     1       7.511   5.664   5.525  1.00  0.00    -0.508 OA
ATOM     13  H   UNL     1       8.388   6.145   5.688  1.00  0.00     0.293 HD
ENDBRANCH   6  12
TORSDOF 3
ENDMDL
MODEL 8
REMARK VINA RESULT:    -3.981      1.860      5.674
REMARK INTER + INTRA:          -4.713
REMARK INTER:                  -4.560
REMARK INTRA:                  -0.153
REMARK UNBOUND:                -0.150
REMARK SMILES O=C([O-])C=Cc1ccc(O)cc1
REMARK SMILES IDX 6 1 7 2 12 3 8 4 11 5 9 6 5 7 4 8 2 9 1 10 3 11 10 12
REMARK H PARENT 10 13
REMARK Flexibility Score: inf
ROOT
ATOM      1  C   UNL     1       1.885  -7.567   4.788  1.00  0.00    -0.025 A 
ATOM      2  C   UNL     1       0.716  -8.250   4.410  1.00  0.00     0.012 A 
ATOM      3  C   UNL     1       1.765  -6.361   5.511  1.00  0.00     0.012 A 
ATOM      4  C   UNL     1      -0.542  -7.755   4.766  1.00  0.00     0.047 A 
ATOM      5  C   UNL     1       0.504  -5.871   5.863  1.00  0.00     0.047 A 
ATOM      6  C   UNL     1      -0.651  -6.565   5.496  1.00  0.00     0.115 A 
ENDROOT
BRANCH   1   7
ATOM      7  C   UNL     1       3.198  -8.127   4.379  1.00  0.00     0.010 C 
ATOM      8  C   UNL     1       3.337  -9.218   3.616  1.00  0.00     0.025 C 
BRANCH   8   9
ATOM      9  C   UNL     1       4.660  -9.730   3.225  1.00  0.00     0.064 C 
ATOM     10  O   UNL     1       5.574  -9.811   4.086  1.00  0.00    -0.545 OA
ATOM     11  O   UNL     1       4.919 -10.125   1.918  1.00  0.00    -0.545 OA
ENDBRANCH   8   9
ENDBRANCH   1   7
BRANCH   6  12
ATOM     12  O   UNL     1      -1.900  -6.064   5.855  1.00  0.00    -0.508 OA
ATOM     13  H   UNL     1      -2.644  -5.958   5.175  1.00  0.00     0.293 HD
ENDBRANCH   6  12
TORSDOF 3
ENDMDL
MODEL 9
REMARK VINA RESULT:    -3.922     13.697     14.796
REMARK INTER + INTRA:          -4.645
REMARK INTER:                  -4.505
REMARK INTRA:                  -0.140
REMARK UNBOUND:                -0.150
REMARK SMILES O=C([O-])C=Cc1ccc(O)cc1
REMARK SMILES IDX 6 1 7 2 12 3 8 4 11 5 9 6 5 7 4 8 2 9 1 10 3 11 10 12
REMARK H PARENT 10 13
REMARK Flexibility Score: inf
ROOT
ATOM      1  C   UNL     1       4.311   6.237   5.801  1.00  0.00    -0.025 A 
ATOM      2  C   UNL     1       5.701   6.305   6.000  1.00  0.00     0.012 A 
ATOM      3  C   UNL     1       3.520   7.357   6.137  1.00  0.00     0.012 A 
ATOM      4  C   UNL     1       6.291   7.471   6.498  1.00  0.00     0.047 A 
ATOM      5  C   UNL     1       4.116   8.519   6.635  1.00  0.00     0.047 A 
ATOM      6  C   UNL     1       5.500   8.582   6.815  1.00  0.00     0.115 A 
ENDROOT
BRANCH   1   7
ATOM      7  C   UNL     1       3.730   4.975   5.279  1.00  0.00     0.010 C 
ATOM      8  C   UNL     1       3.752   3.813   5.945  1.00  0.00     0.025 C 
BRANCH   8   9
ATOM      9  C   UNL     1       3.152   2.589   5.392  1.00  0.00     0.064 C 
ATOM     10  O   UNL     1       3.534   1.465   5.813  1.00  0.00    -0.545 OA
ATOM     11  O   UNL     1       2.171   2.651   4.410  1.00  0.00    -0.545 OA
ENDBRANCH   8   9
ENDBRANCH   1   7
BRANCH   6  12
ATOM     12  O   UNL     1       6.078   9.747   7.312  1.00  0.00    -0.508 OA
ATOM     13  H   UNL     1       7.045   9.771   7.616  1.00  0.00     0.293 HD
ENDBRANCH   6  12
TORSDOF 3
ENDMDL
