MODEL 1
REMARK VINA RESULT:    -3.858      0.000      0.000
REMARK INTER + INTRA:          -9.232
REMARK INTER:                  -7.241
REMARK INTRA:                  -1.991
REMARK UNBOUND:                -1.991
REMARK SMILES CCCCCCCCC=CCCCCCCCC(=O)[O-]
REMARK SMILES IDX 10 1 9 2 11 3 12 4 13 5 14 6 15 7 16 8 17 9 18 10 19 11
REMARK SMILES IDX 20 12 8 13 7 14 6 15 5 16 4 17 3 18 2 19 1 20
REMARK H PARENT
REMARK Flexibility Score: inf
ROOT
ATOM      1  C   UNL     1      14.450  21.506  79.110  1.00  0.00    -0.031 C 
ATOM      2  C   UNL     1      13.154  21.179  79.227  1.00  0.00    -0.031 C 
ENDROOT
BRANCH   1   3
ATOM      3  C   UNL     1      15.481  20.497  78.685  1.00  0.00     0.027 C 
BRANCH   3   4
ATOM      4  C   UNL     1      16.037  19.732  79.896  1.00  0.00     0.004 C 
BRANCH   4   5
ATOM      5  C   UNL     1      15.830  18.210  79.792  1.00  0.00     0.000 C 
BRANCH   5   6
ATOM      6  C   UNL     1      14.388  17.730  80.037  1.00  0.00     0.000 C 
BRANCH   6   7
ATOM      7  C   UNL     1      13.833  16.886  78.880  1.00  0.00     0.000 C 
BRANCH   7   8
ATOM      8  C   UNL     1      13.031  17.755  77.900  1.00  0.00     0.006 C 
BRANCH   8   9
ATOM      9  C   UNL     1      13.802  18.029  76.602  1.00  0.00     0.053 C 
BRANCH   9  10
ATOM     10  C   UNL     1      12.959  18.752  75.596  1.00  0.00     0.041 C 
ATOM     11  O   UNL     1      12.407  18.117  74.659  1.00  0.00    -0.550 OA
ATOM     12  O   UNL     1      12.811  20.131  75.673  1.00  0.00    -0.550 OA
ENDBRANCH   9  10
ENDBRANCH   8   9
ENDBRANCH   7   8
ENDBRANCH   6   7
ENDBRANCH   5   6
ENDBRANCH   4   5
ENDBRANCH   3   4
ENDBRANCH   1   3
BRANCH   2  13
ATOM     13  C   UNL     1      12.127  22.170  79.703  1.00  0.00     0.027 C 
BRANCH  13  14
ATOM     14  C   UNL     1      12.697  23.099  80.783  1.00  0.00     0.004 C 
BRANCH  14  15
ATOM     15  C   UNL     1      12.563  24.582  80.401  1.00  0.00     0.000 C 
BRANCH  15  16
ATOM     16  C   UNL     1      12.929  25.532  81.555  1.00  0.00     0.000 C 
BRANCH  16  17
ATOM     17  C   UNL     1      12.986  24.877  82.950  1.00  0.00    -0.000 C 
BRANCH  17  18
ATOM     18  C   UNL     1      14.362  24.923  83.637  1.00  0.00    -0.000 C 
BRANCH  18  19
ATOM     19  C   UNL     1      15.528  24.952  82.638  1.00  0.00    -0.003 C 
ATOM     20  C   UNL     1      15.917  23.542  82.207  1.00  0.00     0.004 C 
ENDBRANCH  18  19
ENDBRANCH  17  18
ENDBRANCH  16  17
ENDBRANCH  15  16
ENDBRANCH  14  15
ENDBRANCH  13  14
ENDBRANCH   2  13
TORSDOF 15
ENDMDL
MODEL 2
REMARK VINA RESULT:    -3.844      4.439      7.911
REMARK INTER + INTRA:          -9.206
REMARK INTER:                  -6.088
REMARK INTRA:                  -3.118
REMARK UNBOUND:                -1.991
REMARK SMILES CCCCCCCCC=CCCCCCCCC(=O)[O-]
REMARK SMILES IDX 10 1 9 2 11 3 12 4 13 5 14 6 15 7 16 8 17 9 18 10 19 11
REMARK SMILES IDX 20 12 8 13 7 14 6 15 5 16 4 17 3 18 2 19 1 20
REMARK H PARENT
REMARK Flexibility Score: inf
ROOT
ATOM      1  C   UNL     1      14.491  24.508  81.242  1.00  0.00    -0.031 C 
ATOM      2  C   UNL     1      14.920  25.252  80.212  1.00  0.00    -0.031 C 
ENDROOT
BRANCH   1   3
ATOM      3  C   UNL     1      15.198  24.517  82.569  1.00  0.00     0.027 C 
BRANCH   3   4
ATOM      4  C   UNL     1      14.249  24.947  83.698  1.00  0.00     0.004 C 
BRANCH   4   5
ATOM      5  C   UNL     1      12.771  24.969  83.265  1.00  0.00     0.000 C 
BRANCH   5   6
ATOM      6  C   UNL     1      12.082  26.342  83.370  1.00  0.00     0.000 C 
BRANCH   6   7
ATOM      7  C   UNL     1      12.257  27.199  82.107  1.00  0.00     0.000 C 
BRANCH   7   8
ATOM      8  C   UNL     1      13.069  28.467  82.411  1.00  0.00     0.006 C 
BRANCH   8   9
ATOM      9  C   UNL     1      14.377  28.525  81.611  1.00  0.00     0.053 C 
BRANCH   9  10
ATOM     10  C   UNL     1      15.572  28.276  82.480  1.00  0.00     0.041 C 
ATOM     11  O   UNL     1      16.709  28.119  81.963  1.00  0.00    -0.550 OA
ATOM     12  O   UNL     1      15.424  28.185  83.858  1.00  0.00    -0.550 OA
ENDBRANCH   9  10
ENDBRANCH   8   9
ENDBRANCH   7   8
ENDBRANCH   6   7
ENDBRANCH   5   6
ENDBRANCH   4   5
ENDBRANCH   3   4
ENDBRANCH   1   3
BRANCH   2  13
ATOM     13  C   UNL     1      14.248  25.206  78.867  1.00  0.00     0.027 C 
BRANCH  13  14
ATOM     14  C   UNL     1      12.728  25.048  79.001  1.00  0.00     0.004 C 
BRANCH  14  15
ATOM     15  C   UNL     1      12.213  23.783  78.292  1.00  0.00     0.000 C 
BRANCH  15  16
ATOM     16  C   UNL     1      11.448  22.839  79.236  1.00  0.00     0.000 C 
BRANCH  16  17
ATOM     17  C   UNL     1      12.330  21.873  80.053  1.00  0.00    -0.000 C 
BRANCH  17  18
ATOM     18  C   UNL     1      13.287  21.000  79.220  1.00  0.00    -0.000 C 
BRANCH  18  19
ATOM     19  C   UNL     1      14.766  21.300  79.501  1.00  0.00    -0.003 C 
ATOM     20  C   UNL     1      15.472  21.804  78.247  1.00  0.00     0.004 C 
ENDBRANCH  18  19
ENDBRANCH  17  18
ENDBRANCH  16  17
ENDBRANCH  15  16
ENDBRANCH  14  15
ENDBRANCH  13  14
ENDBRANCH   2  13
TORSDOF 15
ENDMDL
MODEL 3
REMARK VINA RESULT:    -3.839      2.804      4.975
REMARK INTER + INTRA:          -9.197
REMARK INTER:                  -7.004
REMARK INTRA:                  -2.194
REMARK UNBOUND:                -1.991
REMARK SMILES CCCCCCCCC=CCCCCCCCC(=O)[O-]
REMARK SMILES IDX 10 1 9 2 11 3 12 4 13 5 14 6 15 7 16 8 17 9 18 10 19 11
REMARK SMILES IDX 20 12 8 13 7 14 6 15 5 16 4 17 3 18 2 19 1 20
REMARK H PARENT
REMARK Flexibility Score: inf
ROOT
ATOM      1  C   UNL     1      13.632  20.008  78.813  1.00  0.00    -0.031 C 
ATOM      2  C   UNL     1      14.263  21.016  79.433  1.00  0.00    -0.031 C 
ENDROOT
BRANCH   1   3
ATOM      3  C   UNL     1      14.351  18.741  78.439  1.00  0.00     0.027 C 
BRANCH   3   4
ATOM      4  C   UNL     1      13.409  17.765  77.717  1.00  0.00     0.004 C 
BRANCH   4   5
ATOM      5  C   UNL     1      12.752  18.378  76.467  1.00  0.00     0.000 C 
BRANCH   5   6
ATOM      6  C   UNL     1      13.431  18.021  75.132  1.00  0.00     0.000 C 
BRANCH   6   7
ATOM      7  C   UNL     1      12.494  18.171  73.924  1.00  0.00     0.000 C 
BRANCH   7   8
ATOM      8  C   UNL     1      11.041  18.376  74.377  1.00  0.00     0.006 C 
BRANCH   8   9
ATOM      9  C   UNL     1      10.043  17.613  73.496  1.00  0.00     0.053 C 
BRANCH   9  10
ATOM     10  C   UNL     1       9.935  18.215  72.128  1.00  0.00     0.041 C 
ATOM     11  O   UNL     1      10.215  17.529  71.110  1.00  0.00    -0.550 OA
ATOM     12  O   UNL     1       9.556  19.543  71.980  1.00  0.00    -0.550 OA
ENDBRANCH   9  10
ENDBRANCH   8   9
ENDBRANCH   7   8
ENDBRANCH   6   7
ENDBRANCH   5   6
ENDBRANCH   4   5
ENDBRANCH   3   4
ENDBRANCH   1   3
BRANCH   2  13
ATOM     13  C   UNL     1      13.563  22.307  79.761  1.00  0.00     0.027 C 
BRANCH  13  14
ATOM     14  C   UNL     1      12.056  22.096  79.960  1.00  0.00     0.004 C 
BRANCH  14  15
ATOM     15  C   UNL     1      11.224  22.799  78.874  1.00  0.00     0.000 C 
BRANCH  15  16
ATOM     16  C   UNL     1      12.005  23.910  78.150  1.00  0.00     0.000 C 
BRANCH  16  17
ATOM     17  C   UNL     1      12.116  23.743  76.621  1.00  0.00    -0.000 C 
BRANCH  17  18
ATOM     18  C   UNL     1      12.943  22.531  76.155  1.00  0.00    -0.000 C 
BRANCH  18  19
ATOM     19  C   UNL     1      12.310  21.800  74.963  1.00  0.00    -0.003 C 
ATOM     20  C   UNL     1      10.792  21.944  74.972  1.00  0.00     0.004 C 
ENDBRANCH  18  19
ENDBRANCH  17  18
ENDBRANCH  16  17
ENDBRANCH  15  16
ENDBRANCH  14  15
ENDBRANCH  13  14
ENDBRANCH   2  13
TORSDOF 15
ENDMDL
MODEL 4
REMARK VINA RESULT:    -3.755      3.609      7.699
REMARK INTER + INTRA:          -9.039
REMARK INTER:                  -6.458
REMARK INTRA:                  -2.581
REMARK UNBOUND:                -1.991
REMARK SMILES CCCCCCCCC=CCCCCCCCC(=O)[O-]
REMARK SMILES IDX 10 1 9 2 11 3 12 4 13 5 14 6 15 7 16 8 17 9 18 10 19 11
REMARK SMILES IDX 20 12 8 13 7 14 6 15 5 16 4 17 3 18 2 19 1 20
REMARK H PARENT
REMARK Flexibility Score: inf
ROOT
ATOM      1  C   UNL     1      12.792  21.343  79.637  1.00  0.00    -0.031 C 
ATOM      2  C   UNL     1      14.108  21.406  79.385  1.00  0.00    -0.031 C 
ENDROOT
BRANCH   1   3
ATOM      3  C   UNL     1      11.951  22.585  79.750  1.00  0.00     0.027 C 
BRANCH   3   4
ATOM      4  C   UNL     1      11.499  23.074  78.366  1.00  0.00     0.004 C 
BRANCH   4   5
ATOM      5  C   UNL     1      12.302  24.290  77.867  1.00  0.00     0.000 C 
BRANCH   5   6
ATOM      6  C   UNL     1      13.247  24.919  78.907  1.00  0.00     0.000 C 
BRANCH   6   7
ATOM      7  C   UNL     1      12.833  26.342  79.310  1.00  0.00     0.000 C 
BRANCH   7   8
ATOM      8  C   UNL     1      12.560  26.430  80.818  1.00  0.00     0.006 C 
BRANCH   8   9
ATOM      9  C   UNL     1      13.410  25.438  81.622  1.00  0.00     0.053 C 
BRANCH   9  10
ATOM     10  C   UNL     1      13.082  25.479  83.083  1.00  0.00     0.041 C 
ATOM     11  O   UNL     1      13.814  24.879  83.914  1.00  0.00    -0.550 OA
ATOM     12  O   UNL     1      11.950  26.152  83.524  1.00  0.00    -0.550 OA
ENDBRANCH   9  10
ENDBRANCH   8   9
ENDBRANCH   7   8
ENDBRANCH   6   7
ENDBRANCH   5   6
ENDBRANCH   4   5
ENDBRANCH   3   4
ENDBRANCH   1   3
BRANCH   2  13
ATOM     13  C   UNL     1      14.963  20.170  79.324  1.00  0.00     0.027 C 
BRANCH  13  14
ATOM     14  C   UNL     1      14.120  18.894  79.453  1.00  0.00     0.004 C 
BRANCH  14  15
ATOM     15  C   UNL     1      14.260  17.982  78.222  1.00  0.00     0.000 C 
BRANCH  15  16
ATOM     16  C   UNL     1      13.096  18.137  77.228  1.00  0.00     0.000 C 
BRANCH  16  17
ATOM     17  C   UNL     1      13.404  19.002  75.988  1.00  0.00    -0.000 C 
BRANCH  17  18
ATOM     18  C   UNL     1      12.824  20.427  76.027  1.00  0.00    -0.000 C 
BRANCH  18  19
ATOM     19  C   UNL     1      13.866  21.504  75.694  1.00  0.00    -0.003 C 
ATOM     20  C   UNL     1      15.279  20.930  75.726  1.00  0.00     0.004 C 
ENDBRANCH  18  19
ENDBRANCH  17  18
ENDBRANCH  16  17
ENDBRANCH  15  16
ENDBRANCH  14  15
ENDBRANCH  13  14
ENDBRANCH   2  13
TORSDOF 15
ENDMDL
MODEL 5
REMARK VINA RESULT:    -3.743      4.993      8.020
REMARK INTER + INTRA:          -9.017
REMARK INTER:                  -7.138
REMARK INTRA:                  -1.879
REMARK UNBOUND:                -1.991
REMARK SMILES CCCCCCCCC=CCCCCCCCC(=O)[O-]
REMARK SMILES IDX 10 1 9 2 11 3 12 4 13 5 14 6 15 7 16 8 17 9 18 10 19 11
REMARK SMILES IDX 20 12 8 13 7 14 6 15 5 16 4 17 3 18 2 19 1 20
REMARK H PARENT
REMARK Flexibility Score: inf
ROOT
ATOM      1  C   UNL     1      14.777  23.493  80.265  1.00  0.00    -0.031 C 
ATOM      2  C   UNL     1      14.337  22.228  80.335  1.00  0.00    -0.031 C 
ENDROOT
BRANCH   1   3
ATOM      3  C   UNL     1      15.859  24.002  81.177  1.00  0.00     0.027 C 
BRANCH   3   4
ATOM      4  C   UNL     1      15.386  25.236  81.961  1.00  0.00     0.004 C 
BRANCH   4   5
ATOM      5  C   UNL     1      14.801  24.882  83.341  1.00  0.00     0.000 C 
BRANCH   5   6
ATOM      6  C   UNL     1      13.263  24.918  83.425  1.00  0.00     0.000 C 
BRANCH   6   7
ATOM      7  C   UNL     1      12.620  25.725  82.287  1.00  0.00     0.000 C 
BRANCH   7   8
ATOM      8  C   UNL     1      12.409  27.189  82.701  1.00  0.00     0.006 C 
BRANCH   8   9
ATOM      9  C   UNL     1      11.195  27.364  83.622  1.00  0.00     0.053 C 
BRANCH   9  10
ATOM     10  C   UNL     1      10.863  28.809  83.838  1.00  0.00     0.041 C 
ATOM     11  O   UNL     1      10.719  29.579  82.852  1.00  0.00    -0.550 OA
ATOM     12  O   UNL     1      10.746  29.311  85.127  1.00  0.00    -0.550 OA
ENDBRANCH   9  10
ENDBRANCH   8   9
ENDBRANCH   7   8
ENDBRANCH   6   7
ENDBRANCH   5   6
ENDBRANCH   4   5
ENDBRANCH   3   4
ENDBRANCH   1   3
BRANCH   2  13
ATOM     13  C   UNL     1      13.218  21.730  79.461  1.00  0.00     0.027 C 
BRANCH  13  14
ATOM     14  C   UNL     1      11.875  22.363  79.848  1.00  0.00     0.004 C 
BRANCH  14  15
ATOM     15  C   UNL     1      11.180  23.025  78.646  1.00  0.00     0.000 C 
BRANCH  15  16
ATOM     16  C   UNL     1      12.066  23.057  77.388  1.00  0.00     0.000 C 
BRANCH  16  17
ATOM     17  C   UNL     1      12.163  24.429  76.689  1.00  0.00    -0.000 C 
BRANCH  17  18
ATOM     18  C   UNL     1      11.185  25.497  77.211  1.00  0.00    -0.000 C 
BRANCH  18  19
ATOM     19  C   UNL     1      11.884  26.807  77.599  1.00  0.00    -0.003 C 
ATOM     20  C   UNL     1      12.457  26.727  79.010  1.00  0.00     0.004 C 
ENDBRANCH  18  19
ENDBRANCH  17  18
ENDBRANCH  16  17
ENDBRANCH  15  16
ENDBRANCH  14  15
ENDBRANCH  13  14
ENDBRANCH   2  13
TORSDOF 15
ENDMDL
MODEL 6
REMARK VINA RESULT:    -3.725      3.144      5.986
REMARK INTER + INTRA:          -8.982
REMARK INTER:                  -6.305
REMARK INTRA:                  -2.677
REMARK UNBOUND:                -1.991
REMARK SMILES CCCCCCCCC=CCCCCCCCC(=O)[O-]
REMARK SMILES IDX 10 1 9 2 11 3 12 4 13 5 14 6 15 7 16 8 17 9 18 10 19 11
REMARK SMILES IDX 20 12 8 13 7 14 6 15 5 16 4 17 3 18 2 19 1 20
REMARK H PARENT
REMARK Flexibility Score: inf
ROOT
ATOM      1  C   UNL     1      12.267  26.157  82.945  1.00  0.00    -0.031 C 
ATOM      2  C   UNL     1      11.449  26.814  83.781  1.00  0.00    -0.031 C 
ENDROOT
BRANCH   1   3
ATOM      3  C   UNL     1      13.000  24.915  83.374  1.00  0.00     0.027 C 
BRANCH   3   4
ATOM      4  C   UNL     1      14.489  25.208  83.613  1.00  0.00     0.004 C 
BRANCH   4   5
ATOM      5  C   UNL     1      15.397  24.646  82.504  1.00  0.00     0.000 C 
BRANCH   5   6
ATOM      6  C   UNL     1      14.724  23.629  81.563  1.00  0.00     0.000 C 
BRANCH   6   7
ATOM      7  C   UNL     1      14.450  24.198  80.163  1.00  0.00     0.000 C 
BRANCH   7   8
ATOM      8  C   UNL     1      12.946  24.200  79.854  1.00  0.00     0.006 C 
BRANCH   8   9
ATOM      9  C   UNL     1      12.318  22.810  80.013  1.00  0.00     0.053 C 
BRANCH   9  10
ATOM     10  C   UNL     1      12.822  21.849  78.979  1.00  0.00     0.041 C 
ATOM     11  O   UNL     1      13.323  20.748  79.329  1.00  0.00    -0.550 OA
ATOM     12  O   UNL     1      12.767  22.184  77.633  1.00  0.00    -0.550 OA
ENDBRANCH   9  10
ENDBRANCH   8   9
ENDBRANCH   7   8
ENDBRANCH   6   7
ENDBRANCH   5   6
ENDBRANCH   4   5
ENDBRANCH   3   4
ENDBRANCH   1   3
BRANCH   2  13
ATOM     13  C   UNL     1      10.756  28.086  83.374  1.00  0.00     0.027 C 
BRANCH  13  14
ATOM     14  C   UNL     1      11.192  29.270  84.246  1.00  0.00     0.004 C 
BRANCH  14  15
ATOM     15  C   UNL     1      12.273  30.125  83.563  1.00  0.00     0.000 C 
BRANCH  15  16
ATOM     16  C   UNL     1      13.700  29.730  83.982  1.00  0.00     0.000 C 
BRANCH  16  17
ATOM     17  C   UNL     1      14.584  29.172  82.848  1.00  0.00    -0.000 C 
BRANCH  17  18
ATOM     18  C   UNL     1      13.872  28.984  81.497  1.00  0.00    -0.000 C 
BRANCH  18  19
ATOM     19  C   UNL     1      14.560  27.948  80.598  1.00  0.00    -0.003 C 
ATOM     20  C   UNL     1      16.036  27.803  80.957  1.00  0.00     0.004 C 
ENDBRANCH  18  19
ENDBRANCH  17  18
ENDBRANCH  16  17
ENDBRANCH  15  16
ENDBRANCH  14  15
ENDBRANCH  13  14
ENDBRANCH   2  13
TORSDOF 15
ENDMDL
MODEL 7
REMARK VINA RESULT:    -3.706      4.304      7.947
REMARK INTER + INTRA:          -8.948
REMARK INTER:                  -6.143
REMARK INTRA:                  -2.804
REMARK UNBOUND:                -1.991
REMARK SMILES CCCCCCCCC=CCCCCCCCC(=O)[O-]
REMARK SMILES IDX 10 1 9 2 11 3 12 4 13 5 14 6 15 7 16 8 17 9 18 10 19 11
REMARK SMILES IDX 20 12 8 13 7 14 6 15 5 16 4 17 3 18 2 19 1 20
REMARK H PARENT
REMARK Flexibility Score: inf
ROOT
ATOM      1  C   UNL     1      15.400  24.301  82.371  1.00  0.00    -0.031 C 
ATOM      2  C   UNL     1      14.983  24.047  81.122  1.00  0.00    -0.031 C 
ENDROOT
BRANCH   1   3
ATOM      3  C   UNL     1      14.431  24.627  83.474  1.00  0.00     0.027 C 
BRANCH   3   4
ATOM      4  C   UNL     1      12.997  24.740  82.934  1.00  0.00     0.004 C 
BRANCH   4   5
ATOM      5  C   UNL     1      12.249  25.975  83.471  1.00  0.00     0.000 C 
BRANCH   5   6
ATOM      6  C   UNL     1      12.175  27.166  82.497  1.00  0.00     0.000 C 
BRANCH   6   7
ATOM      7  C   UNL     1      12.572  26.792  81.061  1.00  0.00     0.000 C 
BRANCH   7   8
ATOM      8  C   UNL     1      13.863  27.511  80.643  1.00  0.00     0.006 C 
BRANCH   8   9
ATOM      9  C   UNL     1      14.416  28.408  81.757  1.00  0.00     0.053 C 
BRANCH   9  10
ATOM     10  C   UNL     1      15.741  27.920  82.259  1.00  0.00     0.041 C 
ATOM     11  O   UNL     1      16.011  27.973  83.488  1.00  0.00    -0.550 OA
ATOM     12  O   UNL     1      16.689  27.438  81.366  1.00  0.00    -0.550 OA
ENDBRANCH   9  10
ENDBRANCH   8   9
ENDBRANCH   7   8
ENDBRANCH   6   7
ENDBRANCH   5   6
ENDBRANCH   4   5
ENDBRANCH   3   4
ENDBRANCH   1   3
BRANCH   2  13
ATOM     13  C   UNL     1      15.951  23.774  80.003  1.00  0.00     0.027 C 
BRANCH  13  14
ATOM     14  C   UNL     1      15.499  22.588  79.142  1.00  0.00     0.004 C 
BRANCH  14  15
ATOM     15  C   UNL     1      14.664  21.575  79.944  1.00  0.00     0.000 C 
BRANCH  15  16
ATOM     16  C   UNL     1      13.292  21.294  79.306  1.00  0.00     0.000 C 
BRANCH  16  17
ATOM     17  C   UNL     1      12.129  22.147  79.851  1.00  0.00    -0.000 C 
BRANCH  17  18
ATOM     18  C   UNL     1      11.448  23.059  78.815  1.00  0.00    -0.000 C 
BRANCH  18  19
ATOM     19  C   UNL     1      12.332  24.236  78.382  1.00  0.00    -0.003 C 
ATOM     20  C   UNL     1      11.508  25.318  77.692  1.00  0.00     0.004 C 
ENDBRANCH  18  19
ENDBRANCH  17  18
ENDBRANCH  16  17
ENDBRANCH  15  16
ENDBRANCH  14  15
ENDBRANCH  13  14
ENDBRANCH   2  13
TORSDOF 15
ENDMDL
MODEL 8
REMARK VINA RESULT:    -3.698      1.187      2.254
REMARK INTER + INTRA:          -8.931
REMARK INTER:                  -7.210
REMARK INTRA:                  -1.721
REMARK UNBOUND:                -1.991
REMARK SMILES CCCCCCCCC=CCCCCCCCC(=O)[O-]
REMARK SMILES IDX 10 1 9 2 11 3 12 4 13 5 14 6 15 7 16 8 17 9 18 10 19 11
REMARK SMILES IDX 20 12 8 13 7 14 6 15 5 16 4 17 3 18 2 19 1 20
REMARK H PARENT
REMARK Flexibility Score: inf
ROOT
ATOM      1  C   UNL     1      14.759  20.380  78.717  1.00  0.00    -0.031 C 
ATOM      2  C   UNL     1      13.466  20.729  78.782  1.00  0.00    -0.031 C 
ENDROOT
BRANCH   1   3
ATOM      3  C   UNL     1      15.274  19.136  79.387  1.00  0.00     0.027 C 
BRANCH   3   4
ATOM      4  C   UNL     1      14.129  18.157  79.688  1.00  0.00     0.004 C 
BRANCH   4   5
ATOM      5  C   UNL     1      13.831  17.203  78.517  1.00  0.00     0.000 C 
BRANCH   5   6
ATOM      6  C   UNL     1      14.954  17.085  77.470  1.00  0.00     0.000 C 
BRANCH   6   7
ATOM      7  C   UNL     1      14.521  17.549  76.071  1.00  0.00     0.000 C 
BRANCH   7   8
ATOM      8  C   UNL     1      13.161  18.260  76.124  1.00  0.00     0.006 C 
BRANCH   8   9
ATOM      9  C   UNL     1      13.133  19.528  75.260  1.00  0.00     0.053 C 
BRANCH   9  10
ATOM     10  C   UNL     1      11.822  19.692  74.555  1.00  0.00     0.041 C 
ATOM     11  O   UNL     1      11.132  20.730  74.734  1.00  0.00    -0.550 OA
ATOM     12  O   UNL     1      11.346  18.684  73.726  1.00  0.00    -0.550 OA
ENDBRANCH   9  10
ENDBRANCH   8   9
ENDBRANCH   7   8
ENDBRANCH   6   7
ENDBRANCH   5   6
ENDBRANCH   4   5
ENDBRANCH   3   4
ENDBRANCH   1   3
BRANCH   2  13
ATOM     13  C   UNL     1      12.956  22.000  78.159  1.00  0.00     0.027 C 
BRANCH  13  14
ATOM     14  C   UNL     1      11.852  22.642  79.009  1.00  0.00     0.004 C 
BRANCH  14  15
ATOM     15  C   UNL     1      12.193  22.624  80.509  1.00  0.00     0.000 C 
BRANCH  15  16
ATOM     16  C   UNL     1      13.310  23.615  80.880  1.00  0.00     0.000 C 
BRANCH  16  17
ATOM     17  C   UNL     1      12.920  25.104  80.791  1.00  0.00    -0.000 C 
BRANCH  17  18
ATOM     18  C   UNL     1      12.682  25.799  82.144  1.00  0.00    -0.000 C 
BRANCH  18  19
ATOM     19  C   UNL     1      13.042  24.909  83.343  1.00  0.00    -0.003 C 
ATOM     20  C   UNL     1      14.425  25.253  83.887  1.00  0.00     0.004 C 
ENDBRANCH  18  19
ENDBRANCH  17  18
ENDBRANCH  16  17
ENDBRANCH  15  16
ENDBRANCH  14  15
ENDBRANCH  13  14
ENDBRANCH   2  13
TORSDOF 15
ENDMDL
MODEL 9
REMARK VINA RESULT:    -3.689      3.539      8.077
REMARK INTER + INTRA:          -8.915
REMARK INTER:                  -7.112
REMARK INTRA:                  -1.804
REMARK UNBOUND:                -1.991
REMARK SMILES CCCCCCCCC=CCCCCCCCC(=O)[O-]
REMARK SMILES IDX 10 1 9 2 11 3 12 4 13 5 14 6 15 7 16 8 17 9 18 10 19 11
REMARK SMILES IDX 20 12 8 13 7 14 6 15 5 16 4 17 3 18 2 19 1 20
REMARK H PARENT
REMARK Flexibility Score: inf
ROOT
ATOM      1  C   UNL     1      12.976  21.109  79.594  1.00  0.00    -0.031 C 
ATOM      2  C   UNL     1      14.247  21.073  79.168  1.00  0.00    -0.031 C 
ENDROOT
BRANCH   1   3
ATOM      3  C   UNL     1      12.152  22.364  79.508  1.00  0.00     0.027 C 
BRANCH   3   4
ATOM      4  C   UNL     1      12.599  23.391  80.560  1.00  0.00     0.004 C 
BRANCH   4   5
ATOM      5  C   UNL     1      13.452  24.527  79.964  1.00  0.00     0.000 C 
BRANCH   5   6
ATOM      6  C   UNL     1      14.919  24.556  80.432  1.00  0.00     0.000 C 
BRANCH   6   7
ATOM      7  C   UNL     1      15.140  23.809  81.756  1.00  0.00     0.000 C 
BRANCH   7   8
ATOM      8  C   UNL     1      15.286  24.793  82.925  1.00  0.00     0.006 C 
BRANCH   8   9
ATOM      9  C   UNL     1      13.992  24.928  83.738  1.00  0.00     0.053 C 
BRANCH   9  10
ATOM     10  C   UNL     1      13.177  26.104  83.296  1.00  0.00     0.041 C 
ATOM     11  O   UNL     1      11.920  26.062  83.359  1.00  0.00    -0.550 OA
ATOM     12  O   UNL     1      13.803  27.233  82.784  1.00  0.00    -0.550 OA
ENDBRANCH   9  10
ENDBRANCH   8   9
ENDBRANCH   7   8
ENDBRANCH   6   7
ENDBRANCH   5   6
ENDBRANCH   4   5
ENDBRANCH   3   4
ENDBRANCH   1   3
BRANCH   2  13
ATOM     13  C   UNL     1      15.093  19.835  79.301  1.00  0.00     0.027 C 
BRANCH  13  14
ATOM     14  C   UNL     1      14.236  18.595  79.588  1.00  0.00     0.004 C 
BRANCH  14  15
ATOM     15  C   UNL     1      14.166  17.648  78.377  1.00  0.00     0.000 C 
BRANCH  15  16
ATOM     16  C   UNL     1      13.037  18.015  77.398  1.00  0.00     0.000 C 
BRANCH  16  17
ATOM     17  C   UNL     1      13.470  18.166  75.926  1.00  0.00    -0.000 C 
BRANCH  17  18
ATOM     18  C   UNL     1      13.199  19.549  75.306  1.00  0.00    -0.000 C 
BRANCH  18  19
ATOM     19  C   UNL     1      11.754  19.709  74.812  1.00  0.00    -0.003 C 
ATOM     20  C   UNL     1      11.243  18.418  74.181  1.00  0.00     0.004 C 
ENDBRANCH  18  19
ENDBRANCH  17  18
ENDBRANCH  16  17
ENDBRANCH  15  16
ENDBRANCH  14  15
ENDBRANCH  13  14
ENDBRANCH   2  13
TORSDOF 15
ENDMDL
