MODEL 1
REMARK VINA RESULT:    -4.804      0.000      0.000
REMARK INTER + INTRA:         -18.084
REMARK INTER:                 -12.666
REMARK INTRA:                  -5.417
REMARK UNBOUND:                -5.417
REMARK SMILES CCCCCCCCCCCCCCCCCCCCCCCCCCCCCC(=O)[O-]
REMARK SMILES IDX 16 1 17 2 18 3 19 4 20 5 21 6 22 7 23 8 24 9 25 10 26 11
REMARK SMILES IDX 27 12 28 13 29 14 30 15 31 16 32 17 15 18 14 19 13 20 12 21
REMARK SMILES IDX 11 22 10 23 9 24 8 25 7 26 6 27 5 28 4 29 3 30 2 31 1 32
REMARK H PARENT
REMARK Flexibility Score: inf
ROOT
ATOM      1  C   UNL     1     187.365 193.426 193.706  1.00  0.00     0.000 C 
ENDROOT
BRANCH   1   2
ATOM      2  C   UNL     1     188.710 194.148 193.522  1.00  0.00     0.000 C 
BRANCH   2   3
ATOM      3  C   UNL     1     189.900 193.347 194.066  1.00  0.00     0.000 C 
BRANCH   3   4
ATOM      4  C   UNL     1     190.106 192.050 193.271  1.00  0.00     0.000 C 
BRANCH   4   5
ATOM      5  C   UNL     1     191.179 192.183 192.174  1.00  0.00     0.000 C 
BRANCH   5   6
ATOM      6  C   UNL     1     190.679 191.933 190.739  1.00  0.00     0.000 C 
BRANCH   6   7
ATOM      7  C   UNL     1     189.492 192.829 190.353  1.00  0.00     0.000 C 
BRANCH   7   8
ATOM      8  C   UNL     1     188.442 192.041 189.561  1.00  0.00     0.000 C 
BRANCH   8   9
ATOM      9  C   UNL     1     187.146 191.886 190.371  1.00  0.00     0.000 C 
BRANCH   9  10
ATOM     10  C   UNL     1     186.565 190.461 190.315  1.00  0.00     0.000 C 
BRANCH  10  11
ATOM     11  C   UNL     1     185.776 190.032 191.564  1.00  0.00     0.000 C 
BRANCH  11  12
ATOM     12  C   UNL     1     186.627 190.052 192.845  1.00  0.00     0.000 C 
BRANCH  12  13
ATOM     13  C   UNL     1     187.928 189.240 192.714  1.00  0.00     0.006 C 
BRANCH  13  14
ATOM     14  C   UNL     1     188.008 188.037 193.671  1.00  0.00     0.053 C 
BRANCH  14  15
ATOM     15  C   UNL     1     187.554 186.762 193.028  1.00  0.00     0.041 C 
ATOM     16  O   UNL     1     187.320 186.724 191.790  1.00  0.00    -0.550 OA
ATOM     17  O   UNL     1     187.426 185.603 193.786  1.00  0.00    -0.550 OA
ENDBRANCH  14  15
ENDBRANCH  13  14
ENDBRANCH  12  13
ENDBRANCH  11  12
ENDBRANCH  10  11
ENDBRANCH   9  10
ENDBRANCH   8   9
ENDBRANCH   7   8
ENDBRANCH   6   7
ENDBRANCH   5   6
ENDBRANCH   4   5
ENDBRANCH   3   4
ENDBRANCH   2   3
ENDBRANCH   1   2
BRANCH   1  18
ATOM     18  C   UNL     1     186.177 194.137 193.023  1.00  0.00     0.000 C 
BRANCH  18  19
ATOM     19  C   UNL     1     184.825 193.524 193.430  1.00  0.00     0.000 C 
BRANCH  19  20
ATOM     20  C   UNL     1     183.693 194.562 193.508  1.00  0.00     0.000 C 
BRANCH  20  21
ATOM     21  C   UNL     1     183.782 195.533 194.699  1.00  0.00     0.000 C 
BRANCH  21  22
ATOM     22  C   UNL     1     183.468 194.852 196.044  1.00  0.00     0.000 C 
BRANCH  22  23
ATOM     23  C   UNL     1     184.550 195.100 197.112  1.00  0.00     0.000 C 
BRANCH  23  24
ATOM     24  C   UNL     1     185.896 194.388 196.864  1.00  0.00    -0.000 C 
BRANCH  24  25
ATOM     25  C   UNL     1     187.139 195.301 196.869  1.00  0.00    -0.000 C 
BRANCH  25  26
ATOM     26  C   UNL     1     187.000 196.593 196.043  1.00  0.00    -0.000 C 
BRANCH  26  27
ATOM     27  C   UNL     1     188.292 197.426 196.020  1.00  0.00    -0.000 C 
BRANCH  27  28
ATOM     28  C   UNL     1     188.892 197.529 194.607  1.00  0.00    -0.000 C 
BRANCH  28  29
ATOM     29  C   UNL     1     190.426 197.332 194.569  1.00  0.00    -0.000 C 
BRANCH  29  30
ATOM     30  C   UNL     1     191.037 197.495 193.165  1.00  0.00    -0.000 C 
BRANCH  30  31
ATOM     31  C   UNL     1     191.823 196.269 192.670  1.00  0.00    -0.003 C 
ATOM     32  C   UNL     1     191.394 195.813 191.274  1.00  0.00     0.004 C 
ENDBRANCH  30  31
ENDBRANCH  29  30
ENDBRANCH  28  29
ENDBRANCH  27  28
ENDBRANCH  26  27
ENDBRANCH  25  26
ENDBRANCH  24  25
ENDBRANCH  23  24
ENDBRANCH  22  23
ENDBRANCH  21  22
ENDBRANCH  20  21
ENDBRANCH  19  20
ENDBRANCH  18  19
ENDBRANCH   1  18
TORSDOF 28
ENDMDL
MODEL 2
REMARK VINA RESULT:    -4.658      3.450      6.970
REMARK INTER + INTRA:         -17.701
REMARK INTER:                 -12.491
REMARK INTRA:                  -5.209
REMARK UNBOUND:                -5.417
REMARK SMILES CCCCCCCCCCCCCCCCCCCCCCCCCCCCCC(=O)[O-]
REMARK SMILES IDX 16 1 17 2 18 3 19 4 20 5 21 6 22 7 23 8 24 9 25 10 26 11
REMARK SMILES IDX 27 12 28 13 29 14 30 15 31 16 32 17 15 18 14 19 13 20 12 21
REMARK SMILES IDX 11 22 10 23 9 24 8 25 7 26 6 27 5 28 4 29 3 30 2 31 1 32
REMARK H PARENT
REMARK Flexibility Score: inf
ROOT
ATOM      1  C   UNL     1     190.366 197.441 197.097  1.00  0.00     0.000 C 
ENDROOT
BRANCH   1   2
ATOM      2  C   UNL     1     189.137 198.004 196.364  1.00  0.00     0.000 C 
BRANCH   2   3
ATOM      3  C   UNL     1     189.070 197.578 194.892  1.00  0.00     0.000 C 
BRANCH   3   4
ATOM      4  C   UNL     1     189.906 196.315 194.641  1.00  0.00     0.000 C 
BRANCH   4   5
ATOM      5  C   UNL     1     189.173 195.271 193.779  1.00  0.00     0.000 C 
BRANCH   5   6
ATOM      6  C   UNL     1     189.595 193.810 194.022  1.00  0.00     0.000 C 
BRANCH   6   7
ATOM      7  C   UNL     1     188.766 192.804 193.212  1.00  0.00     0.000 C 
BRANCH   7   8
ATOM      8  C   UNL     1     189.569 192.256 192.025  1.00  0.00     0.000 C 
BRANCH   8   9
ATOM      9  C   UNL     1     190.827 191.519 192.507  1.00  0.00     0.000 C 
BRANCH   9  10
ATOM     10  C   UNL     1     192.074 191.836 191.660  1.00  0.00     0.000 C 
BRANCH  10  11
ATOM     11  C   UNL     1     192.042 193.198 190.945  1.00  0.00     0.000 C 
BRANCH  11  12
ATOM     12  C   UNL     1     193.078 194.190 191.501  1.00  0.00     0.000 C 
BRANCH  12  13
ATOM     13  C   UNL     1     192.442 195.485 192.036  1.00  0.00     0.006 C 
BRANCH  13  14
ATOM     14  C   UNL     1     191.443 196.135 191.062  1.00  0.00     0.053 C 
BRANCH  14  15
ATOM     15  C   UNL     1     191.486 197.632 191.109  1.00  0.00     0.041 C 
ATOM     16  O   UNL     1     191.278 198.238 192.194  1.00  0.00    -0.550 OA
ATOM     17  O   UNL     1     191.795 198.359 189.965  1.00  0.00    -0.550 OA
ENDBRANCH  14  15
ENDBRANCH  13  14
ENDBRANCH  12  13
ENDBRANCH  11  12
ENDBRANCH  10  11
ENDBRANCH   9  10
ENDBRANCH   8   9
ENDBRANCH   7   8
ENDBRANCH   6   7
ENDBRANCH   5   6
ENDBRANCH   4   5
ENDBRANCH   3   4
ENDBRANCH   2   3
ENDBRANCH   1   2
BRANCH   1  18
ATOM     18  C   UNL     1     190.025 196.694 198.405  1.00  0.00     0.000 C 
BRANCH  18  19
ATOM     19  C   UNL     1     189.607 195.236 198.145  1.00  0.00     0.000 C 
BRANCH  19  20
ATOM     20  C   UNL     1     188.087 195.020 198.237  1.00  0.00     0.000 C 
BRANCH  20  21
ATOM     21  C   UNL     1     187.391 194.720 196.897  1.00  0.00     0.000 C 
BRANCH  21  22
ATOM     22  C   UNL     1     186.059 195.476 196.738  1.00  0.00     0.000 C 
BRANCH  22  23
ATOM     23  C   UNL     1     185.873 196.080 195.333  1.00  0.00     0.000 C 
BRANCH  23  24
ATOM     24  C   UNL     1     184.613 195.613 194.577  1.00  0.00    -0.000 C 
BRANCH  24  25
ATOM     25  C   UNL     1     184.867 194.642 193.405  1.00  0.00    -0.000 C 
BRANCH  25  26
ATOM     26  C   UNL     1     184.341 193.211 193.621  1.00  0.00    -0.000 C 
BRANCH  26  27
ATOM     27  C   UNL     1     185.414 192.260 194.177  1.00  0.00    -0.000 C 
BRANCH  27  28
ATOM     28  C   UNL     1     185.346 190.866 193.529  1.00  0.00    -0.000 C 
BRANCH  28  29
ATOM     29  C   UNL     1     185.921 190.821 192.094  1.00  0.00    -0.000 C 
BRANCH  29  30
ATOM     30  C   UNL     1     186.809 189.594 191.821  1.00  0.00    -0.000 C 
BRANCH  30  31
ATOM     31  C   UNL     1     187.778 189.246 192.964  1.00  0.00    -0.003 C 
ATOM     32  C   UNL     1     187.552 187.841 193.526  1.00  0.00     0.004 C 
ENDBRANCH  30  31
ENDBRANCH  29  30
ENDBRANCH  28  29
ENDBRANCH  27  28
ENDBRANCH  26  27
ENDBRANCH  25  26
ENDBRANCH  24  25
ENDBRANCH  23  24
ENDBRANCH  22  23
ENDBRANCH  21  22
ENDBRANCH  20  21
ENDBRANCH  19  20
ENDBRANCH  18  19
ENDBRANCH   1  18
TORSDOF 28
ENDMDL
MODEL 3
REMARK VINA RESULT:    -4.625      3.043      7.507
REMARK INTER + INTRA:         -17.614
REMARK INTER:                 -14.299
REMARK INTRA:                  -3.315
REMARK UNBOUND:                -5.417
REMARK SMILES CCCCCCCCCCCCCCCCCCCCCCCCCCCCCC(=O)[O-]
REMARK SMILES IDX 16 1 17 2 18 3 19 4 20 5 21 6 22 7 23 8 24 9 25 10 26 11
REMARK SMILES IDX 27 12 28 13 29 14 30 15 31 16 32 17 15 18 14 19 13 20 12 21
REMARK SMILES IDX 11 22 10 23 9 24 8 25 7 26 6 27 5 28 4 29 3 30 2 31 1 32
REMARK H PARENT
REMARK Flexibility Score: inf
ROOT
ATOM      1  C   UNL     1     190.447 200.075 197.848  1.00  0.00     0.000 C 
ENDROOT
BRANCH   1   2
ATOM      2  C   UNL     1     190.976 198.660 197.560  1.00  0.00     0.000 C 
BRANCH   2   3
ATOM      3  C   UNL     1     189.872 197.679 197.146  1.00  0.00     0.000 C 
BRANCH   3   4
ATOM      4  C   UNL     1     189.920 197.394 195.639  1.00  0.00     0.000 C 
BRANCH   4   5
ATOM      5  C   UNL     1     188.533 197.092 195.041  1.00  0.00     0.000 C 
BRANCH   5   6
ATOM      6  C   UNL     1     187.406 196.901 196.073  1.00  0.00     0.000 C 
BRANCH   6   7
ATOM      7  C   UNL     1     187.114 195.424 196.376  1.00  0.00     0.000 C 
BRANCH   7   8
ATOM      8  C   UNL     1     185.767 195.264 197.092  1.00  0.00     0.000 C 
BRANCH   8   9
ATOM      9  C   UNL     1     184.744 194.562 196.187  1.00  0.00     0.000 C 
BRANCH   9  10
ATOM     10  C   UNL     1     184.234 195.460 195.044  1.00  0.00     0.000 C 
BRANCH  10  11
ATOM     11  C   UNL     1     183.719 194.706 193.806  1.00  0.00     0.000 C 
BRANCH  11  12
ATOM     12  C   UNL     1     184.698 193.626 193.315  1.00  0.00     0.000 C 
BRANCH  12  13
ATOM     13  C   UNL     1     186.084 194.190 192.956  1.00  0.00     0.006 C 
BRANCH  13  14
ATOM     14  C   UNL     1     187.255 193.314 193.436  1.00  0.00     0.053 C 
BRANCH  14  15
ATOM     15  C   UNL     1     187.878 192.527 192.323  1.00  0.00     0.041 C 
ATOM     16  O   UNL     1     188.971 191.927 192.505  1.00  0.00    -0.550 OA
ATOM     17  O   UNL     1     187.234 192.423 191.095  1.00  0.00    -0.550 OA
ENDBRANCH  14  15
ENDBRANCH  13  14
ENDBRANCH  12  13
ENDBRANCH  11  12
ENDBRANCH  10  11
ENDBRANCH   9  10
ENDBRANCH   8   9
ENDBRANCH   7   8
ENDBRANCH   6   7
ENDBRANCH   5   6
ENDBRANCH   4   5
ENDBRANCH   3   4
ENDBRANCH   2   3
ENDBRANCH   1   2
BRANCH   1  18
ATOM     18  C   UNL     1     191.530 201.056 198.346  1.00  0.00     0.000 C 
BRANCH  18  19
ATOM     19  C   UNL     1     192.113 201.904 197.202  1.00  0.00     0.000 C 
BRANCH  19  20
ATOM     20  C   UNL     1     193.584 201.573 196.896  1.00  0.00     0.000 C 
BRANCH  20  21
ATOM     21  C   UNL     1     193.836 200.957 195.508  1.00  0.00     0.000 C 
BRANCH  21  22
ATOM     22  C   UNL     1     193.577 199.439 195.476  1.00  0.00     0.000 C 
BRANCH  22  23
ATOM     23  C   UNL     1     193.619 198.851 194.053  1.00  0.00     0.000 C 
BRANCH  23  24
ATOM     24  C   UNL     1     193.331 199.854 192.917  1.00  0.00    -0.000 C 
BRANCH  24  25
ATOM     25  C   UNL     1     192.355 199.361 191.830  1.00  0.00    -0.000 C 
BRANCH  25  26
ATOM     26  C   UNL     1     191.290 198.362 192.317  1.00  0.00    -0.000 C 
BRANCH  26  27
ATOM     27  C   UNL     1     191.182 197.120 191.417  1.00  0.00    -0.000 C 
BRANCH  27  28
ATOM     28  C   UNL     1     191.538 195.825 192.169  1.00  0.00    -0.000 C 
BRANCH  28  29
ATOM     29  C   UNL     1     191.253 194.540 191.357  1.00  0.00    -0.000 C 
BRANCH  29  30
ATOM     30  C   UNL     1     192.377 193.491 191.445  1.00  0.00    -0.000 C 
BRANCH  30  31
ATOM     31  C   UNL     1     193.665 193.880 190.700  1.00  0.00    -0.003 C 
ATOM     32  C   UNL     1     194.892 193.911 191.613  1.00  0.00     0.004 C 
ENDBRANCH  30  31
ENDBRANCH  29  30
ENDBRANCH  28  29
ENDBRANCH  27  28
ENDBRANCH  26  27
ENDBRANCH  25  26
ENDBRANCH  24  25
ENDBRANCH  23  24
ENDBRANCH  22  23
ENDBRANCH  21  22
ENDBRANCH  20  21
ENDBRANCH  19  20
ENDBRANCH  18  19
ENDBRANCH   1  18
TORSDOF 28
ENDMDL
MODEL 4
REMARK VINA RESULT:    -4.620      1.040      3.664
REMARK INTER + INTRA:         -17.600
REMARK INTER:                 -13.167
REMARK INTRA:                  -4.433
REMARK UNBOUND:                -5.417
REMARK SMILES CCCCCCCCCCCCCCCCCCCCCCCCCCCCCC(=O)[O-]
REMARK SMILES IDX 16 1 17 2 18 3 19 4 20 5 21 6 22 7 23 8 24 9 25 10 26 11
REMARK SMILES IDX 27 12 28 13 29 14 30 15 31 16 32 17 15 18 14 19 13 20 12 21
REMARK SMILES IDX 11 22 10 23 9 24 8 25 7 26 6 27 5 28 4 29 3 30 2 31 1 32
REMARK H PARENT
REMARK Flexibility Score: inf
ROOT
ATOM      1  C   UNL     1     191.439 195.665 192.716  1.00  0.00     0.000 C 
ENDROOT
BRANCH   1   2
ATOM      2  C   UNL     1     191.443 195.017 191.321  1.00  0.00     0.000 C 
BRANCH   2   3
ATOM      3  C   UNL     1     192.546 193.964 191.152  1.00  0.00     0.000 C 
BRANCH   3   4
ATOM      4  C   UNL     1     192.043 192.567 191.539  1.00  0.00     0.000 C 
BRANCH   4   5
ATOM      5  C   UNL     1     191.193 191.908 190.437  1.00  0.00     0.000 C 
BRANCH   5   6
ATOM      6  C   UNL     1     189.695 191.765 190.765  1.00  0.00     0.000 C 
BRANCH   6   7
ATOM      7  C   UNL     1     188.784 192.233 189.621  1.00  0.00     0.000 C 
BRANCH   7   8
ATOM      8  C   UNL     1     187.306 192.131 190.016  1.00  0.00     0.000 C 
BRANCH   8   9
ATOM      9  C   UNL     1     186.888 190.665 190.205  1.00  0.00     0.000 C 
BRANCH   9  10
ATOM     10  C   UNL     1     186.304 190.379 191.602  1.00  0.00     0.000 C 
BRANCH  10  11
ATOM     11  C   UNL     1     187.324 189.883 192.642  1.00  0.00     0.000 C 
BRANCH  11  12
ATOM     12  C   UNL     1     186.835 188.647 193.415  1.00  0.00     0.000 C 
BRANCH  12  13
ATOM     13  C   UNL     1     187.828 187.473 193.362  1.00  0.00     0.006 C 
BRANCH  13  14
ATOM     14  C   UNL     1     187.162 186.107 193.116  1.00  0.00     0.053 C 
BRANCH  14  15
ATOM     15  C   UNL     1     186.547 186.005 191.753  1.00  0.00     0.041 C 
ATOM     16  O   UNL     1     185.514 185.306 191.574  1.00  0.00    -0.550 OA
ATOM     17  O   UNL     1     187.090 186.713 190.686  1.00  0.00    -0.550 OA
ENDBRANCH  14  15
ENDBRANCH  13  14
ENDBRANCH  12  13
ENDBRANCH  11  12
ENDBRANCH  10  11
ENDBRANCH   9  10
ENDBRANCH   8   9
ENDBRANCH   7   8
ENDBRANCH   6   7
ENDBRANCH   5   6
ENDBRANCH   4   5
ENDBRANCH   3   4
ENDBRANCH   2   3
ENDBRANCH   1   2
BRANCH   1  18
ATOM     18  C   UNL     1     190.072 195.598 193.430  1.00  0.00     0.000 C 
BRANCH  18  19
ATOM     19  C   UNL     1     189.800 194.208 194.031  1.00  0.00     0.000 C 
BRANCH  19  20
ATOM     20  C   UNL     1     188.711 193.428 193.275  1.00  0.00     0.000 C 
BRANCH  20  21
ATOM     21  C   UNL     1     187.313 193.474 193.919  1.00  0.00     0.000 C 
BRANCH  21  22
ATOM     22  C   UNL     1     186.227 193.969 192.946  1.00  0.00     0.000 C 
BRANCH  22  23
ATOM     23  C   UNL     1     184.798 193.701 193.453  1.00  0.00     0.000 C 
BRANCH  23  24
ATOM     24  C   UNL     1     183.874 194.935 193.502  1.00  0.00    -0.000 C 
BRANCH  24  25
ATOM     25  C   UNL     1     183.753 195.617 194.880  1.00  0.00    -0.000 C 
BRANCH  25  26
ATOM     26  C   UNL     1     183.435 194.668 196.050  1.00  0.00    -0.000 C 
BRANCH  26  27
ATOM     27  C   UNL     1     184.381 194.860 197.247  1.00  0.00    -0.000 C 
BRANCH  27  28
ATOM     28  C   UNL     1     185.805 194.359 196.948  1.00  0.00    -0.000 C 
BRANCH  28  29
ATOM     29  C   UNL     1     186.899 195.428 197.181  1.00  0.00    -0.000 C 
BRANCH  29  30
ATOM     30  C   UNL     1     187.140 196.342 195.965  1.00  0.00    -0.000 C 
BRANCH  30  31
ATOM     31  C   UNL     1     188.164 197.463 196.209  1.00  0.00    -0.003 C 
ATOM     32  C   UNL     1     189.461 196.956 196.844  1.00  0.00     0.004 C 
ENDBRANCH  30  31
ENDBRANCH  29  30
ENDBRANCH  28  29
ENDBRANCH  27  28
ENDBRANCH  26  27
ENDBRANCH  25  26
ENDBRANCH  24  25
ENDBRANCH  23  24
ENDBRANCH  22  23
ENDBRANCH  21  22
ENDBRANCH  20  21
ENDBRANCH  19  20
ENDBRANCH  18  19
ENDBRANCH   1  18
TORSDOF 28
ENDMDL
MODEL 5
REMARK VINA RESULT:    -4.576      3.903      7.215
REMARK INTER + INTRA:         -17.483
REMARK INTER:                 -12.751
REMARK INTRA:                  -4.732
REMARK UNBOUND:                -5.417
REMARK SMILES CCCCCCCCCCCCCCCCCCCCCCCCCCCCCC(=O)[O-]
REMARK SMILES IDX 16 1 17 2 18 3 19 4 20 5 21 6 22 7 23 8 24 9 25 10 26 11
REMARK SMILES IDX 27 12 28 13 29 14 30 15 31 16 32 17 15 18 14 19 13 20 12 21
REMARK SMILES IDX 11 22 10 23 9 24 8 25 7 26 6 27 5 28 4 29 3 30 2 31 1 32
REMARK H PARENT
REMARK Flexibility Score: inf
ROOT
ATOM      1  C   UNL     1     189.394 196.162 195.850  1.00  0.00     0.000 C 
ENDROOT
BRANCH   1   2
ATOM      2  C   UNL     1     189.333 194.639 196.058  1.00  0.00     0.000 C 
BRANCH   2   3
ATOM      3  C   UNL     1     189.668 193.846 194.788  1.00  0.00     0.000 C 
BRANCH   3   4
ATOM      4  C   UNL     1     188.860 194.356 193.586  1.00  0.00     0.000 C 
BRANCH   4   5
ATOM      5  C   UNL     1     188.718 193.305 192.470  1.00  0.00     0.000 C 
BRANCH   5   6
ATOM      6  C   UNL     1     189.063 191.862 192.885  1.00  0.00     0.000 C 
BRANCH   6   7
ATOM      7  C   UNL     1     189.955 191.142 191.863  1.00  0.00     0.000 C 
BRANCH   7   8
ATOM      8  C   UNL     1     191.413 191.601 191.985  1.00  0.00     0.000 C 
BRANCH   8   9
ATOM      9  C   UNL     1     191.782 192.564 190.847  1.00  0.00     0.000 C 
BRANCH   9  10
ATOM     10  C   UNL     1     192.545 193.810 191.335  1.00  0.00     0.000 C 
BRANCH  10  11
ATOM     11  C   UNL     1     191.724 195.112 191.339  1.00  0.00     0.000 C 
BRANCH  11  12
ATOM     12  C   UNL     1     192.093 196.047 192.503  1.00  0.00     0.000 C 
BRANCH  12  13
ATOM     13  C   UNL     1     191.180 197.282 192.595  1.00  0.00     0.006 C 
BRANCH  13  14
ATOM     14  C   UNL     1     191.465 198.347 191.522  1.00  0.00     0.053 C 
BRANCH  14  15
ATOM     15  C   UNL     1     192.525 199.319 191.945  1.00  0.00     0.041 C 
ATOM     16  O   UNL     1     192.768 200.337 191.243  1.00  0.00    -0.550 OA
ATOM     17  O   UNL     1     193.219 199.122 193.133  1.00  0.00    -0.550 OA
ENDBRANCH  14  15
ENDBRANCH  13  14
ENDBRANCH  12  13
ENDBRANCH  11  12
ENDBRANCH  10  11
ENDBRANCH   9  10
ENDBRANCH   8   9
ENDBRANCH   7   8
ENDBRANCH   6   7
ENDBRANCH   5   6
ENDBRANCH   4   5
ENDBRANCH   3   4
ENDBRANCH   2   3
ENDBRANCH   1   2
BRANCH   1  18
ATOM     18  C   UNL     1     188.152 196.914 196.374  1.00  0.00     0.000 C 
BRANCH  18  19
ATOM     19  C   UNL     1     187.003 196.916 195.350  1.00  0.00     0.000 C 
BRANCH  19  20
ATOM     20  C   UNL     1     185.859 195.959 195.727  1.00  0.00     0.000 C 
BRANCH  20  21
ATOM     21  C   UNL     1     184.899 195.610 194.575  1.00  0.00     0.000 C 
BRANCH  21  22
ATOM     22  C   UNL     1     185.294 194.313 193.846  1.00  0.00     0.000 C 
BRANCH  22  23
ATOM     23  C   UNL     1     185.592 193.147 194.808  1.00  0.00     0.000 C 
BRANCH  23  24
ATOM     24  C   UNL     1     184.359 192.342 195.268  1.00  0.00    -0.000 C 
BRANCH  24  25
ATOM     25  C   UNL     1     184.103 191.029 194.500  1.00  0.00    -0.000 C 
BRANCH  25  26
ATOM     26  C   UNL     1     185.206 190.633 193.502  1.00  0.00    -0.000 C 
BRANCH  26  27
ATOM     27  C   UNL     1     184.941 189.276 192.829  1.00  0.00    -0.000 C 
BRANCH  27  28
ATOM     28  C   UNL     1     185.108 189.343 191.300  1.00  0.00    -0.000 C 
BRANCH  28  29
ATOM     29  C   UNL     1     186.522 189.781 190.850  1.00  0.00    -0.000 C 
BRANCH  29  30
ATOM     30  C   UNL     1     186.536 190.554 189.519  1.00  0.00    -0.000 C 
BRANCH  30  31
ATOM     31  C   UNL     1     186.847 192.053 189.661  1.00  0.00    -0.003 C 
ATOM     32  C   UNL     1     188.112 192.471 188.908  1.00  0.00     0.004 C 
ENDBRANCH  30  31
ENDBRANCH  29  30
ENDBRANCH  28  29
ENDBRANCH  27  28
ENDBRANCH  26  27
ENDBRANCH  25  26
ENDBRANCH  24  25
ENDBRANCH  23  24
ENDBRANCH  22  23
ENDBRANCH  21  22
ENDBRANCH  20  21
ENDBRANCH  19  20
ENDBRANCH  18  19
ENDBRANCH   1  18
TORSDOF 28
ENDMDL
MODEL 6
REMARK VINA RESULT:    -4.534      1.177      2.348
REMARK INTER + INTRA:         -17.374
REMARK INTER:                 -12.418
REMARK INTRA:                  -4.956
REMARK UNBOUND:                -5.417
REMARK SMILES CCCCCCCCCCCCCCCCCCCCCCCCCCCCCC(=O)[O-]
REMARK SMILES IDX 16 1 17 2 18 3 19 4 20 5 21 6 22 7 23 8 24 9 25 10 26 11
REMARK SMILES IDX 27 12 28 13 29 14 30 15 31 16 32 17 15 18 14 19 13 20 12 21
REMARK SMILES IDX 11 22 10 23 9 24 8 25 7 26 6 27 5 28 4 29 3 30 2 31 1 32
REMARK H PARENT
REMARK Flexibility Score: inf
ROOT
ATOM      1  C   UNL     1     188.733 193.823 193.370  1.00  0.00     0.000 C 
ENDROOT
BRANCH   1   2
ATOM      2  C   UNL     1     189.980 192.978 193.685  1.00  0.00     0.000 C 
BRANCH   2   3
ATOM      3  C   UNL     1     190.249 191.892 192.636  1.00  0.00     0.000 C 
BRANCH   3   4
ATOM      4  C   UNL     1     190.081 192.442 191.213  1.00  0.00     0.000 C 
BRANCH   4   5
ATOM      5  C   UNL     1     189.142 191.584 190.346  1.00  0.00     0.000 C 
BRANCH   5   6
ATOM      6  C   UNL     1     187.801 192.249 189.982  1.00  0.00     0.000 C 
BRANCH   6   7
ATOM      7  C   UNL     1     186.765 191.252 189.441  1.00  0.00     0.000 C 
BRANCH   7   8
ATOM      8  C   UNL     1     186.618 190.047 190.378  1.00  0.00     0.000 C 
BRANCH   8   9
ATOM      9  C   UNL     1     185.650 190.360 191.528  1.00  0.00     0.000 C 
BRANCH   9  10
ATOM     10  C   UNL     1     186.142 189.839 192.891  1.00  0.00     0.000 C 
BRANCH  10  11
ATOM     11  C   UNL     1     187.606 189.365 192.914  1.00  0.00     0.000 C 
BRANCH  11  12
ATOM     12  C   UNL     1     187.815 188.112 193.781  1.00  0.00     0.000 C 
BRANCH  12  13
ATOM     13  C   UNL     1     187.829 186.810 192.962  1.00  0.00     0.006 C 
BRANCH  13  14
ATOM     14  C   UNL     1     186.428 186.236 192.684  1.00  0.00     0.053 C 
BRANCH  14  15
ATOM     15  C   UNL     1     186.065 186.287 191.231  1.00  0.00     0.041 C 
ATOM     16  O   UNL     1     186.961 186.444 190.359  1.00  0.00    -0.550 OA
ATOM     17  O   UNL     1     184.742 186.124 190.836  1.00  0.00    -0.550 OA
ENDBRANCH  14  15
ENDBRANCH  13  14
ENDBRANCH  12  13
ENDBRANCH  11  12
ENDBRANCH  10  11
ENDBRANCH   9  10
ENDBRANCH   8   9
ENDBRANCH   7   8
ENDBRANCH   6   7
ENDBRANCH   5   6
ENDBRANCH   4   5
ENDBRANCH   3   4
ENDBRANCH   2   3
ENDBRANCH   1   2
BRANCH   1  18
ATOM     18  C   UNL     1     187.402 193.066 193.565  1.00  0.00     0.000 C 
BRANCH  18  19
ATOM     19  C   UNL     1     186.216 193.810 192.926  1.00  0.00     0.000 C 
BRANCH  19  20
ATOM     20  C   UNL     1     184.963 193.825 193.819  1.00  0.00     0.000 C 
BRANCH  20  21
ATOM     21  C   UNL     1     185.213 193.460 195.294  1.00  0.00     0.000 C 
BRANCH  21  22
ATOM     22  C   UNL     1     185.649 194.671 196.139  1.00  0.00     0.000 C 
BRANCH  22  23
ATOM     23  C   UNL     1     185.642 195.992 195.346  1.00  0.00     0.000 C 
BRANCH  23  24
ATOM     24  C   UNL     1     186.921 196.845 195.475  1.00  0.00    -0.000 C 
BRANCH  24  25
ATOM     25  C   UNL     1     188.103 196.161 196.192  1.00  0.00    -0.000 C 
BRANCH  25  26
ATOM     26  C   UNL     1     189.491 196.730 195.846  1.00  0.00    -0.000 C 
BRANCH  26  27
ATOM     27  C   UNL     1     189.550 197.338 194.434  1.00  0.00    -0.000 C 
BRANCH  27  28
ATOM     28  C   UNL     1     190.721 196.776 193.609  1.00  0.00    -0.000 C 
BRANCH  28  29
ATOM     29  C   UNL     1     191.244 197.754 192.530  1.00  0.00    -0.000 C 
BRANCH  29  30
ATOM     30  C   UNL     1     191.478 197.096 191.159  1.00  0.00    -0.000 C 
BRANCH  30  31
ATOM     31  C   UNL     1     191.364 195.562 191.165  1.00  0.00    -0.003 C 
ATOM     32  C   UNL     1     192.726 194.866 191.209  1.00  0.00     0.004 C 
ENDBRANCH  30  31
ENDBRANCH  29  30
ENDBRANCH  28  29
ENDBRANCH  27  28
ENDBRANCH  26  27
ENDBRANCH  25  26
ENDBRANCH  24  25
ENDBRANCH  23  24
ENDBRANCH  22  23
ENDBRANCH  21  22
ENDBRANCH  20  21
ENDBRANCH  19  20
ENDBRANCH  18  19
ENDBRANCH   1  18
TORSDOF 28
ENDMDL
MODEL 7
REMARK VINA RESULT:    -4.529      3.653      8.311
REMARK INTER + INTRA:         -17.359
REMARK INTER:                 -12.999
REMARK INTRA:                  -4.360
REMARK UNBOUND:                -5.417
REMARK SMILES CCCCCCCCCCCCCCCCCCCCCCCCCCCCCC(=O)[O-]
REMARK SMILES IDX 16 1 17 2 18 3 19 4 20 5 21 6 22 7 23 8 24 9 25 10 26 11
REMARK SMILES IDX 27 12 28 13 29 14 30 15 31 16 32 17 15 18 14 19 13 20 12 21
REMARK SMILES IDX 11 22 10 23 9 24 8 25 7 26 6 27 5 28 4 29 3 30 2 31 1 32
REMARK H PARENT
REMARK Flexibility Score: inf
ROOT
ATOM      1  C   UNL     1     191.903 191.504 192.052  1.00  0.00     0.000 C 
ENDROOT
BRANCH   1   2
ATOM      2  C   UNL     1     191.698 192.634 191.029  1.00  0.00     0.000 C 
BRANCH   2   3
ATOM      3  C   UNL     1     192.779 193.720 191.110  1.00  0.00     0.000 C 
BRANCH   3   4
ATOM      4  C   UNL     1     192.219 195.015 191.715  1.00  0.00     0.000 C 
BRANCH   4   5
ATOM      5  C   UNL     1     190.719 194.920 192.051  1.00  0.00     0.000 C 
BRANCH   5   6
ATOM      6  C   UNL     1     190.351 195.291 193.500  1.00  0.00     0.000 C 
BRANCH   6   7
ATOM      7  C   UNL     1     189.572 194.182 194.222  1.00  0.00     0.000 C 
BRANCH   7   8
ATOM      8  C   UNL     1     188.382 193.705 193.380  1.00  0.00     0.000 C 
BRANCH   8   9
ATOM      9  C   UNL     1     187.104 193.631 194.229  1.00  0.00     0.000 C 
BRANCH   9  10
ATOM     10  C   UNL     1     186.474 195.012 194.493  1.00  0.00     0.000 C 
BRANCH  10  11
ATOM     11  C   UNL     1     186.261 195.354 195.978  1.00  0.00     0.000 C 
BRANCH  11  12
ATOM     12  C   UNL     1     187.337 196.302 196.533  1.00  0.00     0.000 C 
BRANCH  12  13
ATOM     13  C   UNL     1     187.791 197.359 195.511  1.00  0.00     0.006 C 
BRANCH  13  14
ATOM     14  C   UNL     1     189.241 197.834 195.712  1.00  0.00     0.053 C 
BRANCH  14  15
ATOM     15  C   UNL     1     189.534 198.198 197.136  1.00  0.00     0.041 C 
ATOM     16  O   UNL     1     189.122 199.292 197.609  1.00  0.00    -0.550 OA
ATOM     17  O   UNL     1     190.228 197.315 197.955  1.00  0.00    -0.550 OA
ENDBRANCH  14  15
ENDBRANCH  13  14
ENDBRANCH  12  13
ENDBRANCH  11  12
ENDBRANCH  10  11
ENDBRANCH   9  10
ENDBRANCH   8   9
ENDBRANCH   7   8
ENDBRANCH   6   7
ENDBRANCH   5   6
ENDBRANCH   4   5
ENDBRANCH   3   4
ENDBRANCH   2   3
ENDBRANCH   1   2
BRANCH   1  18
ATOM     18  C   UNL     1     190.602 191.050 192.748  1.00  0.00     0.000 C 
BRANCH  18  19
ATOM     19  C   UNL     1     190.855 189.925 193.768  1.00  0.00     0.000 C 
BRANCH  19  20
ATOM     20  C   UNL     1     189.739 188.867 193.785  1.00  0.00     0.000 C 
BRANCH  20  21
ATOM     21  C   UNL     1     188.388 189.338 193.216  1.00  0.00     0.000 C 
BRANCH  21  22
ATOM     22  C   UNL     1     187.265 188.304 193.420  1.00  0.00     0.000 C 
BRANCH  22  23
ATOM     23  C   UNL     1     187.748 186.850 193.252  1.00  0.00     0.000 C 
BRANCH  23  24
ATOM     24  C   UNL     1     186.631 185.794 193.130  1.00  0.00    -0.000 C 
BRANCH  24  25
ATOM     25  C   UNL     1     185.565 186.081 192.052  1.00  0.00    -0.000 C 
BRANCH  25  26
ATOM     26  C   UNL     1     186.052 185.932 190.600  1.00  0.00    -0.000 C 
BRANCH  26  27
ATOM     27  C   UNL     1     186.290 187.285 189.910  1.00  0.00    -0.000 C 
BRANCH  27  28
ATOM     28  C   UNL     1     185.080 188.226 190.043  1.00  0.00    -0.000 C 
BRANCH  28  29
ATOM     29  C   UNL     1     185.433 189.607 190.646  1.00  0.00    -0.000 C 
BRANCH  29  30
ATOM     30  C   UNL     1     186.665 190.267 190.002  1.00  0.00    -0.000 C 
BRANCH  30  31
ATOM     31  C   UNL     1     187.074 191.605 190.642  1.00  0.00    -0.003 C 
ATOM     32  C   UNL     1     188.258 192.265 189.932  1.00  0.00     0.004 C 
ENDBRANCH  30  31
ENDBRANCH  29  30
ENDBRANCH  28  29
ENDBRANCH  27  28
ENDBRANCH  26  27
ENDBRANCH  25  26
ENDBRANCH  24  25
ENDBRANCH  23  24
ENDBRANCH  22  23
ENDBRANCH  21  22
ENDBRANCH  20  21
ENDBRANCH  19  20
ENDBRANCH  18  19
ENDBRANCH   1  18
TORSDOF 28
ENDMDL
MODEL 8
REMARK VINA RESULT:    -4.515      1.337      2.714
REMARK INTER + INTRA:         -17.324
REMARK INTER:                 -12.325
REMARK INTRA:                  -4.999
REMARK UNBOUND:                -5.417
REMARK SMILES CCCCCCCCCCCCCCCCCCCCCCCCCCCCCC(=O)[O-]
REMARK SMILES IDX 16 1 17 2 18 3 19 4 20 5 21 6 22 7 23 8 24 9 25 10 26 11
REMARK SMILES IDX 27 12 28 13 29 14 30 15 31 16 32 17 15 18 14 19 13 20 12 21
REMARK SMILES IDX 11 22 10 23 9 24 8 25 7 26 6 27 5 28 4 29 3 30 2 31 1 32
REMARK H PARENT
REMARK Flexibility Score: inf
ROOT
ATOM      1  C   UNL     1     188.222 193.365 194.137  1.00  0.00     0.000 C 
ENDROOT
BRANCH   1   2
ATOM      2  C   UNL     1     189.697 193.790 194.229  1.00  0.00     0.000 C 
BRANCH   2   3
ATOM      3  C   UNL     1     189.967 195.160 193.595  1.00  0.00     0.000 C 
BRANCH   3   4
ATOM      4  C   UNL     1     191.256 195.143 192.763  1.00  0.00     0.000 C 
BRANCH   4   5
ATOM      5  C   UNL     1     191.114 194.346 191.453  1.00  0.00     0.000 C 
BRANCH   5   6
ATOM      6  C   UNL     1     191.947 193.052 191.383  1.00  0.00     0.000 C 
BRANCH   6   7
ATOM      7  C   UNL     1     191.214 191.906 190.670  1.00  0.00     0.000 C 
BRANCH   7   8
ATOM      8  C   UNL     1     189.715 191.921 190.998  1.00  0.00     0.000 C 
BRANCH   8   9
ATOM      9  C   UNL     1     188.878 192.143 189.729  1.00  0.00     0.000 C 
BRANCH   9  10
ATOM     10  C   UNL     1     187.362 192.146 190.000  1.00  0.00     0.000 C 
BRANCH  10  11
ATOM     11  C   UNL     1     186.592 190.962 189.390  1.00  0.00     0.000 C 
BRANCH  11  12
ATOM     12  C   UNL     1     186.210 189.896 190.431  1.00  0.00     0.000 C 
BRANCH  12  13
ATOM     13  C   UNL     1     186.777 190.194 191.831  1.00  0.00     0.006 C 
BRANCH  13  14
ATOM     14  C   UNL     1     186.385 189.151 192.893  1.00  0.00     0.053 C 
BRANCH  14  15
ATOM     15  C   UNL     1     187.419 188.078 193.052  1.00  0.00     0.041 C 
ATOM     16  O   UNL     1     188.219 188.108 194.025  1.00  0.00    -0.550 OA
ATOM     17  O   UNL     1     187.476 187.023 192.149  1.00  0.00    -0.550 OA
ENDBRANCH  14  15
ENDBRANCH  13  14
ENDBRANCH  12  13
ENDBRANCH  11  12
ENDBRANCH  10  11
ENDBRANCH   9  10
ENDBRANCH   8   9
ENDBRANCH   7   8
ENDBRANCH   6   7
ENDBRANCH   5   6
ENDBRANCH   4   5
ENDBRANCH   3   4
ENDBRANCH   2   3
ENDBRANCH   1   2
BRANCH   1  18
ATOM     18  C   UNL     1     187.453 194.028 192.974  1.00  0.00     0.000 C 
BRANCH  18  19
ATOM     19  C   UNL     1     185.940 193.757 193.052  1.00  0.00     0.000 C 
BRANCH  19  20
ATOM     20  C   UNL     1     185.571 192.703 194.110  1.00  0.00     0.000 C 
BRANCH  20  21
ATOM     21  C   UNL     1     184.112 192.215 194.059  1.00  0.00     0.000 C 
BRANCH  21  22
ATOM     22  C   UNL     1     183.112 193.282 194.544  1.00  0.00     0.000 C 
BRANCH  22  23
ATOM     23  C   UNL     1     183.227 193.573 196.052  1.00  0.00     0.000 C 
BRANCH  23  24
ATOM     24  C   UNL     1     183.886 194.919 196.415  1.00  0.00    -0.000 C 
BRANCH  24  25
ATOM     25  C   UNL     1     185.027 194.840 197.450  1.00  0.00    -0.000 C 
BRANCH  25  26
ATOM     26  C   UNL     1     186.408 195.276 196.932  1.00  0.00    -0.000 C 
BRANCH  26  27
ATOM     27  C   UNL     1     186.319 196.252 195.746  1.00  0.00    -0.000 C 
BRANCH  27  28
ATOM     28  C   UNL     1     187.690 196.846 195.378  1.00  0.00    -0.000 C 
BRANCH  28  29
ATOM     29  C   UNL     1     188.274 197.778 196.465  1.00  0.00    -0.000 C 
BRANCH  29  30
ATOM     30  C   UNL     1     189.622 197.299 197.033  1.00  0.00    -0.000 C 
BRANCH  30  31
ATOM     31  C   UNL     1     189.701 195.783 197.283  1.00  0.00    -0.003 C 
ATOM     32  C   UNL     1     190.035 195.438 198.736  1.00  0.00     0.004 C 
ENDBRANCH  30  31
ENDBRANCH  29  30
ENDBRANCH  28  29
ENDBRANCH  27  28
ENDBRANCH  26  27
ENDBRANCH  25  26
ENDBRANCH  24  25
ENDBRANCH  23  24
ENDBRANCH  22  23
ENDBRANCH  21  22
ENDBRANCH  20  21
ENDBRANCH  19  20
ENDBRANCH  18  19
ENDBRANCH   1  18
TORSDOF 28
ENDMDL
MODEL 9
REMARK VINA RESULT:    -4.508      4.093      8.934
REMARK INTER + INTRA:         -17.304
REMARK INTER:                 -12.414
REMARK INTRA:                  -4.889
REMARK UNBOUND:                -5.417
REMARK SMILES CCCCCCCCCCCCCCCCCCCCCCCCCCCCCC(=O)[O-]
REMARK SMILES IDX 16 1 17 2 18 3 19 4 20 5 21 6 22 7 23 8 24 9 25 10 26 11
REMARK SMILES IDX 27 12 28 13 29 14 30 15 31 16 32 17 15 18 14 19 13 20 12 21
REMARK SMILES IDX 11 22 10 23 9 24 8 25 7 26 6 27 5 28 4 29 3 30 2 31 1 32
REMARK H PARENT
REMARK Flexibility Score: inf
ROOT
ATOM      1  C   UNL     1     187.261 194.092 193.151  1.00  0.00     0.000 C 
ENDROOT
BRANCH   1   2
ATOM      2  C   UNL     1     185.798 193.620 193.097  1.00  0.00     0.000 C 
BRANCH   2   3
ATOM      3  C   UNL     1     184.792 194.761 193.290  1.00  0.00     0.000 C 
BRANCH   3   4
ATOM      4  C   UNL     1     183.476 194.245 193.888  1.00  0.00     0.000 C 
BRANCH   4   5
ATOM      5  C   UNL     1     183.677 193.047 194.835  1.00  0.00     0.000 C 
BRANCH   5   6
ATOM      6  C   UNL     1     183.769 193.405 196.330  1.00  0.00     0.000 C 
BRANCH   6   7
ATOM      7  C   UNL     1     185.207 193.685 196.791  1.00  0.00     0.000 C 
BRANCH   7   8
ATOM      8  C   UNL     1     185.419 195.180 197.060  1.00  0.00     0.000 C 
BRANCH   8   9
ATOM      9  C   UNL     1     186.868 195.592 196.760  1.00  0.00     0.000 C 
BRANCH   9  10
ATOM     10  C   UNL     1     186.971 196.729 195.726  1.00  0.00     0.000 C 
BRANCH  10  11
ATOM     11  C   UNL     1     188.321 197.465 195.704  1.00  0.00     0.000 C 
BRANCH  11  12
ATOM     12  C   UNL     1     189.429 196.705 196.453  1.00  0.00     0.000 C 
BRANCH  12  13
ATOM     13  C   UNL     1     189.889 197.421 197.735  1.00  0.00     0.006 C 
BRANCH  13  14
ATOM     14  C   UNL     1     190.879 198.572 197.483  1.00  0.00     0.053 C 
BRANCH  14  15
ATOM     15  C   UNL     1     190.316 199.907 197.864  1.00  0.00     0.041 C 
ATOM     16  O   UNL     1     189.100 200.017 198.176  1.00  0.00    -0.550 OA
ATOM     17  O   UNL     1     191.140 201.025 197.912  1.00  0.00    -0.550 OA
ENDBRANCH  14  15
ENDBRANCH  13  14
ENDBRANCH  12  13
ENDBRANCH  11  12
ENDBRANCH  10  11
ENDBRANCH   9  10
ENDBRANCH   8   9
ENDBRANCH   7   8
ENDBRANCH   6   7
ENDBRANCH   5   6
ENDBRANCH   4   5
ENDBRANCH   3   4
ENDBRANCH   2   3
ENDBRANCH   1   2
BRANCH   1  18
ATOM     18  C   UNL     1     188.102 193.395 194.242  1.00  0.00     0.000 C 
BRANCH  18  19
ATOM     19  C   UNL     1     189.607 193.668 194.074  1.00  0.00     0.000 C 
BRANCH  19  20
ATOM     20  C   UNL     1     189.901 194.948 193.274  1.00  0.00     0.000 C 
BRANCH  20  21
ATOM     21  C   UNL     1     191.322 195.035 192.686  1.00  0.00     0.000 C 
BRANCH  21  22
ATOM     22  C   UNL     1     191.457 194.286 191.347  1.00  0.00     0.000 C 
BRANCH  22  23
ATOM     23  C   UNL     1     192.001 192.854 191.511  1.00  0.00     0.000 C 
BRANCH  23  24
ATOM     24  C   UNL     1     191.246 191.768 190.717  1.00  0.00    -0.000 C 
BRANCH  24  25
ATOM     25  C   UNL     1     189.801 192.125 190.316  1.00  0.00    -0.000 C 
BRANCH  25  26
ATOM     26  C   UNL     1     188.705 191.434 191.147  1.00  0.00    -0.000 C 
BRANCH  26  27
ATOM     27  C   UNL     1     187.335 191.438 190.447  1.00  0.00    -0.000 C 
BRANCH  27  28
ATOM     28  C   UNL     1     186.702 190.036 190.402  1.00  0.00    -0.000 C 
BRANCH  28  29
ATOM     29  C   UNL     1     185.510 189.863 191.373  1.00  0.00    -0.000 C 
BRANCH  29  30
ATOM     30  C   UNL     1     185.929 189.487 192.806  1.00  0.00    -0.000 C 
BRANCH  30  31
ATOM     31  C   UNL     1     186.512 188.071 192.945  1.00  0.00    -0.003 C 
ATOM     32  C   UNL     1     187.845 188.049 193.696  1.00  0.00     0.004 C 
ENDBRANCH  30  31
ENDBRANCH  29  30
ENDBRANCH  28  29
ENDBRANCH  27  28
ENDBRANCH  26  27
ENDBRANCH  25  26
ENDBRANCH  24  25
ENDBRANCH  23  24
ENDBRANCH  22  23
ENDBRANCH  21  22
ENDBRANCH  20  21
ENDBRANCH  19  20
ENDBRANCH  18  19
ENDBRANCH   1  18
TORSDOF 28
ENDMDL
