MODEL 1
REMARK VINA RESULT:    -4.709      0.000      0.000
REMARK INTER + INTRA:          -8.761
REMARK INTER:                  -7.462
REMARK INTRA:                  -1.299
REMARK UNBOUND:                -1.299
REMARK SMILES CCCCCCCCCCCC(=O)[O-]
REMARK SMILES IDX 7 1 8 2 9 3 10 4 11 5 12 6 13 7 14 8 6 9 5 10 4 11 3 12 2 13
REMARK SMILES IDX 1 14
REMARK H PARENT
REMARK Flexibility Score: inf
ROOT
ATOM      1  C   UNL     1      17.873   0.712  -7.146  1.00  0.00     0.000 C 
ENDROOT
BRANCH   1   2
ATOM      2  C   UNL     1      16.663  -0.082  -6.610  1.00  0.00     0.000 C 
BRANCH   2   3
ATOM      3  C   UNL     1      15.961   0.594  -5.420  1.00  0.00     0.000 C 
BRANCH   3   4
ATOM      4  C   UNL     1      15.503  -0.405  -4.349  1.00  0.00     0.006 C 
BRANCH   4   5
ATOM      5  C   UNL     1      16.644  -1.346  -3.952  1.00  0.00     0.053 C 
BRANCH   5   6
ATOM      6  C   UNL     1      16.974  -1.186  -2.502  1.00  0.00     0.041 C 
ATOM      7  O   UNL     1      16.073  -0.873  -1.678  1.00  0.00    -0.550 OA
ATOM      8  O   UNL     1      18.264  -1.431  -2.051  1.00  0.00    -0.550 OA
ENDBRANCH   5   6
ENDBRANCH   4   5
ENDBRANCH   3   4
ENDBRANCH   2   3
ENDBRANCH   1   2
BRANCH   1   9
ATOM      9  C   UNL     1      18.845   1.115  -6.023  1.00  0.00     0.000 C 
BRANCH   9  10
ATOM     10  C   UNL     1      20.318   1.047  -6.460  1.00  0.00    -0.000 C 
BRANCH  10  11
ATOM     11  C   UNL     1      21.065  -0.144  -5.842  1.00  0.00    -0.000 C 
BRANCH  11  12
ATOM     12  C   UNL     1      20.244  -0.777  -4.709  1.00  0.00    -0.000 C 
BRANCH  12  13
ATOM     13  C   UNL     1      19.993  -2.277  -4.928  1.00  0.00    -0.003 C 
ATOM     14  C   UNL     1      19.270  -2.570  -6.241  1.00  0.00     0.004 C 
ENDBRANCH  12  13
ENDBRANCH  11  12
ENDBRANCH  10  11
ENDBRANCH   9  10
ENDBRANCH   1   9
TORSDOF 10
ENDMDL
MODEL 2
REMARK VINA RESULT:    -4.525      2.858      5.366
REMARK INTER + INTRA:          -8.469
REMARK INTER:                  -6.930
REMARK INTRA:                  -1.539
REMARK UNBOUND:                -1.299
REMARK SMILES CCCCCCCCCCCC(=O)[O-]
REMARK SMILES IDX 7 1 8 2 9 3 10 4 11 5 12 6 13 7 14 8 6 9 5 10 4 11 3 12 2 13
REMARK SMILES IDX 1 14
REMARK H PARENT
REMARK Flexibility Score: inf
ROOT
ATOM      1  C   UNL     1      18.624  -2.510  -3.865  1.00  0.00     0.000 C 
ENDROOT
BRANCH   1   2
ATOM      2  C   UNL     1      19.776  -1.950  -4.725  1.00  0.00     0.000 C 
BRANCH   2   3
ATOM      3  C   UNL     1      20.293  -0.582  -4.247  1.00  0.00     0.000 C 
BRANCH   3   4
ATOM      4  C   UNL     1      20.327   0.469  -5.366  1.00  0.00     0.006 C 
BRANCH   4   5
ATOM      5  C   UNL     1      21.404   0.133  -6.402  1.00  0.00     0.053 C 
BRANCH   5   6
ATOM      6  C   UNL     1      20.862   0.287  -7.788  1.00  0.00     0.041 C 
ATOM      7  O   UNL     1      21.403  -0.321  -8.750  1.00  0.00    -0.550 OA
ATOM      8  O   UNL     1      19.731   1.059  -8.012  1.00  0.00    -0.550 OA
ENDBRANCH   5   6
ENDBRANCH   4   5
ENDBRANCH   3   4
ENDBRANCH   2   3
ENDBRANCH   1   2
BRANCH   1   9
ATOM      9  C   UNL     1      18.248  -1.561  -2.713  1.00  0.00     0.000 C 
BRANCH   9  10
ATOM     10  C   UNL     1      16.778  -1.115  -2.768  1.00  0.00    -0.000 C 
BRANCH  10  11
ATOM     11  C   UNL     1      16.257  -0.965  -4.205  1.00  0.00    -0.000 C 
BRANCH  11  12
ATOM     12  C   UNL     1      16.553   0.439  -4.750  1.00  0.00    -0.000 C 
BRANCH  12  13
ATOM     13  C   UNL     1      16.699   0.461  -6.280  1.00  0.00    -0.003 C 
ATOM     14  C   UNL     1      16.978  -0.921  -6.867  1.00  0.00     0.004 C 
ENDBRANCH  12  13
ENDBRANCH  11  12
ENDBRANCH  10  11
ENDBRANCH   9  10
ENDBRANCH   1   9
TORSDOF 10
ENDMDL
MODEL 3
REMARK VINA RESULT:    -4.473      1.311      2.117
REMARK INTER + INTRA:          -8.387
REMARK INTER:                  -7.044
REMARK INTRA:                  -1.342
REMARK UNBOUND:                -1.299
REMARK SMILES CCCCCCCCCCCC(=O)[O-]
REMARK SMILES IDX 7 1 8 2 9 3 10 4 11 5 12 6 13 7 14 8 6 9 5 10 4 11 3 12 2 13
REMARK SMILES IDX 1 14
REMARK H PARENT
REMARK Flexibility Score: inf
ROOT
ATOM      1  C   UNL     1      19.585  -0.019  -7.371  1.00  0.00     0.000 C 
ENDROOT
BRANCH   1   2
ATOM      2  C   UNL     1      18.567   1.118  -7.597  1.00  0.00     0.000 C 
BRANCH   2   3
ATOM      3  C   UNL     1      17.101   0.651  -7.555  1.00  0.00     0.000 C 
BRANCH   3   4
ATOM      4  C   UNL     1      16.815  -0.316  -6.398  1.00  0.00     0.006 C 
BRANCH   4   5
ATOM      5  C   UNL     1      16.462   0.447  -5.119  1.00  0.00     0.053 C 
BRANCH   5   6
ATOM      6  C   UNL     1      15.722  -0.438  -4.167  1.00  0.00     0.041 C 
ATOM      7  O   UNL     1      14.533  -0.778  -4.412  1.00  0.00    -0.550 OA
ATOM      8  O   UNL     1      16.359  -0.931  -3.036  1.00  0.00    -0.550 OA
ENDBRANCH   5   6
ENDBRANCH   4   5
ENDBRANCH   3   4
ENDBRANCH   2   3
ENDBRANCH   1   2
BRANCH   1   9
ATOM      9  C   UNL     1      20.950   0.511  -6.899  1.00  0.00     0.000 C 
BRANCH   9  10
ATOM     10  C   UNL     1      21.308   0.049  -5.478  1.00  0.00    -0.000 C 
BRANCH  10  11
ATOM     11  C   UNL     1      20.270   0.486  -4.433  1.00  0.00    -0.000 C 
BRANCH  11  12
ATOM     12  C   UNL     1      19.679  -0.732  -3.708  1.00  0.00    -0.000 C 
BRANCH  12  13
ATOM     13  C   UNL     1      20.003  -2.057  -4.416  1.00  0.00    -0.003 C 
ATOM     14  C   UNL     1      18.858  -3.065  -4.338  1.00  0.00     0.004 C 
ENDBRANCH  12  13
ENDBRANCH  11  12
ENDBRANCH  10  11
ENDBRANCH   9  10
ENDBRANCH   1   9
TORSDOF 10
ENDMDL
MODEL 4
REMARK VINA RESULT:    -4.399      1.669      3.177
REMARK INTER + INTRA:          -8.269
REMARK INTER:                  -7.545
REMARK INTRA:                  -0.724
REMARK UNBOUND:                -1.299
REMARK SMILES CCCCCCCCCCCC(=O)[O-]
REMARK SMILES IDX 7 1 8 2 9 3 10 4 11 5 12 6 13 7 14 8 6 9 5 10 4 11 3 12 2 13
REMARK SMILES IDX 1 14
REMARK H PARENT
REMARK Flexibility Score: inf
ROOT
ATOM      1  C   UNL     1      19.240  -2.619  -6.133  1.00  0.00     0.000 C 
ENDROOT
BRANCH   1   2
ATOM      2  C   UNL     1      19.753  -2.475  -4.684  1.00  0.00     0.000 C 
BRANCH   2   3
ATOM      3  C   UNL     1      18.694  -2.810  -3.620  1.00  0.00     0.000 C 
BRANCH   3   4
ATOM      4  C   UNL     1      18.254  -1.584  -2.808  1.00  0.00     0.006 C 
BRANCH   4   5
ATOM      5  C   UNL     1      16.727  -1.497  -2.728  1.00  0.00     0.053 C 
BRANCH   5   6
ATOM      6  C   UNL     1      16.194  -0.625  -3.820  1.00  0.00     0.041 C 
ATOM      7  O   UNL     1      14.987  -0.715  -4.171  1.00  0.00    -0.550 OA
ATOM      8  O   UNL     1      17.015   0.323  -4.417  1.00  0.00    -0.550 OA
ENDBRANCH   5   6
ENDBRANCH   4   5
ENDBRANCH   3   4
ENDBRANCH   2   3
ENDBRANCH   1   2
BRANCH   1   9
ATOM      9  C   UNL     1      18.242  -1.508  -6.506  1.00  0.00     0.000 C 
BRANCH   9  10
ATOM     10  C   UNL     1      18.923  -0.291  -7.154  1.00  0.00    -0.000 C 
BRANCH  10  11
ATOM     11  C   UNL     1      20.447  -0.452  -7.261  1.00  0.00    -0.000 C 
BRANCH  11  12
ATOM     12  C   UNL     1      21.166   0.812  -6.768  1.00  0.00    -0.000 C 
BRANCH  12  13
ATOM     13  C   UNL     1      21.903   0.593  -5.438  1.00  0.00    -0.003 C 
ATOM     14  C   UNL     1      21.018   0.857  -4.221  1.00  0.00     0.004 C 
ENDBRANCH  12  13
ENDBRANCH  11  12
ENDBRANCH  10  11
ENDBRANCH   9  10
ENDBRANCH   1   9
TORSDOF 10
ENDMDL
MODEL 5
REMARK VINA RESULT:    -4.212      1.426      3.088
REMARK INTER + INTRA:          -7.973
REMARK INTER:                  -7.006
REMARK INTRA:                  -0.967
REMARK UNBOUND:                -1.299
REMARK SMILES CCCCCCCCCCCC(=O)[O-]
REMARK SMILES IDX 7 1 8 2 9 3 10 4 11 5 12 6 13 7 14 8 6 9 5 10 4 11 3 12 2 13
REMARK SMILES IDX 1 14
REMARK H PARENT
REMARK Flexibility Score: inf
ROOT
ATOM      1  C   UNL     1      19.094  -2.332  -4.899  1.00  0.00     0.000 C 
ENDROOT
BRANCH   1   2
ATOM      2  C   UNL     1      18.823  -2.207  -6.413  1.00  0.00     0.000 C 
BRANCH   2   3
ATOM      3  C   UNL     1      18.215  -0.854  -6.820  1.00  0.00     0.000 C 
BRANCH   3   4
ATOM      4  C   UNL     1      16.731  -0.730  -6.451  1.00  0.00     0.006 C 
BRANCH   4   5
ATOM      5  C   UNL     1      16.542   0.181  -5.235  1.00  0.00     0.053 C 
BRANCH   5   6
ATOM      6  C   UNL     1      15.738  -0.512  -4.181  1.00  0.00     0.041 C 
ATOM      7  O   UNL     1      16.286  -0.887  -3.110  1.00  0.00    -0.550 OA
ATOM      8  O   UNL     1      14.374  -0.701  -4.357  1.00  0.00    -0.550 OA
ENDBRANCH   5   6
ENDBRANCH   4   5
ENDBRANCH   3   4
ENDBRANCH   2   3
ENDBRANCH   1   2
BRANCH   1   9
ATOM      9  C   UNL     1      20.365  -1.574  -4.473  1.00  0.00     0.000 C 
BRANCH   9  10
ATOM     10  C   UNL     1      20.108  -0.080  -4.218  1.00  0.00    -0.000 C 
BRANCH  10  11
ATOM     11  C   UNL     1      21.390   0.762  -4.286  1.00  0.00    -0.000 C 
BRANCH  11  12
ATOM     12  C   UNL     1      22.021   0.686  -5.684  1.00  0.00    -0.000 C 
BRANCH  12  13
ATOM     13  C   UNL     1      21.053   1.123  -6.794  1.00  0.00    -0.003 C 
ATOM     14  C   UNL     1      21.375   0.487  -8.145  1.00  0.00     0.004 C 
ENDBRANCH  12  13
ENDBRANCH  11  12
ENDBRANCH  10  11
ENDBRANCH   9  10
ENDBRANCH   1   9
TORSDOF 10
ENDMDL
MODEL 6
REMARK VINA RESULT:    -4.133      9.684     11.789
REMARK INTER + INTRA:          -7.847
REMARK INTER:                  -6.663
REMARK INTRA:                  -1.184
REMARK UNBOUND:                -1.299
REMARK SMILES CCCCCCCCCCCC(=O)[O-]
REMARK SMILES IDX 7 1 8 2 9 3 10 4 11 5 12 6 13 7 14 8 6 9 5 10 4 11 3 12 2 13
REMARK SMILES IDX 1 14
REMARK H PARENT
REMARK Flexibility Score: inf
ROOT
ATOM      1  C   UNL     1      29.630  -5.094  -4.349  1.00  0.00     0.000 C 
ENDROOT
BRANCH   1   2
ATOM      2  C   UNL     1      28.829  -4.088  -3.495  1.00  0.00     0.000 C 
BRANCH   2   3
ATOM      3  C   UNL     1      27.310  -4.152  -3.730  1.00  0.00     0.000 C 
BRANCH   3   4
ATOM      4  C   UNL     1      26.809  -3.074  -4.701  1.00  0.00     0.006 C 
BRANCH   4   5
ATOM      5  C   UNL     1      27.778  -1.889  -4.752  1.00  0.00     0.053 C 
BRANCH   5   6
ATOM      6  C   UNL     1      28.261  -1.667  -6.151  1.00  0.00     0.041 C 
ATOM      7  O   UNL     1      27.718  -0.792  -6.877  1.00  0.00    -0.550 OA
ATOM      8  O   UNL     1      29.342  -2.390  -6.636  1.00  0.00    -0.550 OA
ENDBRANCH   5   6
ENDBRANCH   4   5
ENDBRANCH   3   4
ENDBRANCH   2   3
ENDBRANCH   1   2
BRANCH   1   9
ATOM      9  C   UNL     1      29.794  -6.451  -3.643  1.00  0.00     0.000 C 
BRANCH   9  10
ATOM     10  C   UNL     1      28.753  -7.487  -4.099  1.00  0.00    -0.000 C 
BRANCH  10  11
ATOM     11  C   UNL     1      29.211  -8.285  -5.329  1.00  0.00    -0.000 C 
BRANCH  11  12
ATOM     12  C   UNL     1      28.275  -8.038  -6.521  1.00  0.00    -0.000 C 
BRANCH  12  13
ATOM     13  C   UNL     1      26.986  -7.304  -6.118  1.00  0.00    -0.003 C 
ATOM     14  C   UNL     1      26.773  -6.010  -6.901  1.00  0.00     0.004 C 
ENDBRANCH  12  13
ENDBRANCH  11  12
ENDBRANCH  10  11
ENDBRANCH   9  10
ENDBRANCH   1   9
TORSDOF 10
ENDMDL
MODEL 7
REMARK VINA RESULT:    -4.079     10.157     11.614
REMARK INTER + INTRA:          -7.763
REMARK INTER:                  -6.463
REMARK INTRA:                  -1.299
REMARK UNBOUND:                -1.299
REMARK SMILES CCCCCCCCCCCC(=O)[O-]
REMARK SMILES IDX 7 1 8 2 9 3 10 4 11 5 12 6 13 7 14 8 6 9 5 10 4 11 3 12 2 13
REMARK SMILES IDX 1 14
REMARK H PARENT
REMARK Flexibility Score: inf
ROOT
ATOM      1  C   UNL     1      26.919  -3.328  -4.874  1.00  0.00     0.000 C 
ENDROOT
BRANCH   1   2
ATOM      2  C   UNL     1      26.516  -4.781  -5.202  1.00  0.00     0.000 C 
BRANCH   2   3
ATOM      3  C   UNL     1      26.529  -5.715  -3.979  1.00  0.00     0.000 C 
BRANCH   3   4
ATOM      4  C   UNL     1      27.535  -6.866  -4.117  1.00  0.00     0.006 C 
BRANCH   4   5
ATOM      5  C   UNL     1      28.474  -6.634  -5.304  1.00  0.00     0.053 C 
BRANCH   5   6
ATOM      6  C   UNL     1      28.498  -7.836  -6.195  1.00  0.00     0.041 C 
ATOM      7  O   UNL     1      27.860  -7.831  -7.282  1.00  0.00    -0.550 OA
ATOM      8  O   UNL     1      29.264  -8.942  -5.852  1.00  0.00    -0.550 OA
ENDBRANCH   5   6
ENDBRANCH   4   5
ENDBRANCH   3   4
ENDBRANCH   2   3
ENDBRANCH   1   2
BRANCH   1   9
ATOM      9  C   UNL     1      28.356  -3.010  -5.325  1.00  0.00     0.000 C 
BRANCH   9  10
ATOM     10  C   UNL     1      29.247  -2.527  -4.169  1.00  0.00    -0.000 C 
BRANCH  10  11
ATOM     11  C   UNL     1      29.369  -3.562  -3.041  1.00  0.00    -0.000 C 
BRANCH  11  12
ATOM     12  C   UNL     1      29.390  -2.874  -1.668  1.00  0.00    -0.000 C 
BRANCH  12  13
ATOM     13  C   UNL     1      28.113  -2.064  -1.393  1.00  0.00    -0.003 C 
ATOM     14  C   UNL     1      26.871  -2.944  -1.264  1.00  0.00     0.004 C 
ENDBRANCH  12  13
ENDBRANCH  11  12
ENDBRANCH  10  11
ENDBRANCH   9  10
ENDBRANCH   1   9
TORSDOF 10
ENDMDL
MODEL 8
REMARK VINA RESULT:    -4.078      9.750     12.193
REMARK INTER + INTRA:          -7.760
REMARK INTER:                  -6.606
REMARK INTRA:                  -1.154
REMARK UNBOUND:                -1.299
REMARK SMILES CCCCCCCCCCCC(=O)[O-]
REMARK SMILES IDX 7 1 8 2 9 3 10 4 11 5 12 6 13 7 14 8 6 9 5 10 4 11 3 12 2 13
REMARK SMILES IDX 1 14
REMARK H PARENT
REMARK Flexibility Score: inf
ROOT
ATOM      1  C   UNL     1      30.081  -4.535  -4.596  1.00  0.00     0.000 C 
ENDROOT
BRANCH   1   2
ATOM      2  C   UNL     1      29.266  -5.635  -3.883  1.00  0.00     0.000 C 
BRANCH   2   3
ATOM      3  C   UNL     1      29.928  -7.023  -3.935  1.00  0.00     0.000 C 
BRANCH   3   4
ATOM      4  C   UNL     1      29.410  -7.889  -5.091  1.00  0.00     0.006 C 
BRANCH   4   5
ATOM      5  C   UNL     1      27.968  -7.520  -5.451  1.00  0.00     0.053 C 
BRANCH   5   6
ATOM      6  C   UNL     1      27.803  -7.439  -6.935  1.00  0.00     0.041 C 
ATOM      7  O   UNL     1      28.458  -8.208  -7.689  1.00  0.00    -0.550 OA
ATOM      8  O   UNL     1      26.890  -6.550  -7.486  1.00  0.00    -0.550 OA
ENDBRANCH   5   6
ENDBRANCH   4   5
ENDBRANCH   3   4
ENDBRANCH   2   3
ENDBRANCH   1   2
BRANCH   1   9
ATOM      9  C   UNL     1      29.188  -3.389  -5.103  1.00  0.00     0.000 C 
BRANCH   9  10
ATOM     10  C   UNL     1      27.746  -3.841  -5.388  1.00  0.00    -0.000 C 
BRANCH  10  11
ATOM     11  C   UNL     1      26.707  -3.059  -4.571  1.00  0.00    -0.000 C 
BRANCH  11  12
ATOM     12  C   UNL     1      27.386  -2.248  -3.457  1.00  0.00    -0.000 C 
BRANCH  12  13
ATOM     13  C   UNL     1      27.307  -2.943  -2.088  1.00  0.00    -0.003 C 
ATOM     14  C   UNL     1      28.512  -2.639  -1.200  1.00  0.00     0.004 C 
ENDBRANCH  12  13
ENDBRANCH  11  12
ENDBRANCH  10  11
ENDBRANCH   9  10
ENDBRANCH   1   9
TORSDOF 10
ENDMDL
