MODEL 1
REMARK VINA RESULT:    -8.402      0.000      0.000
REMARK INTER + INTRA:         -10.320
REMARK INTER:                 -10.121
REMARK INTRA:                  -0.199
REMARK UNBOUND:                -0.199
REMARK SMILES O=c1c(O)c(-c2ccc(O)c(O)c2)oc2cc(O)cc(O)c12
REMARK SMILES IDX 5 1 3 2 2 3 1 4 22 5 20 6 19 7 17 8 16 9 15 10 14 11 6 12
REMARK SMILES IDX 7 13 8 14 9 15 13 16 11 17 10 18 12 20 4 22 21 24 18 26
REMARK H PARENT 10 19 12 21 4 23 21 25 18 27
REMARK Flexibility Score: inf
ROOT
ATOM      1  C   UNL     1      -5.740   5.245 -12.072  1.00  0.00     0.180 A 
ATOM      2  C   UNL     1      -4.717   6.096 -11.618  1.00  0.00     0.208 A 
ATOM      3  C   UNL     1      -3.750   5.587 -10.737  1.00  0.00     0.238 A 
ATOM      4  O   UNL     1      -2.796   6.333 -10.393  1.00  0.00    -0.285 OA
ATOM      5  C   UNL     1      -3.848   4.252 -10.277  1.00  0.00     0.111 A 
ATOM      6  C   UNL     1      -2.948   3.645  -9.347  1.00  0.00     0.134 A 
ATOM      7  C   UNL     1      -3.082   2.284  -9.046  1.00  0.00     0.093 A 
ATOM      8  C   UNL     1      -4.117   1.524  -9.588  1.00  0.00     0.123 A 
ATOM      9  C   UNL     1      -5.035   2.120 -10.454  1.00  0.00     0.094 A 
ATOM     10  C   UNL     1      -4.905   3.466 -10.804  1.00  0.00     0.146 A 
ATOM     11  O   UNL     1      -5.787   3.988 -11.649  1.00  0.00    -0.452 OA
ENDROOT
BRANCH   1  12
ATOM     12  C   UNL     1      -6.787   5.704 -13.013  1.00  0.00     0.025 A 
ATOM     13  C   UNL     1      -6.785   5.229 -14.333  1.00  0.00     0.016 A 
ATOM     14  C   UNL     1      -7.751   5.663 -15.243  1.00  0.00     0.051 A 
ATOM     15  C   UNL     1      -8.723   6.589 -14.854  1.00  0.00     0.157 A 
ATOM     16  C   UNL     1      -7.752   6.652 -12.629  1.00  0.00     0.062 A 
ATOM     17  C   UNL     1      -8.722   7.091 -13.543  1.00  0.00     0.158 A 
BRANCH  15  18
ATOM     18  O   UNL     1      -9.676   7.004 -15.785  1.00  0.00    -0.504 OA
ATOM     19  H   UNL     1     -10.254   6.344 -16.292  1.00  0.00     0.293 HD
ENDBRANCH  15  18
BRANCH  17  20
ATOM     20  O   UNL     1      -9.680   8.026 -13.152  1.00  0.00    -0.504 OA
ATOM     21  H   UNL     1      -9.903   8.182 -12.176  1.00  0.00     0.293 HD
ENDBRANCH  17  20
ENDBRANCH   1  12
BRANCH   2  22
ATOM     22  O   UNL     1      -4.682   7.433 -12.024  1.00  0.00    -0.502 OA
ATOM     23  H   UNL     1      -3.822   7.899 -12.286  1.00  0.00     0.293 HD
ENDBRANCH   2  22
BRANCH   6  24
ATOM     24  O   UNL     1      -1.932   4.333  -8.678  1.00  0.00    -0.507 OA
ATOM     25  H   UNL     1      -0.967   4.363  -8.967  1.00  0.00     0.293 HD
ENDBRANCH   6  24
BRANCH   8  26
ATOM     26  O   UNL     1      -4.230   0.176  -9.252  1.00  0.00    -0.508 OA
ATOM     27  H   UNL     1      -4.712  -0.123  -8.412  1.00  0.00     0.293 HD
ENDBRANCH   8  26
TORSDOF 6
ENDMDL
MODEL 2
REMARK VINA RESULT:    -8.298      3.730      7.437
REMARK INTER + INTRA:         -10.194
REMARK INTER:                 -10.385
REMARK INTRA:                   0.191
REMARK UNBOUND:                -0.199
REMARK SMILES O=c1c(O)c(-c2ccc(O)c(O)c2)oc2cc(O)cc(O)c12
REMARK SMILES IDX 5 1 3 2 2 3 1 4 22 5 20 6 19 7 17 8 16 9 15 10 14 11 6 12
REMARK SMILES IDX 7 13 8 14 9 15 13 16 11 17 10 18 12 20 4 22 21 24 18 26
REMARK H PARENT 10 19 12 21 4 23 21 25 18 27
REMARK Flexibility Score: inf
ROOT
ATOM      1  C   UNL     1      -5.855   0.141  -9.725  1.00  0.00     0.180 A 
ATOM      2  C   UNL     1      -6.591   1.160 -10.353  1.00  0.00     0.208 A 
ATOM      3  C   UNL     1      -6.027   2.442 -10.456  1.00  0.00     0.238 A 
ATOM      4  O   UNL     1      -6.661   3.331 -11.084  1.00  0.00    -0.285 OA
ATOM      5  C   UNL     1      -4.760   2.703  -9.882  1.00  0.00     0.111 A 
ATOM      6  C   UNL     1      -4.112   3.977  -9.888  1.00  0.00     0.134 A 
ATOM      7  C   UNL     1      -2.810   4.091  -9.383  1.00  0.00     0.093 A 
ATOM      8  C   UNL     1      -2.159   2.998  -8.815  1.00  0.00     0.123 A 
ATOM      9  C   UNL     1      -2.803   1.761  -8.754  1.00  0.00     0.094 A 
ATOM     10  C   UNL     1      -4.086   1.606  -9.285  1.00  0.00     0.146 A 
ATOM     11  O   UNL     1      -4.654   0.408  -9.226  1.00  0.00    -0.452 OA
ENDROOT
BRANCH   1  12
ATOM     12  C   UNL     1      -6.375  -1.238  -9.591  1.00  0.00     0.025 A 
ATOM     13  C   UNL     1      -7.114  -1.804 -10.642  1.00  0.00     0.016 A 
ATOM     14  C   UNL     1      -7.631  -3.096 -10.528  1.00  0.00     0.051 A 
ATOM     15  C   UNL     1      -7.434  -3.837  -9.359  1.00  0.00     0.157 A 
ATOM     16  C   UNL     1      -6.196  -1.977  -8.407  1.00  0.00     0.062 A 
ATOM     17  C   UNL     1      -6.718  -3.274  -8.290  1.00  0.00     0.158 A 
BRANCH  15  18
ATOM     18  O   UNL     1      -7.962  -5.125  -9.276  1.00  0.00    -0.504 OA
ATOM     19  H   UNL     1      -7.827  -5.809 -10.010  1.00  0.00     0.293 HD
ENDBRANCH  15  18
BRANCH  17  20
ATOM     20  O   UNL     1      -6.529  -4.002  -7.116  1.00  0.00    -0.504 OA
ATOM     21  H   UNL     1      -5.998  -3.627  -6.339  1.00  0.00     0.293 HD
ENDBRANCH  17  20
ENDBRANCH   1  12
BRANCH   2  22
ATOM     22  O   UNL     1      -7.874   0.902 -10.845  1.00  0.00    -0.502 OA
ATOM     23  H   UNL     1      -8.149  -0.007 -11.194  1.00  0.00     0.293 HD
ENDBRANCH   2  22
BRANCH   6  24
ATOM     24  O   UNL     1      -4.705   5.155 -10.350  1.00  0.00    -0.507 OA
ATOM     25  H   UNL     1      -4.283   5.799 -11.000  1.00  0.00     0.293 HD
ENDBRANCH   6  24
BRANCH   8  26
ATOM     26  O   UNL     1      -0.871   3.153  -8.307  1.00  0.00    -0.508 OA
ATOM     27  H   UNL     1      -0.507   4.065  -8.054  1.00  0.00     0.293 HD
ENDBRANCH   8  26
TORSDOF 6
ENDMDL
MODEL 3
REMARK VINA RESULT:    -8.049      2.457      4.341
REMARK INTER + INTRA:          -9.895
REMARK INTER:                  -9.874
REMARK INTRA:                  -0.021
REMARK UNBOUND:                -0.199
REMARK SMILES O=c1c(O)c(-c2ccc(O)c(O)c2)oc2cc(O)cc(O)c12
REMARK SMILES IDX 5 1 3 2 2 3 1 4 22 5 20 6 19 7 17 8 16 9 15 10 14 11 6 12
REMARK SMILES IDX 7 13 8 14 9 15 13 16 11 17 10 18 12 20 4 22 21 24 18 26
REMARK H PARENT 10 19 12 21 4 23 21 25 18 27
REMARK Flexibility Score: inf
ROOT
ATOM      1  C   UNL     1      -5.206   2.940 -10.979  1.00  0.00     0.180 A 
ATOM      2  C   UNL     1      -4.180   2.580 -10.089  1.00  0.00     0.208 A 
ATOM      3  C   UNL     1      -4.327   1.416  -9.316  1.00  0.00     0.238 A 
ATOM      4  O   UNL     1      -3.374   1.060  -8.575  1.00  0.00    -0.285 OA
ATOM      5  C   UNL     1      -5.519   0.658  -9.403  1.00  0.00     0.111 A 
ATOM      6  C   UNL     1      -5.795  -0.514  -8.634  1.00  0.00     0.134 A 
ATOM      7  C   UNL     1      -6.965  -1.243  -8.882  1.00  0.00     0.093 A 
ATOM      8  C   UNL     1      -7.899  -0.810  -9.822  1.00  0.00     0.123 A 
ATOM      9  C   UNL     1      -7.666   0.364 -10.540  1.00  0.00     0.094 A 
ATOM     10  C   UNL     1      -6.490   1.092 -10.343  1.00  0.00     0.146 A 
ATOM     11  O   UNL     1      -6.298   2.191 -11.063  1.00  0.00    -0.452 OA
ENDROOT
BRANCH   1  12
ATOM     12  C   UNL     1      -5.118   4.143 -11.837  1.00  0.00     0.025 A 
ATOM     13  C   UNL     1      -4.882   5.395 -11.249  1.00  0.00     0.016 A 
ATOM     14  C   UNL     1      -4.815   6.547 -12.037  1.00  0.00     0.051 A 
ATOM     15  C   UNL     1      -5.000   6.468 -13.420  1.00  0.00     0.157 A 
ATOM     16  C   UNL     1      -5.325   4.069 -13.227  1.00  0.00     0.062 A 
ATOM     17  C   UNL     1      -5.261   5.225 -14.019  1.00  0.00     0.158 A 
BRANCH  15  18
ATOM     18  O   UNL     1      -4.927   7.635 -14.180  1.00  0.00    -0.504 OA
ATOM     19  H   UNL     1      -4.543   8.496 -13.808  1.00  0.00     0.293 HD
ENDBRANCH  15  18
BRANCH  17  20
ATOM     20  O   UNL     1      -5.461   5.142 -15.396  1.00  0.00    -0.504 OA
ATOM     21  H   UNL     1      -5.306   4.279 -15.904  1.00  0.00     0.293 HD
ENDBRANCH  17  20
ENDBRANCH   1  12
BRANCH   2  22
ATOM     22  O   UNL     1      -3.044   3.383  -9.961  1.00  0.00    -0.502 OA
ATOM     23  H   UNL     1      -3.092   4.395  -9.950  1.00  0.00     0.293 HD
ENDBRANCH   2  22
BRANCH   6  24
ATOM     24  O   UNL     1      -4.974  -0.987  -7.606  1.00  0.00    -0.507 OA
ATOM     25  H   UNL     1      -4.193  -0.486  -7.214  1.00  0.00     0.293 HD
ENDBRANCH   6  24
BRANCH   8  26
ATOM     26  O   UNL     1      -9.060  -1.552 -10.030  1.00  0.00    -0.508 OA
ATOM     27  H   UNL     1      -9.430  -2.168  -9.315  1.00  0.00     0.293 HD
ENDBRANCH   8  26
TORSDOF 6
ENDMDL
MODEL 4
REMARK VINA RESULT:    -7.985      2.284      3.519
REMARK INTER + INTRA:          -9.818
REMARK INTER:                  -9.497
REMARK INTRA:                  -0.321
REMARK UNBOUND:                -0.199
REMARK SMILES O=c1c(O)c(-c2ccc(O)c(O)c2)oc2cc(O)cc(O)c12
REMARK SMILES IDX 5 1 3 2 2 3 1 4 22 5 20 6 19 7 17 8 16 9 15 10 14 11 6 12
REMARK SMILES IDX 7 13 8 14 9 15 13 16 11 17 10 18 12 20 4 22 21 24 18 26
REMARK H PARENT 10 19 12 21 4 23 21 25 18 27
REMARK Flexibility Score: inf
ROOT
ATOM      1  C   UNL     1      -5.153   5.531 -11.694  1.00  0.00     0.180 A 
ATOM      2  C   UNL     1      -6.110   4.502 -11.717  1.00  0.00     0.208 A 
ATOM      3  C   UNL     1      -5.853   3.317 -11.009  1.00  0.00     0.238 A 
ATOM      4  O   UNL     1      -6.746   2.430 -10.973  1.00  0.00    -0.285 OA
ATOM      5  C   UNL     1      -4.619   3.152 -10.335  1.00  0.00     0.111 A 
ATOM      6  C   UNL     1      -4.233   1.975  -9.623  1.00  0.00     0.134 A 
ATOM      7  C   UNL     1      -3.031   1.967  -8.904  1.00  0.00     0.093 A 
ATOM      8  C   UNL     1      -2.172   3.065  -8.922  1.00  0.00     0.123 A 
ATOM      9  C   UNL     1      -2.513   4.200  -9.660  1.00  0.00     0.094 A 
ATOM     10  C   UNL     1      -3.723   4.253 -10.355  1.00  0.00     0.146 A 
ATOM     11  O   UNL     1      -4.019   5.361 -11.025  1.00  0.00    -0.452 OA
ENDROOT
BRANCH   1  12
ATOM     12  C   UNL     1      -5.358   6.814 -12.403  1.00  0.00     0.025 A 
ATOM     13  C   UNL     1      -5.963   7.886 -11.729  1.00  0.00     0.016 A 
ATOM     14  C   UNL     1      -6.184   9.100 -12.385  1.00  0.00     0.051 A 
ATOM     15  C   UNL     1      -5.822   9.256 -13.726  1.00  0.00     0.157 A 
ATOM     16  C   UNL     1      -5.014   6.966 -13.759  1.00  0.00     0.062 A 
ATOM     17  C   UNL     1      -5.238   8.183 -14.419  1.00  0.00     0.158 A 
BRANCH  15  18
ATOM     18  O   UNL     1      -6.055  10.480 -14.353  1.00  0.00    -0.504 OA
ATOM     19  H   UNL     1      -6.647  11.191 -13.940  1.00  0.00     0.293 HD
ENDBRANCH  15  18
BRANCH  17  20
ATOM     20  O   UNL     1      -4.887   8.327 -15.760  1.00  0.00    -0.504 OA
ATOM     21  H   UNL     1      -4.290   7.655 -16.229  1.00  0.00     0.293 HD
ENDBRANCH  17  20
ENDBRANCH   1  12
BRANCH   2  22
ATOM     22  O   UNL     1      -7.289   4.653 -12.452  1.00  0.00    -0.502 OA
ATOM     23  H   UNL     1      -7.317   4.561 -13.460  1.00  0.00     0.293 HD
ENDBRANCH   2  22
BRANCH   6  24
ATOM     24  O   UNL     1      -4.973   0.790  -9.610  1.00  0.00    -0.507 OA
ATOM     25  H   UNL     1      -4.580  -0.136  -9.547  1.00  0.00     0.293 HD
ENDBRANCH   6  24
BRANCH   8  26
ATOM     26  O   UNL     1      -0.976   3.014  -8.209  1.00  0.00    -0.508 OA
ATOM     27  H   UNL     1      -0.082   3.169  -8.661  1.00  0.00     0.293 HD
ENDBRANCH   8  26
TORSDOF 6
ENDMDL
MODEL 5
REMARK VINA RESULT:    -7.942      4.359      7.494
REMARK INTER + INTRA:          -9.766
REMARK INTER:                  -9.586
REMARK INTRA:                  -0.180
REMARK UNBOUND:                -0.199
REMARK SMILES O=c1c(O)c(-c2ccc(O)c(O)c2)oc2cc(O)cc(O)c12
REMARK SMILES IDX 5 1 3 2 2 3 1 4 22 5 20 6 19 7 17 8 16 9 15 10 14 11 6 12
REMARK SMILES IDX 7 13 8 14 9 15 13 16 11 17 10 18 12 20 4 22 21 24 18 26
REMARK H PARENT 10 19 12 21 4 23 21 25 18 27
REMARK Flexibility Score: inf
ROOT
ATOM      1  C   UNL     1      -5.432   0.471  -9.548  1.00  0.00     0.180 A 
ATOM      2  C   UNL     1      -5.853  -0.032 -10.791  1.00  0.00     0.208 A 
ATOM      3  C   UNL     1      -6.634  -1.198 -10.825  1.00  0.00     0.238 A 
ATOM      4  O   UNL     1      -7.069  -1.602 -11.935  1.00  0.00    -0.285 OA
ATOM      5  C   UNL     1      -6.938  -1.878  -9.621  1.00  0.00     0.111 A 
ATOM      6  C   UNL     1      -7.684  -3.094  -9.540  1.00  0.00     0.134 A 
ATOM      7  C   UNL     1      -8.015  -3.618  -8.284  1.00  0.00     0.093 A 
ATOM      8  C   UNL     1      -7.573  -3.011  -7.110  1.00  0.00     0.123 A 
ATOM      9  C   UNL     1      -6.796  -1.853  -7.178  1.00  0.00     0.094 A 
ATOM     10  C   UNL     1      -6.483  -1.284  -8.414  1.00  0.00     0.146 A 
ATOM     11  O   UNL     1      -5.761  -0.170  -8.433  1.00  0.00    -0.452 OA
ENDROOT
BRANCH   1  12
ATOM     12  C   UNL     1      -4.619   1.702  -9.431  1.00  0.00     0.025 A 
ATOM     13  C   UNL     1      -5.176   2.936  -9.800  1.00  0.00     0.016 A 
ATOM     14  C   UNL     1      -4.420   4.108  -9.716  1.00  0.00     0.051 A 
ATOM     15  C   UNL     1      -3.093   4.063  -9.278  1.00  0.00     0.157 A 
ATOM     16  C   UNL     1      -3.276   1.656  -9.012  1.00  0.00     0.062 A 
ATOM     17  C   UNL     1      -2.515   2.832  -8.929  1.00  0.00     0.158 A 
BRANCH  15  18
ATOM     18  O   UNL     1      -2.364   5.250  -9.205  1.00  0.00    -0.504 OA
ATOM     19  H   UNL     1      -2.527   6.021  -9.841  1.00  0.00     0.293 HD
ENDBRANCH  15  18
BRANCH  17  20
ATOM     20  O   UNL     1      -1.188   2.779  -8.506  1.00  0.00    -0.504 OA
ATOM     21  H   UNL     1      -0.423   3.021  -9.124  1.00  0.00     0.293 HD
ENDBRANCH  17  20
ENDBRANCH   1  12
BRANCH   2  22
ATOM     22  O   UNL     1      -5.477   0.610 -11.974  1.00  0.00    -0.502 OA
ATOM     23  H   UNL     1      -4.902   1.443 -11.982  1.00  0.00     0.293 HD
ENDBRANCH   2  22
BRANCH   6  24
ATOM     24  O   UNL     1      -8.100  -3.833 -10.651  1.00  0.00    -0.507 OA
ATOM     25  H   UNL     1      -7.862  -4.796 -10.826  1.00  0.00     0.293 HD
ENDBRANCH   6  24
BRANCH   8  26
ATOM     26  O   UNL     1      -7.907  -3.571  -5.878  1.00  0.00    -0.508 OA
ATOM     27  H   UNL     1      -8.042  -2.996  -5.054  1.00  0.00     0.293 HD
ENDBRANCH   8  26
TORSDOF 6
ENDMDL
MODEL 6
REMARK VINA RESULT:    -7.740      1.999      6.855
REMARK INTER + INTRA:          -9.522
REMARK INTER:                  -9.290
REMARK INTRA:                  -0.232
REMARK UNBOUND:                -0.199
REMARK SMILES O=c1c(O)c(-c2ccc(O)c(O)c2)oc2cc(O)cc(O)c12
REMARK SMILES IDX 5 1 3 2 2 3 1 4 22 5 20 6 19 7 17 8 16 9 15 10 14 11 6 12
REMARK SMILES IDX 7 13 8 14 9 15 13 16 11 17 10 18 12 20 4 22 21 24 18 26
REMARK H PARENT 10 19 12 21 4 23 21 25 18 27
REMARK Flexibility Score: inf
ROOT
ATOM      1  C   UNL     1      -6.391   5.320 -12.411  1.00  0.00     0.180 A 
ATOM      2  C   UNL     1      -5.796   6.531 -12.020  1.00  0.00     0.208 A 
ATOM      3  C   UNL     1      -6.197   7.721 -12.648  1.00  0.00     0.238 A 
ATOM      4  O   UNL     1      -5.714   8.810 -12.242  1.00  0.00    -0.285 OA
ATOM      5  C   UNL     1      -7.148   7.679 -13.697  1.00  0.00     0.111 A 
ATOM      6  C   UNL     1      -7.595   8.818 -14.435  1.00  0.00     0.134 A 
ATOM      7  C   UNL     1      -8.619   8.669 -15.379  1.00  0.00     0.093 A 
ATOM      8  C   UNL     1      -9.165   7.418 -15.660  1.00  0.00     0.123 A 
ATOM      9  C   UNL     1      -8.697   6.290 -14.985  1.00  0.00     0.094 A 
ATOM     10  C   UNL     1      -7.705   6.411 -14.009  1.00  0.00     0.146 A 
ATOM     11  O   UNL     1      -7.304   5.316 -13.375  1.00  0.00    -0.452 OA
ENDROOT
BRANCH   1  12
ATOM     12  C   UNL     1      -6.031   4.027 -11.786  1.00  0.00     0.025 A 
ATOM     13  C   UNL     1      -6.925   3.420 -10.891  1.00  0.00     0.016 A 
ATOM     14  C   UNL     1      -6.597   2.210 -10.274  1.00  0.00     0.051 A 
ATOM     15  C   UNL     1      -5.367   1.597 -10.529  1.00  0.00     0.157 A 
ATOM     16  C   UNL     1      -4.785   3.420 -12.025  1.00  0.00     0.062 A 
ATOM     17  C   UNL     1      -4.453   2.206 -11.404  1.00  0.00     0.158 A 
BRANCH  15  18
ATOM     18  O   UNL     1      -5.069   0.389  -9.899  1.00  0.00    -0.504 OA
ATOM     19  H   UNL     1      -5.744  -0.095  -9.318  1.00  0.00     0.293 HD
ENDBRANCH  15  18
BRANCH  17  20
ATOM     20  O   UNL     1      -3.219   1.607 -11.652  1.00  0.00    -0.504 OA
ATOM     21  H   UNL     1      -2.611   1.931 -12.395  1.00  0.00     0.293 HD
ENDBRANCH  17  20
ENDBRANCH   1  12
BRANCH   2  22
ATOM     22  O   UNL     1      -4.803   6.543 -11.036  1.00  0.00    -0.502 OA
ATOM     23  H   UNL     1      -4.625   5.748 -10.435  1.00  0.00     0.293 HD
ENDBRANCH   2  22
BRANCH   6  24
ATOM     24  O   UNL     1      -7.056  10.100 -14.298  1.00  0.00    -0.507 OA
ATOM     25  H   UNL     1      -6.080  10.303 -14.147  1.00  0.00     0.293 HD
ENDBRANCH   6  24
BRANCH   8  26
ATOM     26  O   UNL     1     -10.170   7.306 -16.618  1.00  0.00    -0.508 OA
ATOM     27  H   UNL     1     -10.886   8.017 -16.721  1.00  0.00     0.293 HD
ENDBRANCH   8  26
TORSDOF 6
ENDMDL
MODEL 7
REMARK VINA RESULT:    -7.719      2.982      6.492
REMARK INTER + INTRA:          -9.497
REMARK INTER:                  -9.178
REMARK INTRA:                  -0.319
REMARK UNBOUND:                -0.199
REMARK SMILES O=c1c(O)c(-c2ccc(O)c(O)c2)oc2cc(O)cc(O)c12
REMARK SMILES IDX 5 1 3 2 2 3 1 4 22 5 20 6 19 7 17 8 16 9 15 10 14 11 6 12
REMARK SMILES IDX 7 13 8 14 9 15 13 16 11 17 10 18 12 20 4 22 21 24 18 26
REMARK H PARENT 10 19 12 21 4 23 21 25 18 27
REMARK Flexibility Score: inf
ROOT
ATOM      1  C   UNL     1      -5.852   1.271 -10.372  1.00  0.00     0.180 A 
ATOM      2  C   UNL     1      -4.643   1.428  -9.673  1.00  0.00     0.208 A 
ATOM      3  C   UNL     1      -3.981   2.665  -9.727  1.00  0.00     0.238 A 
ATOM      4  O   UNL     1      -2.938   2.822  -9.040  1.00  0.00    -0.285 OA
ATOM      5  C   UNL     1      -4.506   3.711 -10.524  1.00  0.00     0.111 A 
ATOM      6  C   UNL     1      -3.895   4.992 -10.689  1.00  0.00     0.134 A 
ATOM      7  C   UNL     1      -4.561   5.986 -11.417  1.00  0.00     0.093 A 
ATOM      8  C   UNL     1      -5.781   5.728 -12.039  1.00  0.00     0.123 A 
ATOM      9  C   UNL     1      -6.361   4.463 -11.931  1.00  0.00     0.094 A 
ATOM     10  C   UNL     1      -5.740   3.463 -11.180  1.00  0.00     0.146 A 
ATOM     11  O   UNL     1      -6.337   2.281 -11.084  1.00  0.00    -0.452 OA
ENDROOT
BRANCH   1  12
ATOM     12  C   UNL     1      -6.615   0.003 -10.351  1.00  0.00     0.025 A 
ATOM     13  C   UNL     1      -6.310  -1.002 -11.282  1.00  0.00     0.016 A 
ATOM     14  C   UNL     1      -7.031  -2.199 -11.294  1.00  0.00     0.051 A 
ATOM     15  C   UNL     1      -8.076  -2.404 -10.389  1.00  0.00     0.157 A 
ATOM     16  C   UNL     1      -7.682  -0.196  -9.456  1.00  0.00     0.062 A 
ATOM     17  C   UNL     1      -8.409  -1.397  -9.469  1.00  0.00     0.158 A 
BRANCH  15  18
ATOM     18  O   UNL     1      -8.777  -3.609 -10.425  1.00  0.00    -0.504 OA
ATOM     19  H   UNL     1      -9.690  -3.713  -9.999  1.00  0.00     0.293 HD
ENDBRANCH  15  18
BRANCH  17  20
ATOM     20  O   UNL     1      -9.460  -1.588  -8.573  1.00  0.00    -0.504 OA
ATOM     21  H   UNL     1      -9.715  -2.511  -8.243  1.00  0.00     0.293 HD
ENDBRANCH  17  20
ENDBRANCH   1  12
BRANCH   2  22
ATOM     22  O   UNL     1      -4.101   0.359  -8.954  1.00  0.00    -0.502 OA
ATOM     23  H   UNL     1      -3.500   0.493  -8.150  1.00  0.00     0.293 HD
ENDBRANCH   2  22
BRANCH   6  24
ATOM     24  O   UNL     1      -2.635   5.329 -10.185  1.00  0.00    -0.507 OA
ATOM     25  H   UNL     1      -1.894   4.673  -9.996  1.00  0.00     0.293 HD
ENDBRANCH   6  24
BRANCH   8  26
ATOM     26  O   UNL     1      -6.407   6.736 -12.770  1.00  0.00    -0.508 OA
ATOM     27  H   UNL     1      -5.875   7.395 -13.327  1.00  0.00     0.293 HD
ENDBRANCH   8  26
TORSDOF 6
ENDMDL
MODEL 8
REMARK VINA RESULT:    -7.592      2.401      7.363
REMARK INTER + INTRA:          -9.345
REMARK INTER:                  -9.034
REMARK INTRA:                  -0.310
REMARK UNBOUND:                -0.199
REMARK SMILES O=c1c(O)c(-c2ccc(O)c(O)c2)oc2cc(O)cc(O)c12
REMARK SMILES IDX 5 1 3 2 2 3 1 4 22 5 20 6 19 7 17 8 16 9 15 10 14 11 6 12
REMARK SMILES IDX 7 13 8 14 9 15 13 16 11 17 10 18 12 20 4 22 21 24 18 26
REMARK H PARENT 10 19 12 21 4 23 21 25 18 27
REMARK Flexibility Score: inf
ROOT
ATOM      1  C   UNL     1      -6.798   6.559 -13.753  1.00  0.00     0.180 A 
ATOM      2  C   UNL     1      -6.133   7.797 -13.792  1.00  0.00     0.208 A 
ATOM      3  C   UNL     1      -6.741   8.876 -14.452  1.00  0.00     0.238 A 
ATOM      4  O   UNL     1      -6.175  10.000 -14.420  1.00  0.00    -0.285 OA
ATOM      5  C   UNL     1      -7.980   8.691 -15.112  1.00  0.00     0.111 A 
ATOM      6  C   UNL     1      -8.667   9.704 -15.850  1.00  0.00     0.134 A 
ATOM      7  C   UNL     1      -9.939   9.435 -16.371  1.00  0.00     0.093 A 
ATOM      8  C   UNL     1     -10.521   8.176 -16.239  1.00  0.00     0.123 A 
ATOM      9  C   UNL     1      -9.835   7.162 -15.567  1.00  0.00     0.094 A 
ATOM     10  C   UNL     1      -8.582   7.411 -15.003  1.00  0.00     0.146 A 
ATOM     11  O   UNL     1      -7.974   6.425 -14.353  1.00  0.00    -0.452 OA
ENDROOT
BRANCH   1  12
ATOM     12  C   UNL     1      -6.227   5.379 -13.065  1.00  0.00     0.025 A 
ATOM     13  C   UNL     1      -5.301   4.568 -13.739  1.00  0.00     0.016 A 
ATOM     14  C   UNL     1      -4.766   3.438 -13.116  1.00  0.00     0.051 A 
ATOM     15  C   UNL     1      -5.158   3.092 -11.820  1.00  0.00     0.157 A 
ATOM     16  C   UNL     1      -6.637   5.017 -11.769  1.00  0.00     0.062 A 
ATOM     17  C   UNL     1      -6.102   3.881 -11.143  1.00  0.00     0.158 A 
BRANCH  15  18
ATOM     18  O   UNL     1      -4.605   1.958 -11.224  1.00  0.00    -0.504 OA
ATOM     19  H   UNL     1      -4.264   1.965 -10.270  1.00  0.00     0.293 HD
ENDBRANCH  15  18
BRANCH  17  20
ATOM     20  O   UNL     1      -6.508   3.534  -9.856  1.00  0.00    -0.504 OA
ATOM     21  H   UNL     1      -7.398   3.082  -9.683  1.00  0.00     0.293 HD
ENDBRANCH  17  20
ENDBRANCH   1  12
BRANCH   2  22
ATOM     22  O   UNL     1      -4.874   7.938 -13.201  1.00  0.00    -0.502 OA
ATOM     23  H   UNL     1      -4.147   8.519 -13.601  1.00  0.00     0.293 HD
ENDBRANCH   2  22
BRANCH   6  24
ATOM     24  O   UNL     1      -8.139  10.970 -16.120  1.00  0.00    -0.507 OA
ATOM     25  H   UNL     1      -8.644  11.725 -16.557  1.00  0.00     0.293 HD
ENDBRANCH   6  24
BRANCH   8  26
ATOM     26  O   UNL     1     -11.781   7.939 -16.785  1.00  0.00    -0.508 OA
ATOM     27  H   UNL     1     -12.422   7.273 -16.370  1.00  0.00     0.293 HD
ENDBRANCH   8  26
TORSDOF 6
ENDMDL
MODEL 9
REMARK VINA RESULT:    -7.422      2.484      7.007
REMARK INTER + INTRA:          -9.139
REMARK INTER:                  -8.927
REMARK INTRA:                  -0.212
REMARK UNBOUND:                -0.199
REMARK SMILES O=c1c(O)c(-c2ccc(O)c(O)c2)oc2cc(O)cc(O)c12
REMARK SMILES IDX 5 1 3 2 2 3 1 4 22 5 20 6 19 7 17 8 16 9 15 10 14 11 6 12
REMARK SMILES IDX 7 13 8 14 9 15 13 16 11 17 10 18 12 20 4 22 21 24 18 26
REMARK H PARENT 10 19 12 21 4 23 21 25 18 27
REMARK Flexibility Score: inf
ROOT
ATOM      1  C   UNL     1      -5.270   5.820 -12.066  1.00  0.00     0.180 A 
ATOM      2  C   UNL     1      -6.636   6.133 -12.155  1.00  0.00     0.208 A 
ATOM      3  C   UNL     1      -7.020   7.347 -12.747  1.00  0.00     0.238 A 
ATOM      4  O   UNL     1      -8.247   7.588 -12.890  1.00  0.00    -0.285 OA
ATOM      5  C   UNL     1      -6.031   8.258 -13.193  1.00  0.00     0.111 A 
ATOM      6  C   UNL     1      -6.304   9.537 -13.768  1.00  0.00     0.134 A 
ATOM      7  C   UNL     1      -5.248  10.307 -14.270  1.00  0.00     0.093 A 
ATOM      8  C   UNL     1      -3.926   9.877 -14.162  1.00  0.00     0.123 A 
ATOM      9  C   UNL     1      -3.643   8.654 -13.552  1.00  0.00     0.094 A 
ATOM     10  C   UNL     1      -4.678   7.845 -13.076  1.00  0.00     0.146 A 
ATOM     11  O   UNL     1      -4.366   6.679 -12.523  1.00  0.00    -0.452 OA
ENDROOT
BRANCH   1  12
ATOM     12  C   UNL     1      -4.788   4.554 -11.469  1.00  0.00     0.025 A 
ATOM     13  C   UNL     1      -4.017   4.593 -10.297  1.00  0.00     0.016 A 
ATOM     14  C   UNL     1      -3.535   3.412  -9.727  1.00  0.00     0.051 A 
ATOM     15  C   UNL     1      -3.802   2.178 -10.326  1.00  0.00     0.157 A 
ATOM     16  C   UNL     1      -5.037   3.313 -12.082  1.00  0.00     0.062 A 
ATOM     17  C   UNL     1      -4.552   2.126 -11.512  1.00  0.00     0.158 A 
BRANCH  15  18
ATOM     18  O   UNL     1      -3.308   1.016  -9.733  1.00  0.00    -0.504 OA
ATOM     19  H   UNL     1      -3.160   0.164 -10.261  1.00  0.00     0.293 HD
ENDBRANCH  15  18
BRANCH  17  20
ATOM     20  O   UNL     1      -4.810   0.900 -12.123  1.00  0.00    -0.504 OA
ATOM     21  H   UNL     1      -5.705   0.698 -12.552  1.00  0.00     0.293 HD
ENDBRANCH  17  20
ENDBRANCH   1  12
BRANCH   2  22
ATOM     22  O   UNL     1      -7.595   5.256 -11.639  1.00  0.00    -0.502 OA
ATOM     23  H   UNL     1      -7.853   5.247 -10.660  1.00  0.00     0.293 HD
ENDBRANCH   2  22
BRANCH   6  24
ATOM     24  O   UNL     1      -7.579  10.104 -13.846  1.00  0.00    -0.507 OA
ATOM     25  H   UNL     1      -7.827  10.892 -14.424  1.00  0.00     0.293 HD
ENDBRANCH   6  24
BRANCH   8  26
ATOM     26  O   UNL     1      -2.900  10.678 -14.658  1.00  0.00    -0.508 OA
ATOM     27  H   UNL     1      -2.079  10.276 -15.097  1.00  0.00     0.293 HD
ENDBRANCH   8  26
TORSDOF 6
ENDMDL
