MODEL 1
REMARK VINA RESULT:    -3.718      0.000      0.000
REMARK INTER + INTRA:          -8.748
REMARK INTER:                  -7.196
REMARK INTRA:                  -1.552
REMARK UNBOUND:                -1.552
REMARK SMILES CCCCCCCCCCCCCCCCCC(=O)[O-]
REMARK SMILES IDX 10 1 11 2 12 3 13 4 14 5 15 6 16 7 17 8 18 9 19 10 20 11
REMARK SMILES IDX 9 12 8 13 7 14 6 15 5 16 4 17 3 18 2 19 1 20
REMARK H PARENT
REMARK Flexibility Score: inf
ROOT
ATOM      1  C   UNL     1       5.950  -6.343   6.525  1.00  0.00     0.000 C 
ENDROOT
BRANCH   1   2
ATOM      2  C   UNL     1       6.026  -7.882   6.531  1.00  0.00     0.000 C 
BRANCH   2   3
ATOM      3  C   UNL     1       5.151  -8.522   7.622  1.00  0.00     0.000 C 
BRANCH   3   4
ATOM      4  C   UNL     1       3.773  -7.848   7.743  1.00  0.00     0.000 C 
BRANCH   4   5
ATOM      5  C   UNL     1       3.516  -7.273   9.145  1.00  0.00     0.000 C 
BRANCH   5   6
ATOM      6  C   UNL     1       3.425  -5.742   9.100  1.00  0.00     0.000 C 
BRANCH   6   7
ATOM      7  C   UNL     1       2.759  -5.268   7.800  1.00  0.00     0.006 C 
BRANCH   7   8
ATOM      8  C   UNL     1       1.330  -4.759   8.032  1.00  0.00     0.053 C 
BRANCH   8   9
ATOM      9  C   UNL     1       0.328  -5.536   7.234  1.00  0.00     0.041 C 
ATOM     10  O   UNL     1      -0.584  -4.938   6.605  1.00  0.00    -0.550 OA
ATOM     11  O   UNL     1       0.421  -6.920   7.160  1.00  0.00    -0.550 OA
ENDBRANCH   8   9
ENDBRANCH   7   8
ENDBRANCH   6   7
ENDBRANCH   5   6
ENDBRANCH   4   5
ENDBRANCH   3   4
ENDBRANCH   2   3
ENDBRANCH   1   2
BRANCH   1  12
ATOM     12  C   UNL     1       7.169  -5.619   7.128  1.00  0.00     0.000 C 
BRANCH  12  13
ATOM     13  C   UNL     1       7.080  -5.463   8.655  1.00  0.00    -0.000 C 
BRANCH  13  14
ATOM     14  C   UNL     1       8.461  -5.422   9.336  1.00  0.00    -0.000 C 
BRANCH  14  15
ATOM     15  C   UNL     1       9.252  -4.116   9.134  1.00  0.00    -0.000 C 
BRANCH  15  16
ATOM     16  C   UNL     1       8.683  -2.939   9.946  1.00  0.00    -0.000 C 
BRANCH  16  17
ATOM     17  C   UNL     1       8.345  -1.725   9.066  1.00  0.00    -0.000 C 
BRANCH  17  18
ATOM     18  C   UNL     1       8.729  -0.392   9.727  1.00  0.00    -0.000 C 
BRANCH  18  19
ATOM     19  C   UNL     1       7.635   0.661   9.515  1.00  0.00    -0.003 C 
ATOM     20  C   UNL     1       8.150   2.062   9.834  1.00  0.00     0.004 C 
ENDBRANCH  18  19
ENDBRANCH  17  18
ENDBRANCH  16  17
ENDBRANCH  15  16
ENDBRANCH  14  15
ENDBRANCH  13  14
ENDBRANCH  12  13
ENDBRANCH   1  12
TORSDOF 16
ENDMDL
MODEL 2
REMARK VINA RESULT:    -3.351     12.494     14.652
REMARK INTER + INTRA:          -8.037
REMARK INTER:                  -7.343
REMARK INTRA:                  -0.694
REMARK UNBOUND:                -1.552
REMARK SMILES CCCCCCCCCCCCCCCCCC(=O)[O-]
REMARK SMILES IDX 10 1 11 2 12 3 13 4 14 5 15 6 16 7 17 8 18 9 19 10 20 11
REMARK SMILES IDX 9 12 8 13 7 14 6 15 5 16 4 17 3 18 2 19 1 20
REMARK H PARENT
REMARK Flexibility Score: inf
ROOT
ATOM      1  C   UNL     1      -1.981  10.113   7.584  1.00  0.00     0.000 C 
ENDROOT
BRANCH   1   2
ATOM      2  C   UNL     1      -3.376   9.774   7.024  1.00  0.00     0.000 C 
BRANCH   2   3
ATOM      3  C   UNL     1      -3.515  10.090   5.525  1.00  0.00     0.000 C 
BRANCH   3   4
ATOM      4  C   UNL     1      -3.342   8.844   4.641  1.00  0.00     0.000 C 
BRANCH   4   5
ATOM      5  C   UNL     1      -2.324   7.845   5.216  1.00  0.00     0.000 C 
BRANCH   5   6
ATOM      6  C   UNL     1      -1.722   6.976   4.105  1.00  0.00     0.000 C 
BRANCH   6   7
ATOM      7  C   UNL     1      -2.010   5.488   4.354  1.00  0.00     0.006 C 
BRANCH   7   8
ATOM      8  C   UNL     1      -3.477   5.234   4.727  1.00  0.00     0.053 C 
BRANCH   8   9
ATOM      9  C   UNL     1      -3.610   4.706   6.123  1.00  0.00     0.041 C 
ATOM     10  O   UNL     1      -3.608   3.465   6.334  1.00  0.00    -0.550 OA
ATOM     11  O   UNL     1      -3.704   5.586   7.194  1.00  0.00    -0.550 OA
ENDBRANCH   8   9
ENDBRANCH   7   8
ENDBRANCH   6   7
ENDBRANCH   5   6
ENDBRANCH   4   5
ENDBRANCH   3   4
ENDBRANCH   2   3
ENDBRANCH   1   2
BRANCH   1  12
ATOM     12  C   UNL     1      -1.604   9.400   8.896  1.00  0.00     0.000 C 
BRANCH  12  13
ATOM     13  C   UNL     1      -0.178   9.726   9.369  1.00  0.00    -0.000 C 
BRANCH  13  14
ATOM     14  C   UNL     1       0.801   9.969   8.205  1.00  0.00    -0.000 C 
BRANCH  14  15
ATOM     15  C   UNL     1       2.291   9.820   8.561  1.00  0.00    -0.000 C 
BRANCH  15  16
ATOM     16  C   UNL     1       2.763   8.356   8.568  1.00  0.00    -0.000 C 
BRANCH  16  17
ATOM     17  C   UNL     1       4.292   8.228   8.483  1.00  0.00    -0.000 C 
BRANCH  17  18
ATOM     18  C   UNL     1       4.795   8.106   7.036  1.00  0.00    -0.000 C 
BRANCH  18  19
ATOM     19  C   UNL     1       6.235   8.615   6.912  1.00  0.00    -0.003 C 
ATOM     20  C   UNL     1       6.487   9.791   7.852  1.00  0.00     0.004 C 
ENDBRANCH  18  19
ENDBRANCH  17  18
ENDBRANCH  16  17
ENDBRANCH  15  16
ENDBRANCH  14  15
ENDBRANCH  13  14
ENDBRANCH  12  13
ENDBRANCH   1  12
TORSDOF 16
ENDMDL
MODEL 3
REMARK VINA RESULT:    -3.090     13.349     16.146
REMARK INTER + INTRA:          -7.532
REMARK INTER:                  -6.411
REMARK INTRA:                  -1.121
REMARK UNBOUND:                -1.552
REMARK SMILES CCCCCCCCCCCCCCCCCC(=O)[O-]
REMARK SMILES IDX 10 1 11 2 12 3 13 4 14 5 15 6 16 7 17 8 18 9 19 10 20 11
REMARK SMILES IDX 9 12 8 13 7 14 6 15 5 16 4 17 3 18 2 19 1 20
REMARK H PARENT
REMARK Flexibility Score: inf
ROOT
ATOM      1  C   UNL     1       1.699   9.788   7.974  1.00  0.00     0.000 C 
ENDROOT
BRANCH   1   2
ATOM      2  C   UNL     1       3.079   9.918   8.646  1.00  0.00     0.000 C 
BRANCH   2   3
ATOM      3  C   UNL     1       3.331   8.838   9.713  1.00  0.00     0.000 C 
BRANCH   3   4
ATOM      4  C   UNL     1       4.811   8.747  10.122  1.00  0.00     0.000 C 
BRANCH   4   5
ATOM      5  C   UNL     1       5.534  10.101  10.035  1.00  0.00     0.000 C 
BRANCH   5   6
ATOM      6  C   UNL     1       6.841   9.973   9.244  1.00  0.00     0.000 C 
BRANCH   6   7
ATOM      7  C   UNL     1       6.568   9.927   7.733  1.00  0.00     0.006 C 
BRANCH   7   8
ATOM      8  C   UNL     1       6.299   8.501   7.234  1.00  0.00     0.053 C 
BRANCH   8   9
ATOM      9  C   UNL     1       5.818   8.491   5.815  1.00  0.00     0.041 C 
ATOM     10  O   UNL     1       4.693   8.002   5.531  1.00  0.00    -0.550 OA
ATOM     11  O   UNL     1       6.598   9.051   4.812  1.00  0.00    -0.550 OA
ENDBRANCH   8   9
ENDBRANCH   7   8
ENDBRANCH   6   7
ENDBRANCH   5   6
ENDBRANCH   4   5
ENDBRANCH   3   4
ENDBRANCH   2   3
ENDBRANCH   1   2
BRANCH   1  12
ATOM     12  C   UNL     1       0.632   9.037   8.793  1.00  0.00     0.000 C 
BRANCH  12  13
ATOM     13  C   UNL     1      -0.391   9.978   9.451  1.00  0.00    -0.000 C 
BRANCH  13  14
ATOM     14  C   UNL     1      -1.645   9.241   9.959  1.00  0.00    -0.000 C 
BRANCH  14  15
ATOM     15  C   UNL     1      -2.604   8.750   8.860  1.00  0.00    -0.000 C 
BRANCH  15  16
ATOM     16  C   UNL     1      -2.954   9.844   7.836  1.00  0.00    -0.000 C 
BRANCH  16  17
ATOM     17  C   UNL     1      -2.389   9.546   6.438  1.00  0.00    -0.000 C 
BRANCH  17  18
ATOM     18  C   UNL     1      -3.077   8.348   5.766  1.00  0.00    -0.000 C 
BRANCH  18  19
ATOM     19  C   UNL     1      -2.045   7.397   5.150  1.00  0.00    -0.003 C 
ATOM     20  C   UNL     1      -2.631   6.002   4.950  1.00  0.00     0.004 C 
ENDBRANCH  18  19
ENDBRANCH  17  18
ENDBRANCH  16  17
ENDBRANCH  15  16
ENDBRANCH  14  15
ENDBRANCH  13  14
ENDBRANCH  12  13
ENDBRANCH   1  12
TORSDOF 16
ENDMDL
MODEL 4
REMARK VINA RESULT:    -3.077     13.110     15.165
REMARK INTER + INTRA:          -7.508
REMARK INTER:                  -6.140
REMARK INTRA:                  -1.368
REMARK UNBOUND:                -1.552
REMARK SMILES CCCCCCCCCCCCCCCCCC(=O)[O-]
REMARK SMILES IDX 10 1 11 2 12 3 13 4 14 5 15 6 16 7 17 8 18 9 19 10 20 11
REMARK SMILES IDX 9 12 8 13 7 14 6 15 5 16 4 17 3 18 2 19 1 20
REMARK H PARENT
REMARK Flexibility Score: inf
ROOT
ATOM      1  C   UNL     1      -3.362   9.999   9.963  1.00  0.00     0.000 C 
ENDROOT
BRANCH   1   2
ATOM      2  C   UNL     1      -4.486   9.118   9.389  1.00  0.00     0.000 C 
BRANCH   2   3
ATOM      3  C   UNL     1      -4.279   7.620   9.674  1.00  0.00     0.000 C 
BRANCH   3   4
ATOM      4  C   UNL     1      -4.507   6.746   8.428  1.00  0.00     0.000 C 
BRANCH   4   5
ATOM      5  C   UNL     1      -3.247   6.613   7.559  1.00  0.00     0.000 C 
BRANCH   5   6
ATOM      6  C   UNL     1      -3.471   5.610   6.421  1.00  0.00     0.000 C 
BRANCH   6   7
ATOM      7  C   UNL     1      -2.845   6.114   5.111  1.00  0.00     0.006 C 
BRANCH   7   8
ATOM      8  C   UNL     1      -2.222   7.508   5.264  1.00  0.00     0.053 C 
BRANCH   8   9
ATOM      9  C   UNL     1      -3.050   8.562   4.594  1.00  0.00     0.041 C 
ATOM     10  O   UNL     1      -3.452   8.397   3.413  1.00  0.00    -0.550 OA
ATOM     11  O   UNL     1      -3.404   9.712   5.288  1.00  0.00    -0.550 OA
ENDBRANCH   8   9
ENDBRANCH   7   8
ENDBRANCH   6   7
ENDBRANCH   5   6
ENDBRANCH   4   5
ENDBRANCH   3   4
ENDBRANCH   2   3
ENDBRANCH   1   2
BRANCH   1  12
ATOM     12  C   UNL     1      -1.928   9.510   9.681  1.00  0.00     0.000 C 
BRANCH  12  13
ATOM     13  C   UNL     1      -1.458   9.821   8.250  1.00  0.00    -0.000 C 
BRANCH  13  14
ATOM     14  C   UNL     1       0.051  10.114   8.164  1.00  0.00    -0.000 C 
BRANCH  14  15
ATOM     15  C   UNL     1       0.968   8.939   8.551  1.00  0.00    -0.000 C 
BRANCH  15  16
ATOM     16  C   UNL     1       2.331   9.396   9.097  1.00  0.00    -0.000 C 
BRANCH  16  17
ATOM     17  C   UNL     1       3.454   8.391   8.798  1.00  0.00    -0.000 C 
BRANCH  17  18
ATOM     18  C   UNL     1       3.639   8.143   7.292  1.00  0.00    -0.000 C 
BRANCH  18  19
ATOM     19  C   UNL     1       5.111   7.881   6.956  1.00  0.00    -0.003 C 
ATOM     20  C   UNL     1       6.036   8.652   7.894  1.00  0.00     0.004 C 
ENDBRANCH  18  19
ENDBRANCH  17  18
ENDBRANCH  16  17
ENDBRANCH  15  16
ENDBRANCH  14  15
ENDBRANCH  13  14
ENDBRANCH  12  13
ENDBRANCH   1  12
TORSDOF 16
ENDMDL
MODEL 5
REMARK VINA RESULT:    -3.052     12.326     16.342
REMARK INTER + INTRA:          -7.460
REMARK INTER:                  -6.975
REMARK INTRA:                  -0.485
REMARK UNBOUND:                -1.552
REMARK SMILES CCCCCCCCCCCCCCCCCC(=O)[O-]
REMARK SMILES IDX 10 1 11 2 12 3 13 4 14 5 15 6 16 7 17 8 18 9 19 10 20 11
REMARK SMILES IDX 9 12 8 13 7 14 6 15 5 16 4 17 3 18 2 19 1 20
REMARK H PARENT
REMARK Flexibility Score: inf
ROOT
ATOM      1  C   UNL     1      -1.298   9.848   7.760  1.00  0.00     0.000 C 
ENDROOT
BRANCH   1   2
ATOM      2  C   UNL     1      -0.254   9.062   8.574  1.00  0.00     0.000 C 
BRANCH   2   3
ATOM      3  C   UNL     1       1.110   9.770   8.644  1.00  0.00     0.000 C 
BRANCH   3   4
ATOM      4  C   UNL     1       2.185   8.912   9.332  1.00  0.00     0.000 C 
BRANCH   4   5
ATOM      5  C   UNL     1       3.286   9.757   9.992  1.00  0.00     0.000 C 
BRANCH   5   6
ATOM      6  C   UNL     1       4.501   9.892   9.066  1.00  0.00     0.000 C 
BRANCH   6   7
ATOM      7  C   UNL     1       5.748   9.254   9.698  1.00  0.00     0.006 C 
BRANCH   7   8
ATOM      8  C   UNL     1       6.428   8.251   8.757  1.00  0.00     0.053 C 
BRANCH   8   9
ATOM      9  C   UNL     1       5.965   8.417   7.341  1.00  0.00     0.041 C 
ATOM     10  O   UNL     1       4.956   7.789   6.926  1.00  0.00    -0.550 OA
ATOM     11  O   UNL     1       6.630   9.291   6.490  1.00  0.00    -0.550 OA
ENDBRANCH   8   9
ENDBRANCH   7   8
ENDBRANCH   6   7
ENDBRANCH   5   6
ENDBRANCH   4   5
ENDBRANCH   3   4
ENDBRANCH   2   3
ENDBRANCH   1   2
BRANCH   1  12
ATOM     12  C   UNL     1      -2.709   9.906   8.376  1.00  0.00     0.000 C 
BRANCH  12  13
ATOM     13  C   UNL     1      -3.826   9.923   7.320  1.00  0.00    -0.000 C 
BRANCH  13  14
ATOM     14  C   UNL     1      -3.296  10.125   5.888  1.00  0.00    -0.000 C 
BRANCH  14  15
ATOM     15  C   UNL     1      -3.388   8.887   4.977  1.00  0.00    -0.000 C 
BRANCH  15  16
ATOM     16  C   UNL     1      -2.404   7.774   5.376  1.00  0.00    -0.000 C 
BRANCH  16  17
ATOM     17  C   UNL     1      -2.114   6.800   4.223  1.00  0.00    -0.000 C 
BRANCH  17  18
ATOM     18  C   UNL     1      -2.179   5.329   4.661  1.00  0.00    -0.000 C 
BRANCH  18  19
ATOM     19  C   UNL     1      -3.273   5.118   5.714  1.00  0.00    -0.003 C 
ATOM     20  C   UNL     1      -3.390   3.646   6.100  1.00  0.00     0.004 C 
ENDBRANCH  18  19
ENDBRANCH  17  18
ENDBRANCH  16  17
ENDBRANCH  15  16
ENDBRANCH  14  15
ENDBRANCH  13  14
ENDBRANCH  12  13
ENDBRANCH   1  12
TORSDOF 16
ENDMDL
MODEL 6
REMARK VINA RESULT:    -2.951     12.568     14.534
REMARK INTER + INTRA:          -7.264
REMARK INTER:                  -6.088
REMARK INTRA:                  -1.176
REMARK UNBOUND:                -1.552
REMARK SMILES CCCCCCCCCCCCCCCCCC(=O)[O-]
REMARK SMILES IDX 10 1 11 2 12 3 13 4 14 5 15 6 16 7 17 8 18 9 19 10 20 11
REMARK SMILES IDX 9 12 8 13 7 14 6 15 5 16 4 17 3 18 2 19 1 20
REMARK H PARENT
REMARK Flexibility Score: inf
ROOT
ATOM      1  C   UNL     1      -0.321   9.214   9.897  1.00  0.00     0.000 C 
ENDROOT
BRANCH   1   2
ATOM      2  C   UNL     1      -1.038   9.875   8.706  1.00  0.00     0.000 C 
BRANCH   2   3
ATOM      3  C   UNL     1      -2.417   9.256   8.416  1.00  0.00     0.000 C 
BRANCH   3   4
ATOM      4  C   UNL     1      -3.208  10.048   7.361  1.00  0.00     0.000 C 
BRANCH   4   5
ATOM      5  C   UNL     1      -3.071   9.458   5.949  1.00  0.00     0.000 C 
BRANCH   5   6
ATOM      6  C   UNL     1      -2.788   7.952   6.012  1.00  0.00     0.000 C 
BRANCH   6   7
ATOM      7  C   UNL     1      -2.250   7.437   4.668  1.00  0.00     0.006 C 
BRANCH   7   8
ATOM      8  C   UNL     1      -2.003   5.922   4.683  1.00  0.00     0.053 C 
BRANCH   8   9
ATOM      9  C   UNL     1      -3.249   5.160   5.014  1.00  0.00     0.041 C 
ATOM     10  O   UNL     1      -3.321   4.495   6.081  1.00  0.00    -0.550 OA
ATOM     11  O   UNL     1      -4.343   5.210   4.159  1.00  0.00    -0.550 OA
ENDBRANCH   8   9
ENDBRANCH   7   8
ENDBRANCH   6   7
ENDBRANCH   5   6
ENDBRANCH   4   5
ENDBRANCH   3   4
ENDBRANCH   2   3
ENDBRANCH   1   2
BRANCH   1  12
ATOM     12  C   UNL     1       1.147   9.633  10.101  1.00  0.00     0.000 C 
BRANCH  12  13
ATOM     13  C   UNL     1       1.858   9.991   8.784  1.00  0.00    -0.000 C 
BRANCH  13  14
ATOM     14  C   UNL     1       3.393  10.003   8.914  1.00  0.00    -0.000 C 
BRANCH  14  15
ATOM     15  C   UNL     1       3.979   8.920   9.839  1.00  0.00    -0.000 C 
BRANCH  15  16
ATOM     16  C   UNL     1       5.477   9.123  10.125  1.00  0.00    -0.000 C 
BRANCH  16  17
ATOM     17  C   UNL     1       6.280   9.450   8.857  1.00  0.00    -0.000 C 
BRANCH  17  18
ATOM     18  C   UNL     1       6.397   8.250   7.904  1.00  0.00    -0.000 C 
BRANCH  18  19
ATOM     19  C   UNL     1       5.959   8.632   6.485  1.00  0.00    -0.003 C 
ATOM     20  C   UNL     1       4.719   7.849   6.062  1.00  0.00     0.004 C 
ENDBRANCH  18  19
ENDBRANCH  17  18
ENDBRANCH  16  17
ENDBRANCH  15  16
ENDBRANCH  14  15
ENDBRANCH  13  14
ENDBRANCH  12  13
ENDBRANCH   1  12
TORSDOF 16
ENDMDL
MODEL 7
REMARK VINA RESULT:    -2.916     13.094     16.061
REMARK INTER + INTRA:          -7.195
REMARK INTER:                  -6.487
REMARK INTRA:                  -0.708
REMARK UNBOUND:                -1.552
REMARK SMILES CCCCCCCCCCCCCCCCCC(=O)[O-]
REMARK SMILES IDX 10 1 11 2 12 3 13 4 14 5 15 6 16 7 17 8 18 9 19 10 20 11
REMARK SMILES IDX 9 12 8 13 7 14 6 15 5 16 4 17 3 18 2 19 1 20
REMARK H PARENT
REMARK Flexibility Score: inf
ROOT
ATOM      1  C   UNL     1      -1.801  10.044   8.466  1.00  0.00     0.000 C 
ENDROOT
BRANCH   1   2
ATOM      2  C   UNL     1      -0.529   9.315   8.939  1.00  0.00     0.000 C 
BRANCH   2   3
ATOM      3  C   UNL     1       0.755   9.875   8.304  1.00  0.00     0.000 C 
BRANCH   3   4
ATOM      4  C   UNL     1       1.922   8.874   8.353  1.00  0.00     0.000 C 
BRANCH   4   5
ATOM      5  C   UNL     1       2.801   9.048   9.602  1.00  0.00     0.000 C 
BRANCH   5   6
ATOM      6  C   UNL     1       4.194   9.565   9.223  1.00  0.00     0.000 C 
BRANCH   6   7
ATOM      7  C   UNL     1       5.247   8.454   9.355  1.00  0.00     0.006 C 
BRANCH   7   8
ATOM      8  C   UNL     1       6.374   8.597   8.323  1.00  0.00     0.053 C 
BRANCH   8   9
ATOM      9  C   UNL     1       5.890   8.321   6.932  1.00  0.00     0.041 C 
ATOM     10  O   UNL     1       4.966   7.489   6.735  1.00  0.00    -0.550 OA
ATOM     11  O   UNL     1       6.437   9.009   5.856  1.00  0.00    -0.550 OA
ENDBRANCH   8   9
ENDBRANCH   7   8
ENDBRANCH   6   7
ENDBRANCH   5   6
ENDBRANCH   4   5
ENDBRANCH   3   4
ENDBRANCH   2   3
ENDBRANCH   1   2
BRANCH   1  12
ATOM     12  C   UNL     1      -3.129   9.462   8.986  1.00  0.00     0.000 C 
BRANCH  12  13
ATOM     13  C   UNL     1      -2.937   8.198   9.841  1.00  0.00    -0.000 C 
BRANCH  13  14
ATOM     14  C   UNL     1      -4.117   7.215   9.733  1.00  0.00    -0.000 C 
BRANCH  14  15
ATOM     15  C   UNL     1      -4.520   6.832   8.297  1.00  0.00    -0.000 C 
BRANCH  15  16
ATOM     16  C   UNL     1      -3.310   6.635   7.367  1.00  0.00    -0.000 C 
BRANCH  16  17
ATOM     17  C   UNL     1      -3.484   5.439   6.418  1.00  0.00    -0.000 C 
BRANCH  17  18
ATOM     18  C   UNL     1      -2.972   5.731   4.999  1.00  0.00    -0.000 C 
BRANCH  18  19
ATOM     19  C   UNL     1      -2.143   7.020   4.970  1.00  0.00    -0.003 C 
ATOM     20  C   UNL     1      -2.946   8.179   4.384  1.00  0.00     0.004 C 
ENDBRANCH  18  19
ENDBRANCH  17  18
ENDBRANCH  16  17
ENDBRANCH  15  16
ENDBRANCH  14  15
ENDBRANCH  13  14
ENDBRANCH  12  13
ENDBRANCH   1  12
TORSDOF 16
ENDMDL
MODEL 8
REMARK VINA RESULT:    -2.834     13.154     15.294
REMARK INTER + INTRA:          -7.036
REMARK INTER:                  -5.582
REMARK INTRA:                  -1.454
REMARK UNBOUND:                -1.552
REMARK SMILES CCCCCCCCCCCCCCCCCC(=O)[O-]
REMARK SMILES IDX 10 1 11 2 12 3 13 4 14 5 15 6 16 7 17 8 18 9 19 10 20 11
REMARK SMILES IDX 9 12 8 13 7 14 6 15 5 16 4 17 3 18 2 19 1 20
REMARK H PARENT
REMARK Flexibility Score: inf
ROOT
ATOM      1  C   UNL     1      -2.949   8.253   4.745  1.00  0.00     0.000 C 
ENDROOT
BRANCH   1   2
ATOM      2  C   UNL     1      -2.224   6.917   4.994  1.00  0.00     0.000 C 
BRANCH   2   3
ATOM      3  C   UNL     1      -3.191   5.736   5.187  1.00  0.00     0.000 C 
BRANCH   3   4
ATOM      4  C   UNL     1      -3.354   5.344   6.665  1.00  0.00     0.000 C 
BRANCH   4   5
ATOM      5  C   UNL     1      -4.175   6.368   7.464  1.00  0.00     0.000 C 
BRANCH   5   6
ATOM      6  C   UNL     1      -3.443   6.775   8.748  1.00  0.00     0.000 C 
BRANCH   6   7
ATOM      7  C   UNL     1      -4.410   7.416   9.754  1.00  0.00     0.006 C 
BRANCH   7   8
ATOM      8  C   UNL     1      -4.965   8.756   9.253  1.00  0.00     0.053 C 
BRANCH   8   9
ATOM      9  C   UNL     1      -6.460   8.803   9.334  1.00  0.00     0.041 C 
ATOM     10  O   UNL     1      -7.054   9.904   9.466  1.00  0.00    -0.550 OA
ATOM     11  O   UNL     1      -7.199   7.631   9.229  1.00  0.00    -0.550 OA
ENDBRANCH   8   9
ENDBRANCH   7   8
ENDBRANCH   6   7
ENDBRANCH   5   6
ENDBRANCH   4   5
ENDBRANCH   3   4
ENDBRANCH   2   3
ENDBRANCH   1   2
BRANCH   1  12
ATOM     12  C   UNL     1      -2.842   9.285   5.884  1.00  0.00     0.000 C 
BRANCH  12  13
ATOM     13  C   UNL     1      -1.835   8.878   6.972  1.00  0.00    -0.000 C 
BRANCH  13  14
ATOM     14  C   UNL     1      -1.410  10.056   7.868  1.00  0.00    -0.000 C 
BRANCH  14  15
ATOM     15  C   UNL     1      -1.092   9.685   9.328  1.00  0.00    -0.000 C 
BRANCH  15  16
ATOM     16  C   UNL     1       0.281   9.009   9.490  1.00  0.00    -0.000 C 
BRANCH  16  17
ATOM     17  C   UNL     1       1.287   9.453   8.416  1.00  0.00    -0.000 C 
BRANCH  17  18
ATOM     18  C   UNL     1       2.726   9.022   8.741  1.00  0.00    -0.000 C 
BRANCH  18  19
ATOM     19  C   UNL     1       3.384   8.352   7.530  1.00  0.00    -0.003 C 
ATOM     20  C   UNL     1       4.877   8.134   7.764  1.00  0.00     0.004 C 
ENDBRANCH  18  19
ENDBRANCH  17  18
ENDBRANCH  16  17
ENDBRANCH  15  16
ENDBRANCH  14  15
ENDBRANCH  13  14
ENDBRANCH  12  13
ENDBRANCH   1  12
TORSDOF 16
ENDMDL
MODEL 9
REMARK VINA RESULT:    -2.741     12.456     14.571
REMARK INTER + INTRA:          -6.858
REMARK INTER:                  -5.520
REMARK INTRA:                  -1.338
REMARK UNBOUND:                -1.552
REMARK SMILES CCCCCCCCCCCCCCCCCC(=O)[O-]
REMARK SMILES IDX 10 1 11 2 12 3 13 4 14 5 15 6 16 7 17 8 18 9 19 10 20 11
REMARK SMILES IDX 9 12 8 13 7 14 6 15 5 16 4 17 3 18 2 19 1 20
REMARK H PARENT
REMARK Flexibility Score: inf
ROOT
ATOM      1  C   UNL     1      -1.170   9.904   8.598  1.00  0.00     0.000 C 
ENDROOT
BRANCH   1   2
ATOM      2  C   UNL     1      -1.956  10.011   7.278  1.00  0.00     0.000 C 
BRANCH   2   3
ATOM      3  C   UNL     1      -3.479  10.064   7.488  1.00  0.00     0.000 C 
BRANCH   3   4
ATOM      4  C   UNL     1      -3.878   9.872   8.961  1.00  0.00     0.000 C 
BRANCH   4   5
ATOM      5  C   UNL     1      -4.641   8.560   9.203  1.00  0.00     0.000 C 
BRANCH   5   6
ATOM      6  C   UNL     1      -3.716   7.349   9.031  1.00  0.00     0.000 C 
BRANCH   6   7
ATOM      7  C   UNL     1      -4.191   6.453   7.878  1.00  0.00     0.006 C 
BRANCH   7   8
ATOM      8  C   UNL     1      -3.212   6.457   6.697  1.00  0.00     0.053 C 
BRANCH   8   9
ATOM      9  C   UNL     1      -3.330   5.211   5.874  1.00  0.00     0.041 C 
ATOM     10  O   UNL     1      -3.328   4.081   6.430  1.00  0.00    -0.550 OA
ATOM     11  O   UNL     1      -3.475   5.299   4.495  1.00  0.00    -0.550 OA
ENDBRANCH   8   9
ENDBRANCH   7   8
ENDBRANCH   6   7
ENDBRANCH   5   6
ENDBRANCH   4   5
ENDBRANCH   3   4
ENDBRANCH   2   3
ENDBRANCH   1   2
BRANCH   1  12
ATOM     12  C   UNL     1       0.364   9.900   8.455  1.00  0.00     0.000 C 
BRANCH  12  13
ATOM     13  C   UNL     1       1.059   8.972   9.466  1.00  0.00    -0.000 C 
BRANCH  13  14
ATOM     14  C   UNL     1       2.592   9.122   9.464  1.00  0.00    -0.000 C 
BRANCH  14  15
ATOM     15  C   UNL     1       3.222   9.370   8.081  1.00  0.00    -0.000 C 
BRANCH  15  16
ATOM     16  C   UNL     1       3.785   8.090   7.440  1.00  0.00    -0.000 C 
BRANCH  16  17
ATOM     17  C   UNL     1       5.310   7.974   7.595  1.00  0.00    -0.000 C 
BRANCH  17  18
ATOM     18  C   UNL     1       5.999   9.343   7.704  1.00  0.00    -0.000 C 
BRANCH  18  19
ATOM     19  C   UNL     1       6.545   9.571   9.118  1.00  0.00    -0.003 C 
ATOM     20  C   UNL     1       6.674   8.254   9.878  1.00  0.00     0.004 C 
ENDBRANCH  18  19
ENDBRANCH  17  18
ENDBRANCH  16  17
ENDBRANCH  15  16
ENDBRANCH  14  15
ENDBRANCH  13  14
ENDBRANCH  12  13
ENDBRANCH   1  12
TORSDOF 16
ENDMDL
