MODEL 1
REMARK VINA RESULT:    -3.338      0.000      0.000
REMARK INTER + INTRA:          -6.611
REMARK INTER:                  -5.290
REMARK INTRA:                  -1.321
REMARK UNBOUND:                -1.321
REMARK SMILES CCCCCCCCCCCC(=O)[O-]
REMARK SMILES IDX 7 1 8 2 9 3 10 4 11 5 12 6 13 7 14 8 6 9 5 10 4 11 3 12 2 13
REMARK SMILES IDX 1 14
REMARK H PARENT
REMARK Flexibility Score: inf
ROOT
ATOM      1  C   UNL     1      12.489  22.774  16.622  1.00  0.00     0.000 C 
ENDROOT
BRANCH   1   2
ATOM      2  C   UNL     1      13.003  23.103  18.035  1.00  0.00     0.000 C 
BRANCH   2   3
ATOM      3  C   UNL     1      11.912  22.968  19.109  1.00  0.00     0.000 C 
BRANCH   3   4
ATOM      4  C   UNL     1      12.186  21.811  20.085  1.00  0.00     0.006 C 
BRANCH   4   5
ATOM      5  C   UNL     1      11.033  20.799  20.123  1.00  0.00     0.053 C 
BRANCH   5   6
ATOM      6  C   UNL     1       9.876  21.302  20.929  1.00  0.00     0.041 C 
ATOM      7  O   UNL     1      10.072  21.848  22.046  1.00  0.00    -0.550 OA
ATOM      8  O   UNL     1       8.582  21.194  20.434  1.00  0.00    -0.550 OA
ENDBRANCH   5   6
ENDBRANCH   4   5
ENDBRANCH   3   4
ENDBRANCH   2   3
ENDBRANCH   1   2
BRANCH   1   9
ATOM      9  C   UNL     1      12.713  21.295  16.243  1.00  0.00     0.000 C 
BRANCH   9  10
ATOM     10  C   UNL     1      11.416  20.466  16.185  1.00  0.00    -0.000 C 
BRANCH  10  11
ATOM     11  C   UNL     1      10.116  21.274  16.355  1.00  0.00    -0.000 C 
BRANCH  11  12
ATOM     12  C   UNL     1       8.953  20.503  17.007  1.00  0.00    -0.000 C 
BRANCH  12  13
ATOM     13  C   UNL     1       9.044  18.987  16.785  1.00  0.00    -0.003 C 
ATOM     14  C   UNL     1       9.261  18.250  18.104  1.00  0.00     0.004 C 
ENDBRANCH  12  13
ENDBRANCH  11  12
ENDBRANCH  10  11
ENDBRANCH   9  10
ENDBRANCH   1   9
TORSDOF 10
ENDMDL
MODEL 2
REMARK VINA RESULT:    -3.256      1.497      3.855
REMARK INTER + INTRA:          -6.481
REMARK INTER:                  -5.171
REMARK INTRA:                  -1.310
REMARK UNBOUND:                -1.321
REMARK SMILES CCCCCCCCCCCC(=O)[O-]
REMARK SMILES IDX 7 1 8 2 9 3 10 4 11 5 12 6 13 7 14 8 6 9 5 10 4 11 3 12 2 13
REMARK SMILES IDX 1 14
REMARK H PARENT
REMARK Flexibility Score: inf
ROOT
ATOM      1  C   UNL     1      11.788  20.509  16.124  1.00  0.00     0.000 C 
ENDROOT
BRANCH   1   2
ATOM      2  C   UNL     1      10.302  20.873  15.957  1.00  0.00     0.000 C 
BRANCH   2   3
ATOM      3  C   UNL     1       9.360  19.775  16.475  1.00  0.00     0.000 C 
BRANCH   3   4
ATOM      4  C   UNL     1       8.112  20.348  17.169  1.00  0.00     0.006 C 
BRANCH   4   5
ATOM      5  C   UNL     1       7.717  19.539  18.411  1.00  0.00     0.053 C 
BRANCH   5   6
ATOM      6  C   UNL     1       6.869  20.338  19.351  1.00  0.00     0.041 C 
ATOM      7  O   UNL     1       5.616  20.337  19.231  1.00  0.00    -0.550 OA
ATOM      8  O   UNL     1       7.460  21.063  20.380  1.00  0.00    -0.550 OA
ENDBRANCH   5   6
ENDBRANCH   4   5
ENDBRANCH   3   4
ENDBRANCH   2   3
ENDBRANCH   1   2
BRANCH   1   9
ATOM      9  C   UNL     1      12.691  21.754  16.247  1.00  0.00     0.000 C 
BRANCH   9  10
ATOM     10  C   UNL     1      12.210  22.767  17.304  1.00  0.00    -0.000 C 
BRANCH  10  11
ATOM     11  C   UNL     1      13.040  22.800  18.601  1.00  0.00    -0.000 C 
BRANCH  11  12
ATOM     12  C   UNL     1      12.273  22.394  19.873  1.00  0.00    -0.000 C 
BRANCH  12  13
ATOM     13  C   UNL     1      10.923  21.728  19.569  1.00  0.00    -0.003 C 
ATOM     14  C   UNL     1      10.919  20.267  20.011  1.00  0.00     0.004 C 
ENDBRANCH  12  13
ENDBRANCH  11  12
ENDBRANCH  10  11
ENDBRANCH   9  10
ENDBRANCH   1   9
TORSDOF 10
ENDMDL
MODEL 3
REMARK VINA RESULT:    -3.243      1.796      4.593
REMARK INTER + INTRA:          -6.459
REMARK INTER:                  -5.138
REMARK INTRA:                  -1.321
REMARK UNBOUND:                -1.321
REMARK SMILES CCCCCCCCCCCC(=O)[O-]
REMARK SMILES IDX 7 1 8 2 9 3 10 4 11 5 12 6 13 7 14 8 6 9 5 10 4 11 3 12 2 13
REMARK SMILES IDX 1 14
REMARK H PARENT
REMARK Flexibility Score: inf
ROOT
ATOM      1  C   UNL     1      10.202  20.644  19.557  1.00  0.00     0.000 C 
ENDROOT
BRANCH   1   2
ATOM      2  C   UNL     1      10.357  19.252  18.921  1.00  0.00     0.000 C 
BRANCH   2   3
ATOM      3  C   UNL     1      10.230  19.283  17.390  1.00  0.00     0.000 C 
BRANCH   3   4
ATOM      4  C   UNL     1       9.233  20.348  16.902  1.00  0.00     0.006 C 
BRANCH   4   5
ATOM      5  C   UNL     1       7.827  19.771  16.690  1.00  0.00     0.053 C 
BRANCH   5   6
ATOM      6  C   UNL     1       6.850  20.297  17.695  1.00  0.00     0.041 C 
ATOM      7  O   UNL     1       6.075  21.242  17.392  1.00  0.00    -0.550 OA
ATOM      8  O   UNL     1       6.774  19.724  18.960  1.00  0.00    -0.550 OA
ENDBRANCH   5   6
ENDBRANCH   4   5
ENDBRANCH   3   4
ENDBRANCH   2   3
ENDBRANCH   1   2
BRANCH   1   9
ATOM      9  C   UNL     1      11.284  20.932  20.619  1.00  0.00     0.000 C 
BRANCH   9  10
ATOM     10  C   UNL     1      12.168  22.150  20.291  1.00  0.00    -0.000 C 
BRANCH  10  11
ATOM     11  C   UNL     1      11.823  22.872  18.975  1.00  0.00    -0.000 C 
BRANCH  11  12
ATOM     12  C   UNL     1      12.902  22.778  17.881  1.00  0.00    -0.000 C 
BRANCH  12  13
ATOM     13  C   UNL     1      12.331  22.390  16.510  1.00  0.00    -0.003 C 
ATOM     14  C   UNL     1      12.997  21.126  15.974  1.00  0.00     0.004 C 
ENDBRANCH  12  13
ENDBRANCH  11  12
ENDBRANCH  10  11
ENDBRANCH   9  10
ENDBRANCH   1   9
TORSDOF 10
ENDMDL
MODEL 4
REMARK VINA RESULT:    -3.083      1.796      4.028
REMARK INTER + INTRA:          -6.206
REMARK INTER:                  -5.173
REMARK INTRA:                  -1.033
REMARK UNBOUND:                -1.321
REMARK SMILES CCCCCCCCCCCC(=O)[O-]
REMARK SMILES IDX 7 1 8 2 9 3 10 4 11 5 12 6 13 7 14 8 6 9 5 10 4 11 3 12 2 13
REMARK SMILES IDX 1 14
REMARK H PARENT
REMARK Flexibility Score: inf
ROOT
ATOM      1  C   UNL     1      11.949  22.859  17.612  1.00  0.00     0.000 C 
ENDROOT
BRANCH   1   2
ATOM      2  C   UNL     1      12.488  22.223  16.319  1.00  0.00     0.000 C 
BRANCH   2   3
ATOM      3  C   UNL     1      12.031  20.767  16.140  1.00  0.00     0.000 C 
BRANCH   3   4
ATOM      4  C   UNL     1      10.616  20.522  16.690  1.00  0.00     0.006 C 
BRANCH   4   5
ATOM      5  C   UNL     1      10.584  19.388  17.724  1.00  0.00     0.053 C 
BRANCH   5   6
ATOM      6  C   UNL     1       9.235  18.744  17.805  1.00  0.00     0.041 C 
ATOM      7  O   UNL     1       9.040  17.614  17.286  1.00  0.00    -0.550 OA
ATOM      8  O   UNL     1       8.199  19.379  18.481  1.00  0.00    -0.550 OA
ENDBRANCH   5   6
ENDBRANCH   4   5
ENDBRANCH   3   4
ENDBRANCH   2   3
ENDBRANCH   1   2
BRANCH   1   9
ATOM      9  C   UNL     1      12.986  22.841  18.756  1.00  0.00     0.000 C 
BRANCH   9  10
ATOM     10  C   UNL     1      12.449  22.242  20.070  1.00  0.00    -0.000 C 
BRANCH  10  11
ATOM     11  C   UNL     1      10.915  22.132  20.160  1.00  0.00    -0.000 C 
BRANCH  11  12
ATOM     12  C   UNL     1      10.398  21.014  21.083  1.00  0.00    -0.000 C 
BRANCH  12  13
ATOM     13  C   UNL     1       9.257  21.476  22.000  1.00  0.00    -0.003 C 
ATOM     14  C   UNL     1       7.942  21.580  21.233  1.00  0.00     0.004 C 
ENDBRANCH  12  13
ENDBRANCH  11  12
ENDBRANCH  10  11
ENDBRANCH   9  10
ENDBRANCH   1   9
TORSDOF 10
ENDMDL
MODEL 5
REMARK VINA RESULT:    -3.074      2.254      4.414
REMARK INTER + INTRA:          -6.191
REMARK INTER:                  -4.813
REMARK INTRA:                  -1.379
REMARK UNBOUND:                -1.321
REMARK SMILES CCCCCCCCCCCC(=O)[O-]
REMARK SMILES IDX 7 1 8 2 9 3 10 4 11 5 12 6 13 7 14 8 6 9 5 10 4 11 3 12 2 13
REMARK SMILES IDX 1 14
REMARK H PARENT
REMARK Flexibility Score: inf
ROOT
ATOM      1  C   UNL     1      10.704  20.493  16.188  1.00  0.00     0.000 C 
ENDROOT
BRANCH   1   2
ATOM      2  C   UNL     1      10.435  19.431  17.268  1.00  0.00     0.000 C 
BRANCH   2   3
ATOM      3  C   UNL     1       9.024  19.536  17.866  1.00  0.00     0.000 C 
BRANCH   3   4
ATOM      4  C   UNL     1       8.424  20.945  17.717  1.00  0.00     0.006 C 
BRANCH   4   5
ATOM      5  C   UNL     1       7.262  20.978  16.715  1.00  0.00     0.053 C 
BRANCH   5   6
ATOM      6  C   UNL     1       6.326  19.826  16.909  1.00  0.00     0.041 C 
ATOM      7  O   UNL     1       5.635  19.740  17.958  1.00  0.00    -0.550 OA
ATOM      8  O   UNL     1       6.194  18.860  15.917  1.00  0.00    -0.550 OA
ENDBRANCH   5   6
ENDBRANCH   4   5
ENDBRANCH   3   4
ENDBRANCH   2   3
ENDBRANCH   1   2
BRANCH   1   9
ATOM      9  C   UNL     1      12.207  20.805  16.027  1.00  0.00     0.000 C 
BRANCH   9  10
ATOM     10  C   UNL     1      12.657  22.086  16.756  1.00  0.00    -0.000 C 
BRANCH  10  11
ATOM     11  C   UNL     1      11.514  22.992  17.250  1.00  0.00    -0.000 C 
BRANCH  11  12
ATOM     12  C   UNL     1      11.379  23.088  18.781  1.00  0.00    -0.000 C 
BRANCH  12  13
ATOM     13  C   UNL     1      12.259  22.073  19.524  1.00  0.00    -0.003 C 
ATOM     14  C   UNL     1      11.415  21.148  20.396  1.00  0.00     0.004 C 
ENDBRANCH  12  13
ENDBRANCH  11  12
ENDBRANCH  10  11
ENDBRANCH   9  10
ENDBRANCH   1   9
TORSDOF 10
ENDMDL
MODEL 6
REMARK VINA RESULT:    -3.016      1.505      2.931
REMARK INTER + INTRA:          -6.101
REMARK INTER:                  -4.832
REMARK INTRA:                  -1.269
REMARK UNBOUND:                -1.321
REMARK SMILES CCCCCCCCCCCC(=O)[O-]
REMARK SMILES IDX 7 1 8 2 9 3 10 4 11 5 12 6 13 7 14 8 6 9 5 10 4 11 3 12 2 13
REMARK SMILES IDX 1 14
REMARK H PARENT
REMARK Flexibility Score: inf
ROOT
ATOM      1  C   UNL     1      12.003  22.829  19.782  1.00  0.00     0.000 C 
ENDROOT
BRANCH   1   2
ATOM      2  C   UNL     1      11.814  21.402  20.328  1.00  0.00     0.000 C 
BRANCH   2   3
ATOM      3  C   UNL     1      10.366  21.118  20.754  1.00  0.00     0.000 C 
BRANCH   3   4
ATOM      4  C   UNL     1       9.348  21.994  20.003  1.00  0.00     0.006 C 
BRANCH   4   5
ATOM      5  C   UNL     1       8.065  22.216  20.815  1.00  0.00     0.053 C 
BRANCH   5   6
ATOM      6  C   UNL     1       7.068  21.121  20.595  1.00  0.00     0.041 C 
ATOM      7  O   UNL     1       7.062  20.477  19.513  1.00  0.00    -0.550 OA
ATOM      8  O   UNL     1       6.163  20.790  21.597  1.00  0.00    -0.550 OA
ENDBRANCH   5   6
ENDBRANCH   4   5
ENDBRANCH   3   4
ENDBRANCH   2   3
ENDBRANCH   1   2
BRANCH   1   9
ATOM      9  C   UNL     1      12.973  22.878  18.582  1.00  0.00     0.000 C 
BRANCH   9  10
ATOM     10  C   UNL     1      12.278  22.728  17.215  1.00  0.00    -0.000 C 
BRANCH  10  11
ATOM     11  C   UNL     1      12.862  21.635  16.301  1.00  0.00    -0.000 C 
BRANCH  11  12
ATOM     12  C   UNL     1      11.898  20.481  15.972  1.00  0.00    -0.000 C 
BRANCH  12  13
ATOM     13  C   UNL     1      10.560  20.589  16.717  1.00  0.00    -0.003 C 
ATOM     14  C   UNL     1      10.274  19.325  17.522  1.00  0.00     0.004 C 
ENDBRANCH  12  13
ENDBRANCH  11  12
ENDBRANCH  10  11
ENDBRANCH   9  10
ENDBRANCH   1   9
TORSDOF 10
ENDMDL
MODEL 7
REMARK VINA RESULT:    -2.997     20.934     22.893
REMARK INTER + INTRA:          -6.070
REMARK INTER:                  -5.065
REMARK INTRA:                  -1.005
REMARK UNBOUND:                -1.321
REMARK SMILES CCCCCCCCCCCC(=O)[O-]
REMARK SMILES IDX 7 1 8 2 9 3 10 4 11 5 12 6 13 7 14 8 6 9 5 10 4 11 3 12 2 13
REMARK SMILES IDX 1 14
REMARK H PARENT
REMARK Flexibility Score: inf
ROOT
ATOM      1  C   UNL     1      11.295   5.503  36.117  1.00  0.00     0.000 C 
ENDROOT
BRANCH   1   2
ATOM      2  C   UNL     1       9.917   4.833  35.973  1.00  0.00     0.000 C 
BRANCH   2   3
ATOM      3  C   UNL     1       8.826   5.815  35.520  1.00  0.00     0.000 C 
BRANCH   3   4
ATOM      4  C   UNL     1       8.542   5.725  34.010  1.00  0.00     0.006 C 
BRANCH   4   5
ATOM      5  C   UNL     1       7.067   5.426  33.714  1.00  0.00     0.053 C 
BRANCH   5   6
ATOM      6  C   UNL     1       6.851   5.039  32.284  1.00  0.00     0.041 C 
ATOM      7  O   UNL     1       5.806   5.397  31.681  1.00  0.00    -0.550 OA
ATOM      8  O   UNL     1       7.820   4.308  31.606  1.00  0.00    -0.550 OA
ENDBRANCH   5   6
ENDBRANCH   4   5
ENDBRANCH   3   4
ENDBRANCH   2   3
ENDBRANCH   1   2
BRANCH   1   9
ATOM      9  C   UNL     1      12.454   4.484  36.081  1.00  0.00     0.000 C 
BRANCH   9  10
ATOM     10  C   UNL     1      12.124   3.197  35.301  1.00  0.00    -0.000 C 
BRANCH  10  11
ATOM     11  C   UNL     1      12.482   3.231  33.803  1.00  0.00    -0.000 C 
BRANCH  11  12
ATOM     12  C   UNL     1      11.276   3.327  32.850  1.00  0.00    -0.000 C 
BRANCH  12  13
ATOM     13  C   UNL     1      11.599   4.082  31.553  1.00  0.00    -0.003 C 
ATOM     14  C   UNL     1      11.067   5.511  31.601  1.00  0.00     0.004 C 
ENDBRANCH  12  13
ENDBRANCH  11  12
ENDBRANCH  10  11
ENDBRANCH   9  10
ENDBRANCH   1   9
TORSDOF 10
ENDMDL
MODEL 8
REMARK VINA RESULT:    -2.986     20.991     22.987
REMARK INTER + INTRA:          -6.053
REMARK INTER:                  -5.252
REMARK INTRA:                  -0.801
REMARK UNBOUND:                -1.321
REMARK SMILES CCCCCCCCCCCC(=O)[O-]
REMARK SMILES IDX 7 1 8 2 9 3 10 4 11 5 12 6 13 7 14 8 6 9 5 10 4 11 3 12 2 13
REMARK SMILES IDX 1 14
REMARK H PARENT
REMARK Flexibility Score: inf
ROOT
ATOM      1  C   UNL     1      11.274   4.686  35.342  1.00  0.00     0.000 C 
ENDROOT
BRANCH   1   2
ATOM      2  C   UNL     1      12.428   3.763  35.773  1.00  0.00     0.000 C 
BRANCH   2   3
ATOM      3  C   UNL     1      12.943   2.882  34.624  1.00  0.00     0.000 C 
BRANCH   3   4
ATOM      4  C   UNL     1      12.001   2.891  33.407  1.00  0.00     0.006 C 
BRANCH   4   5
ATOM      5  C   UNL     1      12.749   3.179  32.098  1.00  0.00     0.053 C 
BRANCH   5   6
ATOM      6  C   UNL     1      11.818   3.604  31.005  1.00  0.00     0.041 C 
ATOM      7  O   UNL     1      11.780   2.965  29.921  1.00  0.00    -0.550 OA
ATOM      8  O   UNL     1      10.970   4.689  31.195  1.00  0.00    -0.550 OA
ENDBRANCH   5   6
ENDBRANCH   4   5
ENDBRANCH   3   4
ENDBRANCH   2   3
ENDBRANCH   1   2
BRANCH   1   9
ATOM      9  C   UNL     1       9.973   4.409  36.125  1.00  0.00     0.000 C 
BRANCH   9  10
ATOM     10  C   UNL     1       8.895   5.494  35.940  1.00  0.00    -0.000 C 
BRANCH  10  11
ATOM     11  C   UNL     1       7.942   5.272  34.750  1.00  0.00    -0.000 C 
BRANCH  11  12
ATOM     12  C   UNL     1       8.163   6.221  33.558  1.00  0.00    -0.000 C 
BRANCH  12  13
ATOM     13  C   UNL     1       9.039   7.431  33.912  1.00  0.00    -0.003 C 
ATOM     14  C   UNL     1      10.352   7.407  33.134  1.00  0.00     0.004 C 
ENDBRANCH  12  13
ENDBRANCH  11  12
ENDBRANCH  10  11
ENDBRANCH   9  10
ENDBRANCH   1   9
TORSDOF 10
ENDMDL
