MODEL 1
REMARK VINA RESULT:    -4.121      0.000      0.000
REMARK INTER + INTRA:         -10.625
REMARK INTER:                  -7.975
REMARK INTRA:                  -2.651
REMARK UNBOUND:                -2.651
REMARK SMILES CCCCCCCCCCCCCCCCCC(=O)[O-]
REMARK SMILES IDX 10 1 11 2 12 3 13 4 14 5 15 6 16 7 17 8 18 9 19 10 20 11
REMARK SMILES IDX 9 12 8 13 7 14 6 15 5 16 4 17 3 18 2 19 1 20
REMARK H PARENT
REMARK Flexibility Score: inf
ROOT
ATOM      1  C   UNL     1     -56.037  14.124 -28.861  1.00  0.00     0.000 C 
ENDROOT
BRANCH   1   2
ATOM      2  C   UNL     1     -55.251  12.872 -29.269  1.00  0.00     0.000 C 
BRANCH   2   3
ATOM      3  C   UNL     1     -55.331  12.644 -30.787  1.00  0.00     0.000 C 
BRANCH   3   4
ATOM      4  C   UNL     1     -54.619  11.356 -31.231  1.00  0.00     0.000 C 
BRANCH   4   5
ATOM      5  C   UNL     1     -53.567  11.607 -32.322  1.00  0.00     0.000 C 
BRANCH   5   6
ATOM      6  C   UNL     1     -52.369  10.661 -32.157  1.00  0.00     0.000 C 
BRANCH   6   7
ATOM      7  C   UNL     1     -51.971  10.450 -30.684  1.00  0.00     0.006 C 
BRANCH   7   8
ATOM      8  C   UNL     1     -50.857   9.414 -30.471  1.00  0.00     0.053 C 
BRANCH   8   9
ATOM      9  C   UNL     1     -49.503   9.968 -30.792  1.00  0.00     0.041 C 
ATOM     10  O   UNL     1     -49.032   9.854 -31.954  1.00  0.00    -0.550 OA
ATOM     11  O   UNL     1     -48.747  10.578 -29.799  1.00  0.00    -0.550 OA
ENDBRANCH   8   9
ENDBRANCH   7   8
ENDBRANCH   6   7
ENDBRANCH   5   6
ENDBRANCH   4   5
ENDBRANCH   3   4
ENDBRANCH   2   3
ENDBRANCH   1   2
BRANCH   1  12
ATOM     12  C   UNL     1     -55.108  15.180 -28.246  1.00  0.00     0.000 C 
BRANCH  12  13
ATOM     13  C   UNL     1     -55.207  16.546 -28.947  1.00  0.00    -0.000 C 
BRANCH  13  14
ATOM     14  C   UNL     1     -54.824  16.543 -30.441  1.00  0.00    -0.000 C 
BRANCH  14  15
ATOM     15  C   UNL     1     -53.592  17.394 -30.800  1.00  0.00    -0.000 C 
BRANCH  15  16
ATOM     16  C   UNL     1     -52.516  16.599 -31.554  1.00  0.00    -0.000 C 
BRANCH  16  17
ATOM     17  C   UNL     1     -52.788  15.090 -31.467  1.00  0.00    -0.000 C 
BRANCH  17  18
ATOM     18  C   UNL     1     -51.651  14.322 -30.775  1.00  0.00    -0.000 C 
BRANCH  18  19
ATOM     19  C   UNL     1     -51.865  14.190 -29.259  1.00  0.00    -0.003 C 
ATOM     20  C   UNL     1     -50.880  13.194 -28.652  1.00  0.00     0.004 C 
ENDBRANCH  18  19
ENDBRANCH  17  18
ENDBRANCH  16  17
ENDBRANCH  15  16
ENDBRANCH  14  15
ENDBRANCH  13  14
ENDBRANCH  12  13
ENDBRANCH   1  12
TORSDOF 16
ENDMDL
MODEL 2
REMARK VINA RESULT:    -4.115     14.664     16.614
REMARK INTER + INTRA:         -10.614
REMARK INTER:                  -7.759
REMARK INTRA:                  -2.855
REMARK UNBOUND:                -2.651
REMARK SMILES CCCCCCCCCCCCCCCCCC(=O)[O-]
REMARK SMILES IDX 10 1 11 2 12 3 13 4 14 5 15 6 16 7 17 8 18 9 19 10 20 11
REMARK SMILES IDX 9 12 8 13 7 14 6 15 5 16 4 17 3 18 2 19 1 20
REMARK H PARENT
REMARK Flexibility Score: inf
ROOT
ATOM      1  C   UNL     1     -41.384  21.135 -28.760  1.00  0.00     0.000 C 
ENDROOT
BRANCH   1   2
ATOM      2  C   UNL     1     -40.509  20.643 -27.600  1.00  0.00     0.000 C 
BRANCH   2   3
ATOM      3  C   UNL     1     -39.107  21.270 -27.666  1.00  0.00     0.000 C 
BRANCH   3   4
ATOM      4  C   UNL     1     -38.040  20.410 -26.970  1.00  0.00     0.000 C 
BRANCH   4   5
ATOM      5  C   UNL     1     -36.617  20.728 -27.453  1.00  0.00     0.000 C 
BRANCH   5   6
ATOM      6  C   UNL     1     -36.491  20.513 -28.968  1.00  0.00     0.000 C 
BRANCH   6   7
ATOM      7  C   UNL     1     -37.098  19.177 -29.436  1.00  0.00     0.006 C 
BRANCH   7   8
ATOM      8  C   UNL     1     -38.294  19.325 -30.389  1.00  0.00     0.053 C 
BRANCH   8   9
ATOM      9  C   UNL     1     -39.371  18.324 -30.101  1.00  0.00     0.041 C 
ATOM     10  O   UNL     1     -39.166  17.391 -29.281  1.00  0.00    -0.550 OA
ATOM     11  O   UNL     1     -40.588  18.400 -30.766  1.00  0.00    -0.550 OA
ENDBRANCH   8   9
ENDBRANCH   7   8
ENDBRANCH   6   7
ENDBRANCH   5   6
ENDBRANCH   4   5
ENDBRANCH   3   4
ENDBRANCH   2   3
ENDBRANCH   1   2
BRANCH   1  12
ATOM     12  C   UNL     1     -41.408  22.669 -28.818  1.00  0.00     0.000 C 
BRANCH  12  13
ATOM     13  C   UNL     1     -41.140  23.217 -30.231  1.00  0.00    -0.000 C 
BRANCH  13  14
ATOM     14  C   UNL     1     -40.348  22.274 -31.160  1.00  0.00    -0.000 C 
BRANCH  14  15
ATOM     15  C   UNL     1     -39.125  22.909 -31.846  1.00  0.00    -0.000 C 
BRANCH  15  16
ATOM     16  C   UNL     1     -37.880  22.930 -30.947  1.00  0.00    -0.000 C 
BRANCH  16  17
ATOM     17  C   UNL     1     -37.706  24.304 -30.284  1.00  0.00    -0.000 C 
BRANCH  17  18
ATOM     18  C   UNL     1     -36.613  24.307 -29.204  1.00  0.00    -0.000 C 
BRANCH  18  19
ATOM     19  C   UNL     1     -37.182  24.460 -27.786  1.00  0.00    -0.003 C 
ATOM     20  C   UNL     1     -38.614  24.986 -27.824  1.00  0.00     0.004 C 
ENDBRANCH  18  19
ENDBRANCH  17  18
ENDBRANCH  16  17
ENDBRANCH  15  16
ENDBRANCH  14  15
ENDBRANCH  13  14
ENDBRANCH  12  13
ENDBRANCH   1  12
TORSDOF 16
ENDMDL
MODEL 3
REMARK VINA RESULT:    -4.108     15.501     17.640
REMARK INTER + INTRA:         -10.601
REMARK INTER:                  -8.231
REMARK INTRA:                  -2.371
REMARK UNBOUND:                -2.651
REMARK SMILES CCCCCCCCCCCCCCCCCC(=O)[O-]
REMARK SMILES IDX 10 1 11 2 12 3 13 4 14 5 15 6 16 7 17 8 18 9 19 10 20 11
REMARK SMILES IDX 9 12 8 13 7 14 6 15 5 16 4 17 3 18 2 19 1 20
REMARK H PARENT
REMARK Flexibility Score: inf
ROOT
ATOM      1  C   UNL     1     -41.981  22.104 -28.498  1.00  0.00     0.000 C 
ENDROOT
BRANCH   1   2
ATOM      2  C   UNL     1     -41.432  23.263 -29.338  1.00  0.00     0.000 C 
BRANCH   2   3
ATOM      3  C   UNL     1     -40.600  24.223 -28.474  1.00  0.00     0.000 C 
BRANCH   3   4
ATOM      4  C   UNL     1     -39.088  23.967 -28.592  1.00  0.00     0.000 C 
BRANCH   4   5
ATOM      5  C   UNL     1     -38.529  24.353 -29.969  1.00  0.00     0.000 C 
BRANCH   5   6
ATOM      6  C   UNL     1     -37.082  23.864 -30.130  1.00  0.00     0.000 C 
BRANCH   6   7
ATOM      7  C   UNL     1     -36.699  23.603 -31.599  1.00  0.00     0.006 C 
BRANCH   7   8
ATOM      8  C   UNL     1     -37.888  23.601 -32.573  1.00  0.00     0.053 C 
BRANCH   8   9
ATOM      9  C   UNL     1     -37.544  24.239 -33.884  1.00  0.00     0.041 C 
ATOM     10  O   UNL     1     -38.211  23.966 -34.916  1.00  0.00    -0.550 OA
ATOM     11  O   UNL     1     -36.464  25.108 -33.973  1.00  0.00    -0.550 OA
ENDBRANCH   8   9
ENDBRANCH   7   8
ENDBRANCH   6   7
ENDBRANCH   5   6
ENDBRANCH   4   5
ENDBRANCH   3   4
ENDBRANCH   2   3
ENDBRANCH   1   2
BRANCH   1  12
ATOM     12  C   UNL     1     -40.953  20.969 -28.389  1.00  0.00     0.000 C 
BRANCH  12  13
ATOM     13  C   UNL     1     -41.036  19.973 -29.560  1.00  0.00    -0.000 C 
BRANCH  13  14
ATOM     14  C   UNL     1     -40.109  20.284 -30.752  1.00  0.00    -0.000 C 
BRANCH  14  15
ATOM     15  C   UNL     1     -38.680  20.712 -30.372  1.00  0.00    -0.000 C 
BRANCH  15  16
ATOM     16  C   UNL     1     -37.828  19.549 -29.843  1.00  0.00    -0.000 C 
BRANCH  16  17
ATOM     17  C   UNL     1     -36.826  20.040 -28.787  1.00  0.00    -0.000 C 
BRANCH  17  18
ATOM     18  C   UNL     1     -37.515  20.556 -27.513  1.00  0.00    -0.000 C 
BRANCH  18  19
ATOM     19  C   UNL     1     -36.706  21.655 -26.808  1.00  0.00    -0.003 C 
ATOM     20  C   UNL     1     -36.392  21.266 -25.367  1.00  0.00     0.004 C 
ENDBRANCH  18  19
ENDBRANCH  17  18
ENDBRANCH  16  17
ENDBRANCH  15  16
ENDBRANCH  14  15
ENDBRANCH  13  14
ENDBRANCH  12  13
ENDBRANCH   1  12
TORSDOF 16
ENDMDL
MODEL 4
REMARK VINA RESULT:    -4.088     15.457     17.870
REMARK INTER + INTRA:         -10.563
REMARK INTER:                  -7.700
REMARK INTRA:                  -2.863
REMARK UNBOUND:                -2.651
REMARK SMILES CCCCCCCCCCCCCCCCCC(=O)[O-]
REMARK SMILES IDX 10 1 11 2 12 3 13 4 14 5 15 6 16 7 17 8 18 9 19 10 20 11
REMARK SMILES IDX 9 12 8 13 7 14 6 15 5 16 4 17 3 18 2 19 1 20
REMARK H PARENT
REMARK Flexibility Score: inf
ROOT
ATOM      1  C   UNL     1     -37.170  24.158 -27.740  1.00  0.00     0.000 C 
ENDROOT
BRANCH   1   2
ATOM      2  C   UNL     1     -36.742  24.494 -29.174  1.00  0.00     0.000 C 
BRANCH   2   3
ATOM      3  C   UNL     1     -36.050  23.293 -29.837  1.00  0.00     0.000 C 
BRANCH   3   4
ATOM      4  C   UNL     1     -36.743  22.851 -31.136  1.00  0.00     0.000 C 
BRANCH   4   5
ATOM      5  C   UNL     1     -38.025  23.648 -31.422  1.00  0.00     0.000 C 
BRANCH   5   6
ATOM      6  C   UNL     1     -39.149  22.723 -31.908  1.00  0.00     0.000 C 
BRANCH   6   7
ATOM      7  C   UNL     1     -40.351  22.683 -30.945  1.00  0.00     0.006 C 
BRANCH   7   8
ATOM      8  C   UNL     1     -40.089  23.340 -29.580  1.00  0.00     0.053 C 
BRANCH   8   9
ATOM      9  C   UNL     1     -41.339  23.456 -28.762  1.00  0.00     0.041 C 
ATOM     10  O   UNL     1     -41.579  24.511 -28.119  1.00  0.00    -0.550 OA
ATOM     11  O   UNL     1     -42.221  22.386 -28.682  1.00  0.00    -0.550 OA
ENDBRANCH   8   9
ENDBRANCH   7   8
ENDBRANCH   6   7
ENDBRANCH   5   6
ENDBRANCH   4   5
ENDBRANCH   3   4
ENDBRANCH   2   3
ENDBRANCH   1   2
BRANCH   1  12
ATOM     12  C   UNL     1     -35.951  23.834 -26.865  1.00  0.00     0.000 C 
BRANCH  12  13
ATOM     13  C   UNL     1     -36.162  22.590 -25.983  1.00  0.00    -0.000 C 
BRANCH  13  14
ATOM     14  C   UNL     1     -36.429  21.280 -26.751  1.00  0.00    -0.000 C 
BRANCH  14  15
ATOM     15  C   UNL     1     -37.792  20.623 -26.467  1.00  0.00    -0.000 C 
BRANCH  15  16
ATOM     16  C   UNL     1     -38.624  20.398 -27.738  1.00  0.00    -0.000 C 
BRANCH  16  17
ATOM     17  C   UNL     1     -37.725  19.996 -28.917  1.00  0.00    -0.000 C 
BRANCH  17  18
ATOM     18  C   UNL     1     -38.525  19.471 -30.119  1.00  0.00    -0.000 C 
BRANCH  18  19
ATOM     19  C   UNL     1     -39.991  19.173 -29.769  1.00  0.00    -0.003 C 
ATOM     20  C   UNL     1     -40.807  18.881 -31.025  1.00  0.00     0.004 C 
ENDBRANCH  18  19
ENDBRANCH  17  18
ENDBRANCH  16  17
ENDBRANCH  15  16
ENDBRANCH  14  15
ENDBRANCH  13  14
ENDBRANCH  12  13
ENDBRANCH   1  12
TORSDOF 16
ENDMDL
MODEL 5
REMARK VINA RESULT:    -4.077      3.375      6.981
REMARK INTER + INTRA:         -10.540
REMARK INTER:                  -8.324
REMARK INTRA:                  -2.216
REMARK UNBOUND:                -2.651
REMARK SMILES CCCCCCCCCCCCCCCCCC(=O)[O-]
REMARK SMILES IDX 10 1 11 2 12 3 13 4 14 5 15 6 16 7 17 8 18 9 19 10 20 11
REMARK SMILES IDX 9 12 8 13 7 14 6 15 5 16 4 17 3 18 2 19 1 20
REMARK H PARENT
REMARK Flexibility Score: inf
ROOT
ATOM      1  C   UNL     1     -50.345  11.000 -29.614  1.00  0.00     0.000 C 
ENDROOT
BRANCH   1   2
ATOM      2  C   UNL     1     -50.155  12.225 -28.711  1.00  0.00     0.000 C 
BRANCH   2   3
ATOM      3  C   UNL     1     -51.444  13.059 -28.640  1.00  0.00     0.000 C 
BRANCH   3   4
ATOM      4  C   UNL     1     -51.408  14.286 -29.566  1.00  0.00     0.000 C 
BRANCH   4   5
ATOM      5  C   UNL     1     -52.034  14.008 -30.941  1.00  0.00     0.000 C 
BRANCH   5   6
ATOM      6  C   UNL     1     -53.336  14.801 -31.122  1.00  0.00     0.000 C 
BRANCH   6   7
ATOM      7  C   UNL     1     -53.158  16.309 -30.862  1.00  0.00     0.006 C 
BRANCH   7   8
ATOM      8  C   UNL     1     -54.194  16.912 -29.901  1.00  0.00     0.053 C 
BRANCH   8   9
ATOM      9  C   UNL     1     -53.984  18.381 -29.695  1.00  0.00     0.041 C 
ATOM     10  O   UNL     1     -53.117  18.997 -30.368  1.00  0.00    -0.550 OA
ATOM     11  O   UNL     1     -54.722  19.062 -28.734  1.00  0.00    -0.550 OA
ENDBRANCH   8   9
ENDBRANCH   7   8
ENDBRANCH   6   7
ENDBRANCH   5   6
ENDBRANCH   4   5
ENDBRANCH   3   4
ENDBRANCH   2   3
ENDBRANCH   1   2
BRANCH   1  12
ATOM     12  C   UNL     1     -48.990  10.425 -30.051  1.00  0.00     0.000 C 
BRANCH  12  13
ATOM     13  C   UNL     1     -49.040   9.768 -31.442  1.00  0.00    -0.000 C 
BRANCH  13  14
ATOM     14  C   UNL     1     -50.252  10.164 -32.310  1.00  0.00    -0.000 C 
BRANCH  14  15
ATOM     15  C   UNL     1     -51.119   8.988 -32.795  1.00  0.00    -0.000 C 
BRANCH  15  16
ATOM     16  C   UNL     1     -52.625   9.275 -32.697  1.00  0.00    -0.000 C 
BRANCH  16  17
ATOM     17  C   UNL     1     -52.879  10.737 -32.302  1.00  0.00    -0.000 C 
BRANCH  17  18
ATOM     18  C   UNL     1     -54.189  10.919 -31.519  1.00  0.00    -0.000 C 
BRANCH  18  19
ATOM     19  C   UNL     1     -53.997  10.771 -30.002  1.00  0.00    -0.003 C 
ATOM     20  C   UNL     1     -54.845  11.785 -29.240  1.00  0.00     0.004 C 
ENDBRANCH  18  19
ENDBRANCH  17  18
ENDBRANCH  16  17
ENDBRANCH  15  16
ENDBRANCH  14  15
ENDBRANCH  13  14
ENDBRANCH  12  13
ENDBRANCH   1  12
TORSDOF 16
ENDMDL
MODEL 6
REMARK VINA RESULT:    -4.048      2.142      4.233
REMARK INTER + INTRA:         -10.485
REMARK INTER:                  -8.162
REMARK INTRA:                  -2.324
REMARK UNBOUND:                -2.651
REMARK SMILES CCCCCCCCCCCCCCCCCC(=O)[O-]
REMARK SMILES IDX 10 1 11 2 12 3 13 4 14 5 15 6 16 7 17 8 18 9 19 10 20 11
REMARK SMILES IDX 9 12 8 13 7 14 6 15 5 16 4 17 3 18 2 19 1 20
REMARK H PARENT
REMARK Flexibility Score: inf
ROOT
ATOM      1  C   UNL     1     -51.501  12.936 -28.686  1.00  0.00     0.000 C 
ENDROOT
BRANCH   1   2
ATOM      2  C   UNL     1     -50.117  12.276 -28.693  1.00  0.00     0.000 C 
BRANCH   2   3
ATOM      3  C   UNL     1     -50.199  10.835 -29.220  1.00  0.00     0.000 C 
BRANCH   3   4
ATOM      4  C   UNL     1     -48.860  10.332 -29.784  1.00  0.00     0.000 C 
BRANCH   4   5
ATOM      5  C   UNL     1     -48.997   9.739 -31.194  1.00  0.00     0.000 C 
BRANCH   5   6
ATOM      6  C   UNL     1     -50.240  10.294 -31.905  1.00  0.00     0.000 C 
BRANCH   6   7
ATOM      7  C   UNL     1     -51.194   9.187 -32.392  1.00  0.00     0.006 C 
BRANCH   7   8
ATOM      8  C   UNL     1     -52.466   9.029 -31.545  1.00  0.00     0.053 C 
BRANCH   8   9
ATOM      9  C   UNL     1     -53.664   9.639 -32.207  1.00  0.00     0.041 C 
ATOM     10  O   UNL     1     -53.570  10.755 -32.781  1.00  0.00    -0.550 OA
ATOM     11  O   UNL     1     -54.891   8.990 -32.159  1.00  0.00    -0.550 OA
ENDBRANCH   8   9
ENDBRANCH   7   8
ENDBRANCH   6   7
ENDBRANCH   5   6
ENDBRANCH   4   5
ENDBRANCH   3   4
ENDBRANCH   2   3
ENDBRANCH   1   2
BRANCH   1  12
ATOM     12  C   UNL     1     -52.316  12.519 -29.919  1.00  0.00     0.000 C 
BRANCH  12  13
ATOM     13  C   UNL     1     -52.135  13.480 -31.108  1.00  0.00    -0.000 C 
BRANCH  13  14
ATOM     14  C   UNL     1     -51.769  14.929 -30.728  1.00  0.00    -0.000 C 
BRANCH  14  15
ATOM     15  C   UNL     1     -52.328  16.011 -31.669  1.00  0.00    -0.000 C 
BRANCH  15  16
ATOM     16  C   UNL     1     -53.328  16.948 -30.975  1.00  0.00    -0.000 C 
BRANCH  16  17
ATOM     17  C   UNL     1     -54.056  16.223 -29.833  1.00  0.00    -0.000 C 
BRANCH  17  18
ATOM     18  C   UNL     1     -55.312  15.477 -30.312  1.00  0.00    -0.000 C 
BRANCH  18  19
ATOM     19  C   UNL     1     -55.946  14.618 -29.207  1.00  0.00    -0.003 C 
ATOM     20  C   UNL     1     -54.950  14.349 -28.082  1.00  0.00     0.004 C 
ENDBRANCH  18  19
ENDBRANCH  17  18
ENDBRANCH  16  17
ENDBRANCH  15  16
ENDBRANCH  14  15
ENDBRANCH  13  14
ENDBRANCH  12  13
ENDBRANCH   1  12
TORSDOF 16
ENDMDL
MODEL 7
REMARK VINA RESULT:    -4.035      1.196      3.337
REMARK INTER + INTRA:         -10.461
REMARK INTER:                  -7.713
REMARK INTRA:                  -2.748
REMARK UNBOUND:                -2.651
REMARK SMILES CCCCCCCCCCCCCCCCCC(=O)[O-]
REMARK SMILES IDX 10 1 11 2 12 3 13 4 14 5 15 6 16 7 17 8 18 9 19 10 20 11
REMARK SMILES IDX 9 12 8 13 7 14 6 15 5 16 4 17 3 18 2 19 1 20
REMARK H PARENT
REMARK Flexibility Score: inf
ROOT
ATOM      1  C   UNL     1     -52.608  14.411 -29.626  1.00  0.00     0.000 C 
ENDROOT
BRANCH   1   2
ATOM      2  C   UNL     1     -52.253  13.971 -31.052  1.00  0.00     0.000 C 
BRANCH   2   3
ATOM      3  C   UNL     1     -53.518  13.609 -31.846  1.00  0.00     0.000 C 
BRANCH   3   4
ATOM      4  C   UNL     1     -53.558  12.127 -32.254  1.00  0.00     0.000 C 
BRANCH   4   5
ATOM      5  C   UNL     1     -54.480  11.290 -31.354  1.00  0.00     0.000 C 
BRANCH   5   6
ATOM      6  C   UNL     1     -53.702  10.149 -30.683  1.00  0.00     0.000 C 
BRANCH   6   7
ATOM      7  C   UNL     1     -52.191  10.199 -30.980  1.00  0.00     0.006 C 
BRANCH   7   8
ATOM      8  C   UNL     1     -51.297   9.944 -29.756  1.00  0.00     0.053 C 
BRANCH   8   9
ATOM      9  C   UNL     1     -49.942  10.565 -29.910  1.00  0.00     0.041 C 
ATOM     10  O   UNL     1     -49.110  10.078 -30.719  1.00  0.00    -0.550 OA
ATOM     11  O   UNL     1     -49.587  11.660 -29.132  1.00  0.00    -0.550 OA
ENDBRANCH   8   9
ENDBRANCH   7   8
ENDBRANCH   6   7
ENDBRANCH   5   6
ENDBRANCH   4   5
ENDBRANCH   3   4
ENDBRANCH   2   3
ENDBRANCH   1   2
BRANCH   1  12
ATOM     12  C   UNL     1     -52.699  13.201 -28.685  1.00  0.00     0.000 C 
BRANCH  12  13
ATOM     13  C   UNL     1     -54.106  13.014 -28.089  1.00  0.00    -0.000 C 
BRANCH  13  14
ATOM     14  C   UNL     1     -55.200  13.913 -28.698  1.00  0.00    -0.000 C 
BRANCH  14  15
ATOM     15  C   UNL     1     -55.735  15.013 -27.763  1.00  0.00    -0.000 C 
BRANCH  15  16
ATOM     16  C   UNL     1     -55.738  16.404 -28.416  1.00  0.00    -0.000 C 
BRANCH  16  17
ATOM     17  C   UNL     1     -55.770  16.289 -29.947  1.00  0.00    -0.000 C 
BRANCH  17  18
ATOM     18  C   UNL     1     -54.817  17.280 -30.634  1.00  0.00    -0.000 C 
BRANCH  18  19
ATOM     19  C   UNL     1     -54.226  18.307 -29.656  1.00  0.00    -0.003 C 
ATOM     20  C   UNL     1     -53.449  19.389 -30.400  1.00  0.00     0.004 C 
ENDBRANCH  18  19
ENDBRANCH  17  18
ENDBRANCH  16  17
ENDBRANCH  15  16
ENDBRANCH  14  15
ENDBRANCH  13  14
ENDBRANCH  12  13
ENDBRANCH   1  12
TORSDOF 16
ENDMDL
MODEL 8
REMARK VINA RESULT:    -4.002      1.594      3.783
REMARK INTER + INTRA:         -10.396
REMARK INTER:                  -8.206
REMARK INTRA:                  -2.190
REMARK UNBOUND:                -2.651
REMARK SMILES CCCCCCCCCCCCCCCCCC(=O)[O-]
REMARK SMILES IDX 10 1 11 2 12 3 13 4 14 5 15 6 16 7 17 8 18 9 19 10 20 11
REMARK SMILES IDX 9 12 8 13 7 14 6 15 5 16 4 17 3 18 2 19 1 20
REMARK H PARENT
REMARK Flexibility Score: inf
ROOT
ATOM      1  C   UNL     1     -53.953  11.549 -31.939  1.00  0.00     0.000 C 
ENDROOT
BRANCH   1   2
ATOM      2  C   UNL     1     -52.891  10.562 -32.438  1.00  0.00     0.000 C 
BRANCH   2   3
ATOM      3  C   UNL     1     -53.226   9.127 -32.001  1.00  0.00     0.000 C 
BRANCH   3   4
ATOM      4  C   UNL     1     -52.217   8.095 -32.531  1.00  0.00     0.000 C 
BRANCH   4   5
ATOM      5  C   UNL     1     -50.919   8.742 -33.037  1.00  0.00     0.000 C 
BRANCH   5   6
ATOM      6  C   UNL     1     -49.697   7.903 -32.640  1.00  0.00     0.000 C 
BRANCH   6   7
ATOM      7  C   UNL     1     -49.171   8.240 -31.232  1.00  0.00     0.006 C 
BRANCH   7   8
ATOM      8  C   UNL     1     -48.992   9.743 -30.966  1.00  0.00     0.053 C 
BRANCH   8   9
ATOM      9  C   UNL     1     -49.859  10.224 -29.843  1.00  0.00     0.041 C 
ATOM     10  O   UNL     1     -50.819   9.517 -29.436  1.00  0.00    -0.550 OA
ATOM     11  O   UNL     1     -49.629  11.467 -29.269  1.00  0.00    -0.550 OA
ENDBRANCH   8   9
ENDBRANCH   7   8
ENDBRANCH   6   7
ENDBRANCH   5   6
ENDBRANCH   4   5
ENDBRANCH   3   4
ENDBRANCH   2   3
ENDBRANCH   1   2
BRANCH   1  12
ATOM     12  C   UNL     1     -54.980  10.844 -31.042  1.00  0.00     0.000 C 
BRANCH  12  13
ATOM     13  C   UNL     1     -54.862  11.251 -29.563  1.00  0.00    -0.000 C 
BRANCH  13  14
ATOM     14  C   UNL     1     -55.242  12.714 -29.254  1.00  0.00    -0.000 C 
BRANCH  14  15
ATOM     15  C   UNL     1     -54.230  13.481 -28.384  1.00  0.00    -0.000 C 
BRANCH  15  16
ATOM     16  C   UNL     1     -52.777  13.049 -28.635  1.00  0.00    -0.000 C 
BRANCH  16  17
ATOM     17  C   UNL     1     -51.956  14.207 -29.222  1.00  0.00    -0.000 C 
BRANCH  17  18
ATOM     18  C   UNL     1     -51.826  14.125 -30.751  1.00  0.00    -0.000 C 
BRANCH  18  19
ATOM     19  C   UNL     1     -52.835  15.026 -31.479  1.00  0.00    -0.003 C 
ATOM     20  C   UNL     1     -52.377  16.482 -31.468  1.00  0.00     0.004 C 
ENDBRANCH  18  19
ENDBRANCH  17  18
ENDBRANCH  16  17
ENDBRANCH  15  16
ENDBRANCH  14  15
ENDBRANCH  13  14
ENDBRANCH  12  13
ENDBRANCH   1  12
TORSDOF 16
ENDMDL
MODEL 9
REMARK VINA RESULT:    -3.959      1.307      2.244
REMARK INTER + INTRA:         -10.313
REMARK INTER:                  -7.865
REMARK INTRA:                  -2.448
REMARK UNBOUND:                -2.651
REMARK SMILES CCCCCCCCCCCCCCCCCC(=O)[O-]
REMARK SMILES IDX 10 1 11 2 12 3 13 4 14 5 15 6 16 7 17 8 18 9 19 10 20 11
REMARK SMILES IDX 9 12 8 13 7 14 6 15 5 16 4 17 3 18 2 19 1 20
REMARK H PARENT
REMARK Flexibility Score: inf
ROOT
ATOM      1  C   UNL     1     -54.980  16.585 -27.647  1.00  0.00     0.000 C 
ENDROOT
BRANCH   1   2
ATOM      2  C   UNL     1     -55.858  15.338 -27.809  1.00  0.00     0.000 C 
BRANCH   2   3
ATOM      3  C   UNL     1     -55.010  14.116 -28.195  1.00  0.00     0.000 C 
BRANCH   3   4
ATOM      4  C   UNL     1     -55.702  13.218 -29.233  1.00  0.00     0.000 C 
BRANCH   4   5
ATOM      5  C   UNL     1     -54.915  11.931 -29.521  1.00  0.00     0.000 C 
BRANCH   5   6
ATOM      6  C   UNL     1     -54.727  11.729 -31.032  1.00  0.00     0.000 C 
BRANCH   6   7
ATOM      7  C   UNL     1     -53.995  10.418 -31.374  1.00  0.00     0.006 C 
BRANCH   7   8
ATOM      8  C   UNL     1     -52.709  10.181 -30.567  1.00  0.00     0.053 C 
BRANCH   8   9
ATOM      9  C   UNL     1     -51.529   9.918 -31.452  1.00  0.00     0.041 C 
ATOM     10  O   UNL     1     -51.083   8.748 -31.581  1.00  0.00    -0.550 OA
ATOM     11  O   UNL     1     -50.901  10.970 -32.106  1.00  0.00    -0.550 OA
ENDBRANCH   8   9
ENDBRANCH   7   8
ENDBRANCH   6   7
ENDBRANCH   5   6
ENDBRANCH   4   5
ENDBRANCH   3   4
ENDBRANCH   2   3
ENDBRANCH   1   2
BRANCH   1  12
ATOM     12  C   UNL     1     -55.363  17.663 -28.670  1.00  0.00     0.000 C 
BRANCH  12  13
ATOM     13  C   UNL     1     -54.263  18.721 -28.864  1.00  0.00    -0.000 C 
BRANCH  13  14
ATOM     14  C   UNL     1     -53.632  18.759 -30.271  1.00  0.00    -0.000 C 
BRANCH  14  15
ATOM     15  C   UNL     1     -53.849  17.491 -31.117  1.00  0.00    -0.000 C 
BRANCH  15  16
ATOM     16  C   UNL     1     -52.626  16.562 -31.127  1.00  0.00    -0.000 C 
BRANCH  16  17
ATOM     17  C   UNL     1     -53.055  15.095 -31.284  1.00  0.00    -0.000 C 
BRANCH  17  18
ATOM     18  C   UNL     1     -51.975  14.109 -30.810  1.00  0.00    -0.000 C 
BRANCH  18  19
ATOM     19  C   UNL     1     -51.602  14.306 -29.333  1.00  0.00    -0.003 C 
ATOM     20  C   UNL     1     -51.264  12.974 -28.670  1.00  0.00     0.004 C 
ENDBRANCH  18  19
ENDBRANCH  17  18
ENDBRANCH  16  17
ENDBRANCH  15  16
ENDBRANCH  14  15
ENDBRANCH  13  14
ENDBRANCH  12  13
ENDBRANCH   1  12
TORSDOF 16
ENDMDL
