MODEL 1
REMARK VINA RESULT:    -4.356      0.000      0.000
REMARK INTER + INTRA:          -8.476
REMARK INTER:                  -6.903
REMARK INTRA:                  -1.573
REMARK UNBOUND:                -1.573
REMARK SMILES CCCCCCCCCCCC(=O)[O-]
REMARK SMILES IDX 7 1 8 2 9 3 10 4 11 5 12 6 13 7 14 8 6 9 5 10 4 11 3 12 2 13
REMARK SMILES IDX 1 14
REMARK H PARENT
REMARK Flexibility Score: inf
ROOT
ATOM      1  C   UNL     1      37.090   6.663  10.189  1.00  0.00     0.000 C 
ENDROOT
BRANCH   1   2
ATOM      2  C   UNL     1      36.284   7.501  11.193  1.00  0.00     0.000 C 
BRANCH   2   3
ATOM      3  C   UNL     1      35.560   6.598  12.203  1.00  0.00     0.000 C 
BRANCH   3   4
ATOM      4  C   UNL     1      34.044   6.847  12.240  1.00  0.00     0.006 C 
BRANCH   4   5
ATOM      5  C   UNL     1      33.686   8.335  12.127  1.00  0.00     0.053 C 
BRANCH   5   6
ATOM      6  C   UNL     1      32.209   8.528  12.270  1.00  0.00     0.041 C 
ATOM      7  O   UNL     1      31.720   9.688  12.288  1.00  0.00    -0.550 OA
ATOM      8  O   UNL     1      31.366   7.426  12.336  1.00  0.00    -0.550 OA
ENDBRANCH   5   6
ENDBRANCH   4   5
ENDBRANCH   3   4
ENDBRANCH   2   3
ENDBRANCH   1   2
BRANCH   1   9
ATOM      9  C   UNL     1      36.752   5.164  10.260  1.00  0.00     0.000 C 
BRANCH   9  10
ATOM     10  C   UNL     1      35.926   4.688   9.054  1.00  0.00    -0.000 C 
BRANCH  10  11
ATOM     11  C   UNL     1      34.498   4.256   9.438  1.00  0.00    -0.000 C 
BRANCH  11  12
ATOM     12  C   UNL     1      33.381   5.214   8.983  1.00  0.00    -0.000 C 
BRANCH  12  13
ATOM     13  C   UNL     1      33.856   6.235   7.939  1.00  0.00    -0.003 C 
ATOM     14  C   UNL     1      33.813   7.654   8.498  1.00  0.00     0.004 C 
ENDBRANCH  12  13
ENDBRANCH  11  12
ENDBRANCH  10  11
ENDBRANCH   9  10
ENDBRANCH   1   9
TORSDOF 10
ENDMDL
MODEL 2
REMARK VINA RESULT:    -4.286      2.579      4.851
REMARK INTER + INTRA:          -8.364
REMARK INTER:                  -6.897
REMARK INTRA:                  -1.467
REMARK UNBOUND:                -1.573
REMARK SMILES CCCCCCCCCCCC(=O)[O-]
REMARK SMILES IDX 7 1 8 2 9 3 10 4 11 5 12 6 13 7 14 8 6 9 5 10 4 11 3 12 2 13
REMARK SMILES IDX 1 14
REMARK H PARENT
REMARK Flexibility Score: inf
ROOT
ATOM      1  C   UNL     1      32.057   5.294  11.780  1.00  0.00     0.000 C 
ENDROOT
BRANCH   1   2
ATOM      2  C   UNL     1      33.219   4.333  12.074  1.00  0.00     0.000 C 
BRANCH   2   3
ATOM      3  C   UNL     1      33.865   3.840  10.771  1.00  0.00     0.000 C 
BRANCH   3   4
ATOM      4  C   UNL     1      33.197   4.427   9.518  1.00  0.00     0.006 C 
BRANCH   4   5
ATOM      5  C   UNL     1      34.215   4.894   8.469  1.00  0.00     0.053 C 
BRANCH   5   6
ATOM      6  C   UNL     1      33.611   5.940   7.586  1.00  0.00     0.041 C 
ATOM      7  O   UNL     1      33.744   7.160   7.866  1.00  0.00    -0.550 OA
ATOM      8  O   UNL     1      32.943   5.570   6.426  1.00  0.00    -0.550 OA
ENDBRANCH   5   6
ENDBRANCH   4   5
ENDBRANCH   3   4
ENDBRANCH   2   3
ENDBRANCH   1   2
BRANCH   1   9
ATOM      9  C   UNL     1      32.252   6.677  12.424  1.00  0.00     0.000 C 
BRANCH   9  10
ATOM     10  C   UNL     1      32.980   7.663  11.495  1.00  0.00    -0.000 C 
BRANCH  10  11
ATOM     11  C   UNL     1      34.438   7.921  11.920  1.00  0.00    -0.000 C 
BRANCH  11  12
ATOM     12  C   UNL     1      35.505   7.428  10.924  1.00  0.00    -0.000 C 
BRANCH  12  13
ATOM     13  C   UNL     1      36.483   6.420  11.543  1.00  0.00    -0.003 C 
ATOM     14  C   UNL     1      37.796   6.378  10.766  1.00  0.00     0.004 C 
ENDBRANCH  12  13
ENDBRANCH  11  12
ENDBRANCH  10  11
ENDBRANCH   9  10
ENDBRANCH   1   9
TORSDOF 10
ENDMDL
MODEL 3
REMARK VINA RESULT:    -4.282      1.932      4.357
REMARK INTER + INTRA:          -8.358
REMARK INTER:                  -6.946
REMARK INTRA:                  -1.412
REMARK UNBOUND:                -1.573
REMARK SMILES CCCCCCCCCCCC(=O)[O-]
REMARK SMILES IDX 7 1 8 2 9 3 10 4 11 5 12 6 13 7 14 8 6 9 5 10 4 11 3 12 2 13
REMARK SMILES IDX 1 14
REMARK H PARENT
REMARK Flexibility Score: inf
ROOT
ATOM      1  C   UNL     1      33.747   6.412   8.348  1.00  0.00     0.000 C 
ENDROOT
BRANCH   1   2
ATOM      2  C   UNL     1      34.950   5.473   8.170  1.00  0.00     0.000 C 
BRANCH   2   3
ATOM      3  C   UNL     1      34.965   4.390   9.259  1.00  0.00     0.000 C 
BRANCH   3   4
ATOM      4  C   UNL     1      33.553   3.953   9.680  1.00  0.00     0.006 C 
BRANCH   4   5
ATOM      5  C   UNL     1      33.551   3.116  10.966  1.00  0.00     0.053 C 
BRANCH   5   6
ATOM      6  C   UNL     1      33.073   3.937  12.122  1.00  0.00     0.041 C 
ATOM      7  O   UNL     1      32.149   4.776  11.964  1.00  0.00    -0.550 OA
ATOM      8  O   UNL     1      33.614   3.740  13.386  1.00  0.00    -0.550 OA
ENDBRANCH   5   6
ENDBRANCH   4   5
ENDBRANCH   3   4
ENDBRANCH   2   3
ENDBRANCH   1   2
BRANCH   1   9
ATOM      9  C   UNL     1      34.080   7.649   9.199  1.00  0.00     0.000 C 
BRANCH   9  10
ATOM     10  C   UNL     1      33.423   7.603  10.588  1.00  0.00    -0.000 C 
BRANCH  10  11
ATOM     11  C   UNL     1      34.449   7.576  11.736  1.00  0.00    -0.000 C 
BRANCH  11  12
ATOM     12  C   UNL     1      35.921   7.708  11.300  1.00  0.00    -0.000 C 
BRANCH  12  13
ATOM     13  C   UNL     1      36.746   6.446  11.585  1.00  0.00    -0.003 C 
ATOM     14  C   UNL     1      38.067   6.468  10.820  1.00  0.00     0.004 C 
ENDBRANCH  12  13
ENDBRANCH  11  12
ENDBRANCH  10  11
ENDBRANCH   9  10
ENDBRANCH   1   9
TORSDOF 10
ENDMDL
MODEL 4
REMARK VINA RESULT:    -4.247      2.709      4.409
REMARK INTER + INTRA:          -8.303
REMARK INTER:                  -6.802
REMARK INTRA:                  -1.501
REMARK UNBOUND:                -1.573
REMARK SMILES CCCCCCCCCCCC(=O)[O-]
REMARK SMILES IDX 7 1 8 2 9 3 10 4 11 5 12 6 13 7 14 8 6 9 5 10 4 11 3 12 2 13
REMARK SMILES IDX 1 14
REMARK H PARENT
REMARK Flexibility Score: inf
ROOT
ATOM      1  C   UNL     1      34.617   4.565   9.433  1.00  0.00     0.000 C 
ENDROOT
BRANCH   1   2
ATOM      2  C   UNL     1      33.088   4.441   9.351  1.00  0.00     0.000 C 
BRANCH   2   3
ATOM      3  C   UNL     1      32.478   4.260  10.749  1.00  0.00     0.000 C 
BRANCH   3   4
ATOM      4  C   UNL     1      33.530   3.917  11.815  1.00  0.00     0.006 C 
BRANCH   4   5
ATOM      5  C   UNL     1      33.199   4.520  13.187  1.00  0.00     0.053 C 
BRANCH   5   6
ATOM      6  C   UNL     1      33.905   3.768  14.272  1.00  0.00     0.041 C 
ATOM      7  O   UNL     1      33.697   2.537  14.428  1.00  0.00    -0.550 OA
ATOM      8  O   UNL     1      34.830   4.418  15.079  1.00  0.00    -0.550 OA
ENDBRANCH   5   6
ENDBRANCH   4   5
ENDBRANCH   3   4
ENDBRANCH   2   3
ENDBRANCH   1   2
BRANCH   1   9
ATOM      9  C   UNL     1      35.147   5.834   8.743  1.00  0.00     0.000 C 
BRANCH   9  10
ATOM     10  C   UNL     1      34.715   7.121   9.465  1.00  0.00    -0.000 C 
BRANCH  10  11
ATOM     11  C   UNL     1      35.308   7.242  10.882  1.00  0.00    -0.000 C 
BRANCH  11  12
ATOM     12  C   UNL     1      34.372   7.877  11.928  1.00  0.00    -0.000 C 
BRANCH  12  13
ATOM     13  C   UNL     1      32.908   7.930  11.469  1.00  0.00    -0.003 C 
ATOM     14  C   UNL     1      31.978   8.257  12.634  1.00  0.00     0.004 C 
ENDBRANCH  12  13
ENDBRANCH  11  12
ENDBRANCH  10  11
ENDBRANCH   9  10
ENDBRANCH   1   9
TORSDOF 10
ENDMDL
MODEL 5
REMARK VINA RESULT:    -4.183      2.362      4.860
REMARK INTER + INTRA:          -8.202
REMARK INTER:                  -6.935
REMARK INTRA:                  -1.267
REMARK UNBOUND:                -1.573
REMARK SMILES CCCCCCCCCCCC(=O)[O-]
REMARK SMILES IDX 7 1 8 2 9 3 10 4 11 5 12 6 13 7 14 8 6 9 5 10 4 11 3 12 2 13
REMARK SMILES IDX 1 14
REMARK H PARENT
REMARK Flexibility Score: inf
ROOT
ATOM      1  C   UNL     1      32.561   5.215  11.451  1.00  0.00     0.000 C 
ENDROOT
BRANCH   1   2
ATOM      2  C   UNL     1      32.884   3.736  11.190  1.00  0.00     0.000 C 
BRANCH   2   3
ATOM      3  C   UNL     1      33.489   3.546   9.792  1.00  0.00     0.000 C 
BRANCH   3   4
ATOM      4  C   UNL     1      34.798   4.329   9.600  1.00  0.00     0.006 C 
BRANCH   4   5
ATOM      5  C   UNL     1      34.950   4.890   8.180  1.00  0.00     0.053 C 
BRANCH   5   6
ATOM      6  C   UNL     1      33.844   5.852   7.878  1.00  0.00     0.041 C 
ATOM      7  O   UNL     1      32.984   5.574   7.001  1.00  0.00    -0.550 OA
ATOM      8  O   UNL     1      33.735   7.034   8.598  1.00  0.00    -0.550 OA
ENDBRANCH   5   6
ENDBRANCH   4   5
ENDBRANCH   3   4
ENDBRANCH   2   3
ENDBRANCH   1   2
BRANCH   1   9
ATOM      9  C   UNL     1      33.065   5.700  12.821  1.00  0.00     0.000 C 
BRANCH   9  10
ATOM     10  C   UNL     1      34.534   6.152  12.783  1.00  0.00    -0.000 C 
BRANCH  10  11
ATOM     11  C   UNL     1      34.736   7.473  12.018  1.00  0.00    -0.000 C 
BRANCH  11  12
ATOM     12  C   UNL     1      36.008   7.538  11.151  1.00  0.00    -0.000 C 
BRANCH  12  13
ATOM     13  C   UNL     1      37.000   6.408  11.458  1.00  0.00    -0.003 C 
ATOM     14  C   UNL     1      38.411   6.778  11.008  1.00  0.00     0.004 C 
ENDBRANCH  12  13
ENDBRANCH  11  12
ENDBRANCH  10  11
ENDBRANCH   9  10
ENDBRANCH   1   9
TORSDOF 10
ENDMDL
MODEL 6
REMARK VINA RESULT:    -4.179      1.547      2.624
REMARK INTER + INTRA:          -8.196
REMARK INTER:                  -6.879
REMARK INTRA:                  -1.316
REMARK UNBOUND:                -1.573
REMARK SMILES CCCCCCCCCCCC(=O)[O-]
REMARK SMILES IDX 7 1 8 2 9 3 10 4 11 5 12 6 13 7 14 8 6 9 5 10 4 11 3 12 2 13
REMARK SMILES IDX 1 14
REMARK H PARENT
REMARK Flexibility Score: inf
ROOT
ATOM      1  C   UNL     1      35.911   6.069   9.533  1.00  0.00     0.000 C 
ENDROOT
BRANCH   1   2
ATOM      2  C   UNL     1      36.388   6.382  10.960  1.00  0.00     0.000 C 
BRANCH   2   3
ATOM      3  C   UNL     1      35.838   7.734  11.437  1.00  0.00     0.000 C 
BRANCH   3   4
ATOM      4  C   UNL     1      34.488   7.604  12.159  1.00  0.00     0.006 C 
BRANCH   4   5
ATOM      5  C   UNL     1      33.317   8.142  11.326  1.00  0.00     0.053 C 
BRANCH   5   6
ATOM      6  C   UNL     1      32.314   8.815  12.209  1.00  0.00     0.041 C 
ATOM      7  O   UNL     1      32.027   8.324  13.332  1.00  0.00    -0.550 OA
ATOM      8  O   UNL     1      31.731  10.012  11.813  1.00  0.00    -0.550 OA
ENDBRANCH   5   6
ENDBRANCH   4   5
ENDBRANCH   3   4
ENDBRANCH   2   3
ENDBRANCH   1   2
BRANCH   1   9
ATOM      9  C   UNL     1      35.719   4.563   9.288  1.00  0.00     0.000 C 
BRANCH   9  10
ATOM     10  C   UNL     1      34.248   4.129   9.399  1.00  0.00    -0.000 C 
BRANCH  10  11
ATOM     11  C   UNL     1      33.798   3.907  10.855  1.00  0.00    -0.000 C 
BRANCH  11  12
ATOM     12  C   UNL     1      32.440   4.537  11.222  1.00  0.00    -0.000 C 
BRANCH  12  13
ATOM     13  C   UNL     1      32.255   4.724  12.734  1.00  0.00    -0.003 C 
ATOM     14  C   UNL     1      33.490   4.258  13.501  1.00  0.00     0.004 C 
ENDBRANCH  12  13
ENDBRANCH  11  12
ENDBRANCH  10  11
ENDBRANCH   9  10
ENDBRANCH   1   9
TORSDOF 10
ENDMDL
MODEL 7
REMARK VINA RESULT:    -4.174      2.586      4.989
REMARK INTER + INTRA:          -8.188
REMARK INTER:                  -7.252
REMARK INTRA:                  -0.935
REMARK UNBOUND:                -1.573
REMARK SMILES CCCCCCCCCCCC(=O)[O-]
REMARK SMILES IDX 7 1 8 2 9 3 10 4 11 5 12 6 13 7 14 8 6 9 5 10 4 11 3 12 2 13
REMARK SMILES IDX 1 14
REMARK H PARENT
REMARK Flexibility Score: inf
ROOT
ATOM      1  C   UNL     1      34.868   7.605  11.731  1.00  0.00     0.000 C 
ENDROOT
BRANCH   1   2
ATOM      2  C   UNL     1      35.262   7.310  10.275  1.00  0.00     0.000 C 
BRANCH   2   3
ATOM      3  C   UNL     1      34.067   7.518   9.332  1.00  0.00     0.000 C 
BRANCH   3   4
ATOM      4  C   UNL     1      34.001   6.463   8.217  1.00  0.00     0.006 C 
BRANCH   4   5
ATOM      5  C   UNL     1      34.696   5.150   8.603  1.00  0.00     0.053 C 
BRANCH   5   6
ATOM      6  C   UNL     1      33.698   4.165   9.124  1.00  0.00     0.041 C 
ATOM      7  O   UNL     1      33.994   3.413  10.089  1.00  0.00    -0.550 OA
ATOM      8  O   UNL     1      32.423   4.110   8.575  1.00  0.00    -0.550 OA
ENDBRANCH   5   6
ENDBRANCH   4   5
ENDBRANCH   3   4
ENDBRANCH   2   3
ENDBRANCH   1   2
BRANCH   1   9
ATOM      9  C   UNL     1      34.120   6.435  12.392  1.00  0.00     0.000 C 
BRANCH   9  10
ATOM     10  C   UNL     1      32.634   6.748  12.635  1.00  0.00    -0.000 C 
BRANCH  10  11
ATOM     11  C   UNL     1      32.381   8.228  12.976  1.00  0.00    -0.000 C 
BRANCH  11  12
ATOM     12  C   UNL     1      31.304   8.921  12.119  1.00  0.00    -0.000 C 
BRANCH  12  13
ATOM     13  C   UNL     1      31.521  10.435  11.992  1.00  0.00    -0.003 C 
ATOM     14  C   UNL     1      30.213  11.197  12.186  1.00  0.00     0.004 C 
ENDBRANCH  12  13
ENDBRANCH  11  12
ENDBRANCH  10  11
ENDBRANCH   9  10
ENDBRANCH   1   9
TORSDOF 10
ENDMDL
MODEL 8
REMARK VINA RESULT:    -4.156      2.802      4.655
REMARK INTER + INTRA:          -8.159
REMARK INTER:                  -6.553
REMARK INTRA:                  -1.606
REMARK UNBOUND:                -1.573
REMARK SMILES CCCCCCCCCCCC(=O)[O-]
REMARK SMILES IDX 7 1 8 2 9 3 10 4 11 5 12 6 13 7 14 8 6 9 5 10 4 11 3 12 2 13
REMARK SMILES IDX 1 14
REMARK H PARENT
REMARK Flexibility Score: inf
ROOT
ATOM      1  C   UNL     1      35.852   6.920  11.499  1.00  0.00     0.000 C 
ENDROOT
BRANCH   1   2
ATOM      2  C   UNL     1      35.902   6.616   9.994  1.00  0.00     0.000 C 
BRANCH   2   3
ATOM      3  C   UNL     1      36.055   5.108   9.745  1.00  0.00     0.000 C 
BRANCH   3   4
ATOM      4  C   UNL     1      34.969   4.548   8.813  1.00  0.00     0.006 C 
BRANCH   4   5
ATOM      5  C   UNL     1      34.231   5.647   8.037  1.00  0.00     0.053 C 
BRANCH   5   6
ATOM      6  C   UNL     1      33.054   5.074   7.312  1.00  0.00     0.041 C 
ATOM      7  O   UNL     1      32.266   4.291   7.904  1.00  0.00    -0.550 OA
ATOM      8  O   UNL     1      32.800   5.442   5.998  1.00  0.00    -0.550 OA
ENDBRANCH   5   6
ENDBRANCH   4   5
ENDBRANCH   3   4
ENDBRANCH   2   3
ENDBRANCH   1   2
BRANCH   1   9
ATOM      9  C   UNL     1      34.719   7.892  11.871  1.00  0.00     0.000 C 
BRANCH   9  10
ATOM     10  C   UNL     1      33.380   7.515  11.215  1.00  0.00    -0.000 C 
BRANCH  10  11
ATOM     11  C   UNL     1      32.578   6.488  12.036  1.00  0.00    -0.000 C 
BRANCH  11  12
ATOM     12  C   UNL     1      32.505   5.077  11.423  1.00  0.00    -0.000 C 
BRANCH  12  13
ATOM     13  C   UNL     1      33.136   4.002  12.319  1.00  0.00    -0.003 C 
ATOM     14  C   UNL     1      33.758   4.621  13.567  1.00  0.00     0.004 C 
ENDBRANCH  12  13
ENDBRANCH  11  12
ENDBRANCH  10  11
ENDBRANCH   9  10
ENDBRANCH   1   9
TORSDOF 10
ENDMDL
MODEL 9
REMARK VINA RESULT:    -4.153      2.916      4.222
REMARK INTER + INTRA:          -8.154
REMARK INTER:                  -6.731
REMARK INTRA:                  -1.423
REMARK UNBOUND:                -1.573
REMARK SMILES CCCCCCCCCCCC(=O)[O-]
REMARK SMILES IDX 7 1 8 2 9 3 10 4 11 5 12 6 13 7 14 8 6 9 5 10 4 11 3 12 2 13
REMARK SMILES IDX 1 14
REMARK H PARENT
REMARK Flexibility Score: inf
ROOT
ATOM      1  C   UNL     1      31.679   5.781  12.238  1.00  0.00     0.000 C 
ENDROOT
BRANCH   1   2
ATOM      2  C   UNL     1      32.258   7.200  12.355  1.00  0.00     0.000 C 
BRANCH   2   3
ATOM      3  C   UNL     1      33.318   7.449  11.272  1.00  0.00     0.000 C 
BRANCH   3   4
ATOM      4  C   UNL     1      34.694   7.802  11.859  1.00  0.00     0.006 C 
BRANCH   4   5
ATOM      5  C   UNL     1      35.597   6.573  12.029  1.00  0.00     0.053 C 
BRANCH   5   6
ATOM      6  C   UNL     1      36.735   6.623  11.058  1.00  0.00     0.041 C 
ATOM      7  O   UNL     1      37.917   6.742  11.473  1.00  0.00    -0.550 OA
ATOM      8  O   UNL     1      36.493   6.490   9.697  1.00  0.00    -0.550 OA
ENDBRANCH   5   6
ENDBRANCH   4   5
ENDBRANCH   3   4
ENDBRANCH   2   3
ENDBRANCH   1   2
BRANCH   1   9
ATOM      9  C   UNL     1      32.371   4.779  13.177  1.00  0.00     0.000 C 
BRANCH   9  10
ATOM     10  C   UNL     1      33.139   3.688  12.412  1.00  0.00    -0.000 C 
BRANCH  10  11
ATOM     11  C   UNL     1      32.880   3.724  10.894  1.00  0.00    -0.000 C 
BRANCH  11  12
ATOM     12  C   UNL     1      34.139   3.877  10.020  1.00  0.00    -0.000 C 
BRANCH  12  13
ATOM     13  C   UNL     1      33.843   4.487   8.643  1.00  0.00    -0.003 C 
ATOM     14  C   UNL     1      32.522   3.965   8.082  1.00  0.00     0.004 C 
ENDBRANCH  12  13
ENDBRANCH  11  12
ENDBRANCH  10  11
ENDBRANCH   9  10
ENDBRANCH   1   9
TORSDOF 10
ENDMDL
