MODEL 1
REMARK VINA RESULT:    -4.105      0.000      0.000
REMARK INTER + INTRA:         -12.051
REMARK INTER:                  -8.905
REMARK INTRA:                  -3.145
REMARK UNBOUND:                -3.145
REMARK SMILES CCCCCCCCCCCCCCCCCCCCCC(=O)[O-]
REMARK SMILES IDX 12 1 11 2 10 3 9 4 8 5 7 6 6 7 5 8 4 9 3 10 2 11 1 12 13 13
REMARK SMILES IDX 14 14 15 15 16 16 17 17 18 18 19 19 20 20 21 21 22 22 23 23
REMARK SMILES IDX 24 24
REMARK H PARENT
REMARK Flexibility Score: inf
ROOT
ATOM      1  C   UNL     1      26.643 -18.155  24.866  1.00  0.00     0.000 C 
ENDROOT
BRANCH   1   2
ATOM      2  C   UNL     1      27.974 -18.620  24.253  1.00  0.00     0.000 C 
BRANCH   2   3
ATOM      3  C   UNL     1      28.901 -19.294  25.279  1.00  0.00     0.000 C 
BRANCH   3   4
ATOM      4  C   UNL     1      30.360 -18.790  25.218  1.00  0.00    -0.000 C 
BRANCH   4   5
ATOM      5  C   UNL     1      30.905 -18.414  26.608  1.00  0.00    -0.000 C 
BRANCH   5   6
ATOM      6  C   UNL     1      29.989 -18.905  27.750  1.00  0.00    -0.000 C 
BRANCH   6   7
ATOM      7  C   UNL     1      29.808 -17.881  28.887  1.00  0.00    -0.000 C 
BRANCH   7   8
ATOM      8  C   UNL     1      28.765 -18.270  29.948  1.00  0.00    -0.000 C 
BRANCH   8   9
ATOM      9  C   UNL     1      28.285 -17.070  30.780  1.00  0.00    -0.000 C 
BRANCH   9  10
ATOM     10  C   UNL     1      29.285 -15.907  30.690  1.00  0.00    -0.000 C 
BRANCH  10  11
ATOM     11  C   UNL     1      28.608 -14.535  30.818  1.00  0.00    -0.003 C 
ATOM     12  C   UNL     1      29.587 -13.425  31.197  1.00  0.00     0.004 C 
ENDBRANCH  10  11
ENDBRANCH   9  10
ENDBRANCH   8   9
ENDBRANCH   7   8
ENDBRANCH   6   7
ENDBRANCH   5   6
ENDBRANCH   4   5
ENDBRANCH   3   4
ENDBRANCH   2   3
ENDBRANCH   1   2
BRANCH   1  13
ATOM     13  C   UNL     1      26.799 -16.888  25.736  1.00  0.00     0.000 C 
BRANCH  13  14
ATOM     14  C   UNL     1      26.465 -17.109  27.223  1.00  0.00     0.000 C 
BRANCH  14  15
ATOM     15  C   UNL     1      26.189 -18.573  27.614  1.00  0.00     0.000 C 
BRANCH  15  16
ATOM     16  C   UNL     1      25.059 -18.774  28.648  1.00  0.00     0.000 C 
BRANCH  16  17
ATOM     17  C   UNL     1      23.817 -19.515  28.125  1.00  0.00     0.000 C 
BRANCH  17  18
ATOM     18  C   UNL     1      23.659 -19.425  26.600  1.00  0.00     0.000 C 
BRANCH  18  19
ATOM     19  C   UNL     1      22.335 -18.742  26.229  1.00  0.00     0.000 C 
BRANCH  19  20
ATOM     20  C   UNL     1      22.522 -17.290  25.749  1.00  0.00     0.006 C 
BRANCH  20  21
ATOM     21  C   UNL     1      22.847 -16.288  26.868  1.00  0.00     0.053 C 
BRANCH  21  22
ATOM     22  C   UNL     1      23.070 -14.904  26.341  1.00  0.00     0.041 C 
ATOM     23  O   UNL     1      22.222 -14.370  25.577  1.00  0.00    -0.550 OA
ATOM     24  O   UNL     1      24.231 -14.214  26.669  1.00  0.00    -0.550 OA
ENDBRANCH  21  22
ENDBRANCH  20  21
ENDBRANCH  19  20
ENDBRANCH  18  19
ENDBRANCH  17  18
ENDBRANCH  16  17
ENDBRANCH  15  16
ENDBRANCH  14  15
ENDBRANCH  13  14
ENDBRANCH   1  13
TORSDOF 20
ENDMDL
MODEL 2
REMARK VINA RESULT:    -4.021      2.401      6.291
REMARK INTER + INTRA:         -11.868
REMARK INTER:                  -8.563
REMARK INTRA:                  -3.304
REMARK UNBOUND:                -3.145
REMARK SMILES CCCCCCCCCCCCCCCCCCCCCC(=O)[O-]
REMARK SMILES IDX 12 1 11 2 10 3 9 4 8 5 7 6 6 7 5 8 4 9 3 10 2 11 1 12 13 13
REMARK SMILES IDX 14 14 15 15 16 16 17 17 18 18 19 19 20 20 21 21 22 22 23 23
REMARK SMILES IDX 24 24
REMARK H PARENT
REMARK Flexibility Score: inf
ROOT
ATOM      1  C   UNL     1      26.939 -17.717  24.414  1.00  0.00     0.000 C 
ENDROOT
BRANCH   1   2
ATOM      2  C   UNL     1      26.658 -16.840  25.645  1.00  0.00     0.000 C 
BRANCH   2   3
ATOM      3  C   UNL     1      26.975 -17.552  26.971  1.00  0.00     0.000 C 
BRANCH   3   4
ATOM      4  C   UNL     1      25.821 -17.495  27.994  1.00  0.00    -0.000 C 
BRANCH   4   5
ATOM      5  C   UNL     1      25.165 -18.871  28.212  1.00  0.00    -0.000 C 
BRANCH   5   6
ATOM      6  C   UNL     1      23.676 -18.882  27.802  1.00  0.00    -0.000 C 
BRANCH   6   7
ATOM      7  C   UNL     1      23.435 -18.521  26.324  1.00  0.00    -0.000 C 
BRANCH   7   8
ATOM      8  C   UNL     1      22.687 -17.196  26.096  1.00  0.00    -0.000 C 
BRANCH   8   9
ATOM      9  C   UNL     1      22.320 -16.484  27.408  1.00  0.00    -0.000 C 
BRANCH   9  10
ATOM     10  C   UNL     1      22.526 -14.967  27.283  1.00  0.00    -0.000 C 
BRANCH  10  11
ATOM     11  C   UNL     1      23.700 -14.604  26.361  1.00  0.00    -0.003 C 
ATOM     12  C   UNL     1      24.696 -13.651  27.019  1.00  0.00     0.004 C 
ENDBRANCH  10  11
ENDBRANCH   9  10
ENDBRANCH   8   9
ENDBRANCH   7   8
ENDBRANCH   6   7
ENDBRANCH   5   6
ENDBRANCH   4   5
ENDBRANCH   3   4
ENDBRANCH   2   3
ENDBRANCH   1   2
BRANCH   1  13
ATOM     13  C   UNL     1      27.700 -19.014  24.769  1.00  0.00     0.000 C 
BRANCH  13  14
ATOM     14  C   UNL     1      29.208 -18.955  24.463  1.00  0.00     0.000 C 
BRANCH  14  15
ATOM     15  C   UNL     1      30.124 -19.057  25.696  1.00  0.00     0.000 C 
BRANCH  15  16
ATOM     16  C   UNL     1      29.685 -20.091  26.756  1.00  0.00     0.000 C 
BRANCH  16  17
ATOM     17  C   UNL     1      29.931 -19.676  28.217  1.00  0.00     0.000 C 
BRANCH  17  18
ATOM     18  C   UNL     1      30.264 -18.185  28.372  1.00  0.00     0.000 C 
BRANCH  18  19
ATOM     19  C   UNL     1      30.261 -17.778  29.853  1.00  0.00     0.000 C 
BRANCH  19  20
ATOM     20  C   UNL     1      28.848 -17.756  30.466  1.00  0.00     0.006 C 
BRANCH  20  21
ATOM     21  C   UNL     1      28.168 -16.377  30.445  1.00  0.00     0.053 C 
BRANCH  21  22
ATOM     22  C   UNL     1      28.566 -15.532  31.615  1.00  0.00     0.041 C 
ATOM     23  O   UNL     1      28.927 -16.071  32.695  1.00  0.00    -0.550 OA
ATOM     24  O   UNL     1      28.510 -14.146  31.523  1.00  0.00    -0.550 OA
ENDBRANCH  21  22
ENDBRANCH  20  21
ENDBRANCH  19  20
ENDBRANCH  18  19
ENDBRANCH  17  18
ENDBRANCH  16  17
ENDBRANCH  15  16
ENDBRANCH  14  15
ENDBRANCH  13  14
ENDBRANCH   1  13
TORSDOF 20
ENDMDL
MODEL 3
REMARK VINA RESULT:    -3.975      1.673      3.721
REMARK INTER + INTRA:         -11.767
REMARK INTER:                  -8.793
REMARK INTRA:                  -2.974
REMARK UNBOUND:                -3.145
REMARK SMILES CCCCCCCCCCCCCCCCCCCCCC(=O)[O-]
REMARK SMILES IDX 12 1 11 2 10 3 9 4 8 5 7 6 6 7 5 8 4 9 3 10 2 11 1 12 13 13
REMARK SMILES IDX 14 14 15 15 16 16 17 17 18 18 19 19 20 20 21 21 22 22 23 23
REMARK SMILES IDX 24 24
REMARK H PARENT
REMARK Flexibility Score: inf
ROOT
ATOM      1  C   UNL     1      29.195 -18.249  27.848  1.00  0.00     0.000 C 
ENDROOT
BRANCH   1   2
ATOM      2  C   UNL     1      28.839 -19.624  28.438  1.00  0.00     0.000 C 
BRANCH   2   3
ATOM      3  C   UNL     1      27.343 -19.762  28.771  1.00  0.00     0.000 C 
BRANCH   3   4
ATOM      4  C   UNL     1      26.726 -18.485  29.381  1.00  0.00    -0.000 C 
BRANCH   4   5
ATOM      5  C   UNL     1      26.261 -18.699  30.834  1.00  0.00    -0.000 C 
BRANCH   5   6
ATOM      6  C   UNL     1      27.010 -17.785  31.828  1.00  0.00    -0.000 C 
BRANCH   6   7
ATOM      7  C   UNL     1      28.538 -17.779  31.637  1.00  0.00    -0.000 C 
BRANCH   7   8
ATOM      8  C   UNL     1      29.214 -16.416  31.868  1.00  0.00    -0.000 C 
BRANCH   8   9
ATOM      9  C   UNL     1      28.693 -15.324  30.921  1.00  0.00    -0.000 C 
BRANCH   9  10
ATOM     10  C   UNL     1      29.611 -14.092  30.950  1.00  0.00    -0.000 C 
BRANCH  10  11
ATOM     11  C   UNL     1      29.851 -13.567  32.373  1.00  0.00    -0.003 C 
ATOM     12  C   UNL     1      29.049 -12.303  32.679  1.00  0.00     0.004 C 
ENDBRANCH  10  11
ENDBRANCH   9  10
ENDBRANCH   8   9
ENDBRANCH   7   8
ENDBRANCH   6   7
ENDBRANCH   5   6
ENDBRANCH   4   5
ENDBRANCH   3   4
ENDBRANCH   2   3
ENDBRANCH   1   2
BRANCH   1  13
ATOM     13  C   UNL     1      30.193 -18.347  26.673  1.00  0.00     0.000 C 
BRANCH  13  14
ATOM     14  C   UNL     1      29.883 -19.488  25.687  1.00  0.00     0.000 C 
BRANCH  14  15
ATOM     15  C   UNL     1      28.812 -19.159  24.630  1.00  0.00     0.000 C 
BRANCH  15  16
ATOM     16  C   UNL     1      27.414 -19.755  24.904  1.00  0.00     0.000 C 
BRANCH  16  17
ATOM     17  C   UNL     1      26.343 -18.742  25.341  1.00  0.00     0.000 C 
BRANCH  17  18
ATOM     18  C   UNL     1      26.356 -17.453  24.505  1.00  0.00     0.000 C 
BRANCH  18  19
ATOM     19  C   UNL     1      26.630 -16.231  25.393  1.00  0.00     0.000 C 
BRANCH  19  20
ATOM     20  C   UNL     1      25.761 -16.206  26.664  1.00  0.00     0.006 C 
BRANCH  20  21
ATOM     21  C   UNL     1      24.817 -14.996  26.765  1.00  0.00     0.053 C 
BRANCH  21  22
ATOM     22  C   UNL     1      23.381 -15.384  26.595  1.00  0.00     0.041 C 
ATOM     23  O   UNL     1      23.077 -16.459  26.013  1.00  0.00    -0.550 OA
ATOM     24  O   UNL     1      22.375 -14.541  27.053  1.00  0.00    -0.550 OA
ENDBRANCH  21  22
ENDBRANCH  20  21
ENDBRANCH  19  20
ENDBRANCH  18  19
ENDBRANCH  17  18
ENDBRANCH  16  17
ENDBRANCH  15  16
ENDBRANCH  14  15
ENDBRANCH  13  14
ENDBRANCH   1  13
TORSDOF 20
ENDMDL
MODEL 4
REMARK VINA RESULT:    -3.963      3.619      4.893
REMARK INTER + INTRA:         -11.742
REMARK INTER:                  -9.194
REMARK INTRA:                  -2.548
REMARK UNBOUND:                -3.145
REMARK SMILES CCCCCCCCCCCCCCCCCCCCCC(=O)[O-]
REMARK SMILES IDX 12 1 11 2 10 3 9 4 8 5 7 6 6 7 5 8 4 9 3 10 2 11 1 12 13 13
REMARK SMILES IDX 14 14 15 15 16 16 17 17 18 18 19 19 20 20 21 21 22 22 23 23
REMARK SMILES IDX 24 24
REMARK H PARENT
REMARK Flexibility Score: inf
ROOT
ATOM      1  C   UNL     1      25.729 -16.379  25.973  1.00  0.00     0.000 C 
ENDROOT
BRANCH   1   2
ATOM      2  C   UNL     1      26.975 -16.831  25.195  1.00  0.00     0.000 C 
BRANCH   2   3
ATOM      3  C   UNL     1      26.944 -18.327  24.835  1.00  0.00     0.000 C 
BRANCH   3   4
ATOM      4  C   UNL     1      28.283 -18.856  24.279  1.00  0.00    -0.000 C 
BRANCH   4   5
ATOM      5  C   UNL     1      29.468 -18.540  25.211  1.00  0.00    -0.000 C 
BRANCH   5   6
ATOM      6  C   UNL     1      29.932 -19.778  26.008  1.00  0.00    -0.000 C 
BRANCH   6   7
ATOM      7  C   UNL     1      29.769 -19.634  27.533  1.00  0.00    -0.000 C 
BRANCH   7   8
ATOM      8  C   UNL     1      28.317 -19.473  28.016  1.00  0.00    -0.000 C 
BRANCH   8   9
ATOM      9  C   UNL     1      28.019 -18.064  28.552  1.00  0.00    -0.000 C 
BRANCH   9  10
ATOM     10  C   UNL     1      26.681 -18.038  29.307  1.00  0.00    -0.000 C 
BRANCH  10  11
ATOM     11  C   UNL     1      26.007 -19.417  29.362  1.00  0.00    -0.003 C 
ATOM     12  C   UNL     1      24.483 -19.332  29.313  1.00  0.00     0.004 C 
ENDBRANCH  10  11
ENDBRANCH   9  10
ENDBRANCH   8   9
ENDBRANCH   7   8
ENDBRANCH   6   7
ENDBRANCH   5   6
ENDBRANCH   4   5
ENDBRANCH   3   4
ENDBRANCH   2   3
ENDBRANCH   1   2
BRANCH   1  13
ATOM     13  C   UNL     1      24.696 -17.513  26.153  1.00  0.00     0.000 C 
BRANCH  13  14
ATOM     14  C   UNL     1      23.245 -17.085  25.863  1.00  0.00     0.000 C 
BRANCH  14  15
ATOM     15  C   UNL     1      22.905 -15.636  26.258  1.00  0.00     0.000 C 
BRANCH  15  16
ATOM     16  C   UNL     1      22.287 -15.466  27.663  1.00  0.00     0.000 C 
BRANCH  16  17
ATOM     17  C   UNL     1      21.713 -16.749  28.286  1.00  0.00     0.000 C 
BRANCH  17  18
ATOM     18  C   UNL     1      20.986 -16.500  29.616  1.00  0.00     0.000 C 
BRANCH  18  19
ATOM     19  C   UNL     1      20.374 -15.092  29.646  1.00  0.00     0.000 C 
BRANCH  19  20
ATOM     20  C   UNL     1      19.163 -14.985  30.592  1.00  0.00     0.006 C 
BRANCH  20  21
ATOM     21  C   UNL     1      19.252 -15.877  31.841  1.00  0.00     0.053 C 
BRANCH  21  22
ATOM     22  C   UNL     1      18.074 -16.793  31.967  1.00  0.00     0.041 C 
ATOM     23  O   UNL     1      17.608 -17.076  33.103  1.00  0.00    -0.550 OA
ATOM     24  O   UNL     1      17.509 -17.359  30.830  1.00  0.00    -0.550 OA
ENDBRANCH  21  22
ENDBRANCH  20  21
ENDBRANCH  19  20
ENDBRANCH  18  19
ENDBRANCH  17  18
ENDBRANCH  16  17
ENDBRANCH  15  16
ENDBRANCH  14  15
ENDBRANCH  13  14
ENDBRANCH   1  13
TORSDOF 20
ENDMDL
MODEL 5
REMARK VINA RESULT:    -3.883      1.499      2.261
REMARK INTER + INTRA:         -11.568
REMARK INTER:                  -8.039
REMARK INTRA:                  -3.529
REMARK UNBOUND:                -3.145
REMARK SMILES CCCCCCCCCCCCCCCCCCCCCC(=O)[O-]
REMARK SMILES IDX 12 1 11 2 10 3 9 4 8 5 7 6 6 7 5 8 4 9 3 10 2 11 1 12 13 13
REMARK SMILES IDX 14 14 15 15 16 16 17 17 18 18 19 19 20 20 21 21 22 22 23 23
REMARK SMILES IDX 24 24
REMARK H PARENT
REMARK Flexibility Score: inf
ROOT
ATOM      1  C   UNL     1      25.978 -18.036  25.210  1.00  0.00     0.000 C 
ENDROOT
BRANCH   1   2
ATOM      2  C   UNL     1      27.364 -17.499  24.815  1.00  0.00     0.000 C 
BRANCH   2   3
ATOM      3  C   UNL     1      28.358 -18.618  24.461  1.00  0.00     0.000 C 
BRANCH   3   4
ATOM      4  C   UNL     1      29.676 -18.550  25.262  1.00  0.00    -0.000 C 
BRANCH   4   5
ATOM      5  C   UNL     1      30.033 -19.898  25.915  1.00  0.00    -0.000 C 
BRANCH   5   6
ATOM      6  C   UNL     1      29.998 -19.829  27.458  1.00  0.00    -0.000 C 
BRANCH   6   7
ATOM      7  C   UNL     1      29.627 -18.440  28.011  1.00  0.00    -0.000 C 
BRANCH   7   8
ATOM      8  C   UNL     1      29.198 -18.425  29.488  1.00  0.00    -0.000 C 
BRANCH   8   9
ATOM      9  C   UNL     1      28.635 -17.065  29.931  1.00  0.00    -0.000 C 
BRANCH   9  10
ATOM     10  C   UNL     1      27.480 -17.250  30.928  1.00  0.00    -0.000 C 
BRANCH  10  11
ATOM     11  C   UNL     1      27.274 -18.719  31.327  1.00  0.00    -0.003 C 
ATOM     12  C   UNL     1      25.964 -18.949  32.078  1.00  0.00     0.004 C 
ENDBRANCH  10  11
ENDBRANCH   9  10
ENDBRANCH   8   9
ENDBRANCH   7   8
ENDBRANCH   6   7
ENDBRANCH   5   6
ENDBRANCH   4   5
ENDBRANCH   3   4
ENDBRANCH   2   3
ENDBRANCH   1   2
BRANCH   1  13
ATOM     13  C   UNL     1      26.023 -19.502  25.695  1.00  0.00     0.000 C 
BRANCH  13  14
ATOM     14  C   UNL     1      26.146 -19.648  27.223  1.00  0.00     0.000 C 
BRANCH  14  15
ATOM     15  C   UNL     1      25.443 -18.546  28.038  1.00  0.00     0.000 C 
BRANCH  15  16
ATOM     16  C   UNL     1      24.170 -18.994  28.787  1.00  0.00     0.000 C 
BRANCH  16  17
ATOM     17  C   UNL     1      22.861 -18.350  28.298  1.00  0.00     0.000 C 
BRANCH  17  18
ATOM     18  C   UNL     1      22.591 -18.592  26.806  1.00  0.00     0.000 C 
BRANCH  18  19
ATOM     19  C   UNL     1      22.515 -17.261  26.044  1.00  0.00     0.000 C 
BRANCH  19  20
ATOM     20  C   UNL     1      22.567 -16.034  26.973  1.00  0.00     0.006 C 
BRANCH  20  21
ATOM     21  C   UNL     1      22.861 -14.706  26.256  1.00  0.00     0.053 C 
BRANCH  21  22
ATOM     22  C   UNL     1      24.236 -14.195  26.555  1.00  0.00     0.041 C 
ATOM     23  O   UNL     1      25.197 -14.998  26.693  1.00  0.00    -0.550 OA
ATOM     24  O   UNL     1      24.453 -12.831  26.711  1.00  0.00    -0.550 OA
ENDBRANCH  21  22
ENDBRANCH  20  21
ENDBRANCH  19  20
ENDBRANCH  18  19
ENDBRANCH  17  18
ENDBRANCH  16  17
ENDBRANCH  15  16
ENDBRANCH  14  15
ENDBRANCH  13  14
ENDBRANCH   1  13
TORSDOF 20
ENDMDL
MODEL 6
REMARK VINA RESULT:    -3.847      2.620      5.809
REMARK INTER + INTRA:         -11.489
REMARK INTER:                  -8.505
REMARK INTRA:                  -2.984
REMARK UNBOUND:                -3.145
REMARK SMILES CCCCCCCCCCCCCCCCCCCCCC(=O)[O-]
REMARK SMILES IDX 12 1 11 2 10 3 9 4 8 5 7 6 6 7 5 8 4 9 3 10 2 11 1 12 13 13
REMARK SMILES IDX 14 14 15 15 16 16 17 17 18 18 19 19 20 20 21 21 22 22 23 23
REMARK SMILES IDX 24 24
REMARK H PARENT
REMARK Flexibility Score: inf
ROOT
ATOM      1  C   UNL     1      30.564 -19.252  26.045  1.00  0.00     0.000 C 
ENDROOT
BRANCH   1   2
ATOM      2  C   UNL     1      29.430 -18.909  25.064  1.00  0.00     0.000 C 
BRANCH   2   3
ATOM      3  C   UNL     1      28.228 -19.862  25.185  1.00  0.00     0.000 C 
BRANCH   3   4
ATOM      4  C   UNL     1      26.862 -19.146  25.107  1.00  0.00    -0.000 C 
BRANCH   4   5
ATOM      5  C   UNL     1      26.998 -17.675  24.671  1.00  0.00    -0.000 C 
BRANCH   5   6
ATOM      6  C   UNL     1      26.265 -16.711  25.629  1.00  0.00    -0.000 C 
BRANCH   6   7
ATOM      7  C   UNL     1      25.139 -17.377  26.442  1.00  0.00    -0.000 C 
BRANCH   7   8
ATOM      8  C   UNL     1      23.715 -16.952  26.044  1.00  0.00    -0.000 C 
BRANCH   8   9
ATOM      9  C   UNL     1      22.827 -16.632  27.257  1.00  0.00    -0.000 C 
BRANCH   9  10
ATOM     10  C   UNL     1      22.580 -15.120  27.369  1.00  0.00    -0.000 C 
BRANCH  10  11
ATOM     11  C   UNL     1      23.439 -14.307  26.389  1.00  0.00    -0.003 C 
ATOM     12  C   UNL     1      24.363 -13.316  27.095  1.00  0.00     0.004 C 
ENDBRANCH  10  11
ENDBRANCH   9  10
ENDBRANCH   8   9
ENDBRANCH   7   8
ENDBRANCH   6   7
ENDBRANCH   5   6
ENDBRANCH   4   5
ENDBRANCH   3   4
ENDBRANCH   2   3
ENDBRANCH   1   2
BRANCH   1  13
ATOM     13  C   UNL     1      30.594 -18.312  27.270  1.00  0.00     0.000 C 
BRANCH  13  14
ATOM     14  C   UNL     1      29.668 -18.757  28.418  1.00  0.00     0.000 C 
BRANCH  14  15
ATOM     15  C   UNL     1      28.306 -18.041  28.467  1.00  0.00     0.000 C 
BRANCH  15  16
ATOM     16  C   UNL     1      27.164 -18.848  29.122  1.00  0.00     0.000 C 
BRANCH  16  17
ATOM     17  C   UNL     1      27.614 -19.941  30.106  1.00  0.00     0.000 C 
BRANCH  17  18
ATOM     18  C   UNL     1      27.557 -19.492  31.573  1.00  0.00     0.000 C 
BRANCH  18  19
ATOM     19  C   UNL     1      26.664 -18.252  31.729  1.00  0.00     0.000 C 
BRANCH  19  20
ATOM     20  C   UNL     1      27.364 -17.098  32.472  1.00  0.00     0.006 C 
BRANCH  20  21
ATOM     21  C   UNL     1      28.848 -16.918  32.113  1.00  0.00     0.053 C 
BRANCH  21  22
ATOM     22  C   UNL     1      29.095 -15.656  31.345  1.00  0.00     0.041 C 
ATOM     23  O   UNL     1      30.053 -15.586  30.530  1.00  0.00    -0.550 OA
ATOM     24  O   UNL     1      28.285 -14.546  31.552  1.00  0.00    -0.550 OA
ENDBRANCH  21  22
ENDBRANCH  20  21
ENDBRANCH  19  20
ENDBRANCH  18  19
ENDBRANCH  17  18
ENDBRANCH  16  17
ENDBRANCH  15  16
ENDBRANCH  14  15
ENDBRANCH  13  14
ENDBRANCH   1  13
TORSDOF 20
ENDMDL
MODEL 7
REMARK VINA RESULT:    -3.833      1.929      4.996
REMARK INTER + INTRA:         -11.460
REMARK INTER:                  -8.207
REMARK INTRA:                  -3.254
REMARK UNBOUND:                -3.145
REMARK SMILES CCCCCCCCCCCCCCCCCCCCCC(=O)[O-]
REMARK SMILES IDX 12 1 11 2 10 3 9 4 8 5 7 6 6 7 5 8 4 9 3 10 2 11 1 12 13 13
REMARK SMILES IDX 14 14 15 15 16 16 17 17 18 18 19 19 20 20 21 21 22 22 23 23
REMARK SMILES IDX 24 24
REMARK H PARENT
REMARK Flexibility Score: inf
ROOT
ATOM      1  C   UNL     1      31.114 -18.226  26.983  1.00  0.00     0.000 C 
ENDROOT
BRANCH   1   2
ATOM      2  C   UNL     1      30.731 -18.694  28.396  1.00  0.00     0.000 C 
BRANCH   2   3
ATOM      3  C   UNL     1      29.965 -20.029  28.397  1.00  0.00     0.000 C 
BRANCH   3   4
ATOM      4  C   UNL     1      28.530 -19.917  28.954  1.00  0.00    -0.000 C 
BRANCH   4   5
ATOM      5  C   UNL     1      28.071 -18.454  29.097  1.00  0.00    -0.000 C 
BRANCH   5   6
ATOM      6  C   UNL     1      26.540 -18.304  28.957  1.00  0.00    -0.000 C 
BRANCH   6   7
ATOM      7  C   UNL     1      25.748 -19.538  29.430  1.00  0.00    -0.000 C 
BRANCH   7   8
ATOM      8  C   UNL     1      24.236 -19.482  29.154  1.00  0.00    -0.000 C 
BRANCH   8   9
ATOM      9  C   UNL     1      23.891 -18.688  27.884  1.00  0.00    -0.000 C 
BRANCH   9  10
ATOM     10  C   UNL     1      23.254 -19.601  26.825  1.00  0.00    -0.000 C 
BRANCH  10  11
ATOM     11  C   UNL     1      22.029 -18.963  26.154  1.00  0.00    -0.003 C 
ATOM     12  C   UNL     1      22.341 -17.610  25.518  1.00  0.00     0.004 C 
ENDBRANCH  10  11
ENDBRANCH   9  10
ENDBRANCH   8   9
ENDBRANCH   7   8
ENDBRANCH   6   7
ENDBRANCH   5   6
ENDBRANCH   4   5
ENDBRANCH   3   4
ENDBRANCH   2   3
ENDBRANCH   1   2
BRANCH   1  13
ATOM     13  C   UNL     1      30.789 -19.279  25.900  1.00  0.00     0.000 C 
BRANCH  13  14
ATOM     14  C   UNL     1      30.322 -18.673  24.564  1.00  0.00     0.000 C 
BRANCH  14  15
ATOM     15  C   UNL     1      28.886 -19.044  24.151  1.00  0.00     0.000 C 
BRANCH  15  16
ATOM     16  C   UNL     1      28.050 -19.747  25.242  1.00  0.00     0.000 C 
BRANCH  16  17
ATOM     17  C   UNL     1      26.603 -19.245  25.385  1.00  0.00     0.000 C 
BRANCH  17  18
ATOM     18  C   UNL     1      26.381 -17.861  24.758  1.00  0.00     0.000 C 
BRANCH  18  19
ATOM     19  C   UNL     1      26.684 -16.748  25.772  1.00  0.00     0.000 C 
BRANCH  19  20
ATOM     20  C   UNL     1      25.420 -16.007  26.246  1.00  0.00     0.006 C 
BRANCH  20  21
ATOM     21  C   UNL     1      25.523 -14.474  26.187  1.00  0.00     0.053 C 
BRANCH  21  22
ATOM     22  C   UNL     1      24.290 -13.804  26.709  1.00  0.00     0.041 C 
ATOM     23  O   UNL     1      23.151 -14.267  26.436  1.00  0.00    -0.550 OA
ATOM     24  O   UNL     1      24.398 -12.648  27.474  1.00  0.00    -0.550 OA
ENDBRANCH  21  22
ENDBRANCH  20  21
ENDBRANCH  19  20
ENDBRANCH  18  19
ENDBRANCH  17  18
ENDBRANCH  16  17
ENDBRANCH  15  16
ENDBRANCH  14  15
ENDBRANCH  13  14
ENDBRANCH   1  13
TORSDOF 20
ENDMDL
MODEL 8
REMARK VINA RESULT:    -3.822      4.552      6.378
REMARK INTER + INTRA:         -11.436
REMARK INTER:                  -9.177
REMARK INTRA:                  -2.259
REMARK UNBOUND:                -3.145
REMARK SMILES CCCCCCCCCCCCCCCCCCCCCC(=O)[O-]
REMARK SMILES IDX 12 1 11 2 10 3 9 4 8 5 7 6 6 7 5 8 4 9 3 10 2 11 1 12 13 13
REMARK SMILES IDX 14 14 15 15 16 16 17 17 18 18 19 19 20 20 21 21 22 22 23 23
REMARK SMILES IDX 24 24
REMARK H PARENT
REMARK Flexibility Score: inf
ROOT
ATOM      1  C   UNL     1      22.847 -15.432  26.437  1.00  0.00     0.000 C 
ENDROOT
BRANCH   1   2
ATOM      2  C   UNL     1      22.991 -16.877  25.931  1.00  0.00     0.000 C 
BRANCH   2   3
ATOM      3  C   UNL     1      24.429 -17.410  26.046  1.00  0.00     0.000 C 
BRANCH   3   4
ATOM      4  C   UNL     1      25.477 -16.307  26.309  1.00  0.00    -0.000 C 
BRANCH   4   5
ATOM      5  C   UNL     1      26.638 -16.352  25.298  1.00  0.00    -0.000 C 
BRANCH   5   6
ATOM      6  C   UNL     1      26.603 -17.624  24.422  1.00  0.00    -0.000 C 
BRANCH   6   7
ATOM      7  C   UNL     1      27.897 -18.458  24.484  1.00  0.00    -0.000 C 
BRANCH   7   8
ATOM      8  C   UNL     1      27.740 -19.851  25.117  1.00  0.00    -0.000 C 
BRANCH   8   9
ATOM      9  C   UNL     1      27.203 -19.795  26.556  1.00  0.00    -0.000 C 
BRANCH   9  10
ATOM     10  C   UNL     1      28.139 -18.975  27.457  1.00  0.00    -0.000 C 
BRANCH  10  11
ATOM     11  C   UNL     1      27.772 -19.084  28.945  1.00  0.00    -0.003 C 
ATOM     12  C   UNL     1      26.693 -18.087  29.362  1.00  0.00     0.004 C 
ENDBRANCH  10  11
ENDBRANCH   9  10
ENDBRANCH   8   9
ENDBRANCH   7   8
ENDBRANCH   6   7
ENDBRANCH   5   6
ENDBRANCH   4   5
ENDBRANCH   3   4
ENDBRANCH   2   3
ENDBRANCH   1   2
BRANCH   1  13
ATOM     13  C   UNL     1      22.164 -15.353  27.820  1.00  0.00     0.000 C 
BRANCH  13  14
ATOM     14  C   UNL     1      21.733 -16.720  28.381  1.00  0.00     0.000 C 
BRANCH  14  15
ATOM     15  C   UNL     1      20.619 -16.664  29.443  1.00  0.00     0.000 C 
BRANCH  15  16
ATOM     16  C   UNL     1      19.984 -15.272  29.654  1.00  0.00     0.000 C 
BRANCH  16  17
ATOM     17  C   UNL     1      19.313 -15.059  31.022  1.00  0.00     0.000 C 
BRANCH  17  18
ATOM     18  C   UNL     1      19.847 -16.004  32.109  1.00  0.00     0.000 C 
BRANCH  18  19
ATOM     19  C   UNL     1      18.691 -16.726  32.817  1.00  0.00     0.000 C 
BRANCH  19  20
ATOM     20  C   UNL     1      17.862 -17.609  31.865  1.00  0.00     0.006 C 
BRANCH  20  21
ATOM     21  C   UNL     1      16.388 -17.192  31.733  1.00  0.00     0.053 C 
BRANCH  21  22
ATOM     22  C   UNL     1      15.901 -17.279  30.320  1.00  0.00     0.041 C 
ATOM     23  O   UNL     1      16.722 -17.303  29.364  1.00  0.00    -0.550 OA
ATOM     24  O   UNL     1      14.536 -17.303  30.056  1.00  0.00    -0.550 OA
ENDBRANCH  21  22
ENDBRANCH  20  21
ENDBRANCH  19  20
ENDBRANCH  18  19
ENDBRANCH  17  18
ENDBRANCH  16  17
ENDBRANCH  15  16
ENDBRANCH  14  15
ENDBRANCH  13  14
ENDBRANCH   1  13
TORSDOF 20
ENDMDL
MODEL 9
REMARK VINA RESULT:    -3.745      2.472      5.829
REMARK INTER + INTRA:         -11.270
REMARK INTER:                  -8.015
REMARK INTRA:                  -3.255
REMARK UNBOUND:                -3.145
REMARK SMILES CCCCCCCCCCCCCCCCCCCCCC(=O)[O-]
REMARK SMILES IDX 12 1 11 2 10 3 9 4 8 5 7 6 6 7 5 8 4 9 3 10 2 11 1 12 13 13
REMARK SMILES IDX 14 14 15 15 16 16 17 17 18 18 19 19 20 20 21 21 22 22 23 23
REMARK SMILES IDX 24 24
REMARK H PARENT
REMARK Flexibility Score: inf
ROOT
ATOM      1  C   UNL     1      29.834 -18.665  27.996  1.00  0.00     0.000 C 
ENDROOT
BRANCH   1   2
ATOM      2  C   UNL     1      30.137 -19.590  26.805  1.00  0.00     0.000 C 
BRANCH   2   3
ATOM      3  C   UNL     1      30.230 -18.833  25.469  1.00  0.00     0.000 C 
BRANCH   3   4
ATOM      4  C   UNL     1      28.976 -18.988  24.582  1.00  0.00    -0.000 C 
BRANCH   4   5
ATOM      5  C   UNL     1      27.859 -18.002  24.972  1.00  0.00    -0.000 C 
BRANCH   5   6
ATOM      6  C   UNL     1      26.516 -18.715  25.241  1.00  0.00    -0.000 C 
BRANCH   6   7
ATOM      7  C   UNL     1      25.349 -17.754  25.537  1.00  0.00    -0.000 C 
BRANCH   7   8
ATOM      8  C   UNL     1      25.750 -16.276  25.685  1.00  0.00    -0.000 C 
BRANCH   8   9
ATOM      9  C   UNL     1      24.945 -15.546  26.772  1.00  0.00    -0.000 C 
BRANCH   9  10
ATOM     10  C   UNL     1      23.489 -15.340  26.329  1.00  0.00    -0.000 C 
BRANCH  10  11
ATOM     11  C   UNL     1      22.480 -15.679  27.437  1.00  0.00    -0.003 C 
ATOM     12  C   UNL     1      22.463 -17.166  27.786  1.00  0.00     0.004 C 
ENDBRANCH  10  11
ENDBRANCH   9  10
ENDBRANCH   8   9
ENDBRANCH   7   8
ENDBRANCH   6   7
ENDBRANCH   5   6
ENDBRANCH   4   5
ENDBRANCH   3   4
ENDBRANCH   2   3
ENDBRANCH   1   2
BRANCH   1  13
ATOM     13  C   UNL     1      28.518 -19.034  28.715  1.00  0.00     0.000 C 
BRANCH  13  14
ATOM     14  C   UNL     1      27.492 -17.887  28.761  1.00  0.00     0.000 C 
BRANCH  14  15
ATOM     15  C   UNL     1      26.042 -18.324  29.045  1.00  0.00     0.000 C 
BRANCH  15  16
ATOM     16  C   UNL     1      25.888 -19.433  30.109  1.00  0.00     0.000 C 
BRANCH  16  17
ATOM     17  C   UNL     1      25.872 -18.944  31.567  1.00  0.00     0.000 C 
BRANCH  17  18
ATOM     18  C   UNL     1      27.060 -19.463  32.390  1.00  0.00     0.000 C 
BRANCH  18  19
ATOM     19  C   UNL     1      28.186 -18.419  32.438  1.00  0.00     0.000 C 
BRANCH  19  20
ATOM     20  C   UNL     1      27.677 -16.979  32.238  1.00  0.00     0.006 C 
BRANCH  20  21
ATOM     21  C   UNL     1      28.762 -15.898  32.372  1.00  0.00     0.053 C 
BRANCH  21  22
ATOM     22  C   UNL     1      29.200 -15.368  31.042  1.00  0.00     0.041 C 
ATOM     23  O   UNL     1      30.150 -15.916  30.421  1.00  0.00    -0.550 OA
ATOM     24  O   UNL     1      28.579 -14.248  30.501  1.00  0.00    -0.550 OA
ENDBRANCH  21  22
ENDBRANCH  20  21
ENDBRANCH  19  20
ENDBRANCH  18  19
ENDBRANCH  17  18
ENDBRANCH  16  17
ENDBRANCH  15  16
ENDBRANCH  14  15
ENDBRANCH  13  14
ENDBRANCH   1  13
TORSDOF 20
ENDMDL
