MODEL 1
REMARK VINA RESULT:     7.509      0.000      0.000
REMARK INTER + INTRA:          19.480
REMARK INTER:                  19.799
REMARK INTRA:                  -0.319
REMARK UNBOUND:                -0.319
REMARK SMILES CCCCCCCCCCCCCCCCCCCCCCCCCCCCCC(=O)[O-]
REMARK SMILES IDX 16 1 17 2 18 3 19 4 20 5 21 6 22 7 23 8 24 9 25 10 26 11
REMARK SMILES IDX 27 12 28 13 29 14 30 15 31 16 32 17 15 18 14 19 13 20 12 21
REMARK SMILES IDX 11 22 10 23 9 24 8 25 7 26 6 27 5 28 4 29 3 30 2 31 1 32
REMARK H PARENT
REMARK Flexibility Score: inf
ROOT
ATOM      1  C   UNL     1      25.481  20.262  24.619  1.00  0.00     0.000 C 
ENDROOT
BRANCH   1   2
ATOM      2  C   UNL     1      26.062  20.004  26.019  1.00  0.00     0.000 C 
BRANCH   2   3
ATOM      3  C   UNL     1      25.121  19.164  26.898  1.00  0.00     0.000 C 
BRANCH   3   4
ATOM      4  C   UNL     1      23.669  19.185  26.399  1.00  0.00     0.000 C 
BRANCH   4   5
ATOM      5  C   UNL     1      22.696  18.875  27.543  1.00  0.00     0.000 C 
BRANCH   5   6
ATOM      6  C   UNL     1      22.140  20.164  28.166  1.00  0.00     0.000 C 
BRANCH   6   7
ATOM      7  C   UNL     1      21.892  21.264  27.112  1.00  0.00     0.000 C 
BRANCH   7   8
ATOM      8  C   UNL     1      23.073  22.238  26.931  1.00  0.00     0.000 C 
BRANCH   8   9
ATOM      9  C   UNL     1      22.735  23.551  26.204  1.00  0.00     0.000 C 
BRANCH   9  10
ATOM     10  C   UNL     1      23.263  24.796  26.938  1.00  0.00     0.000 C 
BRANCH  10  11
ATOM     11  C   UNL     1      24.552  24.512  27.725  1.00  0.00     0.000 C 
BRANCH  11  12
ATOM     12  C   UNL     1      25.674  25.510  27.405  1.00  0.00     0.000 C 
BRANCH  12  13
ATOM     13  C   UNL     1      25.899  25.613  25.888  1.00  0.00     0.006 C 
BRANCH  13  14
ATOM     14  C   UNL     1      25.601  27.020  25.350  1.00  0.00     0.053 C 
BRANCH  14  15
ATOM     15  C   UNL     1      24.811  26.975  24.078  1.00  0.00     0.041 C 
ATOM     16  O   UNL     1      25.343  26.559  23.016  1.00  0.00    -0.550 OA
ATOM     17  O   UNL     1      23.494  27.419  24.061  1.00  0.00    -0.550 OA
ENDBRANCH  14  15
ENDBRANCH  13  14
ENDBRANCH  12  13
ENDBRANCH  11  12
ENDBRANCH  10  11
ENDBRANCH   9  10
ENDBRANCH   8   9
ENDBRANCH   7   8
ENDBRANCH   6   7
ENDBRANCH   5   6
ENDBRANCH   4   5
ENDBRANCH   3   4
ENDBRANCH   2   3
ENDBRANCH   1   2
BRANCH   1  18
ATOM     18  C   UNL     1      25.482  19.006  23.728  1.00  0.00     0.000 C 
BRANCH  18  19
ATOM     19  C   UNL     1      26.601  18.956  22.666  1.00  0.00     0.000 C 
BRANCH  19  20
ATOM     20  C   UNL     1      28.035  19.106  23.212  1.00  0.00     0.000 C 
BRANCH  20  21
ATOM     21  C   UNL     1      28.484  20.555  23.474  1.00  0.00     0.000 C 
BRANCH  21  22
ATOM     22  C   UNL     1      29.219  20.716  24.815  1.00  0.00     0.000 C 
BRANCH  22  23
ATOM     23  C   UNL     1      30.469  19.826  24.919  1.00  0.00     0.000 C 
BRANCH  23  24
ATOM     24  C   UNL     1      30.650  18.909  23.698  1.00  0.00    -0.000 C 
BRANCH  24  25
ATOM     25  C   UNL     1      32.057  19.007  23.083  1.00  0.00    -0.000 C 
BRANCH  25  26
ATOM     26  C   UNL     1      32.263  20.183  22.106  1.00  0.00    -0.000 C 
BRANCH  26  27
ATOM     27  C   UNL     1      31.033  21.088  21.898  1.00  0.00    -0.000 C 
BRANCH  27  28
ATOM     28  C   UNL     1      31.215  22.221  20.871  1.00  0.00    -0.000 C 
BRANCH  28  29
ATOM     29  C   UNL     1      31.360  23.605  21.526  1.00  0.00    -0.000 C 
BRANCH  29  30
ATOM     30  C   UNL     1      31.907  24.670  20.558  1.00  0.00    -0.000 C 
BRANCH  30  31
ATOM     31  C   UNL     1      31.983  26.095  21.133  1.00  0.00    -0.003 C 
ATOM     32  C   UNL     1      30.874  26.393  22.141  1.00  0.00     0.004 C 
ENDBRANCH  30  31
ENDBRANCH  29  30
ENDBRANCH  28  29
ENDBRANCH  27  28
ENDBRANCH  26  27
ENDBRANCH  25  26
ENDBRANCH  24  25
ENDBRANCH  23  24
ENDBRANCH  22  23
ENDBRANCH  21  22
ENDBRANCH  20  21
ENDBRANCH  19  20
ENDBRANCH  18  19
ENDBRANCH   1  18
TORSDOF 28
ENDMDL
MODEL 2
REMARK VINA RESULT:     7.769      2.053      7.837
REMARK INTER + INTRA:          20.168
REMARK INTER:                  19.132
REMARK INTRA:                   1.036
REMARK UNBOUND:                -0.319
REMARK SMILES CCCCCCCCCCCCCCCCCCCCCCCCCCCCCC(=O)[O-]
REMARK SMILES IDX 16 1 17 2 18 3 19 4 20 5 21 6 22 7 23 8 24 9 25 10 26 11
REMARK SMILES IDX 27 12 28 13 29 14 30 15 31 16 32 17 15 18 14 19 13 20 12 21
REMARK SMILES IDX 11 22 10 23 9 24 8 25 7 26 6 27 5 28 4 29 3 30 2 31 1 32
REMARK H PARENT
REMARK Flexibility Score: inf
ROOT
ATOM      1  C   UNL     1      27.585  21.996  25.622  1.00  0.00     0.000 C 
ENDROOT
BRANCH   1   2
ATOM      2  C   UNL     1      28.820  21.389  24.936  1.00  0.00     0.000 C 
BRANCH   2   3
ATOM      3  C   UNL     1      28.999  19.898  25.263  1.00  0.00     0.000 C 
BRANCH   3   4
ATOM      4  C   UNL     1      28.516  18.982  24.129  1.00  0.00     0.000 C 
BRANCH   4   5
ATOM      5  C   UNL     1      26.987  18.877  24.127  1.00  0.00     0.000 C 
BRANCH   5   6
ATOM      6  C   UNL     1      26.416  19.083  22.716  1.00  0.00     0.000 C 
BRANCH   6   7
ATOM      7  C   UNL     1      27.521  19.327  21.667  1.00  0.00     0.000 C 
BRANCH   7   8
ATOM      8  C   UNL     1      28.925  18.876  22.118  1.00  0.00     0.000 C 
BRANCH   8   9
ATOM      9  C   UNL     1      30.049  19.110  21.094  1.00  0.00     0.000 C 
BRANCH   9  10
ATOM     10  C   UNL     1      31.450  19.095  21.730  1.00  0.00     0.000 C 
BRANCH  10  11
ATOM     11  C   UNL     1      31.857  20.469  22.287  1.00  0.00     0.000 C 
BRANCH  11  12
ATOM     12  C   UNL     1      31.005  21.614  21.723  1.00  0.00     0.000 C 
BRANCH  12  13
ATOM     13  C   UNL     1      31.849  22.884  21.536  1.00  0.00     0.006 C 
BRANCH  13  14
ATOM     14  C   UNL     1      31.145  23.928  20.659  1.00  0.00     0.053 C 
BRANCH  14  15
ATOM     15  C   UNL     1      31.598  25.321  20.976  1.00  0.00     0.041 C 
ATOM     16  O   UNL     1      32.694  25.512  21.564  1.00  0.00    -0.550 OA
ATOM     17  O   UNL     1      30.794  26.405  20.646  1.00  0.00    -0.550 OA
ENDBRANCH  14  15
ENDBRANCH  13  14
ENDBRANCH  12  13
ENDBRANCH  11  12
ENDBRANCH  10  11
ENDBRANCH   9  10
ENDBRANCH   8   9
ENDBRANCH   7   8
ENDBRANCH   6   7
ENDBRANCH   5   6
ENDBRANCH   4   5
ENDBRANCH   3   4
ENDBRANCH   2   3
ENDBRANCH   1   2
BRANCH   1  18
ATOM     18  C   UNL     1      26.293  21.209  25.338  1.00  0.00     0.000 C 
BRANCH  18  19
ATOM     19  C   UNL     1      25.420  20.911  26.575  1.00  0.00     0.000 C 
BRANCH  19  20
ATOM     20  C   UNL     1      24.945  19.450  26.710  1.00  0.00     0.000 C 
BRANCH  20  21
ATOM     21  C   UNL     1      23.543  19.165  26.143  1.00  0.00     0.000 C 
BRANCH  21  22
ATOM     22  C   UNL     1      22.470  19.052  27.238  1.00  0.00     0.000 C 
BRANCH  22  23
ATOM     23  C   UNL     1      22.142  20.406  27.891  1.00  0.00     0.000 C 
BRANCH  23  24
ATOM     24  C   UNL     1      21.883  21.517  26.859  1.00  0.00    -0.000 C 
BRANCH  24  25
ATOM     25  C   UNL     1      22.989  22.588  26.850  1.00  0.00    -0.000 C 
BRANCH  25  26
ATOM     26  C   UNL     1      22.538  23.996  27.291  1.00  0.00    -0.000 C 
BRANCH  26  27
ATOM     27  C   UNL     1      23.679  24.975  27.633  1.00  0.00    -0.000 C 
BRANCH  27  28
ATOM     28  C   UNL     1      25.093  24.491  27.266  1.00  0.00    -0.000 C 
BRANCH  28  29
ATOM     29  C   UNL     1      25.877  25.513  26.424  1.00  0.00    -0.000 C 
BRANCH  29  30
ATOM     30  C   UNL     1      25.278  25.716  25.020  1.00  0.00    -0.000 C 
BRANCH  30  31
ATOM     31  C   UNL     1      24.360  26.942  24.875  1.00  0.00    -0.003 C 
ATOM     32  C   UNL     1      24.656  27.765  23.622  1.00  0.00     0.004 C 
ENDBRANCH  30  31
ENDBRANCH  29  30
ENDBRANCH  28  29
ENDBRANCH  27  28
ENDBRANCH  26  27
ENDBRANCH  25  26
ENDBRANCH  24  25
ENDBRANCH  23  24
ENDBRANCH  22  23
ENDBRANCH  21  22
ENDBRANCH  20  21
ENDBRANCH  19  20
ENDBRANCH  18  19
ENDBRANCH   1  18
TORSDOF 28
ENDMDL
MODEL 3
REMARK VINA RESULT:     8.250      1.571      7.579
REMARK INTER + INTRA:          21.436
REMARK INTER:                  22.277
REMARK INTRA:                  -0.841
REMARK UNBOUND:                -0.319
REMARK SMILES CCCCCCCCCCCCCCCCCCCCCCCCCCCCCC(=O)[O-]
REMARK SMILES IDX 16 1 17 2 18 3 19 4 20 5 21 6 22 7 23 8 24 9 25 10 26 11
REMARK SMILES IDX 27 12 28 13 29 14 30 15 31 16 32 17 15 18 14 19 13 20 12 21
REMARK SMILES IDX 11 22 10 23 9 24 8 25 7 26 6 27 5 28 4 29 3 30 2 31 1 32
REMARK H PARENT
REMARK Flexibility Score: inf
ROOT
ATOM      1  C   UNL     1      26.673  21.626  24.661  1.00  0.00     0.000 C 
ENDROOT
BRANCH   1   2
ATOM      2  C   UNL     1      26.469  21.321  26.154  1.00  0.00     0.000 C 
BRANCH   2   3
ATOM      3  C   UNL     1      27.798  21.136  26.902  1.00  0.00     0.000 C 
BRANCH   3   4
ATOM      4  C   UNL     1      28.623  19.959  26.361  1.00  0.00     0.000 C 
BRANCH   4   5
ATOM      5  C   UNL     1      29.393  20.368  25.100  1.00  0.00     0.000 C 
BRANCH   5   6
ATOM      6  C   UNL     1      29.277  19.297  24.005  1.00  0.00     0.000 C 
BRANCH   6   7
ATOM      7  C   UNL     1      30.646  18.938  23.390  1.00  0.00     0.000 C 
BRANCH   7   8
ATOM      8  C   UNL     1      30.925  19.620  22.036  1.00  0.00     0.000 C 
BRANCH   8   9
ATOM      9  C   UNL     1      30.490  21.093  21.943  1.00  0.00     0.000 C 
BRANCH   9  10
ATOM     10  C   UNL     1      31.598  22.010  21.394  1.00  0.00     0.000 C 
BRANCH  10  11
ATOM     11  C   UNL     1      31.203  23.495  21.432  1.00  0.00     0.000 C 
BRANCH  11  12
ATOM     12  C   UNL     1      31.998  24.346  20.431  1.00  0.00     0.000 C 
BRANCH  12  13
ATOM     13  C   UNL     1      31.406  25.760  20.323  1.00  0.00     0.006 C 
BRANCH  13  14
ATOM     14  C   UNL     1      31.306  26.455  21.687  1.00  0.00     0.053 C 
BRANCH  14  15
ATOM     15  C   UNL     1      30.176  27.437  21.732  1.00  0.00     0.041 C 
ATOM     16  O   UNL     1      30.354  28.626  21.355  1.00  0.00    -0.550 OA
ATOM     17  O   UNL     1      28.934  27.047  22.217  1.00  0.00    -0.550 OA
ENDBRANCH  14  15
ENDBRANCH  13  14
ENDBRANCH  12  13
ENDBRANCH  11  12
ENDBRANCH  10  11
ENDBRANCH   9  10
ENDBRANCH   8   9
ENDBRANCH   7   8
ENDBRANCH   6   7
ENDBRANCH   5   6
ENDBRANCH   4   5
ENDBRANCH   3   4
ENDBRANCH   2   3
ENDBRANCH   1   2
BRANCH   1  18
ATOM     18  C   UNL     1      25.826  20.727  23.742  1.00  0.00     0.000 C 
BRANCH  18  19
ATOM     19  C   UNL     1      25.847  19.225  24.094  1.00  0.00     0.000 C 
BRANCH  19  20
ATOM     20  C   UNL     1      25.388  18.875  25.524  1.00  0.00     0.000 C 
BRANCH  20  21
ATOM     21  C   UNL     1      23.907  19.171  25.824  1.00  0.00     0.000 C 
BRANCH  21  22
ATOM     22  C   UNL     1      23.628  19.344  27.326  1.00  0.00     0.000 C 
BRANCH  22  23
ATOM     23  C   UNL     1      22.125  19.399  27.649  1.00  0.00     0.000 C 
BRANCH  23  24
ATOM     24  C   UNL     1      21.570  20.833  27.655  1.00  0.00    -0.000 C 
BRANCH  24  25
ATOM     25  C   UNL     1      22.383  21.789  26.764  1.00  0.00    -0.000 C 
BRANCH  25  26
ATOM     26  C   UNL     1      22.663  23.176  27.379  1.00  0.00    -0.000 C 
BRANCH  26  27
ATOM     27  C   UNL     1      23.713  24.026  26.636  1.00  0.00    -0.000 C 
BRANCH  27  28
ATOM     28  C   UNL     1      24.940  24.433  27.471  1.00  0.00    -0.000 C 
BRANCH  28  29
ATOM     29  C   UNL     1      25.490  25.819  27.093  1.00  0.00    -0.000 C 
BRANCH  29  30
ATOM     30  C   UNL     1      25.891  25.919  25.610  1.00  0.00    -0.000 C 
BRANCH  30  31
ATOM     31  C   UNL     1      24.797  26.462  24.675  1.00  0.00    -0.003 C 
ATOM     32  C   UNL     1      25.346  26.964  23.340  1.00  0.00     0.004 C 
ENDBRANCH  30  31
ENDBRANCH  29  30
ENDBRANCH  28  29
ENDBRANCH  27  28
ENDBRANCH  26  27
ENDBRANCH  25  26
ENDBRANCH  24  25
ENDBRANCH  23  24
ENDBRANCH  22  23
ENDBRANCH  21  22
ENDBRANCH  20  21
ENDBRANCH  19  20
ENDBRANCH  18  19
ENDBRANCH   1  18
TORSDOF 28
ENDMDL
MODEL 4
REMARK VINA RESULT:     8.295      1.253      2.617
REMARK INTER + INTRA:          21.553
REMARK INTER:                  23.227
REMARK INTRA:                  -1.674
REMARK UNBOUND:                -0.319
REMARK SMILES CCCCCCCCCCCCCCCCCCCCCCCCCCCCCC(=O)[O-]
REMARK SMILES IDX 16 1 17 2 18 3 19 4 20 5 21 6 22 7 23 8 24 9 25 10 26 11
REMARK SMILES IDX 27 12 28 13 29 14 30 15 31 16 32 17 15 18 14 19 13 20 12 21
REMARK SMILES IDX 11 22 10 23 9 24 8 25 7 26 6 27 5 28 4 29 3 30 2 31 1 32
REMARK H PARENT
REMARK Flexibility Score: inf
ROOT
ATOM      1  C   UNL     1      26.928  21.599  26.849  1.00  0.00     0.000 C 
ENDROOT
BRANCH   1   2
ATOM      2  C   UNL     1      25.847  20.517  26.685  1.00  0.00     0.000 C 
BRANCH   2   3
ATOM      3  C   UNL     1      25.374  20.376  25.230  1.00  0.00     0.000 C 
BRANCH   3   4
ATOM      4  C   UNL     1      24.985  18.935  24.870  1.00  0.00     0.000 C 
BRANCH   4   5
ATOM      5  C   UNL     1      23.559  18.879  24.310  1.00  0.00     0.000 C 
BRANCH   5   6
ATOM      6  C   UNL     1      22.518  19.128  25.411  1.00  0.00     0.000 C 
BRANCH   6   7
ATOM      7  C   UNL     1      23.162  19.258  26.807  1.00  0.00     0.000 C 
BRANCH   7   8
ATOM      8  C   UNL     1      22.298  20.025  27.828  1.00  0.00     0.000 C 
BRANCH   8   9
ATOM      9  C   UNL     1      21.573  21.263  27.273  1.00  0.00     0.000 C 
BRANCH   9  10
ATOM     10  C   UNL     1      22.512  22.215  26.511  1.00  0.00     0.000 C 
BRANCH  10  11
ATOM     11  C   UNL     1      23.410  23.034  27.452  1.00  0.00     0.000 C 
BRANCH  11  12
ATOM     12  C   UNL     1      24.532  23.772  26.709  1.00  0.00     0.000 C 
BRANCH  12  13
ATOM     13  C   UNL     1      23.992  25.031  26.014  1.00  0.00     0.006 C 
BRANCH  13  14
ATOM     14  C   UNL     1      25.088  26.078  25.771  1.00  0.00     0.053 C 
BRANCH  14  15
ATOM     15  C   UNL     1      24.963  26.714  24.420  1.00  0.00     0.041 C 
ATOM     16  O   UNL     1      25.136  26.028  23.379  1.00  0.00    -0.550 OA
ATOM     17  O   UNL     1      24.685  28.071  24.313  1.00  0.00    -0.550 OA
ENDBRANCH  14  15
ENDBRANCH  13  14
ENDBRANCH  12  13
ENDBRANCH  11  12
ENDBRANCH  10  11
ENDBRANCH   9  10
ENDBRANCH   8   9
ENDBRANCH   7   8
ENDBRANCH   6   7
ENDBRANCH   5   6
ENDBRANCH   4   5
ENDBRANCH   3   4
ENDBRANCH   2   3
ENDBRANCH   1   2
BRANCH   1  18
ATOM     18  C   UNL     1      27.593  21.989  25.516  1.00  0.00     0.000 C 
BRANCH  18  19
ATOM     19  C   UNL     1      29.135  21.951  25.516  1.00  0.00     0.000 C 
BRANCH  19  20
ATOM     20  C   UNL     1      29.761  20.619  25.054  1.00  0.00     0.000 C 
BRANCH  20  21
ATOM     21  C   UNL     1      28.787  19.642  24.373  1.00  0.00     0.000 C 
BRANCH  21  22
ATOM     22  C   UNL     1      29.431  18.875  23.207  1.00  0.00     0.000 C 
BRANCH  22  23
ATOM     23  C   UNL     1      29.489  19.702  21.911  1.00  0.00     0.000 C 
BRANCH  23  24
ATOM     24  C   UNL     1      30.921  20.119  21.535  1.00  0.00    -0.000 C 
BRANCH  24  25
ATOM     25  C   UNL     1      31.294  21.513  22.071  1.00  0.00    -0.000 C 
BRANCH  25  26
ATOM     26  C   UNL     1      31.912  22.470  21.029  1.00  0.00    -0.000 C 
BRANCH  26  27
ATOM     27  C   UNL     1      31.236  23.852  20.923  1.00  0.00    -0.000 C 
BRANCH  27  28
ATOM     28  C   UNL     1      32.198  25.053  20.880  1.00  0.00    -0.000 C 
BRANCH  28  29
ATOM     29  C   UNL     1      31.470  26.406  20.957  1.00  0.00    -0.000 C 
BRANCH  29  30
ATOM     30  C   UNL     1      30.741  26.618  22.296  1.00  0.00    -0.000 C 
BRANCH  30  31
ATOM     31  C   UNL     1      29.922  27.917  22.393  1.00  0.00    -0.003 C 
ATOM     32  C   UNL     1      29.705  28.589  21.038  1.00  0.00     0.004 C 
ENDBRANCH  30  31
ENDBRANCH  29  30
ENDBRANCH  28  29
ENDBRANCH  27  28
ENDBRANCH  26  27
ENDBRANCH  25  26
ENDBRANCH  24  25
ENDBRANCH  23  24
ENDBRANCH  22  23
ENDBRANCH  21  22
ENDBRANCH  20  21
ENDBRANCH  19  20
ENDBRANCH  18  19
ENDBRANCH   1  18
TORSDOF 28
ENDMDL
MODEL 5
REMARK VINA RESULT:     8.331      1.991      7.691
REMARK INTER + INTRA:          21.650
REMARK INTER:                  22.522
REMARK INTRA:                  -0.872
REMARK UNBOUND:                -0.319
REMARK SMILES CCCCCCCCCCCCCCCCCCCCCCCCCCCCCC(=O)[O-]
REMARK SMILES IDX 16 1 17 2 18 3 19 4 20 5 21 6 22 7 23 8 24 9 25 10 26 11
REMARK SMILES IDX 27 12 28 13 29 14 30 15 31 16 32 17 15 18 14 19 13 20 12 21
REMARK SMILES IDX 11 22 10 23 9 24 8 25 7 26 6 27 5 28 4 29 3 30 2 31 1 32
REMARK H PARENT
REMARK Flexibility Score: inf
ROOT
ATOM      1  C   UNL     1      27.134  21.032  25.772  1.00  0.00     0.000 C 
ENDROOT
BRANCH   1   2
ATOM      2  C   UNL     1      28.179  20.857  24.657  1.00  0.00     0.000 C 
BRANCH   2   3
ATOM      3  C   UNL     1      27.572  20.271  23.373  1.00  0.00     0.000 C 
BRANCH   3   4
ATOM      4  C   UNL     1      28.201  18.925  22.981  1.00  0.00     0.000 C 
BRANCH   4   5
ATOM      5  C   UNL     1      29.703  18.917  23.288  1.00  0.00     0.000 C 
BRANCH   5   6
ATOM      6  C   UNL     1      30.513  19.510  22.126  1.00  0.00     0.000 C 
BRANCH   6   7
ATOM      7  C   UNL     1      31.109  20.891  22.473  1.00  0.00     0.000 C 
BRANCH   7   8
ATOM      8  C   UNL     1      30.587  22.040  21.589  1.00  0.00     0.000 C 
BRANCH   8   9
ATOM      9  C   UNL     1      31.673  22.934  20.966  1.00  0.00     0.000 C 
BRANCH   9  10
ATOM     10  C   UNL     1      31.162  24.344  20.620  1.00  0.00     0.000 C 
BRANCH  10  11
ATOM     11  C   UNL     1      32.262  25.412  20.733  1.00  0.00     0.000 C 
BRANCH  11  12
ATOM     12  C   UNL     1      31.894  26.542  21.705  1.00  0.00     0.000 C 
BRANCH  12  13
ATOM     13  C   UNL     1      30.409  26.470  22.091  1.00  0.00     0.006 C 
BRANCH  13  14
ATOM     14  C   UNL     1      29.892  27.794  22.671  1.00  0.00     0.053 C 
BRANCH  14  15
ATOM     15  C   UNL     1      30.056  28.927  21.705  1.00  0.00     0.041 C 
ATOM     16  O   UNL     1      29.963  28.723  20.466  1.00  0.00    -0.550 OA
ATOM     17  O   UNL     1      30.341  30.204  22.173  1.00  0.00    -0.550 OA
ENDBRANCH  14  15
ENDBRANCH  13  14
ENDBRANCH  12  13
ENDBRANCH  11  12
ENDBRANCH  10  11
ENDBRANCH   9  10
ENDBRANCH   8   9
ENDBRANCH   7   8
ENDBRANCH   6   7
ENDBRANCH   5   6
ENDBRANCH   4   5
ENDBRANCH   3   4
ENDBRANCH   2   3
ENDBRANCH   1   2
BRANCH   1  18
ATOM     18  C   UNL     1      27.039  19.810  26.704  1.00  0.00     0.000 C 
BRANCH  18  19
ATOM     19  C   UNL     1      25.771  18.948  26.528  1.00  0.00     0.000 C 
BRANCH  19  20
ATOM     20  C   UNL     1      25.013  19.153  25.201  1.00  0.00     0.000 C 
BRANCH  20  21
ATOM     21  C   UNL     1      23.479  19.183  25.325  1.00  0.00     0.000 C 
BRANCH  21  22
ATOM     22  C   UNL     1      23.000  19.164  26.786  1.00  0.00     0.000 C 
BRANCH  22  23
ATOM     23  C   UNL     1      21.903  20.206  27.065  1.00  0.00     0.000 C 
BRANCH  23  24
ATOM     24  C   UNL     1      22.457  21.634  27.192  1.00  0.00    -0.000 C 
BRANCH  24  25
ATOM     25  C   UNL     1      23.839  21.797  26.534  1.00  0.00    -0.000 C 
BRANCH  25  26
ATOM     26  C   UNL     1      24.324  23.254  26.383  1.00  0.00    -0.000 C 
BRANCH  26  27
ATOM     27  C   UNL     1      24.074  24.160  27.606  1.00  0.00    -0.000 C 
BRANCH  27  28
ATOM     28  C   UNL     1      24.245  25.669  27.352  1.00  0.00    -0.000 C 
BRANCH  28  29
ATOM     29  C   UNL     1      25.462  25.994  26.470  1.00  0.00    -0.000 C 
BRANCH  29  30
ATOM     30  C   UNL     1      25.280  25.542  25.009  1.00  0.00    -0.000 C 
BRANCH  30  31
ATOM     31  C   UNL     1      25.363  26.669  23.964  1.00  0.00    -0.003 C 
ATOM     32  C   UNL     1      24.291  27.741  24.155  1.00  0.00     0.004 C 
ENDBRANCH  30  31
ENDBRANCH  29  30
ENDBRANCH  28  29
ENDBRANCH  27  28
ENDBRANCH  26  27
ENDBRANCH  25  26
ENDBRANCH  24  25
ENDBRANCH  23  24
ENDBRANCH  22  23
ENDBRANCH  21  22
ENDBRANCH  20  21
ENDBRANCH  19  20
ENDBRANCH  18  19
ENDBRANCH   1  18
TORSDOF 28
ENDMDL
MODEL 6
REMARK VINA RESULT:     8.493      1.173      1.756
REMARK INTER + INTRA:          22.077
REMARK INTER:                  18.897
REMARK INTRA:                   3.180
REMARK UNBOUND:                -0.319
REMARK SMILES CCCCCCCCCCCCCCCCCCCCCCCCCCCCCC(=O)[O-]
REMARK SMILES IDX 16 1 17 2 18 3 19 4 20 5 21 6 22 7 23 8 24 9 25 10 26 11
REMARK SMILES IDX 27 12 28 13 29 14 30 15 31 16 32 17 15 18 14 19 13 20 12 21
REMARK SMILES IDX 11 22 10 23 9 24 8 25 7 26 6 27 5 28 4 29 3 30 2 31 1 32
REMARK H PARENT
REMARK Flexibility Score: inf
ROOT
ATOM      1  C   UNL     1      25.873  20.151  25.061  1.00  0.00     0.000 C 
ENDROOT
BRANCH   1   2
ATOM      2  C   UNL     1      24.565  20.136  24.252  1.00  0.00     0.000 C 
BRANCH   2   3
ATOM      3  C   UNL     1      23.680  18.926  24.592  1.00  0.00     0.000 C 
BRANCH   3   4
ATOM      4  C   UNL     1      22.673  19.226  25.712  1.00  0.00     0.000 C 
BRANCH   4   5
ATOM      5  C   UNL     1      23.375  19.289  27.073  1.00  0.00     0.000 C 
BRANCH   5   6
ATOM      6  C   UNL     1      22.359  19.282  28.225  1.00  0.00     0.000 C 
BRANCH   6   7
ATOM      7  C   UNL     1      21.497  20.562  28.252  1.00  0.00     0.000 C 
BRANCH   7   8
ATOM      8  C   UNL     1      21.903  21.615  27.202  1.00  0.00     0.000 C 
BRANCH   8   9
ATOM      9  C   UNL     1      23.415  21.731  26.942  1.00  0.00     0.000 C 
BRANCH   9  10
ATOM     10  C   UNL     1      23.783  22.960  26.091  1.00  0.00     0.000 C 
BRANCH  10  11
ATOM     11  C   UNL     1      25.017  23.700  26.631  1.00  0.00     0.000 C 
BRANCH  11  12
ATOM     12  C   UNL     1      24.649  24.867  27.560  1.00  0.00     0.000 C 
BRANCH  12  13
ATOM     13  C   UNL     1      25.404  26.144  27.160  1.00  0.00     0.006 C 
BRANCH  13  14
ATOM     14  C   UNL     1      25.922  26.086  25.716  1.00  0.00     0.053 C 
BRANCH  14  15
ATOM     15  C   UNL     1      24.865  26.476  24.729  1.00  0.00     0.041 C 
ATOM     16  O   UNL     1      24.258  25.592  24.069  1.00  0.00    -0.550 OA
ATOM     17  O   UNL     1      24.572  27.817  24.517  1.00  0.00    -0.550 OA
ENDBRANCH  14  15
ENDBRANCH  13  14
ENDBRANCH  12  13
ENDBRANCH  11  12
ENDBRANCH  10  11
ENDBRANCH   9  10
ENDBRANCH   8   9
ENDBRANCH   7   8
ENDBRANCH   6   7
ENDBRANCH   5   6
ENDBRANCH   4   5
ENDBRANCH   3   4
ENDBRANCH   2   3
ENDBRANCH   1   2
BRANCH   1  18
ATOM     18  C   UNL     1      26.734  21.398  24.786  1.00  0.00     0.000 C 
BRANCH  18  19
ATOM     19  C   UNL     1      28.221  21.116  24.486  1.00  0.00     0.000 C 
BRANCH  19  20
ATOM     20  C   UNL     1      28.965  20.290  25.556  1.00  0.00     0.000 C 
BRANCH  20  21
ATOM     21  C   UNL     1      29.383  18.876  25.113  1.00  0.00     0.000 C 
BRANCH  21  22
ATOM     22  C   UNL     1      30.452  18.891  24.008  1.00  0.00     0.000 C 
BRANCH  22  23
ATOM     23  C   UNL     1      29.951  19.532  22.703  1.00  0.00     0.000 C 
BRANCH  23  24
ATOM     24  C   UNL     1      30.552  18.876  21.449  1.00  0.00    -0.000 C 
BRANCH  24  25
ATOM     25  C   UNL     1      32.084  19.008  21.385  1.00  0.00    -0.000 C 
BRANCH  25  26
ATOM     26  C   UNL     1      32.647  20.345  21.909  1.00  0.00    -0.000 C 
BRANCH  26  27
ATOM     27  C   UNL     1      31.590  21.405  22.278  1.00  0.00    -0.000 C 
BRANCH  27  28
ATOM     28  C   UNL     1      31.157  22.331  21.127  1.00  0.00    -0.000 C 
BRANCH  28  29
ATOM     29  C   UNL     1      31.790  23.731  21.215  1.00  0.00    -0.000 C 
BRANCH  29  30
ATOM     30  C   UNL     1      30.933  24.818  20.541  1.00  0.00    -0.000 C 
BRANCH  30  31
ATOM     31  C   UNL     1      31.424  26.260  20.757  1.00  0.00    -0.003 C 
ATOM     32  C   UNL     1      32.611  26.351  21.714  1.00  0.00     0.004 C 
ENDBRANCH  30  31
ENDBRANCH  29  30
ENDBRANCH  28  29
ENDBRANCH  27  28
ENDBRANCH  26  27
ENDBRANCH  25  26
ENDBRANCH  24  25
ENDBRANCH  23  24
ENDBRANCH  22  23
ENDBRANCH  21  22
ENDBRANCH  20  21
ENDBRANCH  19  20
ENDBRANCH  18  19
ENDBRANCH   1  18
TORSDOF 28
ENDMDL
MODEL 7
REMARK VINA RESULT:     9.352      2.039      8.320
REMARK INTER + INTRA:          24.342
REMARK INTER:                  23.575
REMARK INTRA:                   0.766
REMARK UNBOUND:                -0.319
REMARK SMILES CCCCCCCCCCCCCCCCCCCCCCCCCCCCCC(=O)[O-]
REMARK SMILES IDX 16 1 17 2 18 3 19 4 20 5 21 6 22 7 23 8 24 9 25 10 26 11
REMARK SMILES IDX 27 12 28 13 29 14 30 15 31 16 32 17 15 18 14 19 13 20 12 21
REMARK SMILES IDX 11 22 10 23 9 24 8 25 7 26 6 27 5 28 4 29 3 30 2 31 1 32
REMARK H PARENT
REMARK Flexibility Score: inf
ROOT
ATOM      1  C   UNL     1      26.011  22.047  26.152  1.00  0.00     0.000 C 
ENDROOT
BRANCH   1   2
ATOM      2  C   UNL     1      26.826  21.983  24.850  1.00  0.00     0.000 C 
BRANCH   2   3
ATOM      3  C   UNL     1      27.123  20.539  24.416  1.00  0.00     0.000 C 
BRANCH   3   4
ATOM      4  C   UNL     1      28.270  19.904  25.216  1.00  0.00     0.000 C 
BRANCH   4   5
ATOM      5  C   UNL     1      29.385  19.422  24.280  1.00  0.00     0.000 C 
BRANCH   5   6
ATOM      6  C   UNL     1      28.864  19.225  22.848  1.00  0.00     0.000 C 
BRANCH   6   7
ATOM      7  C   UNL     1      29.998  19.269  21.802  1.00  0.00     0.000 C 
BRANCH   7   8
ATOM      8  C   UNL     1      31.383  18.882  22.360  1.00  0.00     0.000 C 
BRANCH   8   9
ATOM      9  C   UNL     1      32.572  19.643  21.748  1.00  0.00     0.000 C 
BRANCH   9  10
ATOM     10  C   UNL     1      32.236  21.107  21.412  1.00  0.00     0.000 C 
BRANCH  10  11
ATOM     11  C   UNL     1      31.147  21.686  22.328  1.00  0.00     0.000 C 
BRANCH  11  12
ATOM     12  C   UNL     1      31.001  23.208  22.189  1.00  0.00     0.000 C 
BRANCH  12  13
ATOM     13  C   UNL     1      30.837  23.609  20.715  1.00  0.00     0.006 C 
BRANCH  13  14
ATOM     14  C   UNL     1      31.781  24.751  20.313  1.00  0.00     0.053 C 
BRANCH  14  15
ATOM     15  C   UNL     1      31.744  25.878  21.298  1.00  0.00     0.041 C 
ATOM     16  O   UNL     1      32.793  26.226  21.902  1.00  0.00    -0.550 OA
ATOM     17  O   UNL     1      30.545  26.526  21.571  1.00  0.00    -0.550 OA
ENDBRANCH  14  15
ENDBRANCH  13  14
ENDBRANCH  12  13
ENDBRANCH  11  12
ENDBRANCH  10  11
ENDBRANCH   9  10
ENDBRANCH   8   9
ENDBRANCH   7   8
ENDBRANCH   6   7
ENDBRANCH   5   6
ENDBRANCH   4   5
ENDBRANCH   3   4
ENDBRANCH   2   3
ENDBRANCH   1   2
BRANCH   1  18
ATOM     18  C   UNL     1      25.854  20.674  26.831  1.00  0.00     0.000 C 
BRANCH  18  19
ATOM     19  C   UNL     1      25.218  19.577  25.953  1.00  0.00     0.000 C 
BRANCH  19  20
ATOM     20  C   UNL     1      23.713  19.753  25.664  1.00  0.00     0.000 C 
BRANCH  20  21
ATOM     21  C   UNL     1      22.779  18.875  26.516  1.00  0.00     0.000 C 
BRANCH  21  22
ATOM     22  C   UNL     1      23.106  18.940  28.017  1.00  0.00     0.000 C 
BRANCH  22  23
ATOM     23  C   UNL     1      21.850  18.883  28.902  1.00  0.00     0.000 C 
BRANCH  23  24
ATOM     24  C   UNL     1      21.426  20.267  29.424  1.00  0.00    -0.000 C 
BRANCH  24  25
ATOM     25  C   UNL     1      20.498  21.012  28.447  1.00  0.00    -0.000 C 
BRANCH  25  26
ATOM     26  C   UNL     1      21.200  21.619  27.215  1.00  0.00    -0.000 C 
BRANCH  26  27
ATOM     27  C   UNL     1      22.519  22.361  27.508  1.00  0.00    -0.000 C 
BRANCH  27  28
ATOM     28  C   UNL     1      22.880  23.480  26.514  1.00  0.00    -0.000 C 
BRANCH  28  29
ATOM     29  C   UNL     1      24.057  24.349  26.991  1.00  0.00    -0.000 C 
BRANCH  29  30
ATOM     30  C   UNL     1      24.657  25.212  25.866  1.00  0.00    -0.000 C 
BRANCH  30  31
ATOM     31  C   UNL     1      25.495  26.411  26.343  1.00  0.00    -0.003 C 
ATOM     32  C   UNL     1      26.975  26.287  25.981  1.00  0.00     0.004 C 
ENDBRANCH  30  31
ENDBRANCH  29  30
ENDBRANCH  28  29
ENDBRANCH  27  28
ENDBRANCH  26  27
ENDBRANCH  25  26
ENDBRANCH  24  25
ENDBRANCH  23  24
ENDBRANCH  22  23
ENDBRANCH  21  22
ENDBRANCH  20  21
ENDBRANCH  19  20
ENDBRANCH  18  19
ENDBRANCH   1  18
TORSDOF 28
ENDMDL
MODEL 8
REMARK VINA RESULT:     9.691      2.730      8.504
REMARK INTER + INTRA:          25.235
REMARK INTER:                  21.802
REMARK INTRA:                   3.433
REMARK UNBOUND:                -0.319
REMARK SMILES CCCCCCCCCCCCCCCCCCCCCCCCCCCCCC(=O)[O-]
REMARK SMILES IDX 16 1 17 2 18 3 19 4 20 5 21 6 22 7 23 8 24 9 25 10 26 11
REMARK SMILES IDX 27 12 28 13 29 14 30 15 31 16 32 17 15 18 14 19 13 20 12 21
REMARK SMILES IDX 11 22 10 23 9 24 8 25 7 26 6 27 5 28 4 29 3 30 2 31 1 32
REMARK H PARENT
REMARK Flexibility Score: inf
ROOT
ATOM      1  C   UNL     1      25.853  21.267  25.766  1.00  0.00     0.000 C 
ENDROOT
BRANCH   1   2
ATOM      2  C   UNL     1      27.042  20.364  25.398  1.00  0.00     0.000 C 
BRANCH   2   3
ATOM      3  C   UNL     1      28.330  20.761  26.137  1.00  0.00     0.000 C 
BRANCH   3   4
ATOM      4  C   UNL     1      29.579  20.085  25.553  1.00  0.00     0.000 C 
BRANCH   4   5
ATOM      5  C   UNL     1      29.193  18.875  24.694  1.00  0.00     0.000 C 
BRANCH   5   6
ATOM      6  C   UNL     1      29.952  18.875  23.358  1.00  0.00     0.000 C 
BRANCH   6   7
ATOM      7  C   UNL     1      31.416  19.340  23.517  1.00  0.00     0.000 C 
BRANCH   7   8
ATOM      8  C   UNL     1      31.818  20.483  22.564  1.00  0.00     0.000 C 
BRANCH   8   9
ATOM      9  C   UNL     1      30.836  20.751  21.411  1.00  0.00     0.000 C 
BRANCH   9  10
ATOM     10  C   UNL     1      29.371  20.479  21.796  1.00  0.00     0.000 C 
BRANCH  10  11
ATOM     11  C   UNL     1      28.932  19.045  21.461  1.00  0.00     0.000 C 
BRANCH  11  12
ATOM     12  C   UNL     1      27.751  19.000  20.480  1.00  0.00     0.000 C 
BRANCH  12  13
ATOM     13  C   UNL     1      26.441  19.388  21.183  1.00  0.00     0.006 C 
BRANCH  13  14
ATOM     14  C   UNL     1      25.226  19.275  20.252  1.00  0.00     0.053 C 
BRANCH  14  15
ATOM     15  C   UNL     1      25.453  19.979  18.950  1.00  0.00     0.041 C 
ATOM     16  O   UNL     1      25.806  19.329  17.931  1.00  0.00    -0.550 OA
ATOM     17  O   UNL     1      25.302  21.358  18.869  1.00  0.00    -0.550 OA
ENDBRANCH  14  15
ENDBRANCH  13  14
ENDBRANCH  12  13
ENDBRANCH  11  12
ENDBRANCH  10  11
ENDBRANCH   9  10
ENDBRANCH   8   9
ENDBRANCH   7   8
ENDBRANCH   6   7
ENDBRANCH   5   6
ENDBRANCH   4   5
ENDBRANCH   3   4
ENDBRANCH   2   3
ENDBRANCH   1   2
BRANCH   1  18
ATOM     18  C   UNL     1      24.508  20.517  25.770  1.00  0.00     0.000 C 
BRANCH  18  19
ATOM     19  C   UNL     1      24.561  19.078  26.324  1.00  0.00     0.000 C 
BRANCH  19  20
ATOM     20  C   UNL     1      24.138  18.922  27.798  1.00  0.00     0.000 C 
BRANCH  20  21
ATOM     21  C   UNL     1      22.621  18.982  28.051  1.00  0.00     0.000 C 
BRANCH  21  22
ATOM     22  C   UNL     1      22.270  19.062  29.546  1.00  0.00     0.000 C 
BRANCH  22  23
ATOM     23  C   UNL     1      21.094  20.011  29.831  1.00  0.00     0.000 C 
BRANCH  23  24
ATOM     24  C   UNL     1      21.104  21.258  28.931  1.00  0.00    -0.000 C 
BRANCH  24  25
ATOM     25  C   UNL     1      21.079  20.909  27.432  1.00  0.00    -0.000 C 
BRANCH  25  26
ATOM     26  C   UNL     1      21.745  21.949  26.508  1.00  0.00    -0.000 C 
BRANCH  26  27
ATOM     27  C   UNL     1      22.251  23.225  27.210  1.00  0.00    -0.000 C 
BRANCH  27  28
ATOM     28  C   UNL     1      23.757  23.508  27.055  1.00  0.00    -0.000 C 
BRANCH  28  29
ATOM     29  C   UNL     1      24.128  24.967  27.371  1.00  0.00    -0.000 C 
BRANCH  29  30
ATOM     30  C   UNL     1      25.581  25.310  26.996  1.00  0.00    -0.000 C 
BRANCH  30  31
ATOM     31  C   UNL     1      25.756  26.604  26.182  1.00  0.00    -0.003 C 
ATOM     32  C   UNL     1      24.915  26.626  24.907  1.00  0.00     0.004 C 
ENDBRANCH  30  31
ENDBRANCH  29  30
ENDBRANCH  28  29
ENDBRANCH  27  28
ENDBRANCH  26  27
ENDBRANCH  25  26
ENDBRANCH  24  25
ENDBRANCH  23  24
ENDBRANCH  22  23
ENDBRANCH  21  22
ENDBRANCH  20  21
ENDBRANCH  19  20
ENDBRANCH  18  19
ENDBRANCH   1  18
TORSDOF 28
ENDMDL
