MODEL 1
REMARK VINA RESULT:    -5.266      0.000      0.000
REMARK INTER + INTRA:         -12.827
REMARK INTER:                 -11.422
REMARK INTRA:                  -1.405
REMARK UNBOUND:                -1.405
REMARK SMILES CCCCCCCCCCCCCCCCCCCCCC(=O)[O-]
REMARK SMILES IDX 12 1 11 2 10 3 9 4 8 5 7 6 6 7 5 8 4 9 3 10 2 11 1 12 13 13
REMARK SMILES IDX 14 14 15 15 16 16 17 17 18 18 19 19 20 20 21 21 22 22 23 23
REMARK SMILES IDX 24 24
REMARK H PARENT
REMARK Flexibility Score: inf
ROOT
ATOM      1  C   UNL     1       1.056  -3.392  -0.406  1.00  0.00     0.000 C 
ENDROOT
BRANCH   1   2
ATOM      2  C   UNL     1       0.252  -2.241   0.227  1.00  0.00     0.000 C 
BRANCH   2   3
ATOM      3  C   UNL     1       1.039  -1.484   1.312  1.00  0.00     0.000 C 
BRANCH   3   4
ATOM      4  C   UNL     1       0.759   0.027   1.394  1.00  0.00    -0.000 C 
BRANCH   4   5
ATOM      5  C   UNL     1       0.013   0.567   0.164  1.00  0.00    -0.000 C 
BRANCH   5   6
ATOM      6  C   UNL     1      -0.747   1.870   0.458  1.00  0.00    -0.000 C 
BRANCH   6   7
ATOM      7  C   UNL     1      -2.061   1.983  -0.338  1.00  0.00    -0.000 C 
BRANCH   7   8
ATOM      8  C   UNL     1      -1.851   2.648  -1.716  1.00  0.00    -0.000 C 
BRANCH   8   9
ATOM      9  C   UNL     1      -0.952   3.897  -1.663  1.00  0.00    -0.000 C 
BRANCH   9  10
ATOM     10  C   UNL     1       0.363   3.718  -2.435  1.00  0.00    -0.000 C 
BRANCH  10  11
ATOM     11  C   UNL     1       0.330   2.508  -3.383  1.00  0.00    -0.003 C 
ATOM     12  C   UNL     1       1.044   2.777  -4.710  1.00  0.00     0.004 C 
ENDBRANCH  10  11
ENDBRANCH   9  10
ENDBRANCH   8   9
ENDBRANCH   7   8
ENDBRANCH   6   7
ENDBRANCH   5   6
ENDBRANCH   4   5
ENDBRANCH   3   4
ENDBRANCH   2   3
ENDBRANCH   1   2
BRANCH   1  13
ATOM     13  C   UNL     1       0.788  -3.532  -1.912  1.00  0.00     0.000 C 
BRANCH  13  14
ATOM     14  C   UNL     1       0.304  -4.940  -2.292  1.00  0.00     0.000 C 
BRANCH  14  15
ATOM     15  C   UNL     1       0.132  -5.817  -1.045  1.00  0.00     0.000 C 
BRANCH  15  16
ATOM     16  C   UNL     1      -0.071  -7.306  -1.384  1.00  0.00     0.000 C 
BRANCH  16  17
ATOM     17  C   UNL     1       0.649  -8.296  -0.444  1.00  0.00     0.000 C 
BRANCH  17  18
ATOM     18  C   UNL     1       1.060  -9.633  -1.089  1.00  0.00     0.000 C 
BRANCH  18  19
ATOM     19  C   UNL     1       1.364  -9.501  -2.591  1.00  0.00     0.000 C 
BRANCH  19  20
ATOM     20  C   UNL     1       2.806  -9.044  -2.865  1.00  0.00     0.006 C 
BRANCH  20  21
ATOM     21  C   UNL     1       3.385  -9.640  -4.156  1.00  0.00     0.053 C 
BRANCH  21  22
ATOM     22  C   UNL     1       4.009  -8.568  -4.993  1.00  0.00     0.041 C 
ATOM     23  O   UNL     1       5.205  -8.228  -4.799  1.00  0.00    -0.550 OA
ATOM     24  O   UNL     1       3.258  -7.916  -5.967  1.00  0.00    -0.550 OA
ENDBRANCH  21  22
ENDBRANCH  20  21
ENDBRANCH  19  20
ENDBRANCH  18  19
ENDBRANCH  17  18
ENDBRANCH  16  17
ENDBRANCH  15  16
ENDBRANCH  14  15
ENDBRANCH  13  14
ENDBRANCH   1  13
TORSDOF 20
ENDMDL
MODEL 2
REMARK VINA RESULT:    -5.241      3.429     10.333
REMARK INTER + INTRA:         -12.774
REMARK INTER:                 -11.792
REMARK INTRA:                  -0.982
REMARK UNBOUND:                -1.405
REMARK SMILES CCCCCCCCCCCCCCCCCCCCCC(=O)[O-]
REMARK SMILES IDX 12 1 11 2 10 3 9 4 8 5 7 6 6 7 5 8 4 9 3 10 2 11 1 12 13 13
REMARK SMILES IDX 14 14 15 15 16 16 17 17 18 18 19 19 20 20 21 21 22 22 23 23
REMARK SMILES IDX 24 24
REMARK H PARENT
REMARK Flexibility Score: inf
ROOT
ATOM      1  C   UNL     1       0.769  -3.645  -0.327  1.00  0.00     0.000 C 
ENDROOT
BRANCH   1   2
ATOM      2  C   UNL     1       0.700  -3.995  -1.826  1.00  0.00     0.000 C 
BRANCH   2   3
ATOM      3  C   UNL     1       0.011  -5.344  -2.098  1.00  0.00     0.000 C 
BRANCH   3   4
ATOM      4  C   UNL     1       0.386  -6.482  -1.132  1.00  0.00    -0.000 C 
BRANCH   4   5
ATOM      5  C   UNL     1      -0.577  -7.677  -1.212  1.00  0.00    -0.000 C 
BRANCH   5   6
ATOM      6  C   UNL     1       0.119  -9.016  -0.922  1.00  0.00    -0.000 C 
BRANCH   6   7
ATOM      7  C   UNL     1       1.584  -9.040  -1.399  1.00  0.00    -0.000 C 
BRANCH   7   8
ATOM      8  C   UNL     1       1.699  -9.334  -2.911  1.00  0.00    -0.000 C 
BRANCH   8   9
ATOM      9  C   UNL     1       3.128  -9.177  -3.459  1.00  0.00    -0.000 C 
BRANCH   9  10
ATOM     10  C   UNL     1       3.178  -8.397  -4.781  1.00  0.00    -0.000 C 
BRANCH  10  11
ATOM     11  C   UNL     1       4.335  -8.849  -5.687  1.00  0.00    -0.003 C 
ATOM     12  C   UNL     1       3.949  -8.881  -7.167  1.00  0.00     0.004 C 
ENDBRANCH  10  11
ENDBRANCH   9  10
ENDBRANCH   8   9
ENDBRANCH   7   8
ENDBRANCH   6   7
ENDBRANCH   5   6
ENDBRANCH   4   5
ENDBRANCH   3   4
ENDBRANCH   2   3
ENDBRANCH   1   2
BRANCH   1  13
ATOM     13  C   UNL     1       0.380  -2.185  -0.050  1.00  0.00     0.000 C 
BRANCH  13  14
ATOM     14  C   UNL     1       1.022  -1.643   1.237  1.00  0.00     0.000 C 
BRANCH  14  15
ATOM     15  C   UNL     1       0.784  -0.134   1.376  1.00  0.00     0.000 C 
BRANCH  15  16
ATOM     16  C   UNL     1       0.067   0.474   0.156  1.00  0.00     0.000 C 
BRANCH  16  17
ATOM     17  C   UNL     1      -0.611   1.837   0.406  1.00  0.00     0.000 C 
BRANCH  17  18
ATOM     18  C   UNL     1      -2.007   2.003  -0.222  1.00  0.00     0.000 C 
BRANCH  18  19
ATOM     19  C   UNL     1      -2.169   3.337  -0.969  1.00  0.00     0.000 C 
BRANCH  19  20
ATOM     20  C   UNL     1      -0.939   3.695  -1.817  1.00  0.00     0.006 C 
BRANCH  20  21
ATOM     21  C   UNL     1      -0.643   2.657  -2.908  1.00  0.00     0.053 C 
BRANCH  21  22
ATOM     22  C   UNL     1       0.584   3.039  -3.676  1.00  0.00     0.041 C 
ATOM     23  O   UNL     1       1.004   2.301  -4.605  1.00  0.00    -0.550 OA
ATOM     24  O   UNL     1       1.284   4.194  -3.343  1.00  0.00    -0.550 OA
ENDBRANCH  21  22
ENDBRANCH  20  21
ENDBRANCH  19  20
ENDBRANCH  18  19
ENDBRANCH  17  18
ENDBRANCH  16  17
ENDBRANCH  15  16
ENDBRANCH  14  15
ENDBRANCH  13  14
ENDBRANCH   1  13
TORSDOF 20
ENDMDL
MODEL 3
REMARK VINA RESULT:    -5.195      3.683     10.368
REMARK INTER + INTRA:         -12.674
REMARK INTER:                 -11.091
REMARK INTRA:                  -1.583
REMARK UNBOUND:                -1.405
REMARK SMILES CCCCCCCCCCCCCCCCCCCCCC(=O)[O-]
REMARK SMILES IDX 12 1 11 2 10 3 9 4 8 5 7 6 6 7 5 8 4 9 3 10 2 11 1 12 13 13
REMARK SMILES IDX 14 14 15 15 16 16 17 17 18 18 19 19 20 20 21 21 22 22 23 23
REMARK SMILES IDX 24 24
REMARK H PARENT
REMARK Flexibility Score: inf
ROOT
ATOM      1  C   UNL     1       0.385  -5.219  -2.354  1.00  0.00     0.000 C 
ENDROOT
BRANCH   1   2
ATOM      2  C   UNL     1      -0.028  -6.082  -1.147  1.00  0.00     0.000 C 
BRANCH   2   3
ATOM      3  C   UNL     1      -1.120  -7.111  -1.489  1.00  0.00     0.000 C 
BRANCH   3   4
ATOM      4  C   UNL     1      -1.632  -7.947  -0.302  1.00  0.00    -0.000 C 
BRANCH   4   5
ATOM      5  C   UNL     1      -1.274  -9.437  -0.421  1.00  0.00    -0.000 C 
BRANCH   5   6
ATOM      6  C   UNL     1      -0.208  -9.871   0.598  1.00  0.00    -0.000 C 
BRANCH   6   7
ATOM      7  C   UNL     1       1.222  -9.797   0.029  1.00  0.00    -0.000 C 
BRANCH   7   8
ATOM      8  C   UNL     1       1.243  -9.927  -1.510  1.00  0.00    -0.000 C 
BRANCH   8   9
ATOM      9  C   UNL     1       2.320  -9.058  -2.183  1.00  0.00    -0.000 C 
BRANCH   9  10
ATOM     10  C   UNL     1       2.377  -9.252  -3.706  1.00  0.00    -0.000 C 
BRANCH  10  11
ATOM     11  C   UNL     1       3.806  -9.495  -4.215  1.00  0.00    -0.003 C 
ATOM     12  C   UNL     1       4.536  -8.197  -4.570  1.00  0.00     0.004 C 
ENDBRANCH  10  11
ENDBRANCH   9  10
ENDBRANCH   8   9
ENDBRANCH   7   8
ENDBRANCH   6   7
ENDBRANCH   5   6
ENDBRANCH   4   5
ENDBRANCH   3   4
ENDBRANCH   2   3
ENDBRANCH   1   2
BRANCH   1  13
ATOM     13  C   UNL     1       0.760  -3.786  -1.947  1.00  0.00     0.000 C 
BRANCH  13  14
ATOM     14  C   UNL     1       0.792  -3.601  -0.422  1.00  0.00     0.000 C 
BRANCH  14  15
ATOM     15  C   UNL     1       0.131  -2.278  -0.015  1.00  0.00     0.000 C 
BRANCH  15  16
ATOM     16  C   UNL     1       0.900  -1.543   1.099  1.00  0.00     0.000 C 
BRANCH  16  17
ATOM     17  C   UNL     1       0.740  -0.008   1.103  1.00  0.00     0.000 C 
BRANCH  17  18
ATOM     18  C   UNL     1      -0.139   0.564  -0.025  1.00  0.00     0.000 C 
BRANCH  18  19
ATOM     19  C   UNL     1      -0.923   1.814   0.409  1.00  0.00     0.000 C 
BRANCH  19  20
ATOM     20  C   UNL     1      -1.793   2.390  -0.719  1.00  0.00     0.006 C 
BRANCH  20  21
ATOM     21  C   UNL     1      -1.318   3.771  -1.193  1.00  0.00     0.053 C 
BRANCH  21  22
ATOM     22  C   UNL     1      -0.265   3.628  -2.248  1.00  0.00     0.041 C 
ATOM     23  O   UNL     1       0.850   4.195  -2.109  1.00  0.00    -0.550 OA
ATOM     24  O   UNL     1      -0.527   2.898  -3.403  1.00  0.00    -0.550 OA
ENDBRANCH  21  22
ENDBRANCH  20  21
ENDBRANCH  19  20
ENDBRANCH  18  19
ENDBRANCH  17  18
ENDBRANCH  16  17
ENDBRANCH  15  16
ENDBRANCH  14  15
ENDBRANCH  13  14
ENDBRANCH   1  13
TORSDOF 20
ENDMDL
MODEL 4
REMARK VINA RESULT:    -5.033      0.732      1.683
REMARK INTER + INTRA:         -12.322
REMARK INTER:                 -11.138
REMARK INTRA:                  -1.183
REMARK UNBOUND:                -1.405
REMARK SMILES CCCCCCCCCCCCCCCCCCCCCC(=O)[O-]
REMARK SMILES IDX 12 1 11 2 10 3 9 4 8 5 7 6 6 7 5 8 4 9 3 10 2 11 1 12 13 13
REMARK SMILES IDX 14 14 15 15 16 16 17 17 18 18 19 19 20 20 21 21 22 22 23 23
REMARK SMILES IDX 24 24
REMARK H PARENT
REMARK Flexibility Score: inf
ROOT
ATOM      1  C   UNL     1       0.760  -3.866  -1.925  1.00  0.00     0.000 C 
ENDROOT
BRANCH   1   2
ATOM      2  C   UNL     1       0.788  -3.582  -0.412  1.00  0.00     0.000 C 
BRANCH   2   3
ATOM      3  C   UNL     1       0.364  -2.144  -0.062  1.00  0.00     0.000 C 
BRANCH   3   4
ATOM      4  C   UNL     1       1.035  -1.544   1.186  1.00  0.00    -0.000 C 
BRANCH   4   5
ATOM      5  C   UNL     1       0.744  -0.045   1.361  1.00  0.00    -0.000 C 
BRANCH   5   6
ATOM      6  C   UNL     1      -0.052   0.543   0.184  1.00  0.00    -0.000 C 
BRANCH   6   7
ATOM      7  C   UNL     1      -0.803   1.833   0.562  1.00  0.00    -0.000 C 
BRANCH   7   8
ATOM      8  C   UNL     1      -2.014   2.092  -0.362  1.00  0.00    -0.000 C 
BRANCH   8   9
ATOM      9  C   UNL     1      -1.664   2.915  -1.614  1.00  0.00    -0.000 C 
BRANCH   9  10
ATOM     10  C   UNL     1      -0.975   2.081  -2.704  1.00  0.00    -0.000 C 
BRANCH  10  11
ATOM     11  C   UNL     1       0.189   2.831  -3.371  1.00  0.00    -0.003 C 
ATOM     12  C   UNL     1       0.533   4.142  -2.660  1.00  0.00     0.004 C 
ENDBRANCH  10  11
ENDBRANCH   9  10
ENDBRANCH   8   9
ENDBRANCH   7   8
ENDBRANCH   6   7
ENDBRANCH   5   6
ENDBRANCH   4   5
ENDBRANCH   3   4
ENDBRANCH   2   3
ENDBRANCH   1   2
BRANCH   1  13
ATOM     13  C   UNL     1       0.072  -5.199  -2.257  1.00  0.00     0.000 C 
BRANCH  13  14
ATOM     14  C   UNL     1       0.228  -6.234  -1.132  1.00  0.00     0.000 C 
BRANCH  14  15
ATOM     15  C   UNL     1      -0.500  -7.538  -1.479  1.00  0.00     0.000 C 
BRANCH  15  16
ATOM     16  C   UNL     1      -0.232  -8.662  -0.462  1.00  0.00     0.000 C 
BRANCH  16  17
ATOM     17  C   UNL     1       1.149  -9.341  -0.585  1.00  0.00     0.000 C 
BRANCH  17  18
ATOM     18  C   UNL     1       1.472  -9.929  -1.971  1.00  0.00     0.000 C 
BRANCH  18  19
ATOM     19  C   UNL     1       2.523  -9.106  -2.735  1.00  0.00     0.000 C 
BRANCH  19  20
ATOM     20  C   UNL     1       2.551  -9.429  -4.237  1.00  0.00     0.006 C 
BRANCH  20  21
ATOM     21  C   UNL     1       3.083  -8.268  -5.088  1.00  0.00     0.053 C 
BRANCH  21  22
ATOM     22  C   UNL     1       4.288  -8.697  -5.866  1.00  0.00     0.041 C 
ATOM     23  O   UNL     1       4.203  -8.892  -7.106  1.00  0.00    -0.550 OA
ATOM     24  O   UNL     1       5.499  -8.917  -5.215  1.00  0.00    -0.550 OA
ENDBRANCH  21  22
ENDBRANCH  20  21
ENDBRANCH  19  20
ENDBRANCH  18  19
ENDBRANCH  17  18
ENDBRANCH  16  17
ENDBRANCH  15  16
ENDBRANCH  14  15
ENDBRANCH  13  14
ENDBRANCH   1  13
TORSDOF 20
ENDMDL
MODEL 5
REMARK VINA RESULT:    -4.942      3.707     10.060
REMARK INTER + INTRA:         -12.126
REMARK INTER:                 -10.810
REMARK INTRA:                  -1.315
REMARK UNBOUND:                -1.405
REMARK SMILES CCCCCCCCCCCCCCCCCCCCCC(=O)[O-]
REMARK SMILES IDX 12 1 11 2 10 3 9 4 8 5 7 6 6 7 5 8 4 9 3 10 2 11 1 12 13 13
REMARK SMILES IDX 14 14 15 15 16 16 17 17 18 18 19 19 20 20 21 21 22 22 23 23
REMARK SMILES IDX 24 24
REMARK H PARENT
REMARK Flexibility Score: inf
ROOT
ATOM      1  C   UNL     1       0.249  -6.299  -1.815  1.00  0.00     0.000 C 
ENDROOT
BRANCH   1   2
ATOM      2  C   UNL     1      -0.337  -7.647  -1.354  1.00  0.00     0.000 C 
BRANCH   2   3
ATOM      3  C   UNL     1       0.723  -8.590  -0.757  1.00  0.00     0.000 C 
BRANCH   3   4
ATOM      4  C   UNL     1       1.911  -8.915  -1.679  1.00  0.00    -0.000 C 
BRANCH   4   5
ATOM      5  C   UNL     1       1.482  -9.578  -2.998  1.00  0.00    -0.000 C 
BRANCH   5   6
ATOM      6  C   UNL     1       2.657  -9.776  -3.969  1.00  0.00    -0.000 C 
BRANCH   6   7
ATOM      7  C   UNL     1       3.859  -8.871  -3.639  1.00  0.00    -0.000 C 
BRANCH   7   8
ATOM      8  C   UNL     1       4.459  -8.216  -4.902  1.00  0.00    -0.000 C 
BRANCH   8   9
ATOM      9  C   UNL     1       3.776  -8.664  -6.207  1.00  0.00    -0.000 C 
BRANCH   9  10
ATOM     10  C   UNL     1       2.928  -7.555  -6.848  1.00  0.00    -0.000 C 
BRANCH  10  11
ATOM     11  C   UNL     1       2.150  -6.734  -5.807  1.00  0.00    -0.003 C 
ATOM     12  C   UNL     1       2.112  -5.240  -6.139  1.00  0.00     0.004 C 
ENDBRANCH  10  11
ENDBRANCH   9  10
ENDBRANCH   8   9
ENDBRANCH   7   8
ENDBRANCH   6   7
ENDBRANCH   5   6
ENDBRANCH   4   5
ENDBRANCH   3   4
ENDBRANCH   2   3
ENDBRANCH   1   2
BRANCH   1  13
ATOM     13  C   UNL     1       0.146  -5.216  -0.731  1.00  0.00     0.000 C 
BRANCH  13  14
ATOM     14  C   UNL     1       0.740  -3.874  -1.186  1.00  0.00     0.000 C 
BRANCH  14  15
ATOM     15  C   UNL     1       1.196  -3.038   0.017  1.00  0.00     0.000 C 
BRANCH  15  16
ATOM     16  C   UNL     1       0.257  -1.855   0.313  1.00  0.00     0.000 C 
BRANCH  16  17
ATOM     17  C   UNL     1       0.847  -0.763   1.230  1.00  0.00     0.000 C 
BRANCH  17  18
ATOM     18  C   UNL     1       0.427   0.679   0.890  1.00  0.00     0.000 C 
BRANCH  18  19
ATOM     19  C   UNL     1      -0.625   0.743  -0.230  1.00  0.00     0.000 C 
BRANCH  19  20
ATOM     20  C   UNL     1      -0.990   2.184  -0.618  1.00  0.00     0.006 C 
BRANCH  20  21
ATOM     21  C   UNL     1      -1.156   2.370  -2.133  1.00  0.00     0.053 C 
BRANCH  21  22
ATOM     22  C   UNL     1       0.058   3.023  -2.717  1.00  0.00     0.041 C 
ATOM     23  O   UNL     1       0.460   2.701  -3.865  1.00  0.00    -0.550 OA
ATOM     24  O   UNL     1       0.769   3.964  -1.977  1.00  0.00    -0.550 OA
ENDBRANCH  21  22
ENDBRANCH  20  21
ENDBRANCH  19  20
ENDBRANCH  18  19
ENDBRANCH  17  18
ENDBRANCH  16  17
ENDBRANCH  15  16
ENDBRANCH  14  15
ENDBRANCH  13  14
ENDBRANCH   1  13
TORSDOF 20
ENDMDL
MODEL 6
REMARK VINA RESULT:    -4.921      3.765     10.312
REMARK INTER + INTRA:         -12.079
REMARK INTER:                 -10.854
REMARK INTRA:                  -1.226
REMARK UNBOUND:                -1.405
REMARK SMILES CCCCCCCCCCCCCCCCCCCCCC(=O)[O-]
REMARK SMILES IDX 12 1 11 2 10 3 9 4 8 5 7 6 6 7 5 8 4 9 3 10 2 11 1 12 13 13
REMARK SMILES IDX 14 14 15 15 16 16 17 17 18 18 19 19 20 20 21 21 22 22 23 23
REMARK SMILES IDX 24 24
REMARK H PARENT
REMARK Flexibility Score: inf
ROOT
ATOM      1  C   UNL     1       0.751  -3.569  -2.587  1.00  0.00     0.000 C 
ENDROOT
BRANCH   1   2
ATOM      2  C   UNL     1       0.366  -4.682  -3.579  1.00  0.00     0.000 C 
BRANCH   2   3
ATOM      3  C   UNL     1      -0.165  -4.139  -4.917  1.00  0.00     0.000 C 
BRANCH   3   4
ATOM      4  C   UNL     1       0.518  -4.703  -6.175  1.00  0.00    -0.000 C 
BRANCH   4   5
ATOM      5  C   UNL     1       1.976  -5.121  -5.929  1.00  0.00    -0.000 C 
BRANCH   5   6
ATOM      6  C   UNL     1       2.255  -6.570  -6.357  1.00  0.00    -0.000 C 
BRANCH   6   7
ATOM      7  C   UNL     1       2.988  -7.380  -5.271  1.00  0.00    -0.000 C 
BRANCH   7   8
ATOM      8  C   UNL     1       3.372  -8.794  -5.760  1.00  0.00    -0.000 C 
BRANCH   8   9
ATOM      9  C   UNL     1       3.196  -9.882  -4.685  1.00  0.00    -0.000 C 
BRANCH   9  10
ATOM     10  C   UNL     1       3.045  -9.305  -3.270  1.00  0.00    -0.000 C 
BRANCH  10  11
ATOM     11  C   UNL     1       1.730  -9.732  -2.598  1.00  0.00    -0.003 C 
ATOM     12  C   UNL     1       1.483  -9.011  -1.271  1.00  0.00     0.004 C 
ENDBRANCH  10  11
ENDBRANCH   9  10
ENDBRANCH   8   9
ENDBRANCH   7   8
ENDBRANCH   6   7
ENDBRANCH   5   6
ENDBRANCH   4   5
ENDBRANCH   3   4
ENDBRANCH   2   3
ENDBRANCH   1   2
BRANCH   1  13
ATOM     13  C   UNL     1       0.481  -3.967  -1.128  1.00  0.00     0.000 C 
BRANCH  13  14
ATOM     14  C   UNL     1       1.148  -3.010  -0.128  1.00  0.00     0.000 C 
BRANCH  14  15
ATOM     15  C   UNL     1       0.235  -1.817   0.184  1.00  0.00     0.000 C 
BRANCH  15  16
ATOM     16  C   UNL     1       0.831  -0.869   1.240  1.00  0.00     0.000 C 
BRANCH  16  17
ATOM     17  C   UNL     1       0.412   0.611   1.104  1.00  0.00     0.000 C 
BRANCH  17  18
ATOM     18  C   UNL     1      -0.364   0.958  -0.181  1.00  0.00     0.000 C 
BRANCH  18  19
ATOM     19  C   UNL     1      -1.113   2.298  -0.079  1.00  0.00     0.000 C 
BRANCH  19  20
ATOM     20  C   UNL     1      -1.342   2.954  -1.449  1.00  0.00     0.006 C 
BRANCH  20  21
ATOM     21  C   UNL     1      -0.686   2.179  -2.600  1.00  0.00     0.053 C 
BRANCH  21  22
ATOM     22  C   UNL     1       0.469   2.950  -3.160  1.00  0.00     0.041 C 
ATOM     23  O   UNL     1       1.132   2.485  -4.123  1.00  0.00    -0.550 OA
ATOM     24  O   UNL     1       0.835   4.168  -2.595  1.00  0.00    -0.550 OA
ENDBRANCH  21  22
ENDBRANCH  20  21
ENDBRANCH  19  20
ENDBRANCH  18  19
ENDBRANCH  17  18
ENDBRANCH  16  17
ENDBRANCH  15  16
ENDBRANCH  14  15
ENDBRANCH  13  14
ENDBRANCH   1  13
TORSDOF 20
ENDMDL
MODEL 7
REMARK VINA RESULT:    -4.722      3.778     10.293
REMARK INTER + INTRA:         -11.647
REMARK INTER:                 -10.219
REMARK INTRA:                  -1.428
REMARK UNBOUND:                -1.405
REMARK SMILES CCCCCCCCCCCCCCCCCCCCCC(=O)[O-]
REMARK SMILES IDX 12 1 11 2 10 3 9 4 8 5 7 6 6 7 5 8 4 9 3 10 2 11 1 12 13 13
REMARK SMILES IDX 14 14 15 15 16 16 17 17 18 18 19 19 20 20 21 21 22 22 23 23
REMARK SMILES IDX 24 24
REMARK H PARENT
REMARK Flexibility Score: inf
ROOT
ATOM      1  C   UNL     1       0.536  -4.542  -3.119  1.00  0.00     0.000 C 
ENDROOT
BRANCH   1   2
ATOM      2  C   UNL     1       0.059  -4.002  -4.480  1.00  0.00     0.000 C 
BRANCH   2   3
ATOM      3  C   UNL     1       0.569  -4.836  -5.669  1.00  0.00     0.000 C 
BRANCH   3   4
ATOM      4  C   UNL     1       2.080  -5.126  -5.671  1.00  0.00    -0.000 C 
BRANCH   4   5
ATOM      5  C   UNL     1       2.442  -6.414  -6.427  1.00  0.00    -0.000 C 
BRANCH   5   6
ATOM      6  C   UNL     1       2.502  -7.643  -5.505  1.00  0.00    -0.000 C 
BRANCH   6   7
ATOM      7  C   UNL     1       3.941  -8.020  -5.111  1.00  0.00    -0.000 C 
BRANCH   7   8
ATOM      8  C   UNL     1       3.988  -8.866  -3.818  1.00  0.00    -0.000 C 
BRANCH   8   9
ATOM      9  C   UNL     1       2.779  -9.804  -3.656  1.00  0.00    -0.000 C 
BRANCH   9  10
ATOM     10  C   UNL     1       2.116  -9.689  -2.275  1.00  0.00    -0.000 C 
BRANCH  10  11
ATOM     11  C   UNL     1       1.238  -8.435  -2.146  1.00  0.00    -0.003 C 
ATOM     12  C   UNL     1       0.639  -8.273  -0.746  1.00  0.00     0.004 C 
ENDBRANCH  10  11
ENDBRANCH   9  10
ENDBRANCH   8   9
ENDBRANCH   7   8
ENDBRANCH   6   7
ENDBRANCH   5   6
ENDBRANCH   4   5
ENDBRANCH   3   4
ENDBRANCH   2   3
ENDBRANCH   1   2
BRANCH   1  13
ATOM     13  C   UNL     1       0.796  -3.418  -2.104  1.00  0.00     0.000 C 
BRANCH  13  14
ATOM     14  C   UNL     1       0.607  -3.886  -0.652  1.00  0.00     0.000 C 
BRANCH  14  15
ATOM     15  C   UNL     1       1.095  -2.820   0.337  1.00  0.00     0.000 C 
BRANCH  15  16
ATOM     16  C   UNL     1       0.314  -1.498   0.225  1.00  0.00     0.000 C 
BRANCH  16  17
ATOM     17  C   UNL     1       0.779  -0.379   1.181  1.00  0.00     0.000 C 
BRANCH  17  18
ATOM     18  C   UNL     1       0.111   0.992   0.962  1.00  0.00     0.000 C 
BRANCH  18  19
ATOM     19  C   UNL     1      -0.740   1.041  -0.317  1.00  0.00     0.000 C 
BRANCH  19  20
ATOM     20  C   UNL     1      -1.117   2.475  -0.724  1.00  0.00     0.006 C 
BRANCH  20  21
ATOM     21  C   UNL     1       0.083   3.287  -1.230  1.00  0.00     0.053 C 
BRANCH  21  22
ATOM     22  C   UNL     1       0.126   3.279  -2.727  1.00  0.00     0.041 C 
ATOM     23  O   UNL     1       1.083   3.825  -3.335  1.00  0.00    -0.550 OA
ATOM     24  O   UNL     1      -0.910   2.699  -3.452  1.00  0.00    -0.550 OA
ENDBRANCH  21  22
ENDBRANCH  20  21
ENDBRANCH  19  20
ENDBRANCH  18  19
ENDBRANCH  17  18
ENDBRANCH  16  17
ENDBRANCH  15  16
ENDBRANCH  14  15
ENDBRANCH  13  14
ENDBRANCH   1  13
TORSDOF 20
ENDMDL
MODEL 8
REMARK VINA RESULT:    -4.645      2.230      3.380
REMARK INTER + INTRA:         -11.481
REMARK INTER:                 -10.195
REMARK INTRA:                  -1.286
REMARK UNBOUND:                -1.405
REMARK SMILES CCCCCCCCCCCCCCCCCCCCCC(=O)[O-]
REMARK SMILES IDX 12 1 11 2 10 3 9 4 8 5 7 6 6 7 5 8 4 9 3 10 2 11 1 12 13 13
REMARK SMILES IDX 14 14 15 15 16 16 17 17 18 18 19 19 20 20 21 21 22 22 23 23
REMARK SMILES IDX 24 24
REMARK H PARENT
REMARK Flexibility Score: inf
ROOT
ATOM      1  C   UNL     1       0.749  -3.729  -2.436  1.00  0.00     0.000 C 
ENDROOT
BRANCH   1   2
ATOM      2  C   UNL     1       0.482  -4.107  -0.967  1.00  0.00     0.000 C 
BRANCH   2   3
ATOM      3  C   UNL     1       1.083  -3.102   0.032  1.00  0.00     0.000 C 
BRANCH   3   4
ATOM      4  C   UNL     1       0.260  -1.821   0.254  1.00  0.00    -0.000 C 
BRANCH   4   5
ATOM      5  C   UNL     1       0.916  -0.852   1.250  1.00  0.00    -0.000 C 
BRANCH   5   6
ATOM      6  C   UNL     1       0.374   0.581   1.124  1.00  0.00    -0.000 C 
BRANCH   6   7
ATOM      7  C   UNL     1      -0.392   0.813  -0.192  1.00  0.00    -0.000 C 
BRANCH   7   8
ATOM      8  C   UNL     1      -1.467   1.913  -0.054  1.00  0.00    -0.000 C 
BRANCH   8   9
ATOM      9  C   UNL     1      -1.779   2.635  -1.376  1.00  0.00    -0.000 C 
BRANCH   9  10
ATOM     10  C   UNL     1      -0.931   3.899  -1.580  1.00  0.00    -0.000 C 
BRANCH  10  11
ATOM     11  C   UNL     1       0.471   3.586  -2.126  1.00  0.00    -0.003 C 
ATOM     12  C   UNL     1       0.434   2.901  -3.495  1.00  0.00     0.004 C 
ENDBRANCH  10  11
ENDBRANCH   9  10
ENDBRANCH   8   9
ENDBRANCH   7   8
ENDBRANCH   6   7
ENDBRANCH   5   6
ENDBRANCH   4   5
ENDBRANCH   3   4
ENDBRANCH   2   3
ENDBRANCH   1   2
BRANCH   1  13
ATOM     13  C   UNL     1       0.334  -4.841  -3.410  1.00  0.00     0.000 C 
BRANCH  13  14
ATOM     14  C   UNL     1       0.504  -4.426  -4.880  1.00  0.00     0.000 C 
BRANCH  14  15
ATOM     15  C   UNL     1       1.896  -4.807  -5.401  1.00  0.00     0.000 C 
BRANCH  15  16
ATOM     16  C   UNL     1       1.931  -6.206  -6.044  1.00  0.00     0.000 C 
BRANCH  16  17
ATOM     17  C   UNL     1       3.100  -7.106  -5.592  1.00  0.00     0.000 C 
BRANCH  17  18
ATOM     18  C   UNL     1       2.691  -8.480  -5.028  1.00  0.00     0.000 C 
BRANCH  18  19
ATOM     19  C   UNL     1       3.510  -8.882  -3.789  1.00  0.00     0.000 C 
BRANCH  19  20
ATOM     20  C   UNL     1       2.630  -9.382  -2.633  1.00  0.00     0.006 C 
BRANCH  20  21
ATOM     21  C   UNL     1       1.298  -8.626  -2.527  1.00  0.00     0.053 C 
BRANCH  21  22
ATOM     22  C   UNL     1       0.764  -8.700  -1.130  1.00  0.00     0.041 C 
ATOM     23  O   UNL     1       1.531  -8.980  -0.173  1.00  0.00    -0.550 OA
ATOM     24  O   UNL     1      -0.592  -8.494  -0.889  1.00  0.00    -0.550 OA
ENDBRANCH  21  22
ENDBRANCH  20  21
ENDBRANCH  19  20
ENDBRANCH  18  19
ENDBRANCH  17  18
ENDBRANCH  16  17
ENDBRANCH  15  16
ENDBRANCH  14  15
ENDBRANCH  13  14
ENDBRANCH   1  13
TORSDOF 20
ENDMDL
MODEL 9
REMARK VINA RESULT:    -4.527      2.104      2.648
REMARK INTER + INTRA:         -11.226
REMARK INTER:                 -10.226
REMARK INTRA:                  -1.000
REMARK UNBOUND:                -1.405
REMARK SMILES CCCCCCCCCCCCCCCCCCCCCC(=O)[O-]
REMARK SMILES IDX 12 1 11 2 10 3 9 4 8 5 7 6 6 7 5 8 4 9 3 10 2 11 1 12 13 13
REMARK SMILES IDX 14 14 15 15 16 16 17 17 18 18 19 19 20 20 21 21 22 22 23 23
REMARK SMILES IDX 24 24
REMARK H PARENT
REMARK Flexibility Score: inf
ROOT
ATOM      1  C   UNL     1       1.139  -3.249   0.019  1.00  0.00     0.000 C 
ENDROOT
BRANCH   1   2
ATOM      2  C   UNL     1       0.410  -1.911   0.243  1.00  0.00     0.000 C 
BRANCH   2   3
ATOM      3  C   UNL     1       1.040  -1.064   1.364  1.00  0.00     0.000 C 
BRANCH   3   4
ATOM      4  C   UNL     1       0.365   0.295   1.621  1.00  0.00    -0.000 C 
BRANCH   4   5
ATOM      5  C   UNL     1       0.116   1.093   0.331  1.00  0.00    -0.000 C 
BRANCH   5   6
ATOM      6  C   UNL     1      -1.117   2.006   0.431  1.00  0.00    -0.000 C 
BRANCH   6   7
ATOM      7  C   UNL     1      -2.124   1.770  -0.710  1.00  0.00    -0.000 C 
BRANCH   7   8
ATOM      8  C   UNL     1      -1.684   2.450  -2.025  1.00  0.00    -0.000 C 
BRANCH   8   9
ATOM      9  C   UNL     1      -0.885   3.746  -1.807  1.00  0.00    -0.000 C 
BRANCH   9  10
ATOM     10  C   UNL     1       0.589   3.616  -2.220  1.00  0.00    -0.000 C 
BRANCH  10  11
ATOM     11  C   UNL     1       0.791   3.779  -3.735  1.00  0.00    -0.003 C 
ATOM     12  C   UNL     1       1.081   2.450  -4.439  1.00  0.00     0.004 C 
ENDBRANCH  10  11
ENDBRANCH   9  10
ENDBRANCH   8   9
ENDBRANCH   7   8
ENDBRANCH   6   7
ENDBRANCH   5   6
ENDBRANCH   4   5
ENDBRANCH   3   4
ENDBRANCH   2   3
ENDBRANCH   1   2
BRANCH   1  13
ATOM     13  C   UNL     1       0.411  -4.149  -0.991  1.00  0.00     0.000 C 
BRANCH  13  14
ATOM     14  C   UNL     1       0.718  -3.762  -2.446  1.00  0.00     0.000 C 
BRANCH  14  15
ATOM     15  C   UNL     1       0.045  -4.732  -3.427  1.00  0.00     0.000 C 
BRANCH  15  16
ATOM     16  C   UNL     1       0.413  -4.449  -4.895  1.00  0.00     0.000 C 
BRANCH  16  17
ATOM     17  C   UNL     1       1.859  -4.815  -5.290  1.00  0.00     0.000 C 
BRANCH  17  18
ATOM     18  C   UNL     1       1.989  -5.868  -6.407  1.00  0.00     0.000 C 
BRANCH  18  19
ATOM     19  C   UNL     1       2.651  -7.169  -5.922  1.00  0.00     0.000 C 
BRANCH  19  20
ATOM     20  C   UNL     1       3.406  -7.902  -7.042  1.00  0.00     0.006 C 
BRANCH  20  21
ATOM     21  C   UNL     1       3.805  -9.333  -6.654  1.00  0.00     0.053 C 
BRANCH  21  22
ATOM     22  C   UNL     1       4.569  -9.333  -5.366  1.00  0.00     0.041 C 
ATOM     23  O   UNL     1       5.716  -8.818  -5.310  1.00  0.00    -0.550 OA
ATOM     24  O   UNL     1       4.028  -9.935  -4.234  1.00  0.00    -0.550 OA
ENDBRANCH  21  22
ENDBRANCH  20  21
ENDBRANCH  19  20
ENDBRANCH  18  19
ENDBRANCH  17  18
ENDBRANCH  16  17
ENDBRANCH  15  16
ENDBRANCH  14  15
ENDBRANCH  13  14
ENDBRANCH   1  13
TORSDOF 20
ENDMDL
