MODEL 1
REMARK VINA RESULT:    -4.200      0.000      0.000
REMARK INTER + INTRA:         -11.037
REMARK INTER:                  -8.128
REMARK INTRA:                  -2.910
REMARK UNBOUND:                -2.910
REMARK SMILES CCCCCCCCCCCCCCCCCC(=O)[O-]
REMARK SMILES IDX 10 1 11 2 12 3 13 4 14 5 15 6 16 7 17 8 18 9 19 10 20 11
REMARK SMILES IDX 9 12 8 13 7 14 6 15 5 16 4 17 3 18 2 19 1 20
REMARK H PARENT
REMARK Flexibility Score: inf
ROOT
ATOM      1  C   UNL     1      17.340  70.162  20.698  1.00  0.00     0.000 C 
ENDROOT
BRANCH   1   2
ATOM      2  C   UNL     1      18.677  70.850  20.367  1.00  0.00     0.000 C 
BRANCH   2   3
ATOM      3  C   UNL     1      19.099  70.668  18.902  1.00  0.00     0.000 C 
BRANCH   3   4
ATOM      4  C   UNL     1      18.267  69.572  18.222  1.00  0.00     0.000 C 
BRANCH   4   5
ATOM      5  C   UNL     1      17.494  70.080  16.991  1.00  0.00     0.000 C 
BRANCH   5   6
ATOM      6  C   UNL     1      16.222  69.284  16.649  1.00  0.00     0.000 C 
BRANCH   6   7
ATOM      7  C   UNL     1      15.408  68.890  17.890  1.00  0.00     0.006 C 
BRANCH   7   8
ATOM      8  C   UNL     1      13.952  69.344  17.758  1.00  0.00     0.053 C 
BRANCH   8   9
ATOM      9  C   UNL     1      13.030  68.167  17.783  1.00  0.00     0.041 C 
ATOM     10  O   UNL     1      13.442  67.030  17.435  1.00  0.00    -0.550 OA
ATOM     11  O   UNL     1      11.696  68.338  18.136  1.00  0.00    -0.550 OA
ENDBRANCH   8   9
ENDBRANCH   7   8
ENDBRANCH   6   7
ENDBRANCH   5   6
ENDBRANCH   4   5
ENDBRANCH   3   4
ENDBRANCH   2   3
ENDBRANCH   1   2
BRANCH   1  12
ATOM     12  C   UNL     1      16.133  71.111  20.832  1.00  0.00     0.000 C 
BRANCH  12  13
ATOM     13  C   UNL     1      16.372  72.479  20.170  1.00  0.00    -0.000 C 
BRANCH  13  14
ATOM     14  C   UNL     1      15.629  72.622  18.832  1.00  0.00    -0.000 C 
BRANCH  14  15
ATOM     15  C   UNL     1      16.155  73.799  17.989  1.00  0.00    -0.000 C 
BRANCH  15  16
ATOM     16  C   UNL     1      17.431  74.420  18.578  1.00  0.00    -0.000 C 
BRANCH  16  17
ATOM     17  C   UNL     1      18.666  74.197  17.685  1.00  0.00    -0.000 C 
BRANCH  17  18
ATOM     18  C   UNL     1      19.980  74.217  18.496  1.00  0.00    -0.000 C 
BRANCH  18  19
ATOM     19  C   UNL     1      19.765  74.329  20.014  1.00  0.00    -0.003 C 
ATOM     20  C   UNL     1      20.557  75.470  20.650  1.00  0.00     0.004 C 
ENDBRANCH  18  19
ENDBRANCH  17  18
ENDBRANCH  16  17
ENDBRANCH  15  16
ENDBRANCH  14  15
ENDBRANCH  13  14
ENDBRANCH  12  13
ENDBRANCH   1  12
TORSDOF 16
ENDMDL
MODEL 2
REMARK VINA RESULT:    -4.193      3.688      5.009
REMARK INTER + INTRA:         -11.024
REMARK INTER:                  -9.740
REMARK INTRA:                  -1.284
REMARK UNBOUND:                -2.910
REMARK SMILES CCCCCCCCCCCCCCCCCC(=O)[O-]
REMARK SMILES IDX 10 1 11 2 12 3 13 4 14 5 15 6 16 7 17 8 18 9 19 10 20 11
REMARK SMILES IDX 9 12 8 13 7 14 6 15 5 16 4 17 3 18 2 19 1 20
REMARK H PARENT
REMARK Flexibility Score: inf
ROOT
ATOM      1  C   UNL     1      18.345  72.120  19.244  1.00  0.00     0.000 C 
ENDROOT
BRANCH   1   2
ATOM      2  C   UNL     1      18.954  71.063  18.304  1.00  0.00     0.000 C 
BRANCH   2   3
ATOM      3  C   UNL     1      18.252  69.700  18.398  1.00  0.00     0.000 C 
BRANCH   3   4
ATOM      4  C   UNL     1      16.734  69.851  18.222  1.00  0.00     0.000 C 
BRANCH   4   5
ATOM      5  C   UNL     1      15.927  69.140  19.324  1.00  0.00     0.000 C 
BRANCH   5   6
ATOM      6  C   UNL     1      16.738  68.747  20.572  1.00  0.00     0.000 C 
BRANCH   6   7
ATOM      7  C   UNL     1      16.363  69.569  21.814  1.00  0.00     0.006 C 
BRANCH   7   8
ATOM      8  C   UNL     1      17.474  69.511  22.866  1.00  0.00     0.053 C 
BRANCH   8   9
ATOM      9  C   UNL     1      17.030  68.723  24.057  1.00  0.00     0.041 C 
ATOM     10  O   UNL     1      16.694  69.310  25.118  1.00  0.00    -0.550 OA
ATOM     11  O   UNL     1      17.043  67.333  24.012  1.00  0.00    -0.550 OA
ENDBRANCH   8   9
ENDBRANCH   7   8
ENDBRANCH   6   7
ENDBRANCH   5   6
ENDBRANCH   4   5
ENDBRANCH   3   4
ENDBRANCH   2   3
ENDBRANCH   1   2
BRANCH   1  12
ATOM     12  C   UNL     1      18.448  73.573  18.746  1.00  0.00     0.000 C 
BRANCH  12  13
ATOM     13  C   UNL     1      19.893  74.104  18.745  1.00  0.00    -0.000 C 
BRANCH  13  14
ATOM     14  C   UNL     1      19.998  75.520  19.334  1.00  0.00    -0.000 C 
BRANCH  14  15
ATOM     15  C   UNL     1      20.966  76.417  18.539  1.00  0.00    -0.000 C 
BRANCH  15  16
ATOM     16  C   UNL     1      21.015  76.053  17.047  1.00  0.00    -0.000 C 
BRANCH  16  17
ATOM     17  C   UNL     1      20.871  77.281  16.131  1.00  0.00    -0.000 C 
BRANCH  17  18
ATOM     18  C   UNL     1      19.776  78.250  16.626  1.00  0.00    -0.000 C 
BRANCH  18  19
ATOM     19  C   UNL     1      20.285  79.680  16.874  1.00  0.00    -0.003 C 
ATOM     20  C   UNL     1      20.112  80.137  18.321  1.00  0.00     0.004 C 
ENDBRANCH  18  19
ENDBRANCH  17  18
ENDBRANCH  16  17
ENDBRANCH  15  16
ENDBRANCH  14  15
ENDBRANCH  13  14
ENDBRANCH  12  13
ENDBRANCH   1  12
TORSDOF 16
ENDMDL
MODEL 3
REMARK VINA RESULT:    -4.156      3.340      4.567
REMARK INTER + INTRA:         -10.953
REMARK INTER:                  -9.227
REMARK INTRA:                  -1.727
REMARK UNBOUND:                -2.910
REMARK SMILES CCCCCCCCCCCCCCCCCC(=O)[O-]
REMARK SMILES IDX 10 1 11 2 12 3 13 4 14 5 15 6 16 7 17 8 18 9 19 10 20 11
REMARK SMILES IDX 9 12 8 13 7 14 6 15 5 16 4 17 3 18 2 19 1 20
REMARK H PARENT
REMARK Flexibility Score: inf
ROOT
ATOM      1  C   UNL     1      19.881  73.840  20.006  1.00  0.00     0.000 C 
ENDROOT
BRANCH   1   2
ATOM      2  C   UNL     1      18.395  73.439  19.968  1.00  0.00     0.000 C 
BRANCH   2   3
ATOM      3  C   UNL     1      17.820  73.401  18.545  1.00  0.00     0.000 C 
BRANCH   3   4
ATOM      4  C   UNL     1      18.390  72.216  17.753  1.00  0.00     0.000 C 
BRANCH   4   5
ATOM      5  C   UNL     1      17.309  71.413  17.007  1.00  0.00     0.000 C 
BRANCH   5   6
ATOM      6  C   UNL     1      17.327  69.897  17.270  1.00  0.00     0.000 C 
BRANCH   6   7
ATOM      7  C   UNL     1      18.144  69.513  18.511  1.00  0.00     0.006 C 
BRANCH   7   8
ATOM      8  C   UNL     1      17.229  69.053  19.650  1.00  0.00     0.053 C 
BRANCH   8   9
ATOM      9  C   UNL     1      17.092  70.128  20.681  1.00  0.00     0.041 C 
ATOM     10  O   UNL     1      16.111  70.915  20.651  1.00  0.00    -0.550 OA
ATOM     11  O   UNL     1      18.082  70.296  21.642  1.00  0.00    -0.550 OA
ENDBRANCH   8   9
ENDBRANCH   7   8
ENDBRANCH   6   7
ENDBRANCH   5   6
ENDBRANCH   4   5
ENDBRANCH   3   4
ENDBRANCH   2   3
ENDBRANCH   1   2
BRANCH   1  12
ATOM     12  C   UNL     1      20.161  75.261  20.529  1.00  0.00     0.000 C 
BRANCH  12  13
ATOM     13  C   UNL     1      20.276  76.302  19.401  1.00  0.00    -0.000 C 
BRANCH  13  14
ATOM     14  C   UNL     1      18.980  77.106  19.209  1.00  0.00    -0.000 C 
BRANCH  14  15
ATOM     15  C   UNL     1      18.162  76.623  17.997  1.00  0.00    -0.000 C 
BRANCH  15  16
ATOM     16  C   UNL     1      18.424  77.464  16.737  1.00  0.00    -0.000 C 
BRANCH  16  17
ATOM     17  C   UNL     1      19.852  77.286  16.191  1.00  0.00    -0.000 C 
BRANCH  17  18
ATOM     18  C   UNL     1      20.619  78.625  16.125  1.00  0.00    -0.000 C 
BRANCH  18  19
ATOM     19  C   UNL     1      19.896  79.785  16.829  1.00  0.00    -0.003 C 
ATOM     20  C   UNL     1      20.577  80.219  18.126  1.00  0.00     0.004 C 
ENDBRANCH  18  19
ENDBRANCH  17  18
ENDBRANCH  16  17
ENDBRANCH  15  16
ENDBRANCH  14  15
ENDBRANCH  13  14
ENDBRANCH  12  13
ENDBRANCH   1  12
TORSDOF 16
ENDMDL
MODEL 4
REMARK VINA RESULT:    -4.141      3.382      5.068
REMARK INTER + INTRA:         -10.923
REMARK INTER:                  -9.218
REMARK INTRA:                  -1.706
REMARK UNBOUND:                -2.910
REMARK SMILES CCCCCCCCCCCCCCCCCC(=O)[O-]
REMARK SMILES IDX 10 1 11 2 12 3 13 4 14 5 15 6 16 7 17 8 18 9 19 10 20 11
REMARK SMILES IDX 9 12 8 13 7 14 6 15 5 16 4 17 3 18 2 19 1 20
REMARK H PARENT
REMARK Flexibility Score: inf
ROOT
ATOM      1  C   UNL     1      17.200  75.664  17.177  1.00  0.00     0.000 C 
ENDROOT
BRANCH   1   2
ATOM      2  C   UNL     1      15.813  74.996  17.203  1.00  0.00     0.000 C 
BRANCH   2   3
ATOM      3  C   UNL     1      15.833  73.594  17.828  1.00  0.00     0.000 C 
BRANCH   3   4
ATOM      4  C   UNL     1      16.437  72.569  16.858  1.00  0.00     0.000 C 
BRANCH   4   5
ATOM      5  C   UNL     1      17.684  71.866  17.425  1.00  0.00     0.000 C 
BRANCH   5   6
ATOM      6  C   UNL     1      17.682  70.333  17.295  1.00  0.00     0.000 C 
BRANCH   6   7
ATOM      7  C   UNL     1      18.220  69.623  18.546  1.00  0.00     0.006 C 
BRANCH   7   8
ATOM      8  C   UNL     1      17.092  69.339  19.542  1.00  0.00     0.053 C 
BRANCH   8   9
ATOM      9  C   UNL     1      17.305  70.105  20.809  1.00  0.00     0.041 C 
ATOM     10  O   UNL     1      18.419  70.641  21.047  1.00  0.00    -0.550 OA
ATOM     11  O   UNL     1      16.289  70.179  21.754  1.00  0.00    -0.550 OA
ENDBRANCH   8   9
ENDBRANCH   7   8
ENDBRANCH   6   7
ENDBRANCH   5   6
ENDBRANCH   4   5
ENDBRANCH   3   4
ENDBRANCH   2   3
ENDBRANCH   1   2
BRANCH   1  12
ATOM     12  C   UNL     1      17.761  76.057  18.557  1.00  0.00     0.000 C 
BRANCH  12  13
ATOM     13  C   UNL     1      19.136  75.427  18.845  1.00  0.00    -0.000 C 
BRANCH  13  14
ATOM     14  C   UNL     1      20.164  76.460  19.333  1.00  0.00    -0.000 C 
BRANCH  14  15
ATOM     15  C   UNL     1      21.336  76.634  18.348  1.00  0.00    -0.000 C 
BRANCH  15  16
ATOM     16  C   UNL     1      20.942  76.305  16.900  1.00  0.00    -0.000 C 
BRANCH  16  17
ATOM     17  C   UNL     1      20.822  77.560  16.017  1.00  0.00    -0.000 C 
BRANCH  17  18
ATOM     18  C   UNL     1      19.784  78.561  16.569  1.00  0.00    -0.000 C 
BRANCH  18  19
ATOM     19  C   UNL     1      20.358  79.964  16.827  1.00  0.00    -0.003 C 
ATOM     20  C   UNL     1      20.387  80.339  18.307  1.00  0.00     0.004 C 
ENDBRANCH  18  19
ENDBRANCH  17  18
ENDBRANCH  16  17
ENDBRANCH  15  16
ENDBRANCH  14  15
ENDBRANCH  13  14
ENDBRANCH  12  13
ENDBRANCH   1  12
TORSDOF 16
ENDMDL
MODEL 5
REMARK VINA RESULT:    -4.126      5.122      7.839
REMARK INTER + INTRA:         -10.896
REMARK INTER:                  -8.535
REMARK INTRA:                  -2.361
REMARK UNBOUND:                -2.910
REMARK SMILES CCCCCCCCCCCCCCCCCC(=O)[O-]
REMARK SMILES IDX 10 1 11 2 12 3 13 4 14 5 15 6 16 7 17 8 18 9 19 10 20 11
REMARK SMILES IDX 9 12 8 13 7 14 6 15 5 16 4 17 3 18 2 19 1 20
REMARK H PARENT
REMARK Flexibility Score: inf
ROOT
ATOM      1  C   UNL     1      17.646  73.469  17.230  1.00  0.00     0.000 C 
ENDROOT
BRANCH   1   2
ATOM      2  C   UNL     1      19.011  73.316  17.926  1.00  0.00     0.000 C 
BRANCH   2   3
ATOM      3  C   UNL     1      18.895  73.176  19.451  1.00  0.00     0.000 C 
BRANCH   3   4
ATOM      4  C   UNL     1      19.692  74.276  20.165  1.00  0.00     0.000 C 
BRANCH   4   5
ATOM      5  C   UNL     1      20.095  75.432  19.231  1.00  0.00     0.000 C 
BRANCH   5   6
ATOM      6  C   UNL     1      19.187  76.672  19.302  1.00  0.00     0.000 C 
BRANCH   6   7
ATOM      7  C   UNL     1      19.354  77.609  18.097  1.00  0.00     0.006 C 
BRANCH   7   8
ATOM      8  C   UNL     1      20.632  78.443  18.224  1.00  0.00     0.053 C 
BRANCH   8   9
ATOM      9  C   UNL     1      20.399  79.839  17.742  1.00  0.00     0.041 C 
ATOM     10  O   UNL     1      19.912  80.043  16.599  1.00  0.00    -0.550 OA
ATOM     11  O   UNL     1      20.773  80.917  18.534  1.00  0.00    -0.550 OA
ENDBRANCH   8   9
ENDBRANCH   7   8
ENDBRANCH   6   7
ENDBRANCH   5   6
ENDBRANCH   4   5
ENDBRANCH   3   4
ENDBRANCH   2   3
ENDBRANCH   1   2
BRANCH   1  12
ATOM     12  C   UNL     1      16.456  73.725  18.175  1.00  0.00     0.000 C 
BRANCH  12  13
ATOM     13  C   UNL     1      15.370  72.639  18.076  1.00  0.00    -0.000 C 
BRANCH  13  14
ATOM     14  C   UNL     1      15.595  71.689  16.888  1.00  0.00    -0.000 C 
BRANCH  14  15
ATOM     15  C   UNL     1      14.942  70.312  17.105  1.00  0.00    -0.000 C 
BRANCH  15  16
ATOM     16  C   UNL     1      15.977  69.197  17.322  1.00  0.00    -0.000 C 
BRANCH  16  17
ATOM     17  C   UNL     1      17.427  69.708  17.233  1.00  0.00    -0.000 C 
BRANCH  17  18
ATOM     18  C   UNL     1      18.148  69.650  18.597  1.00  0.00    -0.000 C 
BRANCH  18  19
ATOM     19  C   UNL     1      17.223  69.273  19.767  1.00  0.00    -0.003 C 
ATOM     20  C   UNL     1      16.971  70.431  20.730  1.00  0.00     0.004 C 
ENDBRANCH  18  19
ENDBRANCH  17  18
ENDBRANCH  16  17
ENDBRANCH  15  16
ENDBRANCH  14  15
ENDBRANCH  13  14
ENDBRANCH  12  13
ENDBRANCH   1  12
TORSDOF 16
ENDMDL
MODEL 6
REMARK VINA RESULT:    -4.100      1.764      2.352
REMARK INTER + INTRA:         -10.844
REMARK INTER:                  -8.408
REMARK INTRA:                  -2.436
REMARK UNBOUND:                -2.910
REMARK SMILES CCCCCCCCCCCCCCCCCC(=O)[O-]
REMARK SMILES IDX 10 1 11 2 12 3 13 4 14 5 15 6 16 7 17 8 18 9 19 10 20 11
REMARK SMILES IDX 9 12 8 13 7 14 6 15 5 16 4 17 3 18 2 19 1 20
REMARK H PARENT
REMARK Flexibility Score: inf
ROOT
ATOM      1  C   UNL     1      18.291  72.858  19.636  1.00  0.00     0.000 C 
ENDROOT
BRANCH   1   2
ATOM      2  C   UNL     1      18.363  71.361  19.987  1.00  0.00     0.000 C 
BRANCH   2   3
ATOM      3  C   UNL     1      19.041  70.521  18.895  1.00  0.00     0.000 C 
BRANCH   3   4
ATOM      4  C   UNL     1      18.029  69.591  18.210  1.00  0.00     0.000 C 
BRANCH   4   5
ATOM      5  C   UNL     1      17.417  70.203  16.936  1.00  0.00     0.000 C 
BRANCH   5   6
ATOM      6  C   UNL     1      15.898  70.448  16.998  1.00  0.00     0.000 C 
BRANCH   6   7
ATOM      7  C   UNL     1      15.268  69.981  18.318  1.00  0.00     0.006 C 
BRANCH   7   8
ATOM      8  C   UNL     1      14.388  68.747  18.100  1.00  0.00     0.053 C 
BRANCH   8   9
ATOM      9  C   UNL     1      14.584  67.759  19.205  1.00  0.00     0.041 C 
ATOM     10  O   UNL     1      15.516  67.913  20.036  1.00  0.00    -0.550 OA
ATOM     11  O   UNL     1      13.769  66.636  19.283  1.00  0.00    -0.550 OA
ENDBRANCH   8   9
ENDBRANCH   7   8
ENDBRANCH   6   7
ENDBRANCH   5   6
ENDBRANCH   4   5
ENDBRANCH   3   4
ENDBRANCH   2   3
ENDBRANCH   1   2
BRANCH   1  12
ATOM     12  C   UNL     1      16.875  73.394  19.351  1.00  0.00     0.000 C 
BRANCH  12  13
ATOM     13  C   UNL     1      16.710  73.911  17.910  1.00  0.00    -0.000 C 
BRANCH  13  14
ATOM     14  C   UNL     1      18.056  74.058  17.182  1.00  0.00    -0.000 C 
BRANCH  14  15
ATOM     15  C   UNL     1      18.111  75.317  16.296  1.00  0.00    -0.000 C 
BRANCH  15  16
ATOM     16  C   UNL     1      19.465  76.038  16.383  1.00  0.00    -0.000 C 
BRANCH  16  17
ATOM     17  C   UNL     1      19.376  77.378  17.138  1.00  0.00    -0.000 C 
BRANCH  17  18
ATOM     18  C   UNL     1      20.170  77.352  18.462  1.00  0.00    -0.000 C 
BRANCH  18  19
ATOM     19  C   UNL     1      19.549  76.442  19.535  1.00  0.00    -0.003 C 
ATOM     20  C   UNL     1      20.588  75.641  20.318  1.00  0.00     0.004 C 
ENDBRANCH  18  19
ENDBRANCH  17  18
ENDBRANCH  16  17
ENDBRANCH  15  16
ENDBRANCH  14  15
ENDBRANCH  13  14
ENDBRANCH  12  13
ENDBRANCH   1  12
TORSDOF 16
ENDMDL
MODEL 7
REMARK VINA RESULT:    -4.065      4.446      7.583
REMARK INTER + INTRA:         -10.777
REMARK INTER:                  -8.219
REMARK INTRA:                  -2.558
REMARK UNBOUND:                -2.910
REMARK SMILES CCCCCCCCCCCCCCCCCC(=O)[O-]
REMARK SMILES IDX 10 1 11 2 12 3 13 4 14 5 15 6 16 7 17 8 18 9 19 10 20 11
REMARK SMILES IDX 9 12 8 13 7 14 6 15 5 16 4 17 3 18 2 19 1 20
REMARK H PARENT
REMARK Flexibility Score: inf
ROOT
ATOM      1  C   UNL     1      18.584  73.390  19.217  1.00  0.00     0.000 C 
ENDROOT
BRANCH   1   2
ATOM      2  C   UNL     1      19.116  73.743  17.816  1.00  0.00     0.000 C 
BRANCH   2   3
ATOM      3  C   UNL     1      18.218  74.739  17.067  1.00  0.00     0.000 C 
BRANCH   3   4
ATOM      4  C   UNL     1      17.386  75.575  18.049  1.00  0.00     0.000 C 
BRANCH   4   5
ATOM      5  C   UNL     1      18.166  76.763  18.640  1.00  0.00     0.000 C 
BRANCH   5   6
ATOM      6  C   UNL     1      19.049  77.525  17.635  1.00  0.00     0.000 C 
BRANCH   6   7
ATOM      7  C   UNL     1      20.420  77.908  18.211  1.00  0.00     0.006 C 
BRANCH   7   8
ATOM      8  C   UNL     1      21.344  76.689  18.282  1.00  0.00     0.053 C 
BRANCH   8   9
ATOM      9  C   UNL     1      21.788  76.448  19.690  1.00  0.00     0.041 C 
ATOM     10  O   UNL     1      22.894  76.893  20.092  1.00  0.00    -0.550 OA
ATOM     11  O   UNL     1      21.003  75.681  20.542  1.00  0.00    -0.550 OA
ENDBRANCH   8   9
ENDBRANCH   7   8
ENDBRANCH   6   7
ENDBRANCH   5   6
ENDBRANCH   4   5
ENDBRANCH   3   4
ENDBRANCH   2   3
ENDBRANCH   1   2
BRANCH   1  12
ATOM     12  C   UNL     1      18.387  71.886  19.481  1.00  0.00     0.000 C 
BRANCH  12  13
ATOM     13  C   UNL     1      18.772  71.011  18.275  1.00  0.00    -0.000 C 
BRANCH  13  14
ATOM     14  C   UNL     1      18.229  69.578  18.392  1.00  0.00    -0.000 C 
BRANCH  14  15
ATOM     15  C   UNL     1      16.912  69.511  19.188  1.00  0.00    -0.000 C 
BRANCH  15  16
ATOM     16  C   UNL     1      15.752  68.938  18.360  1.00  0.00    -0.000 C 
BRANCH  16  17
ATOM     17  C   UNL     1      14.692  69.999  18.010  1.00  0.00    -0.000 C 
BRANCH  17  18
ATOM     18  C   UNL     1      15.111  70.862  16.800  1.00  0.00    -0.000 C 
BRANCH  18  19
ATOM     19  C   UNL     1      15.451  72.316  17.168  1.00  0.00    -0.003 C 
ATOM     20  C   UNL     1      14.937  72.722  18.548  1.00  0.00     0.004 C 
ENDBRANCH  18  19
ENDBRANCH  17  18
ENDBRANCH  16  17
ENDBRANCH  15  16
ENDBRANCH  14  15
ENDBRANCH  13  14
ENDBRANCH  12  13
ENDBRANCH   1  12
TORSDOF 16
ENDMDL
MODEL 8
REMARK VINA RESULT:    -4.050      4.371      7.187
REMARK INTER + INTRA:         -10.749
REMARK INTER:                  -7.964
REMARK INTRA:                  -2.785
REMARK UNBOUND:                -2.910
REMARK SMILES CCCCCCCCCCCCCCCCCC(=O)[O-]
REMARK SMILES IDX 10 1 11 2 12 3 13 4 14 5 15 6 16 7 17 8 18 9 19 10 20 11
REMARK SMILES IDX 9 12 8 13 7 14 6 15 5 16 4 17 3 18 2 19 1 20
REMARK H PARENT
REMARK Flexibility Score: inf
ROOT
ATOM      1  C   UNL     1      15.195  72.725  19.499  1.00  0.00     0.000 C 
ENDROOT
BRANCH   1   2
ATOM      2  C   UNL     1      15.527  73.387  18.149  1.00  0.00     0.000 C 
BRANCH   2   3
ATOM      3  C   UNL     1      14.935  74.797  18.010  1.00  0.00     0.000 C 
BRANCH   3   4
ATOM      4  C   UNL     1      15.674  75.600  16.931  1.00  0.00     0.000 C 
BRANCH   4   5
ATOM      5  C   UNL     1      17.148  75.182  16.774  1.00  0.00     0.000 C 
BRANCH   5   6
ATOM      6  C   UNL     1      18.174  76.279  17.105  1.00  0.00     0.000 C 
BRANCH   6   7
ATOM      7  C   UNL     1      18.233  76.614  18.602  1.00  0.00     0.006 C 
BRANCH   7   8
ATOM      8  C   UNL     1      19.617  76.305  19.180  1.00  0.00     0.053 C 
BRANCH   8   9
ATOM      9  C   UNL     1      20.677  77.045  18.428  1.00  0.00     0.041 C 
ATOM     10  O   UNL     1      20.654  78.303  18.370  1.00  0.00    -0.550 OA
ATOM     11  O   UNL     1      21.660  76.342  17.742  1.00  0.00    -0.550 OA
ENDBRANCH   8   9
ENDBRANCH   7   8
ENDBRANCH   6   7
ENDBRANCH   5   6
ENDBRANCH   4   5
ENDBRANCH   3   4
ENDBRANCH   2   3
ENDBRANCH   1   2
BRANCH   1  12
ATOM     12  C   UNL     1      16.406  72.462  20.413  1.00  0.00     0.000 C 
BRANCH  12  13
ATOM     13  C   UNL     1      17.715  73.049  19.855  1.00  0.00    -0.000 C 
BRANCH  13  14
ATOM     14  C   UNL     1      18.675  71.963  19.343  1.00  0.00    -0.000 C 
BRANCH  14  15
ATOM     15  C   UNL     1      18.741  71.914  17.805  1.00  0.00    -0.000 C 
BRANCH  15  16
ATOM     16  C   UNL     1      18.006  70.697  17.222  1.00  0.00    -0.000 C 
BRANCH  16  17
ATOM     17  C   UNL     1      17.694  69.627  18.285  1.00  0.00    -0.000 C 
BRANCH  17  18
ATOM     18  C   UNL     1      16.199  69.244  18.301  1.00  0.00    -0.000 C 
BRANCH  18  19
ATOM     19  C   UNL     1      15.730  68.649  19.639  1.00  0.00    -0.003 C 
ATOM     20  C   UNL     1      16.701  68.915  20.788  1.00  0.00     0.004 C 
ENDBRANCH  18  19
ENDBRANCH  17  18
ENDBRANCH  16  17
ENDBRANCH  15  16
ENDBRANCH  14  15
ENDBRANCH  13  14
ENDBRANCH  12  13
ENDBRANCH   1  12
TORSDOF 16
ENDMDL
MODEL 9
REMARK VINA RESULT:    -4.048      4.042      6.993
REMARK INTER + INTRA:         -10.744
REMARK INTER:                  -8.031
REMARK INTRA:                  -2.713
REMARK UNBOUND:                -2.910
REMARK SMILES CCCCCCCCCCCCCCCCCC(=O)[O-]
REMARK SMILES IDX 10 1 11 2 12 3 13 4 14 5 15 6 16 7 17 8 18 9 19 10 20 11
REMARK SMILES IDX 9 12 8 13 7 14 6 15 5 16 4 17 3 18 2 19 1 20
REMARK H PARENT
REMARK Flexibility Score: inf
ROOT
ATOM      1  C   UNL     1      17.807  71.856  20.373  1.00  0.00     0.000 C 
ENDROOT
BRANCH   1   2
ATOM      2  C   UNL     1      17.240  73.067  19.611  1.00  0.00     0.000 C 
BRANCH   2   3
ATOM      3  C   UNL     1      17.887  73.265  18.232  1.00  0.00     0.000 C 
BRANCH   3   4
ATOM      4  C   UNL     1      17.362  74.540  17.557  1.00  0.00     0.000 C 
BRANCH   4   5
ATOM      5  C   UNL     1      17.211  75.720  18.535  1.00  0.00     0.000 C 
BRANCH   5   6
ATOM      6  C   UNL     1      18.372  76.730  18.520  1.00  0.00     0.000 C 
BRANCH   6   7
ATOM      7  C   UNL     1      19.563  76.289  19.384  1.00  0.00     0.006 C 
BRANCH   7   8
ATOM      8  C   UNL     1      20.886  76.764  18.777  1.00  0.00     0.053 C 
BRANCH   8   9
ATOM      9  C   UNL     1      21.048  76.232  17.389  1.00  0.00     0.041 C 
ATOM     10  O   UNL     1      21.196  77.022  16.420  1.00  0.00    -0.550 OA
ATOM     11  O   UNL     1      20.979  74.863  17.158  1.00  0.00    -0.550 OA
ENDBRANCH   8   9
ENDBRANCH   7   8
ENDBRANCH   6   7
ENDBRANCH   5   6
ENDBRANCH   4   5
ENDBRANCH   3   4
ENDBRANCH   2   3
ENDBRANCH   1   2
BRANCH   1  12
ATOM     12  C   UNL     1      16.792  70.734  20.664  1.00  0.00     0.000 C 
BRANCH  12  13
ATOM     13  C   UNL     1      17.094  69.438  19.891  1.00  0.00    -0.000 C 
BRANCH  13  14
ATOM     14  C   UNL     1      18.205  69.624  18.844  1.00  0.00    -0.000 C 
BRANCH  14  15
ATOM     15  C   UNL     1      17.665  69.599  17.402  1.00  0.00    -0.000 C 
BRANCH  15  16
ATOM     16  C   UNL     1      16.137  69.442  17.349  1.00  0.00    -0.000 C 
BRANCH  16  17
ATOM     17  C   UNL     1      15.425  70.723  16.876  1.00  0.00    -0.000 C 
BRANCH  17  18
ATOM     18  C   UNL     1      14.398  71.232  17.909  1.00  0.00    -0.000 C 
BRANCH  18  19
ATOM     19  C   UNL     1      14.003  72.705  17.712  1.00  0.00    -0.003 C 
ATOM     20  C   UNL     1      13.492  73.367  18.990  1.00  0.00     0.004 C 
ENDBRANCH  18  19
ENDBRANCH  17  18
ENDBRANCH  16  17
ENDBRANCH  15  16
ENDBRANCH  14  15
ENDBRANCH  13  14
ENDBRANCH  12  13
ENDBRANCH   1  12
TORSDOF 16
ENDMDL
