MODEL 1
REMARK VINA RESULT:    -8.153      0.000      0.000
REMARK INTER + INTRA:          -9.895
REMARK INTER:                  -9.583
REMARK INTRA:                  -0.312
REMARK UNBOUND:                -0.312
REMARK SMILES O=c1cc(-c2ccc(O)c(O)c2)oc2cc(O)cc(O)c12
REMARK SMILES IDX 4 1 3 2 2 3 1 4 21 5 19 6 18 7 16 8 15 9 14 10 13 11 5 12
REMARK SMILES IDX 6 13 7 14 8 15 12 16 10 17 9 18 11 20 20 22 17 24
REMARK H PARENT 9 19 11 21 20 23 17 25
REMARK Flexibility Score: inf
ROOT
ATOM      1  C   UNL     1     -51.629  36.070  22.220  1.00  0.00     0.138 A 
ATOM      2  C   UNL     1     -52.768  36.625  21.622  1.00  0.00     0.100 A 
ATOM      3  C   UNL     1     -53.534  35.854  20.746  1.00  0.00     0.197 A 
ATOM      4  O   UNL     1     -54.518  36.400  20.182  1.00  0.00    -0.289 OA
ATOM      5  C   UNL     1     -53.176  34.508  20.497  1.00  0.00     0.107 A 
ATOM      6  C   UNL     1     -53.901  33.616  19.649  1.00  0.00     0.134 A 
ATOM      7  C   UNL     1     -53.393  32.334  19.402  1.00  0.00     0.093 A 
ATOM      8  C   UNL     1     -52.219  31.892  20.016  1.00  0.00     0.123 A 
ATOM      9  C   UNL     1     -51.532  32.737  20.883  1.00  0.00     0.094 A 
ATOM     10  C   UNL     1     -51.993  34.034  21.124  1.00  0.00     0.146 A 
ATOM     11  O   UNL     1     -51.297  34.813  21.945  1.00  0.00    -0.456 OA
ENDROOT
BRANCH   1  12
ATOM     12  C   UNL     1     -50.780  36.843  23.162  1.00  0.00     0.021 A 
ATOM     13  C   UNL     1     -50.770  38.251  23.164  1.00  0.00     0.016 A 
ATOM     14  C   UNL     1     -49.952  38.951  24.055  1.00  0.00     0.051 A 
ATOM     15  C   UNL     1     -49.129  38.265  24.951  1.00  0.00     0.157 A 
ATOM     16  C   UNL     1     -49.938  36.158  24.055  1.00  0.00     0.062 A 
ATOM     17  C   UNL     1     -49.119  36.861  24.951  1.00  0.00     0.158 A 
BRANCH  15  18
ATOM     18  O   UNL     1     -48.326  38.992  25.829  1.00  0.00    -0.504 OA
ATOM     19  H   UNL     1     -48.429  39.992  25.949  1.00  0.00     0.293 HD
ENDBRANCH  15  18
BRANCH  17  20
ATOM     20  O   UNL     1     -48.296  36.168  25.839  1.00  0.00    -0.504 OA
ATOM     21  H   UNL     1     -48.655  35.425  26.426  1.00  0.00     0.293 HD
ENDBRANCH  17  20
ENDBRANCH   1  12
BRANCH   6  22
ATOM     22  O   UNL     1     -55.125  33.927  19.048  1.00  0.00    -0.507 OA
ATOM     23  H   UNL     1     -55.979  34.128  19.544  1.00  0.00     0.293 HD
ENDBRANCH   6  22
BRANCH   8  24
ATOM     24  O   UNL     1     -51.731  30.610  19.776  1.00  0.00    -0.508 OA
ATOM     25  H   UNL     1     -52.338  29.863  19.459  1.00  0.00     0.293 HD
ENDBRANCH   8  24
TORSDOF 5
ENDMDL
MODEL 2
REMARK VINA RESULT:    -7.992      1.950      6.987
REMARK INTER + INTRA:          -9.705
REMARK INTER:                  -9.425
REMARK INTRA:                  -0.280
REMARK UNBOUND:                -0.312
REMARK SMILES O=c1cc(-c2ccc(O)c(O)c2)oc2cc(O)cc(O)c12
REMARK SMILES IDX 4 1 3 2 2 3 1 4 21 5 19 6 18 7 16 8 15 9 14 10 13 11 5 12
REMARK SMILES IDX 6 13 7 14 8 15 12 16 10 17 9 18 11 20 20 22 17 24
REMARK H PARENT 9 19 11 21 20 23 17 25
REMARK Flexibility Score: inf
ROOT
ATOM      1  C   UNL     1     -52.699  34.791  22.007  1.00  0.00     0.138 A 
ATOM      2  C   UNL     1     -53.837  35.198  22.717  1.00  0.00     0.100 A 
ATOM      3  C   UNL     1     -53.723  36.178  23.703  1.00  0.00     0.197 A 
ATOM      4  O   UNL     1     -54.753  36.481  24.360  1.00  0.00    -0.289 OA
ATOM      5  C   UNL     1     -52.467  36.780  23.955  1.00  0.00     0.107 A 
ATOM      6  C   UNL     1     -52.237  37.814  24.913  1.00  0.00     0.134 A 
ATOM      7  C   UNL     1     -50.930  38.263  25.142  1.00  0.00     0.093 A 
ATOM      8  C   UNL     1     -49.854  37.757  24.409  1.00  0.00     0.123 A 
ATOM      9  C   UNL     1     -50.076  36.785  23.438  1.00  0.00     0.094 A 
ATOM     10  C   UNL     1     -51.362  36.291  23.208  1.00  0.00     0.146 A 
ATOM     11  O   UNL     1     -51.526  35.350  22.285  1.00  0.00    -0.456 OA
ENDROOT
BRANCH   1  12
ATOM     12  C   UNL     1     -52.764  33.755  20.946  1.00  0.00     0.021 A 
ATOM     13  C   UNL     1     -51.741  32.802  20.778  1.00  0.00     0.016 A 
ATOM     14  C   UNL     1     -51.825  31.846  19.763  1.00  0.00     0.051 A 
ATOM     15  C   UNL     1     -52.921  31.825  18.896  1.00  0.00     0.157 A 
ATOM     16  C   UNL     1     -53.857  33.739  20.062  1.00  0.00     0.062 A 
ATOM     17  C   UNL     1     -53.942  32.777  19.044  1.00  0.00     0.158 A 
BRANCH  15  18
ATOM     18  O   UNL     1     -52.976  30.857  17.895  1.00  0.00    -0.504 OA
ATOM     19  H   UNL     1     -52.430  30.928  17.045  1.00  0.00     0.293 HD
ENDBRANCH  15  18
BRANCH  17  20
ATOM     20  O   UNL     1     -55.037  32.766  18.180  1.00  0.00    -0.504 OA
ATOM     21  H   UNL     1     -54.920  32.795  17.175  1.00  0.00     0.293 HD
ENDBRANCH  17  20
ENDBRANCH   1  12
BRANCH   6  22
ATOM     22  O   UNL     1     -53.248  38.446  25.643  1.00  0.00    -0.507 OA
ATOM     23  H   UNL     1     -54.157  38.053  25.834  1.00  0.00     0.293 HD
ENDBRANCH   6  22
BRANCH   8  24
ATOM     24  O   UNL     1     -48.560  38.221  24.634  1.00  0.00    -0.508 OA
ATOM     25  H   UNL     1     -48.208  39.053  24.175  1.00  0.00     0.293 HD
ENDBRANCH   8  24
TORSDOF 5
ENDMDL
MODEL 3
REMARK VINA RESULT:    -7.548      2.701      7.068
REMARK INTER + INTRA:          -9.183
REMARK INTER:                  -8.919
REMARK INTRA:                  -0.264
REMARK UNBOUND:                -0.312
REMARK SMILES O=c1cc(-c2ccc(O)c(O)c2)oc2cc(O)cc(O)c12
REMARK SMILES IDX 4 1 3 2 2 3 1 4 21 5 19 6 18 7 16 8 15 9 14 10 13 11 5 12
REMARK SMILES IDX 6 13 7 14 8 15 12 16 10 17 9 18 11 20 20 22 17 24
REMARK H PARENT 9 19 11 21 20 23 17 25
REMARK Flexibility Score: inf
ROOT
ATOM      1  C   UNL     1     -53.131  35.071  21.522  1.00  0.00     0.138 A 
ATOM      2  C   UNL     1     -52.120  36.032  21.379  1.00  0.00     0.100 A 
ATOM      3  C   UNL     1     -51.866  36.927  22.419  1.00  0.00     0.197 A 
ATOM      4  O   UNL     1     -50.990  37.812  22.237  1.00  0.00    -0.289 OA
ATOM      5  C   UNL     1     -52.604  36.835  23.623  1.00  0.00     0.107 A 
ATOM      6  C   UNL     1     -52.408  37.672  24.763  1.00  0.00     0.134 A 
ATOM      7  C   UNL     1     -53.268  37.550  25.863  1.00  0.00     0.093 A 
ATOM      8  C   UNL     1     -54.278  36.585  25.886  1.00  0.00     0.123 A 
ATOM      9  C   UNL     1     -54.444  35.732  24.799  1.00  0.00     0.094 A 
ATOM     10  C   UNL     1     -53.625  35.850  23.673  1.00  0.00     0.146 A 
ATOM     11  O   UNL     1     -53.831  35.027  22.650  1.00  0.00    -0.456 OA
ENDROOT
BRANCH   1  12
ATOM     12  C   UNL     1     -53.442  34.093  20.449  1.00  0.00     0.021 A 
ATOM     13  C   UNL     1     -54.707  34.047  19.833  1.00  0.00     0.016 A 
ATOM     14  C   UNL     1     -54.973  33.107  18.834  1.00  0.00     0.051 A 
ATOM     15  C   UNL     1     -53.991  32.197  18.436  1.00  0.00     0.157 A 
ATOM     16  C   UNL     1     -52.462  33.165  20.054  1.00  0.00     0.062 A 
ATOM     17  C   UNL     1     -52.729  32.223  19.050  1.00  0.00     0.158 A 
BRANCH  15  18
ATOM     18  O   UNL     1     -54.287  31.273  17.434  1.00  0.00    -0.504 OA
ATOM     19  H   UNL     1     -54.935  30.509  17.580  1.00  0.00     0.293 HD
ENDBRANCH  15  18
BRANCH  17  20
ATOM     20  O   UNL     1     -51.744  31.315  18.662  1.00  0.00    -0.504 OA
ATOM     21  H   UNL     1     -50.945  31.602  18.111  1.00  0.00     0.293 HD
ENDBRANCH  17  20
ENDBRANCH   1  12
BRANCH   6  22
ATOM     22  O   UNL     1     -51.381  38.613  24.878  1.00  0.00    -0.507 OA
ATOM     23  H   UNL     1     -51.492  39.550  25.232  1.00  0.00     0.293 HD
ENDBRANCH   6  22
BRANCH   8  24
ATOM     24  O   UNL     1     -55.117  36.463  26.991  1.00  0.00    -0.508 OA
ATOM     25  H   UNL     1     -55.318  37.251  27.594  1.00  0.00     0.293 HD
ENDBRANCH   8  24
TORSDOF 5
ENDMDL
MODEL 4
REMARK VINA RESULT:    -7.525      5.295     11.518
REMARK INTER + INTRA:          -9.157
REMARK INTER:                  -8.840
REMARK INTRA:                  -0.317
REMARK UNBOUND:                -0.312
REMARK SMILES O=c1cc(-c2ccc(O)c(O)c2)oc2cc(O)cc(O)c12
REMARK SMILES IDX 4 1 3 2 2 3 1 4 21 5 19 6 18 7 16 8 15 9 14 10 13 11 5 12
REMARK SMILES IDX 6 13 7 14 8 15 12 16 10 17 9 18 11 20 20 22 17 24
REMARK H PARENT 9 19 11 21 20 23 17 25
REMARK Flexibility Score: inf
ROOT
ATOM      1  C   UNL     1     -47.228  39.723  27.917  1.00  0.00     0.138 A 
ATOM      2  C   UNL     1     -46.856  39.124  29.129  1.00  0.00     0.100 A 
ATOM      3  C   UNL     1     -46.210  39.883  30.105  1.00  0.00     0.197 A 
ATOM      4  O   UNL     1     -45.840  39.302  31.158  1.00  0.00    -0.289 OA
ATOM      5  C   UNL     1     -45.967  41.259  29.881  1.00  0.00     0.107 A 
ATOM      6  C   UNL     1     -45.346  42.139  30.818  1.00  0.00     0.134 A 
ATOM      7  C   UNL     1     -45.070  43.461  30.444  1.00  0.00     0.093 A 
ATOM      8  C   UNL     1     -45.443  43.949  29.189  1.00  0.00     0.123 A 
ATOM      9  C   UNL     1     -46.093  43.111  28.287  1.00  0.00     0.094 A 
ATOM     10  C   UNL     1     -46.353  41.778  28.617  1.00  0.00     0.146 A 
ATOM     11  O   UNL     1     -46.960  41.009  27.719  1.00  0.00    -0.456 OA
ENDROOT
BRANCH   1  12
ATOM     12  C   UNL     1     -47.920  38.964  26.846  1.00  0.00     0.021 A 
ATOM     13  C   UNL     1     -48.071  37.566  26.908  1.00  0.00     0.016 A 
ATOM     14  C   UNL     1     -48.719  36.878  25.878  1.00  0.00     0.051 A 
ATOM     15  C   UNL     1     -49.219  37.566  24.770  1.00  0.00     0.157 A 
ATOM     16  C   UNL     1     -48.414  39.650  25.721  1.00  0.00     0.062 A 
ATOM     17  C   UNL     1     -49.065  38.959  24.688  1.00  0.00     0.158 A 
BRANCH  15  18
ATOM     18  O   UNL     1     -49.862  36.851  23.760  1.00  0.00    -0.504 OA
ATOM     19  H   UNL     1     -50.752  37.145  23.376  1.00  0.00     0.293 HD
ENDBRANCH  15  18
BRANCH  17  20
ATOM     20  O   UNL     1     -49.558  39.653  23.584  1.00  0.00    -0.504 OA
ATOM     21  H   UNL     1     -50.466  39.443  23.187  1.00  0.00     0.293 HD
ENDBRANCH  17  20
ENDBRANCH   1  12
BRANCH   6  22
ATOM     22  O   UNL     1     -45.004  41.779  32.125  1.00  0.00    -0.507 OA
ATOM     23  H   UNL     1     -45.213  42.321  32.949  1.00  0.00     0.293 HD
ENDBRANCH   6  22
BRANCH   8  24
ATOM     24  O   UNL     1     -45.177  45.269  28.832  1.00  0.00    -0.508 OA
ATOM     25  H   UNL     1     -45.119  45.554  27.862  1.00  0.00     0.293 HD
ENDBRANCH   8  24
TORSDOF 5
ENDMDL
MODEL 5
REMARK VINA RESULT:    -7.153      2.657      7.169
REMARK INTER + INTRA:          -8.720
REMARK INTER:                  -8.457
REMARK INTRA:                  -0.263
REMARK UNBOUND:                -0.312
REMARK SMILES O=c1cc(-c2ccc(O)c(O)c2)oc2cc(O)cc(O)c12
REMARK SMILES IDX 4 1 3 2 2 3 1 4 21 5 19 6 18 7 16 8 15 9 14 10 13 11 5 12
REMARK SMILES IDX 6 13 7 14 8 15 12 16 10 17 9 18 11 20 20 22 17 24
REMARK H PARENT 9 19 11 21 20 23 17 25
REMARK Flexibility Score: inf
ROOT
ATOM      1  C   UNL     1     -53.582  35.475  23.091  1.00  0.00     0.138 A 
ATOM      2  C   UNL     1     -54.391  35.714  24.210  1.00  0.00     0.100 A 
ATOM      3  C   UNL     1     -54.000  36.663  25.156  1.00  0.00     0.197 A 
ATOM      4  O   UNL     1     -54.721  36.814  26.176  1.00  0.00    -0.289 OA
ATOM      5  C   UNL     1     -52.809  37.402  24.960  1.00  0.00     0.107 A 
ATOM      6  C   UNL     1     -52.328  38.419  25.840  1.00  0.00     0.134 A 
ATOM      7  C   UNL     1     -51.084  39.013  25.592  1.00  0.00     0.093 A 
ATOM      8  C   UNL     1     -50.331  38.669  24.467  1.00  0.00     0.123 A 
ATOM      9  C   UNL     1     -50.816  37.714  23.577  1.00  0.00     0.094 A 
ATOM     10  C   UNL     1     -52.037  37.078  23.813  1.00  0.00     0.146 A 
ATOM     11  O   UNL     1     -52.452  36.160  22.948  1.00  0.00    -0.456 OA
ENDROOT
BRANCH   1  12
ATOM     12  C   UNL     1     -53.950  34.479  22.053  1.00  0.00     0.021 A 
ATOM     13  C   UNL     1     -54.461  34.870  20.801  1.00  0.00     0.016 A 
ATOM     14  C   UNL     1     -54.810  33.910  19.848  1.00  0.00     0.051 A 
ATOM     15  C   UNL     1     -54.662  32.548  20.126  1.00  0.00     0.157 A 
ATOM     16  C   UNL     1     -53.818  33.108  22.333  1.00  0.00     0.062 A 
ATOM     17  C   UNL     1     -54.166  32.144  21.376  1.00  0.00     0.158 A 
BRANCH  15  18
ATOM     18  O   UNL     1     -55.017  31.614  19.153  1.00  0.00    -0.504 OA
ATOM     19  H   UNL     1     -54.469  30.780  18.984  1.00  0.00     0.293 HD
ENDBRANCH  15  18
BRANCH  17  20
ATOM     20  O   UNL     1     -54.020  30.787  21.663  1.00  0.00    -0.504 OA
ATOM     21  H   UNL     1     -53.126  30.320  21.578  1.00  0.00     0.293 HD
ENDBRANCH  17  20
ENDBRANCH   1  12
BRANCH   6  22
ATOM     22  O   UNL     1     -53.035  38.896  26.948  1.00  0.00    -0.507 OA
ATOM     23  H   UNL     1     -53.247  38.360  27.775  1.00  0.00     0.293 HD
ENDBRANCH   6  22
BRANCH   8  24
ATOM     24  O   UNL     1     -49.102  39.277  24.222  1.00  0.00    -0.508 OA
ATOM     25  H   UNL     1     -48.930  40.243  24.471  1.00  0.00     0.293 HD
ENDBRANCH   8  24
TORSDOF 5
ENDMDL
MODEL 6
REMARK VINA RESULT:    -7.041      2.150      3.757
REMARK INTER + INTRA:          -8.588
REMARK INTER:                  -8.319
REMARK INTRA:                  -0.268
REMARK UNBOUND:                -0.312
REMARK SMILES O=c1cc(-c2ccc(O)c(O)c2)oc2cc(O)cc(O)c12
REMARK SMILES IDX 4 1 3 2 2 3 1 4 21 5 19 6 18 7 16 8 15 9 14 10 13 11 5 12
REMARK SMILES IDX 6 13 7 14 8 15 12 16 10 17 9 18 11 20 20 22 17 24
REMARK H PARENT 9 19 11 21 20 23 17 25
REMARK Flexibility Score: inf
ROOT
ATOM      1  C   UNL     1     -50.283  37.840  24.719  1.00  0.00     0.138 A 
ATOM      2  C   UNL     1     -51.413  38.661  24.600  1.00  0.00     0.100 A 
ATOM      3  C   UNL     1     -52.402  38.343  23.669  1.00  0.00     0.197 A 
ATOM      4  O   UNL     1     -53.376  39.130  23.548  1.00  0.00    -0.289 OA
ATOM      5  C   UNL     1     -52.276  37.176  22.878  1.00  0.00     0.107 A 
ATOM      6  C   UNL     1     -53.238  36.733  21.920  1.00  0.00     0.134 A 
ATOM      7  C   UNL     1     -52.956  35.614  21.126  1.00  0.00     0.093 A 
ATOM      8  C   UNL     1     -51.774  34.889  21.295  1.00  0.00     0.123 A 
ATOM      9  C   UNL     1     -50.852  35.284  22.261  1.00  0.00     0.094 A 
ATOM     10  C   UNL     1     -51.088  36.416  23.046  1.00  0.00     0.146 A 
ATOM     11  O   UNL     1     -50.173  36.768  23.943  1.00  0.00    -0.456 OA
ENDROOT
BRANCH   1  12
ATOM     12  C   UNL     1     -49.201  38.129  25.695  1.00  0.00     0.021 A 
ATOM     13  C   UNL     1     -48.799  37.182  26.656  1.00  0.00     0.016 A 
ATOM     14  C   UNL     1     -47.785  37.487  27.568  1.00  0.00     0.051 A 
ATOM     15  C   UNL     1     -47.161  38.737  27.544  1.00  0.00     0.157 A 
ATOM     16  C   UNL     1     -48.580  39.390  25.684  1.00  0.00     0.062 A 
ATOM     17  C   UNL     1     -47.561  39.696  26.599  1.00  0.00     0.158 A 
BRANCH  15  18
ATOM     18  O   UNL     1     -46.151  39.011  28.465  1.00  0.00    -0.504 OA
ATOM     19  H   UNL     1     -45.948  39.952  28.778  1.00  0.00     0.293 HD
ENDBRANCH  15  18
BRANCH  17  20
ATOM     20  O   UNL     1     -46.947  40.947  26.571  1.00  0.00    -0.504 OA
ATOM     21  H   UNL     1     -45.939  41.043  26.558  1.00  0.00     0.293 HD
ENDBRANCH  17  20
ENDBRANCH   1  12
BRANCH   6  22
ATOM     22  O   UNL     1     -54.485  37.335  21.726  1.00  0.00    -0.507 OA
ATOM     23  H   UNL     1     -55.133  37.575  22.459  1.00  0.00     0.293 HD
ENDBRANCH   6  22
BRANCH   8  24
ATOM     24  O   UNL     1     -51.510  33.769  20.510  1.00  0.00    -0.508 OA
ATOM     25  H   UNL     1     -51.015  32.967  20.881  1.00  0.00     0.293 HD
ENDBRANCH   8  24
TORSDOF 5
ENDMDL
MODEL 7
REMARK VINA RESULT:    -6.871      2.886      8.325
REMARK INTER + INTRA:          -8.388
REMARK INTER:                  -8.092
REMARK INTRA:                  -0.296
REMARK UNBOUND:                -0.312
REMARK SMILES O=c1cc(-c2ccc(O)c(O)c2)oc2cc(O)cc(O)c12
REMARK SMILES IDX 4 1 3 2 2 3 1 4 21 5 19 6 18 7 16 8 15 9 14 10 13 11 5 12
REMARK SMILES IDX 6 13 7 14 8 15 12 16 10 17 9 18 11 20 20 22 17 24
REMARK H PARENT 9 19 11 21 20 23 17 25
REMARK Flexibility Score: inf
ROOT
ATOM      1  C   UNL     1     -51.002  37.566  24.956  1.00  0.00     0.138 A 
ATOM      2  C   UNL     1     -49.698  37.125  25.222  1.00  0.00     0.100 A 
ATOM      3  C   UNL     1     -49.078  37.486  26.419  1.00  0.00     0.197 A 
ATOM      4  O   UNL     1     -47.888  37.121  26.603  1.00  0.00    -0.289 OA
ATOM      5  C   UNL     1     -49.782  38.262  27.370  1.00  0.00     0.107 A 
ATOM      6  C   UNL     1     -49.264  38.661  28.640  1.00  0.00     0.134 A 
ATOM      7  C   UNL     1     -50.019  39.513  29.456  1.00  0.00     0.093 A 
ATOM      8  C   UNL     1     -51.296  39.933  29.075  1.00  0.00     0.123 A 
ATOM      9  C   UNL     1     -51.829  39.509  27.861  1.00  0.00     0.094 A 
ATOM     10  C   UNL     1     -51.088  38.687  27.009  1.00  0.00     0.146 A 
ATOM     11  O   UNL     1     -51.629  38.321  25.852  1.00  0.00    -0.456 OA
ENDROOT
BRANCH   1  12
ATOM     12  C   UNL     1     -51.711  37.210  23.700  1.00  0.00     0.021 A 
ATOM     13  C   UNL     1     -51.062  37.238  22.451  1.00  0.00     0.016 A 
ATOM     14  C   UNL     1     -51.758  36.909  21.285  1.00  0.00     0.051 A 
ATOM     15  C   UNL     1     -53.108  36.553  21.342  1.00  0.00     0.157 A 
ATOM     16  C   UNL     1     -53.073  36.865  23.749  1.00  0.00     0.062 A 
ATOM     17  C   UNL     1     -53.771  36.533  22.579  1.00  0.00     0.158 A 
BRANCH  15  18
ATOM     18  O   UNL     1     -53.775  36.226  20.161  1.00  0.00    -0.504 OA
ATOM     19  H   UNL     1     -53.332  35.694  19.423  1.00  0.00     0.293 HD
ENDBRANCH  15  18
BRANCH  17  20
ATOM     20  O   UNL     1     -55.119  36.183  22.644  1.00  0.00    -0.504 OA
ATOM     21  H   UNL     1     -55.799  36.567  21.999  1.00  0.00     0.293 HD
ENDBRANCH  17  20
ENDBRANCH   1  12
BRANCH   6  22
ATOM     22  O   UNL     1     -48.035  38.236  29.154  1.00  0.00    -0.507 OA
ATOM     23  H   UNL     1     -47.666  37.301  29.074  1.00  0.00     0.293 HD
ENDBRANCH   6  22
BRANCH   8  24
ATOM     24  O   UNL     1     -52.044  40.768  29.901  1.00  0.00    -0.508 OA
ATOM     25  H   UNL     1     -52.839  41.289  29.549  1.00  0.00     0.293 HD
ENDBRANCH   8  24
TORSDOF 5
ENDMDL
MODEL 8
REMARK VINA RESULT:    -6.865      2.197      7.489
REMARK INTER + INTRA:          -8.380
REMARK INTER:                  -8.094
REMARK INTRA:                  -0.287
REMARK UNBOUND:                -0.312
REMARK SMILES O=c1cc(-c2ccc(O)c(O)c2)oc2cc(O)cc(O)c12
REMARK SMILES IDX 4 1 3 2 2 3 1 4 21 5 19 6 18 7 16 8 15 9 14 10 13 11 5 12
REMARK SMILES IDX 6 13 7 14 8 15 12 16 10 17 9 18 11 20 20 22 17 24
REMARK H PARENT 9 19 11 21 20 23 17 25
REMARK Flexibility Score: inf
ROOT
ATOM      1  C   UNL     1     -52.100  36.493  23.087  1.00  0.00     0.138 A 
ATOM      2  C   UNL     1     -50.714  36.318  23.200  1.00  0.00     0.100 A 
ATOM      3  C   UNL     1     -50.016  36.966  24.219  1.00  0.00     0.197 A 
ATOM      4  O   UNL     1     -48.765  36.832  24.258  1.00  0.00    -0.289 OA
ATOM      5  C   UNL     1     -50.716  37.765  25.154  1.00  0.00     0.107 A 
ATOM      6  C   UNL     1     -50.114  38.447  26.255  1.00  0.00     0.134 A 
ATOM      7  C   UNL     1     -50.897  39.290  27.055  1.00  0.00     0.093 A 
ATOM      8  C   UNL     1     -52.268  39.430  26.830  1.00  0.00     0.123 A 
ATOM      9  C   UNL     1     -52.873  38.731  25.788  1.00  0.00     0.094 A 
ATOM     10  C   UNL     1     -52.115  37.909  24.951  1.00  0.00     0.146 A 
ATOM     11  O   UNL     1     -52.729  37.274  23.958  1.00  0.00    -0.456 OA
ENDROOT
BRANCH   1  12
ATOM     12  C   UNL     1     -52.893  35.825  22.024  1.00  0.00     0.021 A 
ATOM     13  C   UNL     1     -54.100  36.370  21.548  1.00  0.00     0.016 A 
ATOM     14  C   UNL     1     -54.830  35.713  20.554  1.00  0.00     0.051 A 
ATOM     15  C   UNL     1     -54.375  34.503  20.023  1.00  0.00     0.157 A 
ATOM     16  C   UNL     1     -52.448  34.600  21.497  1.00  0.00     0.062 A 
ATOM     17  C   UNL     1     -53.180  33.941  20.498  1.00  0.00     0.158 A 
BRANCH  15  18
ATOM     18  O   UNL     1     -55.125  33.873  19.031  1.00  0.00    -0.504 OA
ATOM     19  H   UNL     1     -55.557  34.388  18.273  1.00  0.00     0.293 HD
ENDBRANCH  15  18
BRANCH  17  20
ATOM     20  O   UNL     1     -52.722  32.731  19.977  1.00  0.00    -0.504 OA
ATOM     21  H   UNL     1     -52.531  31.935  20.572  1.00  0.00     0.293 HD
ENDBRANCH  17  20
ENDBRANCH   1  12
BRANCH   6  22
ATOM     22  O   UNL     1     -48.771  38.316  26.619  1.00  0.00    -0.507 OA
ATOM     23  H   UNL     1     -48.151  39.081  26.831  1.00  0.00     0.293 HD
ENDBRANCH   6  22
BRANCH   8  24
ATOM     24  O   UNL     1     -53.040  40.259  27.641  1.00  0.00    -0.508 OA
ATOM     25  H   UNL     1     -53.903  40.672  27.308  1.00  0.00     0.293 HD
ENDBRANCH   8  24
TORSDOF 5
ENDMDL
MODEL 9
REMARK VINA RESULT:    -6.827      3.784      9.363
REMARK INTER + INTRA:          -8.336
REMARK INTER:                  -8.032
REMARK INTRA:                  -0.304
REMARK UNBOUND:                -0.312
REMARK SMILES O=c1cc(-c2ccc(O)c(O)c2)oc2cc(O)cc(O)c12
REMARK SMILES IDX 4 1 3 2 2 3 1 4 21 5 19 6 18 7 16 8 15 9 14 10 13 11 5 12
REMARK SMILES IDX 6 13 7 14 8 15 12 16 10 17 9 18 11 20 20 22 17 24
REMARK H PARENT 9 19 11 21 20 23 17 25
REMARK Flexibility Score: inf
ROOT
ATOM      1  C   UNL     1     -49.586  38.371  26.396  1.00  0.00     0.138 A 
ATOM      2  C   UNL     1     -48.184  38.349  26.435  1.00  0.00     0.100 A 
ATOM      3  C   UNL     1     -47.522  38.647  27.627  1.00  0.00     0.197 A 
ATOM      4  O   UNL     1     -46.264  38.673  27.614  1.00  0.00    -0.289 OA
ATOM      5  C   UNL     1     -48.268  38.933  28.794  1.00  0.00     0.107 A 
ATOM      6  C   UNL     1     -47.701  39.218  30.074  1.00  0.00     0.134 A 
ATOM      7  C   UNL     1     -48.541  39.584  31.134  1.00  0.00     0.093 A 
ATOM      8  C   UNL     1     -49.928  39.619  30.977  1.00  0.00     0.123 A 
ATOM      9  C   UNL     1     -50.493  39.295  29.746  1.00  0.00     0.094 A 
ATOM     10  C   UNL     1     -49.682  38.959  28.660  1.00  0.00     0.146 A 
ATOM     11  O   UNL     1     -50.262  38.674  27.499  1.00  0.00    -0.456 OA
ENDROOT
BRANCH   1  12
ATOM     12  C   UNL     1     -50.342  38.060  25.157  1.00  0.00     0.021 A 
ATOM     13  C   UNL     1     -49.862  37.136  24.209  1.00  0.00     0.016 A 
ATOM     14  C   UNL     1     -50.591  36.871  23.047  1.00  0.00     0.051 A 
ATOM     15  C   UNL     1     -51.803  37.524  22.806  1.00  0.00     0.157 A 
ATOM     16  C   UNL     1     -51.555  38.724  24.902  1.00  0.00     0.062 A 
ATOM     17  C   UNL     1     -52.287  38.457  23.736  1.00  0.00     0.158 A 
BRANCH  15  18
ATOM     18  O   UNL     1     -52.508  37.236  21.638  1.00  0.00    -0.504 OA
ATOM     19  H   UNL     1     -52.437  36.339  21.173  1.00  0.00     0.293 HD
ENDBRANCH  15  18
BRANCH  17  20
ATOM     20  O   UNL     1     -53.494  39.115  23.500  1.00  0.00    -0.504 OA
ATOM     21  H   UNL     1     -53.887  39.185  22.570  1.00  0.00     0.293 HD
ENDBRANCH  17  20
ENDBRANCH   1  12
BRANCH   6  22
ATOM     22  O   UNL     1     -46.336  39.135  30.362  1.00  0.00    -0.507 OA
ATOM     23  H   UNL     1     -45.945  38.762  31.213  1.00  0.00     0.293 HD
ENDBRANCH   6  22
BRANCH   8  24
ATOM     24  O   UNL     1     -50.755  39.970  32.042  1.00  0.00    -0.508 OA
ATOM     25  H   UNL     1     -51.008  39.300  32.759  1.00  0.00     0.293 HD
ENDBRANCH   8  24
TORSDOF 5
ENDMDL
