MODEL 1
REMARK VINA RESULT:    -3.487      0.000      0.000
REMARK INTER + INTRA:         -14.659
REMARK INTER:                  -9.196
REMARK INTRA:                  -5.463
REMARK UNBOUND:                -5.463
REMARK SMILES CCCCCCCCCCCCCCCCCCCCCCCCCCCCCC(=O)[O-]
REMARK SMILES IDX 16 1 17 2 18 3 19 4 20 5 21 6 22 7 23 8 24 9 25 10 26 11
REMARK SMILES IDX 27 12 28 13 29 14 30 15 31 16 32 17 15 18 14 19 13 20 12 21
REMARK SMILES IDX 11 22 10 23 9 24 8 25 7 26 6 27 5 28 4 29 3 30 2 31 1 32
REMARK H PARENT
REMARK Flexibility Score: inf
ROOT
ATOM      1  C   UNL     1      26.928  33.598   3.489  1.00  0.00     0.000 C 
ENDROOT
BRANCH   1   2
ATOM      2  C   UNL     1      28.275  34.029   4.100  1.00  0.00     0.000 C 
BRANCH   2   3
ATOM      3  C   UNL     1      29.148  34.909   3.189  1.00  0.00     0.000 C 
BRANCH   3   4
ATOM      4  C   UNL     1      28.834  36.417   3.230  1.00  0.00     0.000 C 
BRANCH   4   5
ATOM      5  C   UNL     1      29.919  37.311   2.591  1.00  0.00     0.000 C 
BRANCH   5   6
ATOM      6  C   UNL     1      31.026  36.498   1.894  1.00  0.00     0.000 C 
BRANCH   6   7
ATOM      7  C   UNL     1      31.205  36.865   0.411  1.00  0.00     0.000 C 
BRANCH   7   8
ATOM      8  C   UNL     1      31.713  35.704  -0.472  1.00  0.00     0.000 C 
BRANCH   8   9
ATOM      9  C   UNL     1      30.884  34.420  -0.286  1.00  0.00     0.000 C 
BRANCH   9  10
ATOM     10  C   UNL     1      31.732  33.242   0.225  1.00  0.00     0.000 C 
BRANCH  10  11
ATOM     11  C   UNL     1      31.107  32.564   1.454  1.00  0.00     0.000 C 
BRANCH  11  12
ATOM     12  C   UNL     1      31.873  32.919   2.735  1.00  0.00     0.000 C 
BRANCH  12  13
ATOM     13  C   UNL     1      33.370  33.088   2.449  1.00  0.00     0.006 C 
BRANCH  13  14
ATOM     14  C   UNL     1      33.914  34.370   3.093  1.00  0.00     0.053 C 
BRANCH  14  15
ATOM     15  C   UNL     1      34.798  35.152   2.166  1.00  0.00     0.041 C 
ATOM     16  O   UNL     1      34.815  34.915   0.926  1.00  0.00    -0.550 OA
ATOM     17  O   UNL     1      35.558  36.202   2.670  1.00  0.00    -0.550 OA
ENDBRANCH  14  15
ENDBRANCH  13  14
ENDBRANCH  12  13
ENDBRANCH  11  12
ENDBRANCH  10  11
ENDBRANCH   9  10
ENDBRANCH   8   9
ENDBRANCH   7   8
ENDBRANCH   6   7
ENDBRANCH   5   6
ENDBRANCH   4   5
ENDBRANCH   3   4
ENDBRANCH   2   3
ENDBRANCH   1   2
BRANCH   1  18
ATOM     18  C   UNL     1      27.018  33.202   1.996  1.00  0.00     0.000 C 
BRANCH  18  19
ATOM     19  C   UNL     1      25.787  33.607   1.166  1.00  0.00     0.000 C 
BRANCH  19  20
ATOM     20  C   UNL     1      26.164  34.259  -0.173  1.00  0.00     0.000 C 
BRANCH  20  21
ATOM     21  C   UNL     1      27.491  35.022  -0.059  1.00  0.00     0.000 C 
BRANCH  21  22
ATOM     22  C   UNL     1      27.533  36.278  -0.949  1.00  0.00     0.000 C 
BRANCH  22  23
ATOM     23  C   UNL     1      26.536  37.386  -0.550  1.00  0.00     0.000 C 
BRANCH  23  24
ATOM     24  C   UNL     1      26.604  37.828   0.925  1.00  0.00    -0.000 C 
BRANCH  24  25
ATOM     25  C   UNL     1      25.412  37.386   1.792  1.00  0.00    -0.000 C 
BRANCH  25  26
ATOM     26  C   UNL     1      24.059  37.573   1.088  1.00  0.00    -0.000 C 
BRANCH  26  27
ATOM     27  C   UNL     1      23.215  36.292   1.171  1.00  0.00    -0.000 C 
BRANCH  27  28
ATOM     28  C   UNL     1      22.271  36.124  -0.030  1.00  0.00    -0.000 C 
BRANCH  28  29
ATOM     29  C   UNL     1      22.835  35.175  -1.098  1.00  0.00    -0.000 C 
BRANCH  29  30
ATOM     30  C   UNL     1      21.993  33.897  -1.193  1.00  0.00    -0.000 C 
BRANCH  30  31
ATOM     31  C   UNL     1      22.804  32.669  -0.764  1.00  0.00    -0.003 C 
ATOM     32  C   UNL     1      21.965  31.398  -0.849  1.00  0.00     0.004 C 
ENDBRANCH  30  31
ENDBRANCH  29  30
ENDBRANCH  28  29
ENDBRANCH  27  28
ENDBRANCH  26  27
ENDBRANCH  25  26
ENDBRANCH  24  25
ENDBRANCH  23  24
ENDBRANCH  22  23
ENDBRANCH  21  22
ENDBRANCH  20  21
ENDBRANCH  19  20
ENDBRANCH  18  19
ENDBRANCH   1  18
TORSDOF 28
ENDMDL
MODEL 2
REMARK VINA RESULT:    -3.434      1.355      3.472
REMARK INTER + INTRA:         -14.518
REMARK INTER:                  -8.713
REMARK INTRA:                  -5.806
REMARK UNBOUND:                -5.463
REMARK SMILES CCCCCCCCCCCCCCCCCCCCCCCCCCCCCC(=O)[O-]
REMARK SMILES IDX 16 1 17 2 18 3 19 4 20 5 21 6 22 7 23 8 24 9 25 10 26 11
REMARK SMILES IDX 27 12 28 13 29 14 30 15 31 16 32 17 15 18 14 19 13 20 12 21
REMARK SMILES IDX 11 22 10 23 9 24 8 25 7 26 6 27 5 28 4 29 3 30 2 31 1 32
REMARK H PARENT
REMARK Flexibility Score: inf
ROOT
ATOM      1  C   UNL     1      29.387  33.946   3.249  1.00  0.00     0.000 C 
ENDROOT
BRANCH   1   2
ATOM      2  C   UNL     1      29.359  35.406   2.758  1.00  0.00     0.000 C 
BRANCH   2   3
ATOM      3  C   UNL     1      30.724  35.973   2.333  1.00  0.00     0.000 C 
BRANCH   3   4
ATOM      4  C   UNL     1      30.688  36.982   1.169  1.00  0.00     0.000 C 
BRANCH   4   5
ATOM      5  C   UNL     1      31.921  36.931   0.242  1.00  0.00     0.000 C 
BRANCH   5   6
ATOM      6  C   UNL     1      31.605  36.326  -1.138  1.00  0.00     0.000 C 
BRANCH   6   7
ATOM      7  C   UNL     1      32.295  34.973  -1.380  1.00  0.00     0.000 C 
BRANCH   7   8
ATOM      8  C   UNL     1      31.338  33.761  -1.365  1.00  0.00     0.000 C 
BRANCH   8   9
ATOM      9  C   UNL     1      31.297  33.062   0.006  1.00  0.00     0.000 C 
BRANCH   9  10
ATOM     10  C   UNL     1      32.634  33.169   0.760  1.00  0.00     0.000 C 
BRANCH  10  11
ATOM     11  C   UNL     1      32.582  32.493   2.139  1.00  0.00     0.000 C 
BRANCH  11  12
ATOM     12  C   UNL     1      33.246  33.365   3.212  1.00  0.00     0.000 C 
BRANCH  12  13
ATOM     13  C   UNL     1      33.989  34.546   2.575  1.00  0.00     0.006 C 
BRANCH  13  14
ATOM     14  C   UNL     1      35.292  34.849   3.325  1.00  0.00     0.053 C 
BRANCH  14  15
ATOM     15  C   UNL     1      35.056  35.513   4.649  1.00  0.00     0.041 C 
ATOM     16  O   UNL     1      34.989  36.770   4.746  1.00  0.00    -0.550 OA
ATOM     17  O   UNL     1      34.836  34.731   5.778  1.00  0.00    -0.550 OA
ENDBRANCH  14  15
ENDBRANCH  13  14
ENDBRANCH  12  13
ENDBRANCH  11  12
ENDBRANCH  10  11
ENDBRANCH   9  10
ENDBRANCH   8   9
ENDBRANCH   7   8
ENDBRANCH   6   7
ENDBRANCH   5   6
ENDBRANCH   4   5
ENDBRANCH   3   4
ENDBRANCH   2   3
ENDBRANCH   1   2
BRANCH   1  18
ATOM     18  C   UNL     1      28.491  32.992   2.424  1.00  0.00     0.000 C 
BRANCH  18  19
ATOM     19  C   UNL     1      27.066  32.834   2.981  1.00  0.00     0.000 C 
BRANCH  19  20
ATOM     20  C   UNL     1      26.056  33.771   2.301  1.00  0.00     0.000 C 
BRANCH  20  21
ATOM     21  C   UNL     1      25.669  33.247   0.911  1.00  0.00     0.000 C 
BRANCH  21  22
ATOM     22  C   UNL     1      24.197  32.799   0.833  1.00  0.00     0.000 C 
BRANCH  22  23
ATOM     23  C   UNL     1      23.379  33.458  -0.296  1.00  0.00     0.000 C 
BRANCH  23  24
ATOM     24  C   UNL     1      23.986  34.752  -0.874  1.00  0.00    -0.000 C 
BRANCH  24  25
ATOM     25  C   UNL     1      23.229  36.043  -0.513  1.00  0.00    -0.000 C 
BRANCH  25  26
ATOM     26  C   UNL     1      23.451  36.479   0.943  1.00  0.00    -0.000 C 
BRANCH  26  27
ATOM     27  C   UNL     1      24.506  37.593   1.029  1.00  0.00    -0.000 C 
BRANCH  27  28
ATOM     28  C   UNL     1      25.773  37.154   1.779  1.00  0.00    -0.000 C 
BRANCH  28  29
ATOM     29  C   UNL     1      27.053  37.376   0.959  1.00  0.00    -0.000 C 
BRANCH  29  30
ATOM     30  C   UNL     1      26.739  37.433  -0.540  1.00  0.00    -0.000 C 
BRANCH  30  31
ATOM     31  C   UNL     1      27.745  36.603  -1.347  1.00  0.00    -0.003 C 
ATOM     32  C   UNL     1      28.014  35.261  -0.674  1.00  0.00     0.004 C 
ENDBRANCH  30  31
ENDBRANCH  29  30
ENDBRANCH  28  29
ENDBRANCH  27  28
ENDBRANCH  26  27
ENDBRANCH  25  26
ENDBRANCH  24  25
ENDBRANCH  23  24
ENDBRANCH  22  23
ENDBRANCH  21  22
ENDBRANCH  20  21
ENDBRANCH  19  20
ENDBRANCH  18  19
ENDBRANCH   1  18
TORSDOF 28
ENDMDL
MODEL 3
REMARK VINA RESULT:    -3.406      2.409      4.486
REMARK INTER + INTRA:         -14.444
REMARK INTER:                  -8.916
REMARK INTRA:                  -5.528
REMARK UNBOUND:                -5.463
REMARK SMILES CCCCCCCCCCCCCCCCCCCCCCCCCCCCCC(=O)[O-]
REMARK SMILES IDX 16 1 17 2 18 3 19 4 20 5 21 6 22 7 23 8 24 9 25 10 26 11
REMARK SMILES IDX 27 12 28 13 29 14 30 15 31 16 32 17 15 18 14 19 13 20 12 21
REMARK SMILES IDX 11 22 10 23 9 24 8 25 7 26 6 27 5 28 4 29 3 30 2 31 1 32
REMARK H PARENT
REMARK Flexibility Score: inf
ROOT
ATOM      1  C   UNL     1      27.643  34.391   3.124  1.00  0.00     0.000 C 
ENDROOT
BRANCH   1   2
ATOM      2  C   UNL     1      27.960  33.130   2.297  1.00  0.00     0.000 C 
BRANCH   2   3
ATOM      3  C   UNL     1      29.449  32.750   2.240  1.00  0.00     0.000 C 
BRANCH   3   4
ATOM      4  C   UNL     1      30.216  32.881   3.571  1.00  0.00     0.000 C 
BRANCH   4   5
ATOM      5  C   UNL     1      31.696  33.291   3.416  1.00  0.00     0.000 C 
BRANCH   5   6
ATOM      6  C   UNL     1      32.436  32.460   2.351  1.00  0.00     0.000 C 
BRANCH   6   7
ATOM      7  C   UNL     1      33.031  33.314   1.219  1.00  0.00     0.000 C 
BRANCH   7   8
ATOM      8  C   UNL     1      34.295  34.106   1.620  1.00  0.00     0.000 C 
BRANCH   8   9
ATOM      9  C   UNL     1      34.040  35.624   1.682  1.00  0.00     0.000 C 
BRANCH   9  10
ATOM     10  C   UNL     1      34.020  36.157   3.124  1.00  0.00     0.000 C 
BRANCH  10  11
ATOM     11  C   UNL     1      35.156  35.573   3.978  1.00  0.00     0.000 C 
BRANCH  11  12
ATOM     12  C   UNL     1      34.629  34.522   4.963  1.00  0.00     0.000 C 
BRANCH  12  13
ATOM     13  C   UNL     1      35.245  34.719   6.355  1.00  0.00     0.006 C 
BRANCH  13  14
ATOM     14  C   UNL     1      35.346  36.209   6.708  1.00  0.00     0.053 C 
BRANCH  14  15
ATOM     15  C   UNL     1      35.166  36.469   8.174  1.00  0.00     0.041 C 
ATOM     16  O   UNL     1      36.099  36.958   8.869  1.00  0.00    -0.550 OA
ATOM     17  O   UNL     1      33.929  36.233   8.763  1.00  0.00    -0.550 OA
ENDBRANCH  14  15
ENDBRANCH  13  14
ENDBRANCH  12  13
ENDBRANCH  11  12
ENDBRANCH  10  11
ENDBRANCH   9  10
ENDBRANCH   8   9
ENDBRANCH   7   8
ENDBRANCH   6   7
ENDBRANCH   5   6
ENDBRANCH   4   5
ENDBRANCH   3   4
ENDBRANCH   2   3
ENDBRANCH   1   2
BRANCH   1  18
ATOM     18  C   UNL     1      27.909  35.716   2.369  1.00  0.00     0.000 C 
BRANCH  18  19
ATOM     19  C   UNL     1      28.994  36.597   3.014  1.00  0.00     0.000 C 
BRANCH  19  20
ATOM     20  C   UNL     1      30.372  36.412   2.362  1.00  0.00     0.000 C 
BRANCH  20  21
ATOM     21  C   UNL     1      30.598  37.447   1.250  1.00  0.00     0.000 C 
BRANCH  21  22
ATOM     22  C   UNL     1      30.912  36.798  -0.111  1.00  0.00     0.000 C 
BRANCH  22  23
ATOM     23  C   UNL     1      30.583  35.293  -0.202  1.00  0.00     0.000 C 
BRANCH  23  24
ATOM     24  C   UNL     1      29.297  34.950  -0.979  1.00  0.00    -0.000 C 
BRANCH  24  25
ATOM     25  C   UNL     1      28.453  36.163  -1.409  1.00  0.00    -0.000 C 
BRANCH  25  26
ATOM     26  C   UNL     1      26.944  35.876  -1.398  1.00  0.00    -0.000 C 
BRANCH  26  27
ATOM     27  C   UNL     1      26.665  34.421  -0.990  1.00  0.00    -0.000 C 
BRANCH  27  28
ATOM     28  C   UNL     1      25.162  34.100  -0.930  1.00  0.00    -0.000 C 
BRANCH  28  29
ATOM     29  C   UNL     1      24.753  33.428   0.389  1.00  0.00    -0.000 C 
BRANCH  29  30
ATOM     30  C   UNL     1      24.456  34.476   1.468  1.00  0.00    -0.000 C 
BRANCH  30  31
ATOM     31  C   UNL     1      23.859  35.748   0.852  1.00  0.00    -0.003 C 
ATOM     32  C   UNL     1      24.602  36.991   1.331  1.00  0.00     0.004 C 
ENDBRANCH  30  31
ENDBRANCH  29  30
ENDBRANCH  28  29
ENDBRANCH  27  28
ENDBRANCH  26  27
ENDBRANCH  25  26
ENDBRANCH  24  25
ENDBRANCH  23  24
ENDBRANCH  22  23
ENDBRANCH  21  22
ENDBRANCH  20  21
ENDBRANCH  19  20
ENDBRANCH  18  19
ENDBRANCH   1  18
TORSDOF 28
ENDMDL
MODEL 4
REMARK VINA RESULT:    -3.388      3.533      9.202
REMARK INTER + INTRA:         -14.396
REMARK INTER:                  -9.825
REMARK INTRA:                  -4.571
REMARK UNBOUND:                -5.463
REMARK SMILES CCCCCCCCCCCCCCCCCCCCCCCCCCCCCC(=O)[O-]
REMARK SMILES IDX 16 1 17 2 18 3 19 4 20 5 21 6 22 7 23 8 24 9 25 10 26 11
REMARK SMILES IDX 27 12 28 13 29 14 30 15 31 16 32 17 15 18 14 19 13 20 12 21
REMARK SMILES IDX 11 22 10 23 9 24 8 25 7 26 6 27 5 28 4 29 3 30 2 31 1 32
REMARK H PARENT
REMARK Flexibility Score: inf
ROOT
ATOM      1  C   UNL     1      29.421  33.532   3.900  1.00  0.00     0.000 C 
ENDROOT
BRANCH   1   2
ATOM      2  C   UNL     1      27.922  33.887   3.898  1.00  0.00     0.000 C 
BRANCH   2   3
ATOM      3  C   UNL     1      27.044  32.985   3.015  1.00  0.00     0.000 C 
BRANCH   3   4
ATOM      4  C   UNL     1      26.115  33.725   2.032  1.00  0.00     0.000 C 
BRANCH   4   5
ATOM      5  C   UNL     1      26.757  34.041   0.664  1.00  0.00     0.000 C 
BRANCH   5   6
ATOM      6  C   UNL     1      26.737  35.544   0.330  1.00  0.00     0.000 C 
BRANCH   6   7
ATOM      7  C   UNL     1      26.630  36.442   1.574  1.00  0.00     0.000 C 
BRANCH   7   8
ATOM      8  C   UNL     1      25.479  37.470   1.517  1.00  0.00     0.000 C 
BRANCH   8   9
ATOM      9  C   UNL     1      24.100  36.800   1.370  1.00  0.00     0.000 C 
BRANCH   9  10
ATOM     10  C   UNL     1      23.329  37.308   0.140  1.00  0.00     0.000 C 
BRANCH  10  11
ATOM     11  C   UNL     1      23.677  36.521  -1.132  1.00  0.00     0.000 C 
BRANCH  11  12
ATOM     12  C   UNL     1      22.412  36.028  -1.846  1.00  0.00     0.000 C 
BRANCH  12  13
ATOM     13  C   UNL     1      21.977  34.659  -1.307  1.00  0.00     0.006 C 
BRANCH  13  14
ATOM     14  C   UNL     1      23.169  33.699  -1.211  1.00  0.00     0.053 C 
BRANCH  14  15
ATOM     15  C   UNL     1      22.842  32.445  -0.456  1.00  0.00     0.041 C 
ATOM     16  O   UNL     1      23.510  32.103   0.559  1.00  0.00    -0.550 OA
ATOM     17  O   UNL     1      21.743  31.684  -0.837  1.00  0.00    -0.550 OA
ENDBRANCH  14  15
ENDBRANCH  13  14
ENDBRANCH  12  13
ENDBRANCH  11  12
ENDBRANCH  10  11
ENDBRANCH   9  10
ENDBRANCH   8   9
ENDBRANCH   7   8
ENDBRANCH   6   7
ENDBRANCH   5   6
ENDBRANCH   4   5
ENDBRANCH   3   4
ENDBRANCH   2   3
ENDBRANCH   1   2
BRANCH   1  18
ATOM     18  C   UNL     1      30.079  33.595   2.501  1.00  0.00     0.000 C 
BRANCH  18  19
ATOM     19  C   UNL     1      30.359  35.025   2.005  1.00  0.00     0.000 C 
BRANCH  19  20
ATOM     20  C   UNL     1      30.575  35.093   0.486  1.00  0.00     0.000 C 
BRANCH  20  21
ATOM     21  C   UNL     1      30.407  33.708  -0.157  1.00  0.00     0.000 C 
BRANCH  21  22
ATOM     22  C   UNL     1      31.025  33.627  -1.565  1.00  0.00     0.000 C 
BRANCH  22  23
ATOM     23  C   UNL     1      31.756  32.304  -1.874  1.00  0.00     0.000 C 
BRANCH  23  24
ATOM     24  C   UNL     1      33.283  32.426  -2.047  1.00  0.00    -0.000 C 
BRANCH  24  25
ATOM     25  C   UNL     1      33.858  33.830  -1.784  1.00  0.00    -0.000 C 
BRANCH  25  26
ATOM     26  C   UNL     1      35.320  33.799  -1.316  1.00  0.00    -0.000 C 
BRANCH  26  27
ATOM     27  C   UNL     1      35.406  33.647   0.211  1.00  0.00    -0.000 C 
BRANCH  27  28
ATOM     28  C   UNL     1      34.124  34.104   0.925  1.00  0.00    -0.000 C 
BRANCH  28  29
ATOM     29  C   UNL     1      33.579  33.047   1.897  1.00  0.00    -0.000 C 
BRANCH  29  30
ATOM     30  C   UNL     1      33.553  33.585   3.332  1.00  0.00    -0.000 C 
BRANCH  30  31
ATOM     31  C   UNL     1      34.642  34.644   3.544  1.00  0.00    -0.003 C 
ATOM     32  C   UNL     1      34.969  34.807   5.025  1.00  0.00     0.004 C 
ENDBRANCH  30  31
ENDBRANCH  29  30
ENDBRANCH  28  29
ENDBRANCH  27  28
ENDBRANCH  26  27
ENDBRANCH  25  26
ENDBRANCH  24  25
ENDBRANCH  23  24
ENDBRANCH  22  23
ENDBRANCH  21  22
ENDBRANCH  20  21
ENDBRANCH  19  20
ENDBRANCH  18  19
ENDBRANCH   1  18
TORSDOF 28
ENDMDL
MODEL 5
REMARK VINA RESULT:    -3.382      3.782      8.458
REMARK INTER + INTRA:         -14.381
REMARK INTER:                  -8.882
REMARK INTRA:                  -5.500
REMARK UNBOUND:                -5.463
REMARK SMILES CCCCCCCCCCCCCCCCCCCCCCCCCCCCCC(=O)[O-]
REMARK SMILES IDX 16 1 17 2 18 3 19 4 20 5 21 6 22 7 23 8 24 9 25 10 26 11
REMARK SMILES IDX 27 12 28 13 29 14 30 15 31 16 32 17 15 18 14 19 13 20 12 21
REMARK SMILES IDX 11 22 10 23 9 24 8 25 7 26 6 27 5 28 4 29 3 30 2 31 1 32
REMARK H PARENT
REMARK Flexibility Score: inf
ROOT
ATOM      1  C   UNL     1      27.106  36.558   1.738  1.00  0.00     0.000 C 
ENDROOT
BRANCH   1   2
ATOM      2  C   UNL     1      28.378  36.684   2.599  1.00  0.00     0.000 C 
BRANCH   2   3
ATOM      3  C   UNL     1      29.634  37.134   1.835  1.00  0.00     0.000 C 
BRANCH   3   4
ATOM      4  C   UNL     1      30.592  36.002   1.413  1.00  0.00     0.000 C 
BRANCH   4   5
ATOM      5  C   UNL     1      30.121  35.193   0.186  1.00  0.00     0.000 C 
BRANCH   5   6
ATOM      6  C   UNL     1      30.263  35.975  -1.133  1.00  0.00     0.000 C 
BRANCH   6   7
ATOM      7  C   UNL     1      29.057  35.806  -2.072  1.00  0.00     0.000 C 
BRANCH   7   8
ATOM      8  C   UNL     1      27.980  36.904  -1.925  1.00  0.00     0.000 C 
BRANCH   8   9
ATOM      9  C   UNL     1      26.553  36.326  -1.905  1.00  0.00     0.000 C 
BRANCH   9  10
ATOM     10  C   UNL     1      26.532  34.803  -2.125  1.00  0.00     0.000 C 
BRANCH  10  11
ATOM     11  C   UNL     1      25.212  34.166  -1.665  1.00  0.00     0.000 C 
BRANCH  11  12
ATOM     12  C   UNL     1      24.305  35.196  -0.979  1.00  0.00     0.000 C 
BRANCH  12  13
ATOM     13  C   UNL     1      23.015  34.539  -0.473  1.00  0.00     0.006 C 
BRANCH  13  14
ATOM     14  C   UNL     1      23.229  33.045  -0.194  1.00  0.00     0.053 C 
BRANCH  14  15
ATOM     15  C   UNL     1      22.247  32.175  -0.922  1.00  0.00     0.041 C 
ATOM     16  O   UNL     1      22.271  30.919  -0.796  1.00  0.00    -0.550 OA
ATOM     17  O   UNL     1      21.251  32.764  -1.692  1.00  0.00    -0.550 OA
ENDBRANCH  14  15
ENDBRANCH  13  14
ENDBRANCH  12  13
ENDBRANCH  11  12
ENDBRANCH  10  11
ENDBRANCH   9  10
ENDBRANCH   8   9
ENDBRANCH   7   8
ENDBRANCH   6   7
ENDBRANCH   5   6
ENDBRANCH   4   5
ENDBRANCH   3   4
ENDBRANCH   2   3
ENDBRANCH   1   2
BRANCH   1  18
ATOM     18  C   UNL     1      26.537  35.120   1.671  1.00  0.00     0.000 C 
BRANCH  18  19
ATOM     19  C   UNL     1      26.818  34.277   2.927  1.00  0.00     0.000 C 
BRANCH  19  20
ATOM     20  C   UNL     1      27.268  32.847   2.592  1.00  0.00     0.000 C 
BRANCH  20  21
ATOM     21  C   UNL     1      28.796  32.766   2.465  1.00  0.00     0.000 C 
BRANCH  21  22
ATOM     22  C   UNL     1      29.523  33.199   3.751  1.00  0.00     0.000 C 
BRANCH  22  23
ATOM     23  C   UNL     1      31.060  33.070   3.701  1.00  0.00     0.000 C 
BRANCH  23  24
ATOM     24  C   UNL     1      31.638  32.670   2.329  1.00  0.00    -0.000 C 
BRANCH  24  25
ATOM     25  C   UNL     1      33.171  32.744   2.223  1.00  0.00    -0.000 C 
BRANCH  25  26
ATOM     26  C   UNL     1      33.744  34.069   2.749  1.00  0.00    -0.000 C 
BRANCH  26  27
ATOM     27  C   UNL     1      34.921  34.542   1.883  1.00  0.00    -0.000 C 
BRANCH  27  28
ATOM     28  C   UNL     1      34.536  35.687   0.932  1.00  0.00    -0.000 C 
BRANCH  28  29
ATOM     29  C   UNL     1      33.754  35.198  -0.296  1.00  0.00    -0.000 C 
BRANCH  29  30
ATOM     30  C   UNL     1      34.665  34.415  -1.248  1.00  0.00    -0.000 C 
BRANCH  30  31
ATOM     31  C   UNL     1      34.159  32.981  -1.441  1.00  0.00    -0.003 C 
ATOM     32  C   UNL     1      32.635  32.930  -1.440  1.00  0.00     0.004 C 
ENDBRANCH  30  31
ENDBRANCH  29  30
ENDBRANCH  28  29
ENDBRANCH  27  28
ENDBRANCH  26  27
ENDBRANCH  25  26
ENDBRANCH  24  25
ENDBRANCH  23  24
ENDBRANCH  22  23
ENDBRANCH  21  22
ENDBRANCH  20  21
ENDBRANCH  19  20
ENDBRANCH  18  19
ENDBRANCH   1  18
TORSDOF 28
ENDMDL
MODEL 6
REMARK VINA RESULT:    -3.378      1.695      3.630
REMARK INTER + INTRA:         -14.371
REMARK INTER:                  -8.446
REMARK INTRA:                  -5.925
REMARK UNBOUND:                -5.463
REMARK SMILES CCCCCCCCCCCCCCCCCCCCCCCCCCCCCC(=O)[O-]
REMARK SMILES IDX 16 1 17 2 18 3 19 4 20 5 21 6 22 7 23 8 24 9 25 10 26 11
REMARK SMILES IDX 27 12 28 13 29 14 30 15 31 16 32 17 15 18 14 19 13 20 12 21
REMARK SMILES IDX 11 22 10 23 9 24 8 25 7 26 6 27 5 28 4 29 3 30 2 31 1 32
REMARK H PARENT
REMARK Flexibility Score: inf
ROOT
ATOM      1  C   UNL     1      30.581  32.875   3.986  1.00  0.00     0.000 C 
ENDROOT
BRANCH   1   2
ATOM      2  C   UNL     1      31.855  33.368   3.273  1.00  0.00     0.000 C 
BRANCH   2   3
ATOM      3  C   UNL     1      32.304  32.507   2.081  1.00  0.00     0.000 C 
BRANCH   3   4
ATOM      4  C   UNL     1      33.564  33.003   1.345  1.00  0.00     0.000 C 
BRANCH   4   5
ATOM      5  C   UNL     1      33.361  33.263  -0.163  1.00  0.00     0.000 C 
BRANCH   5   6
ATOM      6  C   UNL     1      31.977  32.810  -0.664  1.00  0.00     0.000 C 
BRANCH   6   7
ATOM      7  C   UNL     1      31.084  33.977  -1.120  1.00  0.00     0.000 C 
BRANCH   7   8
ATOM      8  C   UNL     1      30.081  34.462  -0.051  1.00  0.00     0.000 C 
BRANCH   8   9
ATOM      9  C   UNL     1      30.572  35.723   0.685  1.00  0.00     0.000 C 
BRANCH   9  10
ATOM     10  C   UNL     1      31.545  36.558  -0.166  1.00  0.00     0.000 C 
BRANCH  10  11
ATOM     11  C   UNL     1      32.859  36.854   0.574  1.00  0.00     0.000 C 
BRANCH  11  12
ATOM     12  C   UNL     1      32.728  36.571   2.076  1.00  0.00     0.000 C 
BRANCH  12  13
ATOM     13  C   UNL     1      33.940  37.117   2.842  1.00  0.00     0.006 C 
BRANCH  13  14
ATOM     14  C   UNL     1      34.959  36.006   3.126  1.00  0.00     0.053 C 
BRANCH  14  15
ATOM     15  C   UNL     1      35.002  35.617   4.575  1.00  0.00     0.041 C 
ATOM     16  O   UNL     1      34.645  34.466   4.952  1.00  0.00    -0.550 OA
ATOM     17  O   UNL     1      35.508  36.513   5.509  1.00  0.00    -0.550 OA
ENDBRANCH  14  15
ENDBRANCH  13  14
ENDBRANCH  12  13
ENDBRANCH  11  12
ENDBRANCH  10  11
ENDBRANCH   9  10
ENDBRANCH   8   9
ENDBRANCH   7   8
ENDBRANCH   6   7
ENDBRANCH   5   6
ENDBRANCH   4   5
ENDBRANCH   3   4
ENDBRANCH   2   3
ENDBRANCH   1   2
BRANCH   1  18
ATOM     18  C   UNL     1      29.301  33.644   3.580  1.00  0.00     0.000 C 
BRANCH  18  19
ATOM     19  C   UNL     1      28.323  32.823   2.722  1.00  0.00     0.000 C 
BRANCH  19  20
ATOM     20  C   UNL     1      27.083  33.628   2.303  1.00  0.00     0.000 C 
BRANCH  20  21
ATOM     21  C   UNL     1      27.365  35.136   2.349  1.00  0.00     0.000 C 
BRANCH  21  22
ATOM     22  C   UNL     1      26.156  35.981   1.907  1.00  0.00     0.000 C 
BRANCH  22  23
ATOM     23  C   UNL     1      26.502  37.184   1.006  1.00  0.00     0.000 C 
BRANCH  23  24
ATOM     24  C   UNL     1      27.314  36.842  -0.259  1.00  0.00    -0.000 C 
BRANCH  24  25
ATOM     25  C   UNL     1      26.485  36.299  -1.437  1.00  0.00    -0.000 C 
BRANCH  25  26
ATOM     26  C   UNL     1      26.525  34.766  -1.540  1.00  0.00    -0.000 C 
BRANCH  26  27
ATOM     27  C   UNL     1      25.108  34.186  -1.669  1.00  0.00    -0.000 C 
BRANCH  27  28
ATOM     28  C   UNL     1      24.611  33.540  -0.366  1.00  0.00    -0.000 C 
BRANCH  28  29
ATOM     29  C   UNL     1      23.385  34.258   0.220  1.00  0.00    -0.000 C 
BRANCH  29  30
ATOM     30  C   UNL     1      22.915  35.383  -0.710  1.00  0.00    -0.000 C 
BRANCH  30  31
ATOM     31  C   UNL     1      23.030  36.750  -0.023  1.00  0.00    -0.003 C 
ATOM     32  C   UNL     1      22.073  36.853   1.159  1.00  0.00     0.004 C 
ENDBRANCH  30  31
ENDBRANCH  29  30
ENDBRANCH  28  29
ENDBRANCH  27  28
ENDBRANCH  26  27
ENDBRANCH  25  26
ENDBRANCH  24  25
ENDBRANCH  23  24
ENDBRANCH  22  23
ENDBRANCH  21  22
ENDBRANCH  20  21
ENDBRANCH  19  20
ENDBRANCH  18  19
ENDBRANCH   1  18
TORSDOF 28
ENDMDL
MODEL 7
REMARK VINA RESULT:    -3.281      3.874      8.489
REMARK INTER + INTRA:         -14.116
REMARK INTER:                  -8.024
REMARK INTRA:                  -6.092
REMARK UNBOUND:                -5.463
REMARK SMILES CCCCCCCCCCCCCCCCCCCCCCCCCCCCCC(=O)[O-]
REMARK SMILES IDX 16 1 17 2 18 3 19 4 20 5 21 6 22 7 23 8 24 9 25 10 26 11
REMARK SMILES IDX 27 12 28 13 29 14 30 15 31 16 32 17 15 18 14 19 13 20 12 21
REMARK SMILES IDX 11 22 10 23 9 24 8 25 7 26 6 27 5 28 4 29 3 30 2 31 1 32
REMARK H PARENT
REMARK Flexibility Score: inf
ROOT
ATOM      1  C   UNL     1      27.598  37.506   2.003  1.00  0.00     0.000 C 
ENDROOT
BRANCH   1   2
ATOM      2  C   UNL     1      28.887  37.468   2.846  1.00  0.00     0.000 C 
BRANCH   2   3
ATOM      3  C   UNL     1      30.193  37.548   2.038  1.00  0.00     0.000 C 
BRANCH   3   4
ATOM      4  C   UNL     1      31.049  36.266   2.037  1.00  0.00     0.000 C 
BRANCH   4   5
ATOM      5  C   UNL     1      30.980  35.454   0.727  1.00  0.00     0.000 C 
BRANCH   5   6
ATOM      6  C   UNL     1      30.440  36.278  -0.457  1.00  0.00     0.000 C 
BRANCH   6   7
ATOM      7  C   UNL     1      29.181  35.670  -1.097  1.00  0.00     0.000 C 
BRANCH   7   8
ATOM      8  C   UNL     1      28.183  36.711  -1.648  1.00  0.00     0.000 C 
BRANCH   8   9
ATOM      9  C   UNL     1      26.817  36.089  -1.994  1.00  0.00     0.000 C 
BRANCH   9  10
ATOM     10  C   UNL     1      26.685  34.643  -1.485  1.00  0.00     0.000 C 
BRANCH  10  11
ATOM     11  C   UNL     1      25.223  34.247  -1.228  1.00  0.00     0.000 C 
BRANCH  11  12
ATOM     12  C   UNL     1      24.380  35.463  -0.823  1.00  0.00     0.000 C 
BRANCH  12  13
ATOM     13  C   UNL     1      23.628  35.195   0.487  1.00  0.00     0.006 C 
BRANCH  13  14
ATOM     14  C   UNL     1      23.283  36.506   1.204  1.00  0.00     0.053 C 
BRANCH  14  15
ATOM     15  C   UNL     1      21.816  36.819   1.162  1.00  0.00     0.041 C 
ATOM     16  O   UNL     1      21.272  37.514   2.065  1.00  0.00    -0.550 OA
ATOM     17  O   UNL     1      21.057  36.397   0.077  1.00  0.00    -0.550 OA
ENDBRANCH  14  15
ENDBRANCH  13  14
ENDBRANCH  12  13
ENDBRANCH  11  12
ENDBRANCH  10  11
ENDBRANCH   9  10
ENDBRANCH   8   9
ENDBRANCH   7   8
ENDBRANCH   6   7
ENDBRANCH   5   6
ENDBRANCH   4   5
ENDBRANCH   3   4
ENDBRANCH   2   3
ENDBRANCH   1   2
BRANCH   1  18
ATOM     18  C   UNL     1      26.930  36.122   1.822  1.00  0.00     0.000 C 
BRANCH  18  19
ATOM     19  C   UNL     1      27.535  35.015   2.703  1.00  0.00     0.000 C 
BRANCH  19  20
ATOM     20  C   UNL     1      27.512  33.638   2.023  1.00  0.00     0.000 C 
BRANCH  20  21
ATOM     21  C   UNL     1      28.808  32.863   2.305  1.00  0.00     0.000 C 
BRANCH  21  22
ATOM     22  C   UNL     1      29.419  33.206   3.676  1.00  0.00     0.000 C 
BRANCH  22  23
ATOM     23  C   UNL     1      30.960  33.155   3.728  1.00  0.00     0.000 C 
BRANCH  23  24
ATOM     24  C   UNL     1      31.634  32.490   2.512  1.00  0.00    -0.000 C 
BRANCH  24  25
ATOM     25  C   UNL     1      33.153  32.713   2.408  1.00  0.00    -0.000 C 
BRANCH  25  26
ATOM     26  C   UNL     1      33.650  33.866   3.292  1.00  0.00    -0.000 C 
BRANCH  26  27
ATOM     27  C   UNL     1      34.907  34.517   2.692  1.00  0.00    -0.000 C 
BRANCH  27  28
ATOM     28  C   UNL     1      34.579  35.517   1.572  1.00  0.00    -0.000 C 
BRANCH  28  29
ATOM     29  C   UNL     1      35.380  35.252   0.289  1.00  0.00    -0.000 C 
BRANCH  29  30
ATOM     30  C   UNL     1      34.988  33.906  -0.332  1.00  0.00    -0.000 C 
BRANCH  30  31
ATOM     31  C   UNL     1      33.806  34.067  -1.296  1.00  0.00    -0.003 C 
ATOM     32  C   UNL     1      32.882  32.855  -1.240  1.00  0.00     0.004 C 
ENDBRANCH  30  31
ENDBRANCH  29  30
ENDBRANCH  28  29
ENDBRANCH  27  28
ENDBRANCH  26  27
ENDBRANCH  25  26
ENDBRANCH  24  25
ENDBRANCH  23  24
ENDBRANCH  22  23
ENDBRANCH  21  22
ENDBRANCH  20  21
ENDBRANCH  19  20
ENDBRANCH  18  19
ENDBRANCH   1  18
TORSDOF 28
ENDMDL
MODEL 8
REMARK VINA RESULT:    -3.278      2.448      8.501
REMARK INTER + INTRA:         -14.107
REMARK INTER:                  -9.071
REMARK INTRA:                  -5.036
REMARK UNBOUND:                -5.463
REMARK SMILES CCCCCCCCCCCCCCCCCCCCCCCCCCCCCC(=O)[O-]
REMARK SMILES IDX 16 1 17 2 18 3 19 4 20 5 21 6 22 7 23 8 24 9 25 10 26 11
REMARK SMILES IDX 27 12 28 13 29 14 30 15 31 16 32 17 15 18 14 19 13 20 12 21
REMARK SMILES IDX 11 22 10 23 9 24 8 25 7 26 6 27 5 28 4 29 3 30 2 31 1 32
REMARK H PARENT
REMARK Flexibility Score: inf
ROOT
ATOM      1  C   UNL     1      29.743  33.236   3.877  1.00  0.00     0.000 C 
ENDROOT
BRANCH   1   2
ATOM      2  C   UNL     1      28.424  33.977   4.171  1.00  0.00     0.000 C 
BRANCH   2   3
ATOM      3  C   UNL     1      27.207  33.473   3.377  1.00  0.00     0.000 C 
BRANCH   3   4
ATOM      4  C   UNL     1      26.621  34.472   2.361  1.00  0.00     0.000 C 
BRANCH   4   5
ATOM      5  C   UNL     1      25.648  33.845   1.340  1.00  0.00     0.000 C 
BRANCH   5   6
ATOM      6  C   UNL     1      25.954  34.264  -0.110  1.00  0.00     0.000 C 
BRANCH   6   7
ATOM      7  C   UNL     1      24.833  33.900  -1.097  1.00  0.00     0.000 C 
BRANCH   7   8
ATOM      8  C   UNL     1      23.841  35.049  -1.383  1.00  0.00     0.000 C 
BRANCH   8   9
ATOM      9  C   UNL     1      22.633  35.032  -0.429  1.00  0.00     0.000 C 
BRANCH   9  10
ATOM     10  C   UNL     1      22.004  36.425  -0.253  1.00  0.00     0.000 C 
BRANCH  10  11
ATOM     11  C   UNL     1      23.046  37.491   0.123  1.00  0.00     0.000 C 
BRANCH  11  12
ATOM     12  C   UNL     1      23.493  37.343   1.583  1.00  0.00     0.000 C 
BRANCH  12  13
ATOM     13  C   UNL     1      24.962  37.753   1.750  1.00  0.00     0.006 C 
BRANCH  13  14
ATOM     14  C   UNL     1      25.648  37.913   0.388  1.00  0.00     0.053 C 
BRANCH  14  15
ATOM     15  C   UNL     1      27.138  37.759   0.470  1.00  0.00     0.041 C 
ATOM     16  O   UNL     1      27.734  37.771   1.583  1.00  0.00    -0.550 OA
ATOM     17  O   UNL     1      27.868  37.531  -0.691  1.00  0.00    -0.550 OA
ENDBRANCH  14  15
ENDBRANCH  13  14
ENDBRANCH  12  13
ENDBRANCH  11  12
ENDBRANCH  10  11
ENDBRANCH   9  10
ENDBRANCH   8   9
ENDBRANCH   7   8
ENDBRANCH   6   7
ENDBRANCH   5   6
ENDBRANCH   4   5
ENDBRANCH   3   4
ENDBRANCH   2   3
ENDBRANCH   1   2
BRANCH   1  18
ATOM     18  C   UNL     1      30.427  33.677   2.561  1.00  0.00     0.000 C 
BRANCH  18  19
ATOM     19  C   UNL     1      30.412  35.198   2.327  1.00  0.00     0.000 C 
BRANCH  19  20
ATOM     20  C   UNL     1      30.373  35.567   0.836  1.00  0.00     0.000 C 
BRANCH  20  21
ATOM     21  C   UNL     1      29.604  34.513   0.027  1.00  0.00     0.000 C 
BRANCH  21  22
ATOM     22  C   UNL     1      29.829  34.647  -1.490  1.00  0.00     0.000 C 
BRANCH  22  23
ATOM     23  C   UNL     1      31.005  33.817  -2.045  1.00  0.00     0.000 C 
BRANCH  23  24
ATOM     24  C   UNL     1      31.539  32.724  -1.098  1.00  0.00    -0.000 C 
BRANCH  24  25
ATOM     25  C   UNL     1      33.031  32.845  -0.740  1.00  0.00    -0.000 C 
BRANCH  25  26
ATOM     26  C   UNL     1      33.523  34.300  -0.715  1.00  0.00    -0.000 C 
BRANCH  26  27
ATOM     27  C   UNL     1      34.477  34.537   0.467  1.00  0.00    -0.000 C 
BRANCH  27  28
ATOM     28  C   UNL     1      33.991  33.870   1.764  1.00  0.00    -0.000 C 
BRANCH  28  29
ATOM     29  C   UNL     1      33.986  34.835   2.959  1.00  0.00    -0.000 C 
BRANCH  29  30
ATOM     30  C   UNL     1      34.233  34.081   4.271  1.00  0.00    -0.000 C 
BRANCH  30  31
ATOM     31  C   UNL     1      35.244  34.823   5.153  1.00  0.00    -0.003 C 
ATOM     32  C   UNL     1      34.780  34.865   6.605  1.00  0.00     0.004 C 
ENDBRANCH  30  31
ENDBRANCH  29  30
ENDBRANCH  28  29
ENDBRANCH  27  28
ENDBRANCH  26  27
ENDBRANCH  25  26
ENDBRANCH  24  25
ENDBRANCH  23  24
ENDBRANCH  22  23
ENDBRANCH  21  22
ENDBRANCH  20  21
ENDBRANCH  19  20
ENDBRANCH  18  19
ENDBRANCH   1  18
TORSDOF 28
ENDMDL
MODEL 9
REMARK VINA RESULT:    -3.260      3.653      8.461
REMARK INTER + INTRA:         -14.060
REMARK INTER:                  -7.917
REMARK INTRA:                  -6.143
REMARK UNBOUND:                -5.463
REMARK SMILES CCCCCCCCCCCCCCCCCCCCCCCCCCCCCC(=O)[O-]
REMARK SMILES IDX 16 1 17 2 18 3 19 4 20 5 21 6 22 7 23 8 24 9 25 10 26 11
REMARK SMILES IDX 27 12 28 13 29 14 30 15 31 16 32 17 15 18 14 19 13 20 12 21
REMARK SMILES IDX 11 22 10 23 9 24 8 25 7 26 6 27 5 28 4 29 3 30 2 31 1 32
REMARK H PARENT
REMARK Flexibility Score: inf
ROOT
ATOM      1  C   UNL     1      27.836  32.886   2.633  1.00  0.00     0.000 C 
ENDROOT
BRANCH   1   2
ATOM      2  C   UNL     1      27.399  34.207   3.295  1.00  0.00     0.000 C 
BRANCH   2   3
ATOM      3  C   UNL     1      26.971  35.312   2.314  1.00  0.00     0.000 C 
BRANCH   3   4
ATOM      4  C   UNL     1      27.741  36.641   2.438  1.00  0.00     0.000 C 
BRANCH   4   5
ATOM      5  C   UNL     1      29.195  36.491   2.933  1.00  0.00     0.000 C 
BRANCH   5   6
ATOM      6  C   UNL     1      30.208  36.374   1.779  1.00  0.00     0.000 C 
BRANCH   6   7
ATOM      7  C   UNL     1      29.921  37.341   0.619  1.00  0.00     0.000 C 
BRANCH   7   8
ATOM      8  C   UNL     1      29.697  36.649  -0.744  1.00  0.00     0.000 C 
BRANCH   8   9
ATOM      9  C   UNL     1      29.408  35.144  -0.597  1.00  0.00     0.000 C 
BRANCH   9  10
ATOM     10  C   UNL     1      28.069  34.738  -1.236  1.00  0.00     0.000 C 
BRANCH  10  11
ATOM     11  C   UNL     1      27.073  35.906  -1.294  1.00  0.00     0.000 C 
BRANCH  11  12
ATOM     12  C   UNL     1      25.632  35.420  -1.087  1.00  0.00     0.000 C 
BRANCH  12  13
ATOM     13  C   UNL     1      25.610  33.967  -0.597  1.00  0.00     0.006 C 
BRANCH  13  14
ATOM     14  C   UNL     1      24.375  33.695   0.271  1.00  0.00     0.053 C 
BRANCH  14  15
ATOM     15  C   UNL     1      23.121  33.547  -0.540  1.00  0.00     0.041 C 
ATOM     16  O   UNL     1      22.886  32.492  -1.191  1.00  0.00    -0.550 OA
ATOM     17  O   UNL     1      22.169  34.560  -0.518  1.00  0.00    -0.550 OA
ENDBRANCH  14  15
ENDBRANCH  13  14
ENDBRANCH  12  13
ENDBRANCH  11  12
ENDBRANCH  10  11
ENDBRANCH   9  10
ENDBRANCH   8   9
ENDBRANCH   7   8
ENDBRANCH   6   7
ENDBRANCH   5   6
ENDBRANCH   4   5
ENDBRANCH   3   4
ENDBRANCH   2   3
ENDBRANCH   1   2
BRANCH   1  18
ATOM     18  C   UNL     1      29.361  32.783   2.391  1.00  0.00     0.000 C 
BRANCH  18  19
ATOM     19  C   UNL     1      30.211  32.998   3.656  1.00  0.00     0.000 C 
BRANCH  19  20
ATOM     20  C   UNL     1      31.639  33.466   3.337  1.00  0.00     0.000 C 
BRANCH  20  21
ATOM     21  C   UNL     1      32.318  32.519   2.337  1.00  0.00     0.000 C 
BRANCH  21  22
ATOM     22  C   UNL     1      32.556  33.175   0.965  1.00  0.00     0.000 C 
BRANCH  22  23
ATOM     23  C   UNL     1      34.037  33.278   0.546  1.00  0.00     0.000 C 
BRANCH  23  24
ATOM     24  C   UNL     1      34.345  34.358  -0.510  1.00  0.00    -0.000 C 
BRANCH  24  25
ATOM     25  C   UNL     1      33.178  35.310  -0.827  1.00  0.00    -0.000 C 
BRANCH  25  26
ATOM     26  C   UNL     1      33.491  36.774  -0.483  1.00  0.00    -0.000 C 
BRANCH  26  27
ATOM     27  C   UNL     1      33.685  36.954   1.031  1.00  0.00    -0.000 C 
BRANCH  27  28
ATOM     28  C   UNL     1      35.139  37.278   1.408  1.00  0.00    -0.000 C 
BRANCH  28  29
ATOM     29  C   UNL     1      35.722  36.283   2.423  1.00  0.00    -0.000 C 
BRANCH  29  30
ATOM     30  C   UNL     1      34.624  35.731   3.339  1.00  0.00    -0.000 C 
BRANCH  30  31
ATOM     31  C   UNL     1      35.132  34.531   4.148  1.00  0.00    -0.003 C 
ATOM     32  C   UNL     1      34.635  34.589   5.589  1.00  0.00     0.004 C 
ENDBRANCH  30  31
ENDBRANCH  29  30
ENDBRANCH  28  29
ENDBRANCH  27  28
ENDBRANCH  26  27
ENDBRANCH  25  26
ENDBRANCH  24  25
ENDBRANCH  23  24
ENDBRANCH  22  23
ENDBRANCH  21  22
ENDBRANCH  20  21
ENDBRANCH  19  20
ENDBRANCH  18  19
ENDBRANCH   1  18
TORSDOF 28
ENDMDL
