MODEL 1
REMARK VINA RESULT:    -5.356      0.000      0.000
REMARK INTER + INTRA:         -15.838
REMARK INTER:                 -12.245
REMARK INTRA:                  -3.592
REMARK UNBOUND:                -3.592
REMARK SMILES CCCCCCCCCCCCCCCCCCCCCCCC(=O)[O-]
REMARK SMILES IDX 13 1 14 2 15 3 16 4 17 5 18 6 19 7 20 8 21 9 22 10 23 11
REMARK SMILES IDX 24 12 25 13 26 14 12 15 11 16 10 17 9 18 8 19 7 20 6 21 5 22
REMARK SMILES IDX 4 23 3 24 2 25 1 26
REMARK H PARENT
REMARK Flexibility Score: inf
ROOT
ATOM      1  C   UNL     1      16.158  56.628  16.379  1.00  0.00     0.000 C 
ENDROOT
BRANCH   1   2
ATOM      2  C   UNL     1      16.400  56.076  17.794  1.00  0.00     0.000 C 
BRANCH   2   3
ATOM      3  C   UNL     1      17.871  55.753  18.124  1.00  0.00     0.000 C 
BRANCH   3   4
ATOM      4  C   UNL     1      18.883  56.853  17.752  1.00  0.00     0.000 C 
BRANCH   4   5
ATOM      5  C   UNL     1      20.263  56.341  17.292  1.00  0.00     0.000 C 
BRANCH   5   6
ATOM      6  C   UNL     1      20.838  57.105  16.080  1.00  0.00     0.000 C 
BRANCH   6   7
ATOM      7  C   UNL     1      22.207  56.561  15.634  1.00  0.00     0.000 C 
BRANCH   7   8
ATOM      8  C   UNL     1      22.764  55.508  16.605  1.00  0.00     0.000 C 
BRANCH   8   9
ATOM      9  C   UNL     1      24.228  55.771  16.989  1.00  0.00     0.000 C 
BRANCH   9  10
ATOM     10  C   UNL     1      25.115  54.581  16.605  1.00  0.00     0.006 C 
BRANCH  10  11
ATOM     11  C   UNL     1      26.260  54.398  17.606  1.00  0.00     0.053 C 
BRANCH  11  12
ATOM     12  C   UNL     1      27.251  55.510  17.471  1.00  0.00     0.041 C 
ATOM     13  O   UNL     1      27.941  55.868  18.463  1.00  0.00    -0.550 OA
ATOM     14  O   UNL     1      27.454  56.113  16.234  1.00  0.00    -0.550 OA
ENDBRANCH  11  12
ENDBRANCH  10  11
ENDBRANCH   9  10
ENDBRANCH   8   9
ENDBRANCH   7   8
ENDBRANCH   6   7
ENDBRANCH   5   6
ENDBRANCH   4   5
ENDBRANCH   3   4
ENDBRANCH   2   3
ENDBRANCH   1   2
BRANCH   1  15
ATOM     15  C   UNL     1      15.280  55.698  15.520  1.00  0.00     0.000 C 
BRANCH  15  16
ATOM     16  C   UNL     1      16.096  54.595  14.823  1.00  0.00     0.000 C 
BRANCH  16  17
ATOM     17  C   UNL     1      16.357  54.865  13.323  1.00  0.00     0.000 C 
BRANCH  17  18
ATOM     18  C   UNL     1      17.851  54.944  12.952  1.00  0.00    -0.000 C 
BRANCH  18  19
ATOM     19  C   UNL     1      18.818  54.972  14.148  1.00  0.00    -0.000 C 
BRANCH  19  20
ATOM     20  C   UNL     1      19.922  53.905  14.048  1.00  0.00    -0.000 C 
BRANCH  20  21
ATOM     21  C   UNL     1      20.115  53.121  15.358  1.00  0.00    -0.000 C 
BRANCH  21  22
ATOM     22  C   UNL     1      18.852  52.419  15.892  1.00  0.00    -0.000 C 
BRANCH  22  23
ATOM     23  C   UNL     1      18.873  52.231  17.420  1.00  0.00    -0.000 C 
BRANCH  23  24
ATOM     24  C   UNL     1      20.115  52.853  18.077  1.00  0.00    -0.000 C 
BRANCH  24  25
ATOM     25  C   UNL     1      19.963  53.003  19.598  1.00  0.00    -0.003 C 
ATOM     26  C   UNL     1      18.601  52.495  20.065  1.00  0.00     0.004 C 
ENDBRANCH  24  25
ENDBRANCH  23  24
ENDBRANCH  22  23
ENDBRANCH  21  22
ENDBRANCH  20  21
ENDBRANCH  19  20
ENDBRANCH  18  19
ENDBRANCH  17  18
ENDBRANCH  16  17
ENDBRANCH  15  16
ENDBRANCH   1  15
TORSDOF 22
ENDMDL
MODEL 2
REMARK VINA RESULT:    -5.163      1.204      3.727
REMARK INTER + INTRA:         -15.396
REMARK INTER:                 -11.991
REMARK INTRA:                  -3.405
REMARK UNBOUND:                -3.592
REMARK SMILES CCCCCCCCCCCCCCCCCCCCCCCC(=O)[O-]
REMARK SMILES IDX 13 1 14 2 15 3 16 4 17 5 18 6 19 7 20 8 21 9 22 10 23 11
REMARK SMILES IDX 24 12 25 13 26 14 12 15 11 16 10 17 9 18 8 19 7 20 6 21 5 22
REMARK SMILES IDX 4 23 3 24 2 25 1 26
REMARK H PARENT
REMARK Flexibility Score: inf
ROOT
ATOM      1  C   UNL     1      17.976  57.011  16.542  1.00  0.00     0.000 C 
ENDROOT
BRANCH   1   2
ATOM      2  C   UNL     1      18.893  57.098  17.774  1.00  0.00     0.000 C 
BRANCH   2   3
ATOM      3  C   UNL     1      20.402  56.996  17.470  1.00  0.00     0.000 C 
BRANCH   3   4
ATOM      4  C   UNL     1      20.768  56.930  15.976  1.00  0.00     0.000 C 
BRANCH   4   5
ATOM      5  C   UNL     1      22.170  56.366  15.672  1.00  0.00     0.000 C 
BRANCH   5   6
ATOM      6  C   UNL     1      22.993  56.030  16.934  1.00  0.00     0.000 C 
BRANCH   6   7
ATOM      7  C   UNL     1      24.496  55.879  16.637  1.00  0.00     0.000 C 
BRANCH   7   8
ATOM      8  C   UNL     1      24.945  54.409  16.615  1.00  0.00     0.000 C 
BRANCH   8   9
ATOM      9  C   UNL     1      26.242  54.174  17.402  1.00  0.00     0.000 C 
BRANCH   9  10
ATOM     10  C   UNL     1      26.842  55.505  17.873  1.00  0.00     0.006 C 
BRANCH  10  11
ATOM     11  C   UNL     1      27.594  55.336  19.198  1.00  0.00     0.053 C 
BRANCH  11  12
ATOM     12  C   UNL     1      28.973  55.906  19.089  1.00  0.00     0.041 C 
ATOM     13  O   UNL     1      29.223  56.803  18.241  1.00  0.00    -0.550 OA
ATOM     14  O   UNL     1      29.968  55.487  19.967  1.00  0.00    -0.550 OA
ENDBRANCH  11  12
ENDBRANCH  10  11
ENDBRANCH   9  10
ENDBRANCH   8   9
ENDBRANCH   7   8
ENDBRANCH   6   7
ENDBRANCH   5   6
ENDBRANCH   4   5
ENDBRANCH   3   4
ENDBRANCH   2   3
ENDBRANCH   1   2
BRANCH   1  15
ATOM     15  C   UNL     1      16.565  56.501  16.886  1.00  0.00     0.000 C 
BRANCH  15  16
ATOM     16  C   UNL     1      16.520  55.754  18.231  1.00  0.00     0.000 C 
BRANCH  16  17
ATOM     17  C   UNL     1      16.485  54.215  18.089  1.00  0.00     0.000 C 
BRANCH  17  18
ATOM     18  C   UNL     1      17.234  53.466  19.210  1.00  0.00    -0.000 C 
BRANCH  18  19
ATOM     19  C   UNL     1      18.454  52.654  18.747  1.00  0.00    -0.000 C 
BRANCH  19  20
ATOM     20  C   UNL     1      19.759  53.469  18.775  1.00  0.00    -0.000 C 
BRANCH  20  21
ATOM     21  C   UNL     1      20.555  53.367  17.462  1.00  0.00    -0.000 C 
BRANCH  21  22
ATOM     22  C   UNL     1      19.797  52.719  16.287  1.00  0.00    -0.000 C 
BRANCH  22  23
ATOM     23  C   UNL     1      19.039  53.744  15.425  1.00  0.00    -0.000 C 
BRANCH  23  24
ATOM     24  C   UNL     1      19.695  53.965  14.052  1.00  0.00    -0.000 C 
BRANCH  24  25
ATOM     25  C   UNL     1      18.661  54.142  12.929  1.00  0.00    -0.003 C 
ATOM     26  C   UNL     1      17.693  55.277  13.250  1.00  0.00     0.004 C 
ENDBRANCH  24  25
ENDBRANCH  23  24
ENDBRANCH  22  23
ENDBRANCH  21  22
ENDBRANCH  20  21
ENDBRANCH  19  20
ENDBRANCH  18  19
ENDBRANCH  17  18
ENDBRANCH  16  17
ENDBRANCH  15  16
ENDBRANCH   1  15
TORSDOF 22
ENDMDL
MODEL 3
REMARK VINA RESULT:    -4.817      1.575      3.232
REMARK INTER + INTRA:         -14.604
REMARK INTER:                 -11.455
REMARK INTRA:                  -3.149
REMARK UNBOUND:                -3.592
REMARK SMILES CCCCCCCCCCCCCCCCCCCCCCCC(=O)[O-]
REMARK SMILES IDX 13 1 14 2 15 3 16 4 17 5 18 6 19 7 20 8 21 9 22 10 23 11
REMARK SMILES IDX 24 12 25 13 26 14 12 15 11 16 10 17 9 18 8 19 7 20 6 21 5 22
REMARK SMILES IDX 4 23 3 24 2 25 1 26
REMARK H PARENT
REMARK Flexibility Score: inf
ROOT
ATOM      1  C   UNL     1      17.700  56.888  16.319  1.00  0.00     0.000 C 
ENDROOT
BRANCH   1   2
ATOM      2  C   UNL     1      18.154  56.324  17.676  1.00  0.00     0.000 C 
BRANCH   2   3
ATOM      3  C   UNL     1      19.655  55.981  17.768  1.00  0.00     0.000 C 
BRANCH   3   4
ATOM      4  C   UNL     1      20.609  57.052  17.208  1.00  0.00     0.000 C 
BRANCH   4   5
ATOM      5  C   UNL     1      21.544  56.569  16.082  1.00  0.00     0.000 C 
BRANCH   5   6
ATOM      6  C   UNL     1      22.648  55.601  16.561  1.00  0.00     0.000 C 
BRANCH   6   7
ATOM      7  C   UNL     1      24.064  56.151  16.315  1.00  0.00     0.000 C 
BRANCH   7   8
ATOM      8  C   UNL     1      25.160  55.170  16.760  1.00  0.00     0.000 C 
BRANCH   8   9
ATOM      9  C   UNL     1      26.575  55.731  16.560  1.00  0.00     0.000 C 
BRANCH   9  10
ATOM     10  C   UNL     1      27.496  55.312  17.712  1.00  0.00     0.006 C 
BRANCH  10  11
ATOM     11  C   UNL     1      26.720  54.554  18.794  1.00  0.00     0.053 C 
BRANCH  11  12
ATOM     12  C   UNL     1      27.243  54.905  20.151  1.00  0.00     0.041 C 
ATOM     13  O   UNL     1      26.596  55.689  20.896  1.00  0.00    -0.550 OA
ATOM     14  O   UNL     1      28.418  54.321  20.615  1.00  0.00    -0.550 OA
ENDBRANCH  11  12
ENDBRANCH  10  11
ENDBRANCH   9  10
ENDBRANCH   8   9
ENDBRANCH   7   8
ENDBRANCH   6   7
ENDBRANCH   5   6
ENDBRANCH   4   5
ENDBRANCH   3   4
ENDBRANCH   2   3
ENDBRANCH   1   2
BRANCH   1  15
ATOM     15  C   UNL     1      16.210  57.277  16.305  1.00  0.00     0.000 C 
BRANCH  15  16
ATOM     16  C   UNL     1      15.286  56.080  16.590  1.00  0.00     0.000 C 
BRANCH  16  17
ATOM     17  C   UNL     1      14.892  55.281  15.326  1.00  0.00     0.000 C 
BRANCH  17  18
ATOM     18  C   UNL     1      15.213  53.775  15.413  1.00  0.00    -0.000 C 
BRANCH  18  19
ATOM     19  C   UNL     1      15.024  53.148  16.804  1.00  0.00    -0.000 C 
BRANCH  19  20
ATOM     20  C   UNL     1      16.132  52.141  17.160  1.00  0.00    -0.000 C 
BRANCH  20  21
ATOM     21  C   UNL     1      17.278  52.774  17.967  1.00  0.00    -0.000 C 
BRANCH  21  22
ATOM     22  C   UNL     1      18.675  52.650  17.328  1.00  0.00    -0.000 C 
BRANCH  22  23
ATOM     23  C   UNL     1      18.654  52.846  15.802  1.00  0.00    -0.000 C 
BRANCH  23  24
ATOM     24  C   UNL     1      20.039  53.195  15.231  1.00  0.00    -0.000 C 
BRANCH  24  25
ATOM     25  C   UNL     1      19.960  54.203  14.074  1.00  0.00    -0.003 C 
ATOM     26  C   UNL     1      18.511  54.564  13.760  1.00  0.00     0.004 C 
ENDBRANCH  24  25
ENDBRANCH  23  24
ENDBRANCH  22  23
ENDBRANCH  21  22
ENDBRANCH  20  21
ENDBRANCH  19  20
ENDBRANCH  18  19
ENDBRANCH  17  18
ENDBRANCH  16  17
ENDBRANCH  15  16
ENDBRANCH   1  15
TORSDOF 22
ENDMDL
MODEL 4
REMARK VINA RESULT:    -4.768      3.755      7.431
REMARK INTER + INTRA:         -14.493
REMARK INTER:                 -11.087
REMARK INTRA:                  -3.405
REMARK UNBOUND:                -3.592
REMARK SMILES CCCCCCCCCCCCCCCCCCCCCCCC(=O)[O-]
REMARK SMILES IDX 13 1 14 2 15 3 16 4 17 5 18 6 19 7 20 8 21 9 22 10 23 11
REMARK SMILES IDX 24 12 25 13 26 14 12 15 11 16 10 17 9 18 8 19 7 20 6 21 5 22
REMARK SMILES IDX 4 23 3 24 2 25 1 26
REMARK H PARENT
REMARK Flexibility Score: inf
ROOT
ATOM      1  C   UNL     1      18.610  56.789  16.245  1.00  0.00     0.000 C 
ENDROOT
BRANCH   1   2
ATOM      2  C   UNL     1      18.907  56.363  14.797  1.00  0.00     0.000 C 
BRANCH   2   3
ATOM      3  C   UNL     1      18.348  54.983  14.397  1.00  0.00     0.000 C 
BRANCH   3   4
ATOM      4  C   UNL     1      19.408  53.916  14.066  1.00  0.00     0.000 C 
BRANCH   4   5
ATOM      5  C   UNL     1      19.556  52.796  15.115  1.00  0.00     0.000 C 
BRANCH   5   6
ATOM      6  C   UNL     1      20.718  53.021  16.107  1.00  0.00     0.000 C 
BRANCH   6   7
ATOM      7  C   UNL     1      20.227  53.312  17.537  1.00  0.00     0.000 C 
BRANCH   7   8
ATOM      8  C   UNL     1      18.695  53.253  17.654  1.00  0.00     0.000 C 
BRANCH   8   9
ATOM      9  C   UNL     1      18.172  53.934  18.927  1.00  0.00     0.000 C 
BRANCH   9  10
ATOM     10  C   UNL     1      16.641  54.021  18.909  1.00  0.00     0.006 C 
BRANCH  10  11
ATOM     11  C   UNL     1      16.107  54.078  17.474  1.00  0.00     0.053 C 
BRANCH  11  12
ATOM     12  C   UNL     1      15.583  55.446  17.168  1.00  0.00     0.041 C 
ATOM     13  O   UNL     1      15.178  55.725  16.008  1.00  0.00    -0.550 OA
ATOM     14  O   UNL     1      15.489  56.396  18.181  1.00  0.00    -0.550 OA
ENDBRANCH  11  12
ENDBRANCH  10  11
ENDBRANCH   9  10
ENDBRANCH   8   9
ENDBRANCH   7   8
ENDBRANCH   6   7
ENDBRANCH   5   6
ENDBRANCH   4   5
ENDBRANCH   3   4
ENDBRANCH   2   3
ENDBRANCH   1   2
BRANCH   1  15
ATOM     15  C   UNL     1      19.886  56.941  17.093  1.00  0.00     0.000 C 
BRANCH  15  16
ATOM     16  C   UNL     1      21.170  56.744  16.268  1.00  0.00     0.000 C 
BRANCH  16  17
ATOM     17  C   UNL     1      22.374  56.241  17.097  1.00  0.00     0.000 C 
BRANCH  17  18
ATOM     18  C   UNL     1      23.521  55.660  16.246  1.00  0.00    -0.000 C 
BRANCH  18  19
ATOM     19  C   UNL     1      24.721  56.600  16.044  1.00  0.00    -0.000 C 
BRANCH  19  20
ATOM     20  C   UNL     1      26.073  55.889  16.232  1.00  0.00    -0.000 C 
BRANCH  20  21
ATOM     21  C   UNL     1      25.922  54.388  16.533  1.00  0.00    -0.000 C 
BRANCH  21  22
ATOM     22  C   UNL     1      26.278  53.971  17.973  1.00  0.00    -0.000 C 
BRANCH  22  23
ATOM     23  C   UNL     1      26.765  55.150  18.835  1.00  0.00    -0.000 C 
BRANCH  23  24
ATOM     24  C   UNL     1      27.034  54.746  20.294  1.00  0.00    -0.000 C 
BRANCH  24  25
ATOM     25  C   UNL     1      27.225  53.231  20.458  1.00  0.00    -0.003 C 
ATOM     26  C   UNL     1      28.702  52.878  20.605  1.00  0.00     0.004 C 
ENDBRANCH  24  25
ENDBRANCH  23  24
ENDBRANCH  22  23
ENDBRANCH  21  22
ENDBRANCH  20  21
ENDBRANCH  19  20
ENDBRANCH  18  19
ENDBRANCH  17  18
ENDBRANCH  16  17
ENDBRANCH  15  16
ENDBRANCH   1  15
TORSDOF 22
ENDMDL
MODEL 5
REMARK VINA RESULT:    -4.739      1.899      3.540
REMARK INTER + INTRA:         -14.426
REMARK INTER:                 -11.057
REMARK INTRA:                  -3.369
REMARK UNBOUND:                -3.592
REMARK SMILES CCCCCCCCCCCCCCCCCCCCCCCC(=O)[O-]
REMARK SMILES IDX 13 1 14 2 15 3 16 4 17 5 18 6 19 7 20 8 21 9 22 10 23 11
REMARK SMILES IDX 24 12 25 13 26 14 12 15 11 16 10 17 9 18 8 19 7 20 6 21 5 22
REMARK SMILES IDX 4 23 3 24 2 25 1 26
REMARK H PARENT
REMARK Flexibility Score: inf
ROOT
ATOM      1  C   UNL     1      18.409  56.742  15.711  1.00  0.00     0.000 C 
ENDROOT
BRANCH   1   2
ATOM      2  C   UNL     1      18.479  56.492  17.227  1.00  0.00     0.000 C 
BRANCH   2   3
ATOM      3  C   UNL     1      19.882  56.140  17.764  1.00  0.00     0.000 C 
BRANCH   3   4
ATOM      4  C   UNL     1      20.338  54.692  17.508  1.00  0.00     0.000 C 
BRANCH   4   5
ATOM      5  C   UNL     1      21.448  54.535  16.450  1.00  0.00     0.000 C 
BRANCH   5   6
ATOM      6  C   UNL     1      22.178  55.853  16.112  1.00  0.00     0.000 C 
BRANCH   6   7
ATOM      7  C   UNL     1      23.522  55.991  16.850  1.00  0.00     0.000 C 
BRANCH   7   8
ATOM      8  C   UNL     1      24.578  56.729  16.013  1.00  0.00     0.000 C 
BRANCH   8   9
ATOM      9  C   UNL     1      25.940  56.022  16.020  1.00  0.00     0.000 C 
BRANCH   9  10
ATOM     10  C   UNL     1      26.040  55.044  17.198  1.00  0.00     0.006 C 
BRANCH  10  11
ATOM     11  C   UNL     1      27.189  55.424  18.137  1.00  0.00     0.053 C 
BRANCH  11  12
ATOM     12  C   UNL     1      26.985  54.805  19.484  1.00  0.00     0.041 C 
ATOM     13  O   UNL     1      26.510  55.490  20.430  1.00  0.00    -0.550 OA
ATOM     14  O   UNL     1      27.265  53.456  19.679  1.00  0.00    -0.550 OA
ENDBRANCH  11  12
ENDBRANCH  10  11
ENDBRANCH   9  10
ENDBRANCH   8   9
ENDBRANCH   7   8
ENDBRANCH   6   7
ENDBRANCH   5   6
ENDBRANCH   4   5
ENDBRANCH   3   4
ENDBRANCH   2   3
ENDBRANCH   1   2
BRANCH   1  15
ATOM     15  C   UNL     1      17.664  55.625  14.957  1.00  0.00     0.000 C 
BRANCH  15  16
ATOM     16  C   UNL     1      17.069  54.570  15.906  1.00  0.00     0.000 C 
BRANCH  16  17
ATOM     17  C   UNL     1      15.636  54.129  15.530  1.00  0.00     0.000 C 
BRANCH  17  18
ATOM     18  C   UNL     1      14.772  55.256  14.929  1.00  0.00    -0.000 C 
BRANCH  18  19
ATOM     19  C   UNL     1      13.876  55.997  15.935  1.00  0.00    -0.000 C 
BRANCH  19  20
ATOM     20  C   UNL     1      14.533  57.271  16.493  1.00  0.00    -0.000 C 
BRANCH  20  21
ATOM     21  C   UNL     1      14.966  57.126  17.963  1.00  0.00    -0.000 C 
BRANCH  21  22
ATOM     22  C   UNL     1      14.481  55.842  18.663  1.00  0.00    -0.000 C 
BRANCH  22  23
ATOM     23  C   UNL     1      15.636  54.984  19.209  1.00  0.00    -0.000 C 
BRANCH  23  24
ATOM     24  C   UNL     1      15.340  53.477  19.137  1.00  0.00    -0.000 C 
BRANCH  24  25
ATOM     25  C   UNL     1      16.498  52.625  19.678  1.00  0.00    -0.003 C 
ATOM     26  C   UNL     1      17.825  53.370  19.567  1.00  0.00     0.004 C 
ENDBRANCH  24  25
ENDBRANCH  23  24
ENDBRANCH  22  23
ENDBRANCH  21  22
ENDBRANCH  20  21
ENDBRANCH  19  20
ENDBRANCH  18  19
ENDBRANCH  17  18
ENDBRANCH  16  17
ENDBRANCH  15  16
ENDBRANCH   1  15
TORSDOF 22
ENDMDL
MODEL 6
REMARK VINA RESULT:    -4.709      1.996      4.877
REMARK INTER + INTRA:         -14.358
REMARK INTER:                 -11.702
REMARK INTRA:                  -2.656
REMARK UNBOUND:                -3.592
REMARK SMILES CCCCCCCCCCCCCCCCCCCCCCCC(=O)[O-]
REMARK SMILES IDX 13 1 14 2 15 3 16 4 17 5 18 6 19 7 20 8 21 9 22 10 23 11
REMARK SMILES IDX 24 12 25 13 26 14 12 15 11 16 10 17 9 18 8 19 7 20 6 21 5 22
REMARK SMILES IDX 4 23 3 24 2 25 1 26
REMARK H PARENT
REMARK Flexibility Score: inf
ROOT
ATOM      1  C   UNL     1      22.102  55.586  16.204  1.00  0.00     0.000 C 
ENDROOT
BRANCH   1   2
ATOM      2  C   UNL     1      23.406  56.026  16.892  1.00  0.00     0.000 C 
BRANCH   2   3
ATOM      3  C   UNL     1      24.527  56.475  15.933  1.00  0.00     0.000 C 
BRANCH   3   4
ATOM      4  C   UNL     1      25.921  55.894  16.237  1.00  0.00     0.000 C 
BRANCH   4   5
ATOM      5  C   UNL     1      25.934  54.403  16.632  1.00  0.00     0.000 C 
BRANCH   5   6
ATOM      6  C   UNL     1      26.572  54.131  18.011  1.00  0.00     0.000 C 
BRANCH   6   7
ATOM      7  C   UNL     1      26.484  55.344  18.954  1.00  0.00     0.000 C 
BRANCH   7   8
ATOM      8  C   UNL     1      26.812  54.980  20.411  1.00  0.00     0.000 C 
BRANCH   8   9
ATOM      9  C   UNL     1      28.224  54.398  20.572  1.00  0.00     0.000 C 
BRANCH   9  10
ATOM     10  C   UNL     1      29.221  55.491  20.975  1.00  0.00     0.006 C 
BRANCH  10  11
ATOM     11  C   UNL     1      30.152  55.847  19.812  1.00  0.00     0.053 C 
BRANCH  11  12
ATOM     12  C   UNL     1      29.725  57.134  19.180  1.00  0.00     0.041 C 
ATOM     13  O   UNL     1      29.305  57.148  17.992  1.00  0.00    -0.550 OA
ATOM     14  O   UNL     1      29.737  58.310  19.924  1.00  0.00    -0.550 OA
ENDBRANCH  11  12
ENDBRANCH  10  11
ENDBRANCH   9  10
ENDBRANCH   8   9
ENDBRANCH   7   8
ENDBRANCH   6   7
ENDBRANCH   5   6
ENDBRANCH   4   5
ENDBRANCH   3   4
ENDBRANCH   2   3
ENDBRANCH   1   2
BRANCH   1  15
ATOM     15  C   UNL     1      21.726  54.127  16.521  1.00  0.00     0.000 C 
BRANCH  15  16
ATOM     16  C   UNL     1      20.767  53.526  15.477  1.00  0.00     0.000 C 
BRANCH  16  17
ATOM     17  C   UNL     1      20.376  54.509  14.350  1.00  0.00     0.000 C 
BRANCH  17  18
ATOM     18  C   UNL     1      19.050  54.159  13.646  1.00  0.00    -0.000 C 
BRANCH  18  19
ATOM     19  C   UNL     1      18.011  55.292  13.615  1.00  0.00    -0.000 C 
BRANCH  19  20
ATOM     20  C   UNL     1      17.193  55.387  14.915  1.00  0.00    -0.000 C 
BRANCH  20  21
ATOM     21  C   UNL     1      17.569  56.610  15.769  1.00  0.00    -0.000 C 
BRANCH  21  22
ATOM     22  C   UNL     1      17.575  56.368  17.291  1.00  0.00    -0.000 C 
BRANCH  22  23
ATOM     23  C   UNL     1      18.731  55.463  17.749  1.00  0.00    -0.000 C 
BRANCH  23  24
ATOM     24  C   UNL     1      18.241  54.169  18.420  1.00  0.00    -0.000 C 
BRANCH  24  25
ATOM     25  C   UNL     1      19.311  53.531  19.318  1.00  0.00    -0.003 C 
ATOM     26  C   UNL     1      19.660  52.124  18.840  1.00  0.00     0.004 C 
ENDBRANCH  24  25
ENDBRANCH  23  24
ENDBRANCH  22  23
ENDBRANCH  21  22
ENDBRANCH  20  21
ENDBRANCH  19  20
ENDBRANCH  18  19
ENDBRANCH  17  18
ENDBRANCH  16  17
ENDBRANCH  15  16
ENDBRANCH   1  15
TORSDOF 22
ENDMDL
MODEL 7
REMARK VINA RESULT:    -4.627      3.756      8.003
REMARK INTER + INTRA:         -14.171
REMARK INTER:                 -11.252
REMARK INTRA:                  -2.918
REMARK UNBOUND:                -3.592
REMARK SMILES CCCCCCCCCCCCCCCCCCCCCCCC(=O)[O-]
REMARK SMILES IDX 13 1 14 2 15 3 16 4 17 5 18 6 19 7 20 8 21 9 22 10 23 11
REMARK SMILES IDX 24 12 25 13 26 14 12 15 11 16 10 17 9 18 8 19 7 20 6 21 5 22
REMARK SMILES IDX 4 23 3 24 2 25 1 26
REMARK H PARENT
REMARK Flexibility Score: inf
ROOT
ATOM      1  C   UNL     1      19.776  56.196  16.984  1.00  0.00     0.000 C 
ENDROOT
BRANCH   1   2
ATOM      2  C   UNL     1      19.630  55.088  18.040  1.00  0.00     0.000 C 
BRANCH   2   3
ATOM      3  C   UNL     1      19.227  53.707  17.484  1.00  0.00     0.000 C 
BRANCH   3   4
ATOM      4  C   UNL     1      20.137  53.157  16.370  1.00  0.00     0.000 C 
BRANCH   4   5
ATOM      5  C   UNL     1      19.446  52.944  15.008  1.00  0.00     0.000 C 
BRANCH   5   6
ATOM      6  C   UNL     1      19.754  54.048  13.974  1.00  0.00     0.000 C 
BRANCH   6   7
ATOM      7  C   UNL     1      18.486  54.591  13.292  1.00  0.00     0.000 C 
BRANCH   7   8
ATOM      8  C   UNL     1      17.541  55.290  14.283  1.00  0.00     0.000 C 
BRANCH   8   9
ATOM      9  C   UNL     1      16.122  54.703  14.262  1.00  0.00     0.000 C 
BRANCH   9  10
ATOM     10  C   UNL     1      15.339  55.125  15.512  1.00  0.00     0.006 C 
BRANCH  10  11
ATOM     11  C   UNL     1      16.218  55.935  16.469  1.00  0.00     0.053 C 
BRANCH  11  12
ATOM     12  C   UNL     1      15.838  55.655  17.888  1.00  0.00     0.041 C 
ATOM     13  O   UNL     1      16.415  56.260  18.831  1.00  0.00    -0.550 OA
ATOM     14  O   UNL     1      14.804  54.766  18.167  1.00  0.00    -0.550 OA
ENDBRANCH  11  12
ENDBRANCH  10  11
ENDBRANCH   9  10
ENDBRANCH   8   9
ENDBRANCH   7   8
ENDBRANCH   6   7
ENDBRANCH   5   6
ENDBRANCH   4   5
ENDBRANCH   3   4
ENDBRANCH   2   3
ENDBRANCH   1   2
BRANCH   1  15
ATOM     15  C   UNL     1      21.177  56.835  16.982  1.00  0.00     0.000 C 
BRANCH  15  16
ATOM     16  C   UNL     1      22.104  56.219  15.920  1.00  0.00     0.000 C 
BRANCH  16  17
ATOM     17  C   UNL     1      23.222  55.327  16.509  1.00  0.00     0.000 C 
BRANCH  17  18
ATOM     18  C   UNL     1      24.494  56.101  16.910  1.00  0.00    -0.000 C 
BRANCH  18  19
ATOM     19  C   UNL     1      25.769  55.695  16.154  1.00  0.00    -0.000 C 
BRANCH  19  20
ATOM     20  C   UNL     1      26.746  54.885  17.024  1.00  0.00    -0.000 C 
BRANCH  20  21
ATOM     21  C   UNL     1      26.432  54.986  18.527  1.00  0.00    -0.000 C 
BRANCH  21  22
ATOM     22  C   UNL     1      26.982  53.834  19.389  1.00  0.00    -0.000 C 
BRANCH  22  23
ATOM     23  C   UNL     1      27.206  54.238  20.857  1.00  0.00    -0.000 C 
BRANCH  23  24
ATOM     24  C   UNL     1      27.435  55.749  21.027  1.00  0.00    -0.000 C 
BRANCH  24  25
ATOM     25  C   UNL     1      28.924  56.110  21.125  1.00  0.00    -0.003 C 
ATOM     26  C   UNL     1      29.419  56.749  19.831  1.00  0.00     0.004 C 
ENDBRANCH  24  25
ENDBRANCH  23  24
ENDBRANCH  22  23
ENDBRANCH  21  22
ENDBRANCH  20  21
ENDBRANCH  19  20
ENDBRANCH  18  19
ENDBRANCH  17  18
ENDBRANCH  16  17
ENDBRANCH  15  16
ENDBRANCH   1  15
TORSDOF 22
ENDMDL
MODEL 8
REMARK VINA RESULT:    -4.626      3.020      7.058
REMARK INTER + INTRA:         -14.167
REMARK INTER:                 -11.534
REMARK INTRA:                  -2.633
REMARK UNBOUND:                -3.592
REMARK SMILES CCCCCCCCCCCCCCCCCCCCCCCC(=O)[O-]
REMARK SMILES IDX 13 1 14 2 15 3 16 4 17 5 18 6 19 7 20 8 21 9 22 10 23 11
REMARK SMILES IDX 24 12 25 13 26 14 12 15 11 16 10 17 9 18 8 19 7 20 6 21 5 22
REMARK SMILES IDX 4 23 3 24 2 25 1 26
REMARK H PARENT
REMARK Flexibility Score: inf
ROOT
ATOM      1  C   UNL     1      19.043  57.141  17.990  1.00  0.00     0.000 C 
ENDROOT
BRANCH   1   2
ATOM      2  C   UNL     1      18.254  56.145  17.123  1.00  0.00     0.000 C 
BRANCH   2   3
ATOM      3  C   UNL     1      17.236  56.786  16.157  1.00  0.00     0.000 C 
BRANCH   3   4
ATOM      4  C   UNL     1      16.197  55.818  15.562  1.00  0.00     0.000 C 
BRANCH   4   5
ATOM      5  C   UNL     1      16.748  54.839  14.506  1.00  0.00     0.000 C 
BRANCH   5   6
ATOM      6  C   UNL     1      17.971  55.379  13.733  1.00  0.00     0.000 C 
BRANCH   6   7
ATOM      7  C   UNL     1      19.202  54.465  13.861  1.00  0.00     0.000 C 
BRANCH   7   8
ATOM      8  C   UNL     1      18.918  53.213  14.707  1.00  0.00     0.000 C 
BRANCH   8   9
ATOM      9  C   UNL     1      20.003  52.953  15.762  1.00  0.00     0.000 C 
BRANCH   9  10
ATOM     10  C   UNL     1      19.481  52.021  16.863  1.00  0.00     0.006 C 
BRANCH  10  11
ATOM     11  C   UNL     1      18.245  52.611  17.549  1.00  0.00     0.053 C 
BRANCH  11  12
ATOM     12  C   UNL     1      18.567  52.996  18.958  1.00  0.00     0.041 C 
ATOM     13  O   UNL     1      17.678  52.939  19.849  1.00  0.00    -0.550 OA
ATOM     14  O   UNL     1      19.865  53.362  19.299  1.00  0.00    -0.550 OA
ENDBRANCH  11  12
ENDBRANCH  10  11
ENDBRANCH   9  10
ENDBRANCH   8   9
ENDBRANCH   7   8
ENDBRANCH   6   7
ENDBRANCH   5   6
ENDBRANCH   4   5
ENDBRANCH   3   4
ENDBRANCH   2   3
ENDBRANCH   1   2
BRANCH   1  15
ATOM     15  C   UNL     1      20.554  57.119  17.695  1.00  0.00     0.000 C 
BRANCH  15  16
ATOM     16  C   UNL     1      20.863  56.777  16.227  1.00  0.00     0.000 C 
BRANCH  16  17
ATOM     17  C   UNL     1      21.996  55.739  16.053  1.00  0.00     0.000 C 
BRANCH  17  18
ATOM     18  C   UNL     1      23.305  56.114  16.778  1.00  0.00    -0.000 C 
BRANCH  18  19
ATOM     19  C   UNL     1      24.490  55.172  16.509  1.00  0.00    -0.000 C 
BRANCH  19  20
ATOM     20  C   UNL     1      25.812  55.926  16.283  1.00  0.00    -0.000 C 
BRANCH  20  21
ATOM     21  C   UNL     1      27.001  55.281  17.016  1.00  0.00    -0.000 C 
BRANCH  21  22
ATOM     22  C   UNL     1      26.631  54.467  18.272  1.00  0.00    -0.000 C 
BRANCH  22  23
ATOM     23  C   UNL     1      27.304  54.998  19.549  1.00  0.00    -0.000 C 
BRANCH  23  24
ATOM     24  C   UNL     1      28.815  55.225  19.373  1.00  0.00    -0.000 C 
BRANCH  24  25
ATOM     25  C   UNL     1      29.238  56.660  19.722  1.00  0.00    -0.003 C 
ATOM     26  C   UNL     1      29.856  57.358  18.514  1.00  0.00     0.004 C 
ENDBRANCH  24  25
ENDBRANCH  23  24
ENDBRANCH  22  23
ENDBRANCH  21  22
ENDBRANCH  20  21
ENDBRANCH  19  20
ENDBRANCH  18  19
ENDBRANCH  17  18
ENDBRANCH  16  17
ENDBRANCH  15  16
ENDBRANCH   1  15
TORSDOF 22
ENDMDL
MODEL 9
REMARK VINA RESULT:    -4.509     12.250     15.206
REMARK INTER + INTRA:         -13.900
REMARK INTER:                 -10.240
REMARK INTRA:                  -3.660
REMARK UNBOUND:                -3.592
REMARK SMILES CCCCCCCCCCCCCCCCCCCCCCCC(=O)[O-]
REMARK SMILES IDX 13 1 14 2 15 3 16 4 17 5 18 6 19 7 20 8 21 9 22 10 23 11
REMARK SMILES IDX 24 12 25 13 26 14 12 15 11 16 10 17 9 18 8 19 7 20 6 21 5 22
REMARK SMILES IDX 4 23 3 24 2 25 1 26
REMARK H PARENT
REMARK Flexibility Score: inf
ROOT
ATOM      1  C   UNL     1      31.470  63.121  10.027  1.00  0.00     0.000 C 
ENDROOT
BRANCH   1   2
ATOM      2  C   UNL     1      30.373  64.113  10.452  1.00  0.00     0.000 C 
BRANCH   2   3
ATOM      3  C   UNL     1      29.733  64.910   9.297  1.00  0.00     0.000 C 
BRANCH   3   4
ATOM      4  C   UNL     1      28.256  65.293   9.504  1.00  0.00     0.000 C 
BRANCH   4   5
ATOM      5  C   UNL     1      27.786  66.531   8.714  1.00  0.00     0.000 C 
BRANCH   5   6
ATOM      6  C   UNL     1      28.791  67.703   8.738  1.00  0.00     0.000 C 
BRANCH   6   7
ATOM      7  C   UNL     1      28.811  68.437  10.091  1.00  0.00     0.000 C 
BRANCH   7   8
ATOM      8  C   UNL     1      30.190  68.381  10.768  1.00  0.00     0.000 C 
BRANCH   8   9
ATOM      9  C   UNL     1      30.167  67.615  12.098  1.00  0.00     0.000 C 
BRANCH   9  10
ATOM     10  C   UNL     1      31.560  67.068  12.437  1.00  0.00     0.006 C 
BRANCH  10  11
ATOM     11  C   UNL     1      31.479  65.970  13.502  1.00  0.00     0.053 C 
BRANCH  11  12
ATOM     12  C   UNL     1      31.635  66.558  14.868  1.00  0.00     0.041 C 
ATOM     13  O   UNL     1      32.533  67.415  15.090  1.00  0.00    -0.550 OA
ATOM     14  O   UNL     1      30.752  66.203  15.883  1.00  0.00    -0.550 OA
ENDBRANCH  11  12
ENDBRANCH  10  11
ENDBRANCH   9  10
ENDBRANCH   8   9
ENDBRANCH   7   8
ENDBRANCH   6   7
ENDBRANCH   5   6
ENDBRANCH   4   5
ENDBRANCH   3   4
ENDBRANCH   2   3
ENDBRANCH   1   2
BRANCH   1  15
ATOM     15  C   UNL     1      30.936  61.690   9.836  1.00  0.00     0.000 C 
BRANCH  15  16
ATOM     16  C   UNL     1      30.053  61.229  11.009  1.00  0.00     0.000 C 
BRANCH  16  17
ATOM     17  C   UNL     1      28.705  60.613  10.571  1.00  0.00     0.000 C 
BRANCH  17  18
ATOM     18  C   UNL     1      27.753  61.613   9.885  1.00  0.00    -0.000 C 
BRANCH  18  19
ATOM     19  C   UNL     1      27.375  61.264   8.436  1.00  0.00    -0.000 C 
BRANCH  19  20
ATOM     20  C   UNL     1      28.271  61.966   7.400  1.00  0.00    -0.000 C 
BRANCH  20  21
ATOM     21  C   UNL     1      27.492  62.435   6.159  1.00  0.00    -0.000 C 
BRANCH  21  22
ATOM     22  C   UNL     1      27.070  63.917   6.173  1.00  0.00    -0.000 C 
BRANCH  22  23
ATOM     23  C   UNL     1      25.551  64.105   6.329  1.00  0.00    -0.000 C 
BRANCH  23  24
ATOM     24  C   UNL     1      25.089  64.009   7.793  1.00  0.00    -0.000 C 
BRANCH  24  25
ATOM     25  C   UNL     1      23.560  64.054   7.931  1.00  0.00    -0.003 C 
ATOM     26  C   UNL     1      22.887  63.213   6.849  1.00  0.00     0.004 C 
ENDBRANCH  24  25
ENDBRANCH  23  24
ENDBRANCH  22  23
ENDBRANCH  21  22
ENDBRANCH  20  21
ENDBRANCH  19  20
ENDBRANCH  18  19
ENDBRANCH  17  18
ENDBRANCH  16  17
ENDBRANCH  15  16
ENDBRANCH   1  15
TORSDOF 22
ENDMDL
