MODEL 1
REMARK VINA RESULT:    26.487      0.000      0.000
REMARK INTER + INTRA:          29.736
REMARK INTER:                  28.810
REMARK INTRA:                   0.926
REMARK UNBOUND:                 0.926
REMARK SMILES C[C@H]1[C@@H](C)CC[C@]2(C(=O)[O-])CC[C@@]3(C)C(=CC[C@H]4[C@]5(C)CC[C@@H](O)C(C)(C)[C@H]5CC[C@]43C)[C@@H]12
REMARK SMILES IDX 7 1 6 2 11 3 33 4 5 5 12 6 15 7 2 8 3 9 13 10 16 11 1 12
REMARK SMILES IDX 4 13 14 14 31 15 17 16 18 17 30 18 32 19 19 20 29 21 28 22
REMARK SMILES IDX 21 23 20 24 25 25 22 26 23 27 26 28 27 29 8 30 9 31 10 32
REMARK SMILES IDX 24 33
REMARK H PARENT 24 34
REMARK Flexibility Score: inf
ROOT
ATOM      1  C   UNL     1      11.013  -2.223  18.999  1.00  0.00     0.017 C 
ATOM      2  C   UNL     1      10.005  -1.184  19.613  1.00  0.00     0.014 C 
ATOM      3  C   UNL     1      11.405  -3.329  20.051  1.00  0.00     0.014 C 
ATOM      4  C   UNL     1      12.319  -1.489  18.539  1.00  0.00     0.030 C 
ATOM      5  C   UNL     1      10.673   0.099  20.125  1.00  0.00     0.004 C 
ATOM      6  C   UNL     1      12.917  -3.676  20.125  1.00  0.00     0.013 C 
ATOM      7  C   UNL     1      13.307  -2.478  17.923  1.00  0.00    -0.063 C 
ATOM      8  C   UNL     1      12.065  -0.083  17.906  1.00  0.00    -0.003 C 
ATOM      9  C   UNL     1      11.446   0.862  19.006  1.00  0.00    -0.011 C 
ATOM     10  C   UNL     1      13.657  -3.748  18.728  1.00  0.00    -0.006 C 
ATOM     11  C   UNL     1      13.983  -2.203  16.796  1.00  0.00    -0.027 C 
ATOM     12  C   UNL     1      11.254  -0.123  16.592  1.00  0.00     0.008 C 
ATOM     13  C   UNL     1      10.610   2.029  18.451  1.00  0.00     0.008 C 
ATOM     14  C   UNL     1      13.081  -5.012  18.010  1.00  0.00     0.017 C 
ATOM     15  C   UNL     1      15.270  -3.853  18.863  1.00  0.00    -0.020 C 
ATOM     16  C   UNL     1      15.043  -3.128  16.299  1.00  0.00     0.032 C 
ATOM     17  C   UNL     1      16.009  -3.580  17.441  1.00  0.00     0.006 C 
ATOM     18  C   UNL     1      15.785  -2.852  19.966  1.00  0.00     0.008 C 
ATOM     19  C   UNL     1      15.629  -5.292  19.375  1.00  0.00     0.012 C 
ATOM     20  C   UNL     1      17.312  -2.663  17.498  1.00  0.00    -0.025 C 
ATOM     21  C   UNL     1      17.314  -2.615  20.060  1.00  0.00     0.005 C 
ATOM     22  C   UNL     1      18.088  -3.046  18.802  1.00  0.00     0.003 C 
ATOM     23  C   UNL     1      18.240  -2.922  16.252  1.00  0.00     0.010 C 
ATOM     24  C   UNL     1      16.903  -1.151  17.469  1.00  0.00     0.012 C 
ATOM     25  C   UNL     1      19.647  -2.774  18.793  1.00  0.00    -0.006 C 
ATOM     26  C   UNL     1      19.311  -3.990  16.489  1.00  0.00     0.033 C 
ATOM     27  C   UNL     1      20.303  -3.596  17.611  1.00  0.00     0.120 C 
ATOM     28  C   UNL     1      19.996  -1.266  18.684  1.00  0.00     0.014 C 
ATOM     29  C   UNL     1      20.271  -3.277  20.122  1.00  0.00     0.014 C 
ENDROOT
BRANCH   1  30
ATOM     30  C   UNL     1      10.277  -2.918  17.851  1.00  0.00     0.048 C 
ATOM     31  O   UNL     1      10.758  -2.871  16.686  1.00  0.00    -0.550 OA
ATOM     32  O   UNL     1       9.069  -3.579  18.037  1.00  0.00    -0.550 OA
ENDBRANCH   1  30
BRANCH  27  33
ATOM     33  O   UNL     1      21.397  -2.902  17.059  1.00  0.00    -0.393 OA
ATOM     34  H   UNL     1      22.173  -3.045  17.664  1.00  0.00     0.210 HD
ENDBRANCH  27  33
TORSDOF 2
ENDMDL
MODEL 2
REMARK VINA RESULT:    26.592      2.343      3.831
REMARK INTER + INTRA:          29.850
REMARK INTER:                  28.880
REMARK INTRA:                   0.970
REMARK UNBOUND:                 0.926
REMARK SMILES C[C@H]1[C@@H](C)CC[C@]2(C(=O)[O-])CC[C@@]3(C)C(=CC[C@H]4[C@]5(C)CC[C@@H](O)C(C)(C)[C@H]5CC[C@]43C)[C@@H]12
REMARK SMILES IDX 7 1 6 2 11 3 33 4 5 5 12 6 15 7 2 8 3 9 13 10 16 11 1 12
REMARK SMILES IDX 4 13 14 14 31 15 17 16 18 17 30 18 32 19 19 20 29 21 28 22
REMARK SMILES IDX 21 23 20 24 25 25 22 26 23 27 26 28 27 29 8 30 9 31 10 32
REMARK SMILES IDX 24 33
REMARK H PARENT 24 34
REMARK Flexibility Score: inf
ROOT
ATOM      1  C   UNL     1       7.262  -1.368  18.918  1.00  0.00     0.017 C 
ATOM      2  C   UNL     1       6.295  -0.260  19.473  1.00  0.00     0.014 C 
ATOM      3  C   UNL     1       7.610  -2.431  20.027  1.00  0.00     0.014 C 
ATOM      4  C   UNL     1       8.597  -0.709  18.425  1.00  0.00     0.030 C 
ATOM      5  C   UNL     1       7.010   1.021  19.920  1.00  0.00     0.004 C 
ATOM      6  C   UNL     1       9.108  -2.831  20.124  1.00  0.00     0.013 C 
ATOM      7  C   UNL     1       9.547  -1.767  17.864  1.00  0.00    -0.063 C 
ATOM      8  C   UNL     1       8.398   0.670  17.718  1.00  0.00    -0.003 C 
ATOM      9  C   UNL     1       7.813   1.695  18.765  1.00  0.00    -0.011 C 
ATOM     10  C   UNL     1       9.846  -3.005  18.736  1.00  0.00    -0.006 C 
ATOM     11  C   UNL     1      10.235  -1.576  16.727  1.00  0.00    -0.027 C 
ATOM     12  C   UNL     1       7.587   0.593  16.405  1.00  0.00     0.008 C 
ATOM     13  C   UNL     1       7.025   2.863  18.147  1.00  0.00     0.008 C 
ATOM     14  C   UNL     1       9.224  -4.281  18.082  1.00  0.00     0.017 C 
ATOM     15  C   UNL     1      11.454  -3.165  18.881  1.00  0.00    -0.020 C 
ATOM     16  C   UNL     1      11.259  -2.566  16.282  1.00  0.00     0.032 C 
ATOM     17  C   UNL     1      12.205  -2.994  17.449  1.00  0.00     0.006 C 
ATOM     18  C   UNL     1      12.006  -2.128  19.932  1.00  0.00     0.008 C 
ATOM     19  C   UNL     1      11.756  -4.587  19.469  1.00  0.00     0.012 C 
ATOM     20  C   UNL     1      13.542  -2.127  17.463  1.00  0.00    -0.025 C 
ATOM     21  C   UNL     1      13.542  -1.945  20.019  1.00  0.00     0.005 C 
ATOM     22  C   UNL     1      14.301  -2.471  18.787  1.00  0.00     0.003 C 
ATOM     23  C   UNL     1      14.461  -2.486  16.235  1.00  0.00     0.010 C 
ATOM     24  C   UNL     1      13.191  -0.603  17.354  1.00  0.00     0.012 C 
ATOM     25  C   UNL     1      15.869  -2.259  18.770  1.00  0.00    -0.006 C 
ATOM     26  C   UNL     1      15.490  -3.580  16.531  1.00  0.00     0.033 C 
ATOM     27  C   UNL     1      16.495  -3.166  17.634  1.00  0.00     0.120 C 
ATOM     28  C   UNL     1      16.276  -0.774  18.583  1.00  0.00     0.014 C 
ATOM     29  C   UNL     1      16.472  -2.715  20.125  1.00  0.00     0.014 C 
ENDROOT
BRANCH   1  30
ATOM     30  C   UNL     1       6.502  -2.093  17.805  1.00  0.00     0.048 C 
ATOM     31  O   UNL     1       6.358  -1.533  16.683  1.00  0.00    -0.550 OA
ATOM     32  O   UNL     1       5.929  -3.345  17.992  1.00  0.00    -0.550 OA
ENDBRANCH   1  30
BRANCH  27  33
ATOM     33  O   UNL     1      17.616  -2.545  17.050  1.00  0.00    -0.393 OA
ATOM     34  H   UNL     1      17.867  -1.780  17.634  1.00  0.00     0.210 HD
ENDBRANCH  27  33
TORSDOF 2
ENDMDL
