MODEL 1
REMARK VINA RESULT:    -5.248      0.000      0.000
REMARK INTER + INTRA:          -6.441
REMARK INTER:                  -6.168
REMARK INTRA:                  -0.273
REMARK UNBOUND:                -0.273
REMARK SMILES O=c1cc(-c2ccc(O)c(O)c2)oc2cc(O)cc(O)c12
REMARK SMILES IDX 4 1 3 2 2 3 1 4 21 5 19 6 18 7 16 8 15 9 14 10 13 11 5 12
REMARK SMILES IDX 6 13 7 14 8 15 12 16 10 17 9 18 11 20 20 22 17 24
REMARK H PARENT 9 19 11 21 20 23 17 25
REMARK Flexibility Score: inf
ROOT
ATOM      1  C   UNL     1      64.145  51.184  35.336  1.00  0.00     0.138 A 
ATOM      2  C   UNL     1      65.359  51.881  35.217  1.00  0.00     0.100 A 
ATOM      3  C   UNL     1      66.282  51.834  36.263  1.00  0.00     0.197 A 
ATOM      4  O   UNL     1      67.369  52.464  36.148  1.00  0.00    -0.289 OA
ATOM      5  C   UNL     1      65.984  51.090  37.422  1.00  0.00     0.107 A 
ATOM      6  C   UNL     1      66.864  50.988  38.526  1.00  0.00     0.134 A 
ATOM      7  C   UNL     1      66.490  50.232  39.646  1.00  0.00     0.093 A 
ATOM      8  C   UNL     1      65.254  49.577  39.682  1.00  0.00     0.123 A 
ATOM      9  C   UNL     1      64.383  49.675  38.596  1.00  0.00     0.094 A 
ATOM     10  C   UNL     1      64.738  50.423  37.470  1.00  0.00     0.146 A 
ATOM     11  O   UNL     1      63.890  50.498  36.448  1.00  0.00    -0.456 OA
ENDROOT
BRANCH   1  12
ATOM     12  C   UNL     1      63.125  51.200  34.257  1.00  0.00     0.021 A 
ATOM     13  C   UNL     1      63.361  50.598  33.007  1.00  0.00     0.016 A 
ATOM     14  C   UNL     1      62.379  50.620  32.014  1.00  0.00     0.051 A 
ATOM     15  C   UNL     1      61.144  51.231  32.250  1.00  0.00     0.157 A 
ATOM     16  C   UNL     1      61.876  51.801  34.494  1.00  0.00     0.062 A 
ATOM     17  C   UNL     1      60.890  51.824  33.498  1.00  0.00     0.158 A 
BRANCH  15  18
ATOM     18  O   UNL     1      60.184  51.237  31.239  1.00  0.00    -0.504 OA
ATOM     19  H   UNL     1      59.312  51.745  31.328  1.00  0.00     0.293 HD
ENDBRANCH  15  18
BRANCH  17  20
ATOM     20  O   UNL     1      59.660  52.432  33.744  1.00  0.00    -0.504 OA
ATOM     21  H   UNL     1      59.082  52.164  34.533  1.00  0.00     0.293 HD
ENDBRANCH  17  20
ENDBRANCH   1  12
BRANCH   6  22
ATOM     22  O   UNL     1      68.103  51.631  38.516  1.00  0.00    -0.507 OA
ATOM     23  H   UNL     1      68.195  52.616  38.738  1.00  0.00     0.293 HD
ENDBRANCH   6  22
BRANCH   8  24
ATOM     24  O   UNL     1      64.881  48.827  40.796  1.00  0.00    -0.508 OA
ATOM     25  H   UNL     1      64.708  49.261  41.694  1.00  0.00     0.293 HD
ENDBRANCH   8  24
TORSDOF 5
ENDMDL
MODEL 2
REMARK VINA RESULT:    -5.174      1.610      6.696
REMARK INTER + INTRA:          -6.355
REMARK INTER:                  -6.039
REMARK INTRA:                  -0.316
REMARK UNBOUND:                -0.273
REMARK SMILES O=c1cc(-c2ccc(O)c(O)c2)oc2cc(O)cc(O)c12
REMARK SMILES IDX 4 1 3 2 2 3 1 4 21 5 19 6 18 7 16 8 15 9 14 10 13 11 5 12
REMARK SMILES IDX 6 13 7 14 8 15 12 16 10 17 9 18 11 20 20 22 17 24
REMARK H PARENT 9 19 11 21 20 23 17 25
REMARK Flexibility Score: inf
ROOT
ATOM      1  C   UNL     1      65.091  50.857  36.249  1.00  0.00     0.138 A 
ATOM      2  C   UNL     1      65.987  51.234  35.235  1.00  0.00     0.100 A 
ATOM      3  C   UNL     1      65.490  51.752  34.039  1.00  0.00     0.197 A 
ATOM      4  O   UNL     1      66.302  52.086  33.133  1.00  0.00    -0.289 OA
ATOM      5  C   UNL     1      64.099  51.890  33.864  1.00  0.00     0.107 A 
ATOM      6  C   UNL     1      63.513  52.408  32.684  1.00  0.00     0.134 A 
ATOM      7  C   UNL     1      62.117  52.507  32.587  1.00  0.00     0.093 A 
ATOM      8  C   UNL     1      61.298  52.098  33.645  1.00  0.00     0.123 A 
ATOM      9  C   UNL     1      61.872  51.587  34.810  1.00  0.00     0.094 A 
ATOM     10  C   UNL     1      63.261  51.481  34.927  1.00  0.00     0.146 A 
ATOM     11  O   UNL     1      63.781  50.991  36.049  1.00  0.00    -0.456 OA
ENDROOT
BRANCH   1  12
ATOM     12  C   UNL     1      65.561  50.298  37.541  1.00  0.00     0.021 A 
ATOM     13  C   UNL     1      66.893  49.881  37.726  1.00  0.00     0.016 A 
ATOM     14  C   UNL     1      67.311  49.368  38.957  1.00  0.00     0.051 A 
ATOM     15  C   UNL     1      66.414  49.268  40.024  1.00  0.00     0.157 A 
ATOM     16  C   UNL     1      64.668  50.208  38.624  1.00  0.00     0.062 A 
ATOM     17  C   UNL     1      65.086  49.691  39.858  1.00  0.00     0.158 A 
BRANCH  15  18
ATOM     18  O   UNL     1      66.860  48.750  41.240  1.00  0.00    -0.504 OA
ATOM     19  H   UNL     1      66.374  48.000  41.716  1.00  0.00     0.293 HD
ENDBRANCH  15  18
BRANCH  17  20
ATOM     20  O   UNL     1      64.187  49.600  40.919  1.00  0.00    -0.504 OA
ATOM     21  H   UNL     1      63.235  49.279  40.784  1.00  0.00     0.293 HD
ENDBRANCH  17  20
ENDBRANCH   1  12
BRANCH   6  22
ATOM     22  O   UNL     1      64.305  52.824  31.613  1.00  0.00    -0.507 OA
ATOM     23  H   UNL     1      65.318  52.805  31.659  1.00  0.00     0.293 HD
ENDBRANCH   6  22
BRANCH   8  24
ATOM     24  O   UNL     1      59.912  52.196  33.548  1.00  0.00    -0.508 OA
ATOM     25  H   UNL     1      59.429  53.071  33.712  1.00  0.00     0.293 HD
ENDBRANCH   8  24
TORSDOF 5
ENDMDL
MODEL 3
REMARK VINA RESULT:    -5.050      2.200      6.914
REMARK INTER + INTRA:          -6.208
REMARK INTER:                  -5.943
REMARK INTRA:                  -0.265
REMARK UNBOUND:                -0.273
REMARK SMILES O=c1cc(-c2ccc(O)c(O)c2)oc2cc(O)cc(O)c12
REMARK SMILES IDX 4 1 3 2 2 3 1 4 21 5 19 6 18 7 16 8 15 9 14 10 13 11 5 12
REMARK SMILES IDX 6 13 7 14 8 15 12 16 10 17 9 18 11 20 20 22 17 24
REMARK H PARENT 9 19 11 21 20 23 17 25
REMARK Flexibility Score: inf
ROOT
ATOM      1  C   UNL     1      64.001  51.477  35.441  1.00  0.00     0.138 A 
ATOM      2  C   UNL     1      63.629  50.906  34.212  1.00  0.00     0.100 A 
ATOM      3  C   UNL     1      62.808  51.623  33.342  1.00  0.00     0.197 A 
ATOM      4  O   UNL     1      62.478  51.102  32.242  1.00  0.00    -0.289 OA
ATOM      5  C   UNL     1      62.361  52.909  33.708  1.00  0.00     0.107 A 
ATOM      6  C   UNL     1      61.528  53.704  32.885  1.00  0.00     0.134 A 
ATOM      7  C   UNL     1      61.122  54.972  33.325  1.00  0.00     0.093 A 
ATOM      8  C   UNL     1      61.533  55.459  34.571  1.00  0.00     0.123 A 
ATOM      9  C   UNL     1      62.354  54.678  35.386  1.00  0.00     0.094 A 
ATOM     10  C   UNL     1      62.771  53.412  34.965  1.00  0.00     0.146 A 
ATOM     11  O   UNL     1      63.554  52.690  35.761  1.00  0.00    -0.456 OA
ENDROOT
BRANCH   1  12
ATOM     12  C   UNL     1      64.871  50.759  36.406  1.00  0.00     0.021 A 
ATOM     13  C   UNL     1      66.274  50.800  36.310  1.00  0.00     0.016 A 
ATOM     14  C   UNL     1      67.069  50.124  37.239  1.00  0.00     0.051 A 
ATOM     15  C   UNL     1      66.481  49.403  38.282  1.00  0.00     0.157 A 
ATOM     16  C   UNL     1      64.286  50.044  37.467  1.00  0.00     0.062 A 
ATOM     17  C   UNL     1      65.082  49.364  38.399  1.00  0.00     0.158 A 
BRANCH  15  18
ATOM     18  O   UNL     1      67.300  48.737  39.194  1.00  0.00    -0.504 OA
ATOM     19  H   UNL     1      66.921  48.187  39.955  1.00  0.00     0.293 HD
ENDBRANCH  15  18
BRANCH  17  20
ATOM     20  O   UNL     1      64.488  48.652  39.439  1.00  0.00    -0.504 OA
ATOM     21  H   UNL     1      63.488  48.492  39.473  1.00  0.00     0.293 HD
ENDBRANCH  17  20
ENDBRANCH   1  12
BRANCH   6  22
ATOM     22  O   UNL     1      61.104  53.244  31.638  1.00  0.00    -0.507 OA
ATOM     23  H   UNL     1      60.993  53.869  30.847  1.00  0.00     0.293 HD
ENDBRANCH   6  22
BRANCH   8  24
ATOM     24  O   UNL     1      61.129  56.719  35.009  1.00  0.00    -0.508 OA
ATOM     25  H   UNL     1      61.430  57.091  35.901  1.00  0.00     0.293 HD
ENDBRANCH   8  24
TORSDOF 5
ENDMDL
MODEL 4
REMARK VINA RESULT:    -5.037      1.910      6.869
REMARK INTER + INTRA:          -6.194
REMARK INTER:                  -5.924
REMARK INTRA:                  -0.270
REMARK UNBOUND:                -0.273
REMARK SMILES O=c1cc(-c2ccc(O)c(O)c2)oc2cc(O)cc(O)c12
REMARK SMILES IDX 4 1 3 2 2 3 1 4 21 5 19 6 18 7 16 8 15 9 14 10 13 11 5 12
REMARK SMILES IDX 6 13 7 14 8 15 12 16 10 17 9 18 11 20 20 22 17 24
REMARK H PARENT 9 19 11 21 20 23 17 25
REMARK Flexibility Score: inf
ROOT
ATOM      1  C   UNL     1      64.139  51.627  35.599  1.00  0.00     0.138 A 
ATOM      2  C   UNL     1      64.149  53.031  35.629  1.00  0.00     0.100 A 
ATOM      3  C   UNL     1      63.348  53.742  34.734  1.00  0.00     0.197 A 
ATOM      4  O   UNL     1      63.364  55.002  34.767  1.00  0.00    -0.289 OA
ATOM      5  C   UNL     1      62.542  53.042  33.814  1.00  0.00     0.107 A 
ATOM      6  C   UNL     1      61.700  53.685  32.875  1.00  0.00     0.134 A 
ATOM      7  C   UNL     1      60.933  52.915  31.988  1.00  0.00     0.093 A 
ATOM      8  C   UNL     1      60.993  51.518  32.022  1.00  0.00     0.123 A 
ATOM      9  C   UNL     1      61.822  50.879  32.946  1.00  0.00     0.094 A 
ATOM     10  C   UNL     1      62.594  51.628  33.840  1.00  0.00     0.146 A 
ATOM     11  O   UNL     1      63.374  50.995  34.711  1.00  0.00    -0.456 OA
ENDROOT
BRANCH   1  12
ATOM     12  C   UNL     1      64.972  50.818  36.525  1.00  0.00     0.021 A 
ATOM     13  C   UNL     1      66.377  50.806  36.437  1.00  0.00     0.016 A 
ATOM     14  C   UNL     1      67.136  50.044  37.328  1.00  0.00     0.051 A 
ATOM     15  C   UNL     1      66.512  49.289  38.325  1.00  0.00     0.157 A 
ATOM     16  C   UNL     1      64.351  50.068  37.540  1.00  0.00     0.062 A 
ATOM     17  C   UNL     1      65.112  49.302  38.434  1.00  0.00     0.158 A 
BRANCH  15  18
ATOM     18  O   UNL     1      67.297  48.537  39.199  1.00  0.00    -0.504 OA
ATOM     19  H   UNL     1      68.243  48.260  38.970  1.00  0.00     0.293 HD
ENDBRANCH  15  18
BRANCH  17  20
ATOM     20  O   UNL     1      64.483  48.556  39.428  1.00  0.00    -0.504 OA
ATOM     21  H   UNL     1      63.916  48.995  40.145  1.00  0.00     0.293 HD
ENDBRANCH  17  20
ENDBRANCH   1  12
BRANCH   6  22
ATOM     22  O   UNL     1      61.621  55.077  32.819  1.00  0.00    -0.507 OA
ATOM     23  H   UNL     1      62.251  55.669  33.347  1.00  0.00     0.293 HD
ENDBRANCH   6  22
BRANCH   8  24
ATOM     24  O   UNL     1      60.232  50.753  31.140  1.00  0.00    -0.508 OA
ATOM     25  H   UNL     1      60.626  49.959  30.652  1.00  0.00     0.293 HD
ENDBRANCH   8  24
TORSDOF 5
ENDMDL
MODEL 5
REMARK VINA RESULT:    -4.925      2.504      3.993
REMARK INTER + INTRA:          -6.062
REMARK INTER:                  -5.785
REMARK INTRA:                  -0.277
REMARK UNBOUND:                -0.273
REMARK SMILES O=c1cc(-c2ccc(O)c(O)c2)oc2cc(O)cc(O)c12
REMARK SMILES IDX 4 1 3 2 2 3 1 4 21 5 19 6 18 7 16 8 15 9 14 10 13 11 5 12
REMARK SMILES IDX 6 13 7 14 8 15 12 16 10 17 9 18 11 20 20 22 17 24
REMARK H PARENT 9 19 11 21 20 23 17 25
REMARK Flexibility Score: inf
ROOT
ATOM      1  C   UNL     1      65.935  50.297  37.749  1.00  0.00     0.138 A 
ATOM      2  C   UNL     1      65.433  50.644  39.014  1.00  0.00     0.100 A 
ATOM      3  C   UNL     1      66.042  50.128  40.159  1.00  0.00     0.197 A 
ATOM      4  O   UNL     1      65.584  50.443  41.290  1.00  0.00    -0.289 OA
ATOM      5  C   UNL     1      67.150  49.266  40.030  1.00  0.00     0.107 A 
ATOM      6  C   UNL     1      67.825  48.702  41.139  1.00  0.00     0.134 A 
ATOM      7  C   UNL     1      68.917  47.847  40.925  1.00  0.00     0.093 A 
ATOM      8  C   UNL     1      69.344  47.548  39.627  1.00  0.00     0.123 A 
ATOM      9  C   UNL     1      68.681  48.102  38.531  1.00  0.00     0.094 A 
ATOM     10  C   UNL     1      67.591  48.957  38.722  1.00  0.00     0.146 A 
ATOM     11  O   UNL     1      66.977  49.472  37.661  1.00  0.00    -0.456 OA
ENDROOT
BRANCH   1  12
ATOM     12  C   UNL     1      65.327  50.813  36.497  1.00  0.00     0.021 A 
ATOM     13  C   UNL     1      66.117  51.243  35.413  1.00  0.00     0.016 A 
ATOM     14  C   UNL     1      65.517  51.714  34.243  1.00  0.00     0.051 A 
ATOM     15  C   UNL     1      64.125  51.760  34.128  1.00  0.00     0.157 A 
ATOM     16  C   UNL     1      63.927  50.848  36.370  1.00  0.00     0.062 A 
ATOM     17  C   UNL     1      63.325  51.323  35.196  1.00  0.00     0.158 A 
BRANCH  15  18
ATOM     18  O   UNL     1      63.556  52.237  32.948  1.00  0.00    -0.504 OA
ATOM     19  H   UNL     1      63.819  51.876  32.039  1.00  0.00     0.293 HD
ENDBRANCH  15  18
BRANCH  17  20
ATOM     20  O   UNL     1      61.936  51.360  35.088  1.00  0.00    -0.504 OA
ATOM     21  H   UNL     1      61.396  50.529  34.872  1.00  0.00     0.293 HD
ENDBRANCH  17  20
ENDBRANCH   1  12
BRANCH   6  22
ATOM     22  O   UNL     1      67.421  48.983  42.444  1.00  0.00    -0.507 OA
ATOM     23  H   UNL     1      67.968  49.578  43.056  1.00  0.00     0.293 HD
ENDBRANCH   6  22
BRANCH   8  24
ATOM     24  O   UNL     1      70.428  46.698  39.415  1.00  0.00    -0.508 OA
ATOM     25  H   UNL     1      71.372  46.972  39.661  1.00  0.00     0.293 HD
ENDBRANCH   8  24
TORSDOF 5
ENDMDL
MODEL 6
REMARK VINA RESULT:    -4.890      2.113      7.065
REMARK INTER + INTRA:          -6.021
REMARK INTER:                  -5.725
REMARK INTRA:                  -0.295
REMARK UNBOUND:                -0.273
REMARK SMILES O=c1cc(-c2ccc(O)c(O)c2)oc2cc(O)cc(O)c12
REMARK SMILES IDX 4 1 3 2 2 3 1 4 21 5 19 6 18 7 16 8 15 9 14 10 13 11 5 12
REMARK SMILES IDX 6 13 7 14 8 15 12 16 10 17 9 18 11 20 20 22 17 24
REMARK H PARENT 9 19 11 21 20 23 17 25
REMARK Flexibility Score: inf
ROOT
ATOM      1  C   UNL     1      65.449  50.661  36.655  1.00  0.00     0.138 A 
ATOM      2  C   UNL     1      64.112  50.870  36.278  1.00  0.00     0.100 A 
ATOM      3  C   UNL     1      63.821  51.269  34.973  1.00  0.00     0.197 A 
ATOM      4  O   UNL     1      62.618  51.456  34.644  1.00  0.00    -0.289 OA
ATOM      5  C   UNL     1      64.872  51.458  34.052  1.00  0.00     0.107 A 
ATOM      6  C   UNL     1      64.664  51.859  32.711  1.00  0.00     0.134 A 
ATOM      7  C   UNL     1      65.765  52.031  31.859  1.00  0.00     0.093 A 
ATOM      8  C   UNL     1      67.066  51.810  32.322  1.00  0.00     0.123 A 
ATOM      9  C   UNL     1      67.275  51.414  33.645  1.00  0.00     0.094 A 
ATOM     10  C   UNL     1      66.192  51.237  34.509  1.00  0.00     0.146 A 
ATOM     11  O   UNL     1      66.419  50.858  35.764  1.00  0.00    -0.456 OA
ENDROOT
BRANCH   1  12
ATOM     12  C   UNL     1      65.818  50.239  38.030  1.00  0.00     0.021 A 
ATOM     13  C   UNL     1      67.158  50.023  38.402  1.00  0.00     0.016 A 
ATOM     14  C   UNL     1      67.477  49.635  39.706  1.00  0.00     0.051 A 
ATOM     15  C   UNL     1      66.471  49.464  40.661  1.00  0.00     0.157 A 
ATOM     16  C   UNL     1      64.812  50.079  38.999  1.00  0.00     0.062 A 
ATOM     17  C   UNL     1      65.131  49.689  40.307  1.00  0.00     0.158 A 
BRANCH  15  18
ATOM     18  O   UNL     1      66.821  49.076  41.954  1.00  0.00    -0.504 OA
ATOM     19  H   UNL     1      67.491  48.338  42.131  1.00  0.00     0.293 HD
ENDBRANCH  15  18
BRANCH  17  20
ATOM     20  O   UNL     1      64.122  49.526  41.255  1.00  0.00    -0.504 OA
ATOM     21  H   UNL     1      64.121  50.044  42.126  1.00  0.00     0.293 HD
ENDBRANCH  17  20
ENDBRANCH   1  12
BRANCH   6  22
ATOM     22  O   UNL     1      63.377  52.087  32.222  1.00  0.00    -0.507 OA
ATOM     23  H   UNL     1      62.973  51.510  31.493  1.00  0.00     0.293 HD
ENDBRANCH   6  22
BRANCH   8  24
ATOM     24  O   UNL     1      68.160  51.982  31.476  1.00  0.00    -0.508 OA
ATOM     25  H   UNL     1      68.548  51.209  30.949  1.00  0.00     0.293 HD
ENDBRANCH   8  24
TORSDOF 5
ENDMDL
MODEL 7
REMARK VINA RESULT:    -4.808      1.449      7.236
REMARK INTER + INTRA:          -5.925
REMARK INTER:                  -5.642
REMARK INTRA:                  -0.282
REMARK UNBOUND:                -0.273
REMARK SMILES O=c1cc(-c2ccc(O)c(O)c2)oc2cc(O)cc(O)c12
REMARK SMILES IDX 4 1 3 2 2 3 1 4 21 5 19 6 18 7 16 8 15 9 14 10 13 11 5 12
REMARK SMILES IDX 6 13 7 14 8 15 12 16 10 17 9 18 11 20 20 22 17 24
REMARK H PARENT 9 19 11 21 20 23 17 25
REMARK Flexibility Score: inf
ROOT
ATOM      1  C   UNL     1      63.270  51.112  34.443  1.00  0.00     0.138 A 
ATOM      2  C   UNL     1      63.369  50.426  33.221  1.00  0.00     0.100 A 
ATOM      3  C   UNL     1      62.372  50.591  32.259  1.00  0.00     0.197 A 
ATOM      4  O   UNL     1      62.469  49.971  31.165  1.00  0.00    -0.289 OA
ATOM      5  C   UNL     1      61.281  51.442  32.526  1.00  0.00     0.107 A 
ATOM      6  C   UNL     1      60.229  51.666  31.605  1.00  0.00     0.134 A 
ATOM      7  C   UNL     1      59.174  52.523  31.950  1.00  0.00     0.093 A 
ATOM      8  C   UNL     1      59.151  53.159  33.197  1.00  0.00     0.123 A 
ATOM      9  C   UNL     1      60.186  52.940  34.108  1.00  0.00     0.094 A 
ATOM     10  C   UNL     1      61.247  52.090  33.783  1.00  0.00     0.146 A 
ATOM     11  O   UNL     1      62.220  51.900  34.668  1.00  0.00    -0.456 OA
ENDROOT
BRANCH   1  12
ATOM     12  C   UNL     1      64.299  50.973  35.504  1.00  0.00     0.021 A 
ATOM     13  C   UNL     1      65.653  51.273  35.266  1.00  0.00     0.016 A 
ATOM     14  C   UNL     1      66.598  51.143  36.286  1.00  0.00     0.051 A 
ATOM     15  C   UNL     1      66.211  50.721  37.561  1.00  0.00     0.157 A 
ATOM     16  C   UNL     1      63.913  50.562  36.793  1.00  0.00     0.062 A 
ATOM     17  C   UNL     1      64.861  50.430  37.818  1.00  0.00     0.158 A 
BRANCH  15  18
ATOM     18  O   UNL     1      67.177  50.600  38.560  1.00  0.00    -0.504 OA
ATOM     19  H   UNL     1      67.429  49.704  38.958  1.00  0.00     0.293 HD
ENDBRANCH  15  18
BRANCH  17  20
ATOM     20  O   UNL     1      64.466  50.014  39.088  1.00  0.00    -0.504 OA
ATOM     21  H   UNL     1      64.964  49.286  39.588  1.00  0.00     0.293 HD
ENDBRANCH  17  20
ENDBRANCH   1  12
BRANCH   6  22
ATOM     22  O   UNL     1      60.226  51.045  30.355  1.00  0.00    -0.507 OA
ATOM     23  H   UNL     1      61.082  50.729  29.915  1.00  0.00     0.293 HD
ENDBRANCH   6  22
BRANCH   8  24
ATOM     24  O   UNL     1      58.103  54.010  33.540  1.00  0.00    -0.508 OA
ATOM     25  H   UNL     1      57.647  54.594  32.850  1.00  0.00     0.293 HD
ENDBRANCH   8  24
TORSDOF 5
ENDMDL
MODEL 8
REMARK VINA RESULT:    -4.793      2.098      3.029
REMARK INTER + INTRA:          -5.907
REMARK INTER:                  -5.597
REMARK INTRA:                  -0.310
REMARK UNBOUND:                -0.273
REMARK SMILES O=c1cc(-c2ccc(O)c(O)c2)oc2cc(O)cc(O)c12
REMARK SMILES IDX 4 1 3 2 2 3 1 4 21 5 19 6 18 7 16 8 15 9 14 10 13 11 5 12
REMARK SMILES IDX 6 13 7 14 8 15 12 16 10 17 9 18 11 20 20 22 17 24
REMARK H PARENT 9 19 11 21 20 23 17 25
REMARK Flexibility Score: inf
ROOT
ATOM      1  C   UNL     1      66.038  50.420  37.165  1.00  0.00     0.138 A 
ATOM      2  C   UNL     1      67.310  49.841  37.033  1.00  0.00     0.100 A 
ATOM      3  C   UNL     1      67.994  49.418  38.174  1.00  0.00     0.197 A 
ATOM      4  O   UNL     1      69.137  48.900  38.046  1.00  0.00    -0.289 OA
ATOM      5  C   UNL     1      67.399  49.579  39.441  1.00  0.00     0.107 A 
ATOM      6  C   UNL     1      68.022  49.176  40.647  1.00  0.00     0.134 A 
ATOM      7  C   UNL     1      67.365  49.378  41.870  1.00  0.00     0.093 A 
ATOM      8  C   UNL     1      66.100  49.973  41.909  1.00  0.00     0.123 A 
ATOM      9  C   UNL     1      65.482  50.372  40.723  1.00  0.00     0.094 A 
ATOM     10  C   UNL     1      66.119  50.179  39.494  1.00  0.00     0.146 A 
ATOM     11  O   UNL     1      65.508  50.567  38.378  1.00  0.00    -0.456 OA
ENDROOT
BRANCH   1  12
ATOM     12  C   UNL     1      65.265  50.890  35.988  1.00  0.00     0.021 A 
ATOM     13  C   UNL     1      65.899  51.253  34.784  1.00  0.00     0.016 A 
ATOM     14  C   UNL     1      65.146  51.682  33.688  1.00  0.00     0.051 A 
ATOM     15  C   UNL     1      63.752  51.750  33.769  1.00  0.00     0.157 A 
ATOM     16  C   UNL     1      63.862  50.948  36.058  1.00  0.00     0.062 A 
ATOM     17  C   UNL     1      63.105  51.379  34.959  1.00  0.00     0.158 A 
BRANCH  15  18
ATOM     18  O   UNL     1      63.028  52.184  32.659  1.00  0.00    -0.504 OA
ATOM     19  H   UNL     1      62.509  51.543  32.072  1.00  0.00     0.293 HD
ENDBRANCH  15  18
BRANCH  17  20
ATOM     20  O   UNL     1      61.716  51.440  35.046  1.00  0.00    -0.504 OA
ATOM     21  H   UNL     1      61.194  52.232  34.690  1.00  0.00     0.293 HD
ENDBRANCH  17  20
ENDBRANCH   1  12
BRANCH   6  22
ATOM     22  O   UNL     1      69.284  48.580  40.637  1.00  0.00    -0.507 OA
ATOM     23  H   UNL     1      70.019  48.876  41.270  1.00  0.00     0.293 HD
ENDBRANCH   6  22
BRANCH   8  24
ATOM     24  O   UNL     1      65.448  50.174  43.124  1.00  0.00    -0.508 OA
ATOM     25  H   UNL     1      65.362  51.096  43.533  1.00  0.00     0.293 HD
ENDBRANCH   8  24
TORSDOF 5
ENDMDL
MODEL 9
REMARK VINA RESULT:    -4.739      2.236      7.640
REMARK INTER + INTRA:          -5.843
REMARK INTER:                  -5.578
REMARK INTRA:                  -0.265
REMARK UNBOUND:                -0.273
REMARK SMILES O=c1cc(-c2ccc(O)c(O)c2)oc2cc(O)cc(O)c12
REMARK SMILES IDX 4 1 3 2 2 3 1 4 21 5 19 6 18 7 16 8 15 9 14 10 13 11 5 12
REMARK SMILES IDX 6 13 7 14 8 15 12 16 10 17 9 18 11 20 20 22 17 24
REMARK H PARENT 9 19 11 21 20 23 17 25
REMARK Flexibility Score: inf
ROOT
ATOM      1  C   UNL     1      63.029  50.658  33.364  1.00  0.00     0.138 A 
ATOM      2  C   UNL     1      61.843  51.405  33.266  1.00  0.00     0.100 A 
ATOM      3  C   UNL     1      60.901  51.072  32.292  1.00  0.00     0.197 A 
ATOM      4  O   UNL     1      59.840  51.748  32.210  1.00  0.00    -0.289 OA
ATOM      5  C   UNL     1      61.152  49.993  31.420  1.00  0.00     0.107 A 
ATOM      6  C   UNL     1      60.250  49.588  30.407  1.00  0.00     0.134 A 
ATOM      7  C   UNL     1      60.578  48.507  29.576  1.00  0.00     0.093 A 
ATOM      8  C   UNL     1      61.789  47.825  29.739  1.00  0.00     0.123 A 
ATOM      9  C   UNL     1      62.681  48.221  30.737  1.00  0.00     0.094 A 
ATOM     10  C   UNL     1      62.373  49.295  31.576  1.00  0.00     0.146 A 
ATOM     11  O   UNL     1      63.240  49.651  32.519  1.00  0.00    -0.456 OA
ENDROOT
BRANCH   1  12
ATOM     12  C   UNL     1      64.067  50.968  34.379  1.00  0.00     0.021 A 
ATOM     13  C   UNL     1      65.370  51.353  34.011  1.00  0.00     0.016 A 
ATOM     14  C   UNL     1      66.324  51.649  34.987  1.00  0.00     0.051 A 
ATOM     15  C   UNL     1      65.997  51.574  36.344  1.00  0.00     0.157 A 
ATOM     16  C   UNL     1      63.740  50.908  35.745  1.00  0.00     0.062 A 
ATOM     17  C   UNL     1      64.697  51.204  36.726  1.00  0.00     0.158 A 
BRANCH  15  18
ATOM     18  O   UNL     1      66.971  51.874  37.295  1.00  0.00    -0.504 OA
ATOM     19  H   UNL     1      67.437  51.154  37.834  1.00  0.00     0.293 HD
ENDBRANCH  15  18
BRANCH  17  20
ATOM     20  O   UNL     1      64.361  51.131  38.077  1.00  0.00    -0.504 OA
ATOM     21  H   UNL     1      65.070  51.109  38.801  1.00  0.00     0.293 HD
ENDBRANCH  17  20
ENDBRANCH   1  12
BRANCH   6  22
ATOM     22  O   UNL     1      59.036  50.251  30.222  1.00  0.00    -0.507 OA
ATOM     23  H   UNL     1      58.408  50.441  30.995  1.00  0.00     0.293 HD
ENDBRANCH   6  22
BRANCH   8  24
ATOM     24  O   UNL     1      62.115  46.751  28.913  1.00  0.00    -0.508 OA
ATOM     25  H   UNL     1      61.831  45.805  29.137  1.00  0.00     0.293 HD
ENDBRANCH   8  24
TORSDOF 5
ENDMDL
