MODEL 1
REMARK VINA RESULT:    -5.546      0.000      0.000
REMARK INTER + INTRA:          -7.210
REMARK INTER:                  -6.842
REMARK INTRA:                  -0.368
REMARK UNBOUND:                -0.368
REMARK SMILES Oc1cc(O)c2cc(O)c(-c3cc(O)c(O)c(O)c3)[o+]c2c1
REMARK SMILES IDX 10 1 20 2 21 3 22 4 2 5 3 6 4 7 6 8 7 9 8 10 11 11 12 12
REMARK SMILES IDX 13 13 19 14 15 15 17 16 14 17 16 19 18 21 9 23 1 25 5 27
REMARK H PARENT 14 18 16 20 18 22 9 24 1 26 5 28
REMARK Flexibility Score: inf
ROOT
ATOM      1  C   UNL     1     -21.375  17.864  39.737  1.00  0.00     0.402 A 
ATOM      2  O   UNL     1     -21.112  17.350  38.539  1.00  0.00    -0.202 OA
ATOM      3  C   UNL     1     -20.090  17.740  37.785  1.00  0.00     0.368 A 
ATOM      4  C   UNL     1     -19.894  17.136  36.540  1.00  0.00     0.162 A 
ATOM      5  C   UNL     1     -18.825  17.525  35.728  1.00  0.00     0.128 A 
ATOM      6  C   UNL     1     -17.947  18.521  36.164  1.00  0.00     0.093 A 
ATOM      7  C   UNL     1     -18.122  19.141  37.407  1.00  0.00     0.136 A 
ATOM      8  C   UNL     1     -19.207  18.751  38.234  1.00  0.00     0.125 A 
ATOM      9  C   UNL     1     -19.467  19.327  39.489  1.00  0.00     0.078 A 
ATOM     10  C   UNL     1     -20.560  18.893  40.245  1.00  0.00     0.223 A 
ENDROOT
BRANCH   1  11
ATOM     11  C   UNL     1     -22.539  17.339  40.486  1.00  0.00     0.091 A 
ATOM     12  C   UNL     1     -23.779  17.989  40.379  1.00  0.00     0.068 A 
ATOM     13  C   UNL     1     -24.902  17.501  41.061  1.00  0.00     0.162 A 
ATOM     14  C   UNL     1     -22.446  16.168  41.258  1.00  0.00     0.068 A 
ATOM     15  C   UNL     1     -24.794  16.342  41.848  1.00  0.00     0.200 A 
ATOM     16  C   UNL     1     -23.566  15.675  41.940  1.00  0.00     0.162 A 
BRANCH  13  17
ATOM     17  O   UNL     1     -26.125  18.164  40.959  1.00  0.00    -0.504 OA
ATOM     18  H   UNL     1     -26.216  19.034  40.448  1.00  0.00     0.293 HD
ENDBRANCH  13  17
BRANCH  15  19
ATOM     19  O   UNL     1     -25.897  15.838  42.538  1.00  0.00    -0.502 OA
ATOM     20  H   UNL     1     -26.030  15.995  43.530  1.00  0.00     0.293 HD
ENDBRANCH  15  19
BRANCH  16  21
ATOM     21  O   UNL     1     -23.468  14.517  42.710  1.00  0.00    -0.504 OA
ATOM     22  H   UNL     1     -24.291  14.023  43.034  1.00  0.00     0.293 HD
ENDBRANCH  16  21
ENDBRANCH   1  11
BRANCH  10  23
ATOM     23  O   UNL     1     -20.848  19.498  41.469  1.00  0.00    -0.500 OA
ATOM     24  H   UNL     1     -20.561  20.448  41.674  1.00  0.00     0.294 HD
ENDBRANCH  10  23
BRANCH   5  25
ATOM     25  O   UNL     1     -18.623  16.929  34.485  1.00  0.00    -0.507 OA
ATOM     26  H   UNL     1     -19.187  16.145  34.176  1.00  0.00     0.293 HD
ENDBRANCH   5  25
BRANCH   7  27
ATOM     27  O   UNL     1     -17.199  20.125  37.771  1.00  0.00    -0.507 OA
ATOM     28  H   UNL     1     -17.041  20.979  37.255  1.00  0.00     0.293 HD
ENDBRANCH   7  27
TORSDOF 7
ENDMDL
MODEL 2
REMARK VINA RESULT:    -5.495      0.123      1.790
REMARK INTER + INTRA:          -7.147
REMARK INTER:                  -6.808
REMARK INTRA:                  -0.339
REMARK UNBOUND:                -0.368
REMARK SMILES Oc1cc(O)c2cc(O)c(-c3cc(O)c(O)c(O)c3)[o+]c2c1
REMARK SMILES IDX 10 1 20 2 21 3 22 4 2 5 3 6 4 7 6 8 7 9 8 10 11 11 12 12
REMARK SMILES IDX 13 13 19 14 15 15 17 16 14 17 16 19 18 21 9 23 1 25 5 27
REMARK H PARENT 14 18 16 20 18 22 9 24 1 26 5 28
REMARK Flexibility Score: inf
ROOT
ATOM      1  C   UNL     1     -21.435  17.884  39.778  1.00  0.00     0.402 A 
ATOM      2  O   UNL     1     -21.161  17.364  38.585  1.00  0.00    -0.202 OA
ATOM      3  C   UNL     1     -20.130  17.748  37.840  1.00  0.00     0.368 A 
ATOM      4  C   UNL     1     -19.923  17.138  36.600  1.00  0.00     0.162 A 
ATOM      5  C   UNL     1     -18.844  17.521  35.797  1.00  0.00     0.128 A 
ATOM      6  C   UNL     1     -17.968  18.516  36.238  1.00  0.00     0.093 A 
ATOM      7  C   UNL     1     -18.154  19.142  37.477  1.00  0.00     0.136 A 
ATOM      8  C   UNL     1     -19.249  18.759  38.294  1.00  0.00     0.125 A 
ATOM      9  C   UNL     1     -19.521  19.340  39.544  1.00  0.00     0.078 A 
ATOM     10  C   UNL     1     -20.623  18.913  40.290  1.00  0.00     0.223 A 
ENDROOT
BRANCH   1  11
ATOM     11  C   UNL     1     -22.608  17.365  40.517  1.00  0.00     0.091 A 
ATOM     12  C   UNL     1     -22.489  16.177  41.255  1.00  0.00     0.068 A 
ATOM     13  C   UNL     1     -23.578  15.674  41.980  1.00  0.00     0.162 A 
ATOM     14  C   UNL     1     -23.826  18.067  40.544  1.00  0.00     0.068 A 
ATOM     15  C   UNL     1     -24.798  16.372  41.984  1.00  0.00     0.200 A 
ATOM     16  C   UNL     1     -24.917  17.570  41.268  1.00  0.00     0.162 A 
BRANCH  13  17
ATOM     17  O   UNL     1     -23.452  14.486  42.698  1.00  0.00    -0.504 OA
ATOM     18  H   UNL     1     -24.264  13.964  43.009  1.00  0.00     0.293 HD
ENDBRANCH  13  17
BRANCH  15  19
ATOM     19  O   UNL     1     -25.897  15.891  42.697  1.00  0.00    -0.502 OA
ATOM     20  H   UNL     1     -26.224  14.937  42.602  1.00  0.00     0.293 HD
ENDBRANCH  15  19
BRANCH  16  21
ATOM     21  O   UNL     1     -26.125  18.266  41.287  1.00  0.00    -0.504 OA
ATOM     22  H   UNL     1     -26.158  19.268  41.435  1.00  0.00     0.293 HD
ENDBRANCH  16  21
ENDBRANCH   1  11
BRANCH  10  23
ATOM     23  O   UNL     1     -20.922  19.524  41.508  1.00  0.00    -0.500 OA
ATOM     24  H   UNL     1     -20.311  19.435  42.312  1.00  0.00     0.294 HD
ENDBRANCH  10  23
BRANCH   5  25
ATOM     25  O   UNL     1     -18.631  16.919  34.559  1.00  0.00    -0.507 OA
ATOM     26  H   UNL     1     -19.405  16.614  33.979  1.00  0.00     0.293 HD
ENDBRANCH   5  25
BRANCH   7  27
ATOM     27  O   UNL     1     -17.232  20.125  37.846  1.00  0.00    -0.507 OA
ATOM     28  H   UNL     1     -16.567  20.550  37.216  1.00  0.00     0.293 HD
ENDBRANCH   7  27
TORSDOF 7
ENDMDL
MODEL 3
REMARK VINA RESULT:    -4.939      2.185      6.890
REMARK INTER + INTRA:          -6.461
REMARK INTER:                  -6.104
REMARK INTRA:                  -0.357
REMARK UNBOUND:                -0.368
REMARK SMILES Oc1cc(O)c2cc(O)c(-c3cc(O)c(O)c(O)c3)[o+]c2c1
REMARK SMILES IDX 10 1 20 2 21 3 22 4 2 5 3 6 4 7 6 8 7 9 8 10 11 11 12 12
REMARK SMILES IDX 13 13 19 14 15 15 17 16 14 17 16 19 18 21 9 23 1 25 5 27
REMARK H PARENT 14 18 16 20 18 22 9 24 1 26 5 28
REMARK Flexibility Score: inf
ROOT
ATOM      1  C   UNL     1     -21.241  17.669  40.385  1.00  0.00     0.402 A 
ATOM      2  O   UNL     1     -22.095  16.798  40.913  1.00  0.00    -0.202 OA
ATOM      3  C   UNL     1     -22.440  16.799  42.196  1.00  0.00     0.368 A 
ATOM      4  C   UNL     1     -23.350  15.844  42.657  1.00  0.00     0.162 A 
ATOM      5  C   UNL     1     -23.732  15.825  44.001  1.00  0.00     0.128 A 
ATOM      6  C   UNL     1     -23.204  16.767  44.888  1.00  0.00     0.093 A 
ATOM      7  C   UNL     1     -22.292  17.734  44.451  1.00  0.00     0.136 A 
ATOM      8  C   UNL     1     -21.898  17.756  43.087  1.00  0.00     0.125 A 
ATOM      9  C   UNL     1     -20.980  18.681  42.564  1.00  0.00     0.078 A 
ATOM     10  C   UNL     1     -20.637  18.637  41.209  1.00  0.00     0.223 A 
ENDROOT
BRANCH   1  11
ATOM     11  C   UNL     1     -20.944  17.571  38.938  1.00  0.00     0.091 A 
ATOM     12  C   UNL     1     -19.801  16.874  38.514  1.00  0.00     0.068 A 
ATOM     13  C   UNL     1     -19.506  16.748  37.149  1.00  0.00     0.162 A 
ATOM     14  C   UNL     1     -21.812  18.110  37.973  1.00  0.00     0.068 A 
ATOM     15  C   UNL     1     -20.369  17.309  36.192  1.00  0.00     0.200 A 
ATOM     16  C   UNL     1     -21.524  17.986  36.607  1.00  0.00     0.162 A 
BRANCH  13  17
ATOM     17  O   UNL     1     -18.361  16.067  36.741  1.00  0.00    -0.504 OA
ATOM     18  H   UNL     1     -17.818  16.373  35.942  1.00  0.00     0.293 HD
ENDBRANCH  13  17
BRANCH  15  19
ATOM     19  O   UNL     1     -20.097  17.199  34.829  1.00  0.00    -0.502 OA
ATOM     20  H   UNL     1     -20.367  16.385  34.290  1.00  0.00     0.293 HD
ENDBRANCH  15  19
BRANCH  16  21
ATOM     21  O   UNL     1     -22.384  18.528  35.654  1.00  0.00    -0.504 OA
ATOM     22  H   UNL     1     -23.126  19.169  35.911  1.00  0.00     0.293 HD
ENDBRANCH  16  21
ENDBRANCH   1  11
BRANCH  10  23
ATOM     23  O   UNL     1     -19.688  19.523  40.698  1.00  0.00    -0.500 OA
ATOM     24  H   UNL     1     -18.697  19.396  40.866  1.00  0.00     0.294 HD
ENDBRANCH  10  23
BRANCH   5  25
ATOM     25  O   UNL     1     -24.637  14.875  44.469  1.00  0.00    -0.507 OA
ATOM     26  H   UNL     1     -24.698  13.951  44.054  1.00  0.00     0.293 HD
ENDBRANCH   5  25
BRANCH   7  27
ATOM     27  O   UNL     1     -21.813  18.643  45.399  1.00  0.00    -0.507 OA
ATOM     28  H   UNL     1     -20.948  19.155  45.312  1.00  0.00     0.293 HD
ENDBRANCH   7  27
TORSDOF 7
ENDMDL
MODEL 4
REMARK VINA RESULT:    -4.879      1.111      7.171
REMARK INTER + INTRA:          -6.387
REMARK INTER:                  -6.005
REMARK INTRA:                  -0.383
REMARK UNBOUND:                -0.368
REMARK SMILES Oc1cc(O)c2cc(O)c(-c3cc(O)c(O)c(O)c3)[o+]c2c1
REMARK SMILES IDX 10 1 20 2 21 3 22 4 2 5 3 6 4 7 6 8 7 9 8 10 11 11 12 12
REMARK SMILES IDX 13 13 19 14 15 15 17 16 14 17 16 19 18 21 9 23 1 25 5 27
REMARK H PARENT 14 18 16 20 18 22 9 24 1 26 5 28
REMARK Flexibility Score: inf
ROOT
ATOM      1  C   UNL     1     -21.484  18.147  38.909  1.00  0.00     0.402 A 
ATOM      2  O   UNL     1     -21.504  17.219  39.861  1.00  0.00    -0.202 OA
ATOM      3  C   UNL     1     -22.572  16.964  40.609  1.00  0.00     0.368 A 
ATOM      4  C   UNL     1     -22.497  15.965  41.584  1.00  0.00     0.162 A 
ATOM      5  C   UNL     1     -23.606  15.675  42.383  1.00  0.00     0.128 A 
ATOM      6  C   UNL     1     -24.796  16.385  42.206  1.00  0.00     0.093 A 
ATOM      7  C   UNL     1     -24.897  17.390  41.237  1.00  0.00     0.136 A 
ATOM      8  C   UNL     1     -23.772  17.691  40.424  1.00  0.00     0.125 A 
ATOM      9  C   UNL     1     -23.778  18.690  39.437  1.00  0.00     0.078 A 
ATOM     10  C   UNL     1     -22.629  18.932  38.679  1.00  0.00     0.223 A 
ENDROOT
BRANCH   1  11
ATOM     11  C   UNL     1     -20.235  18.330  38.135  1.00  0.00     0.091 A 
ATOM     12  C   UNL     1     -19.211  19.136  38.657  1.00  0.00     0.068 A 
ATOM     13  C   UNL     1     -18.010  19.311  37.955  1.00  0.00     0.162 A 
ATOM     14  C   UNL     1     -20.027  17.668  36.912  1.00  0.00     0.068 A 
ATOM     15  C   UNL     1     -17.820  18.661  36.723  1.00  0.00     0.200 A 
ATOM     16  C   UNL     1     -18.828  17.837  36.207  1.00  0.00     0.162 A 
BRANCH  13  17
ATOM     17  O   UNL     1     -17.007  20.125  38.477  1.00  0.00    -0.504 OA
ATOM     18  H   UNL     1     -16.525  19.889  39.337  1.00  0.00     0.293 HD
ENDBRANCH  13  17
BRANCH  15  19
ATOM     19  O   UNL     1     -16.635  18.821  36.004  1.00  0.00    -0.502 OA
ATOM     20  H   UNL     1     -15.735  18.910  36.462  1.00  0.00     0.293 HD
ENDBRANCH  15  19
BRANCH  16  21
ATOM     21  O   UNL     1     -18.628  17.184  34.992  1.00  0.00    -0.504 OA
ATOM     22  H   UNL     1     -17.991  16.400  34.909  1.00  0.00     0.293 HD
ENDBRANCH  16  21
ENDBRANCH   1  11
BRANCH  10  23
ATOM     23  O   UNL     1     -22.618  19.957  37.733  1.00  0.00    -0.500 OA
ATOM     24  H   UNL     1     -23.471  20.419  37.439  1.00  0.00     0.294 HD
ENDBRANCH  10  23
BRANCH   5  25
ATOM     25  O   UNL     1     -23.539  14.681  43.357  1.00  0.00    -0.507 OA
ATOM     26  H   UNL     1     -22.650  14.336  43.702  1.00  0.00     0.293 HD
ENDBRANCH   5  25
BRANCH   7  27
ATOM     27  O   UNL     1     -26.122  18.051  41.120  1.00  0.00    -0.507 OA
ATOM     28  H   UNL     1     -26.916  17.892  41.724  1.00  0.00     0.293 HD
ENDBRANCH   7  27
TORSDOF 7
ENDMDL
MODEL 5
REMARK VINA RESULT:    -4.878      2.202      6.683
REMARK INTER + INTRA:          -6.386
REMARK INTER:                  -6.025
REMARK INTRA:                  -0.361
REMARK UNBOUND:                -0.368
REMARK SMILES Oc1cc(O)c2cc(O)c(-c3cc(O)c(O)c(O)c3)[o+]c2c1
REMARK SMILES IDX 10 1 20 2 21 3 22 4 2 5 3 6 4 7 6 8 7 9 8 10 11 11 12 12
REMARK SMILES IDX 13 13 19 14 15 15 17 16 14 17 16 19 18 21 9 23 1 25 5 27
REMARK H PARENT 14 18 16 20 18 22 9 24 1 26 5 28
REMARK Flexibility Score: inf
ROOT
ATOM      1  C   UNL     1     -21.230  17.609  40.388  1.00  0.00     0.402 A 
ATOM      2  O   UNL     1     -22.071  16.734  40.931  1.00  0.00    -0.202 OA
ATOM      3  C   UNL     1     -22.419  16.754  42.213  1.00  0.00     0.368 A 
ATOM      4  C   UNL     1     -23.313  15.792  42.691  1.00  0.00     0.162 A 
ATOM      5  C   UNL     1     -23.698  15.792  44.035  1.00  0.00     0.128 A 
ATOM      6  C   UNL     1     -23.186  16.759  44.904  1.00  0.00     0.093 A 
ATOM      7  C   UNL     1     -22.289  17.733  44.451  1.00  0.00     0.136 A 
ATOM      8  C   UNL     1     -21.893  17.736  43.088  1.00  0.00     0.125 A 
ATOM      9  C   UNL     1     -20.989  18.665  42.548  1.00  0.00     0.078 A 
ATOM     10  C   UNL     1     -20.643  18.601  41.195  1.00  0.00     0.223 A 
ENDROOT
BRANCH   1  11
ATOM     11  C   UNL     1     -20.929  17.488  38.943  1.00  0.00     0.091 A 
ATOM     12  C   UNL     1     -21.782  18.094  38.007  1.00  0.00     0.068 A 
ATOM     13  C   UNL     1     -21.509  18.013  36.635  1.00  0.00     0.162 A 
ATOM     14  C   UNL     1     -19.774  16.829  38.489  1.00  0.00     0.068 A 
ATOM     15  C   UNL     1     -20.363  17.333  36.188  1.00  0.00     0.200 A 
ATOM     16  C   UNL     1     -19.495  16.746  37.118  1.00  0.00     0.162 A 
BRANCH  13  17
ATOM     17  O   UNL     1     -22.371  18.606  35.714  1.00  0.00    -0.504 OA
ATOM     18  H   UNL     1     -22.609  18.152  34.839  1.00  0.00     0.293 HD
ENDBRANCH  13  17
BRANCH  15  19
ATOM     19  O   UNL     1     -20.071  17.237  34.827  1.00  0.00    -0.502 OA
ATOM     20  H   UNL     1     -20.647  17.678  34.120  1.00  0.00     0.293 HD
ENDBRANCH  15  19
BRANCH  16  21
ATOM     21  O   UNL     1     -18.352  16.086  36.671  1.00  0.00    -0.504 OA
ATOM     22  H   UNL     1     -17.514  16.593  36.408  1.00  0.00     0.293 HD
ENDBRANCH  16  21
ENDBRANCH   1  11
BRANCH  10  23
ATOM     23  O   UNL     1     -19.708  19.493  40.669  1.00  0.00    -0.500 OA
ATOM     24  H   UNL     1     -19.338  20.261  41.217  1.00  0.00     0.294 HD
ENDBRANCH  10  23
BRANCH   5  25
ATOM     25  O   UNL     1     -24.588  14.837  44.519  1.00  0.00    -0.507 OA
ATOM     26  H   UNL     1     -25.481  14.668  44.068  1.00  0.00     0.293 HD
ENDBRANCH   5  25
BRANCH   7  27
ATOM     27  O   UNL     1     -21.827  18.666  45.382  1.00  0.00    -0.507 OA
ATOM     28  H   UNL     1     -20.853  18.817  45.604  1.00  0.00     0.293 HD
ENDBRANCH   7  27
TORSDOF 7
ENDMDL
MODEL 6
REMARK VINA RESULT:    -4.740      1.115      7.197
REMARK INTER + INTRA:          -6.217
REMARK INTER:                  -5.855
REMARK INTRA:                  -0.362
REMARK UNBOUND:                -0.368
REMARK SMILES Oc1cc(O)c2cc(O)c(-c3cc(O)c(O)c(O)c3)[o+]c2c1
REMARK SMILES IDX 10 1 20 2 21 3 22 4 2 5 3 6 4 7 6 8 7 9 8 10 11 11 12 12
REMARK SMILES IDX 13 13 19 14 15 15 17 16 14 17 16 19 18 21 9 23 1 25 5 27
REMARK H PARENT 14 18 16 20 18 22 9 24 1 26 5 28
REMARK Flexibility Score: inf
ROOT
ATOM      1  C   UNL     1     -21.374  18.156  38.858  1.00  0.00     0.402 A 
ATOM      2  O   UNL     1     -21.435  17.283  39.859  1.00  0.00    -0.202 OA
ATOM      3  C   UNL     1     -22.538  17.054  40.562  1.00  0.00     0.368 A 
ATOM      4  C   UNL     1     -22.503  16.113  41.595  1.00  0.00     0.162 A 
ATOM      5  C   UNL     1     -23.650  15.850  42.349  1.00  0.00     0.128 A 
ATOM      6  C   UNL     1     -24.838  16.531  42.069  1.00  0.00     0.093 A 
ATOM      7  C   UNL     1     -24.898  17.479  41.040  1.00  0.00     0.136 A 
ATOM      8  C   UNL     1     -23.736  17.750  40.273  1.00  0.00     0.125 A 
ATOM      9  C   UNL     1     -23.701  18.692  39.232  1.00  0.00     0.078 A 
ATOM     10  C   UNL     1     -22.515  18.909  38.523  1.00  0.00     0.223 A 
ENDROOT
BRANCH   1  11
ATOM     11  C   UNL     1     -20.087  18.316  38.142  1.00  0.00     0.091 A 
ATOM     12  C   UNL     1     -19.898  17.668  36.911  1.00  0.00     0.068 A 
ATOM     13  C   UNL     1     -18.697  17.818  36.203  1.00  0.00     0.162 A 
ATOM     14  C   UNL     1     -19.071  19.148  38.641  1.00  0.00     0.068 A 
ATOM     15  C   UNL     1     -17.678  18.636  36.719  1.00  0.00     0.200 A 
ATOM     16  C   UNL     1     -17.869  19.303  37.936  1.00  0.00     0.162 A 
BRANCH  13  17
ATOM     17  O   UNL     1     -18.515  17.159  34.988  1.00  0.00    -0.504 OA
ATOM     18  H   UNL     1     -19.042  17.414  34.161  1.00  0.00     0.293 HD
ENDBRANCH  13  17
BRANCH  15  19
ATOM     19  O   UNL     1     -16.474  18.800  36.034  1.00  0.00    -0.502 OA
ATOM     20  H   UNL     1     -16.416  18.740  35.024  1.00  0.00     0.293 HD
ENDBRANCH  15  19
BRANCH  16  21
ATOM     21  O   UNL     1     -16.861  20.125  38.437  1.00  0.00    -0.504 OA
ATOM     22  H   UNL     1     -16.315  20.726  37.830  1.00  0.00     0.293 HD
ENDBRANCH  16  21
ENDBRANCH   1  11
BRANCH  10  23
ATOM     23  O   UNL     1     -22.466  19.880  37.522  1.00  0.00    -0.500 OA
ATOM     24  H   UNL     1     -23.160  19.920  36.784  1.00  0.00     0.294 HD
ENDBRANCH  10  23
BRANCH   5  25
ATOM     25  O   UNL     1     -23.623  14.914  43.380  1.00  0.00    -0.507 OA
ATOM     26  H   UNL     1     -24.184  14.070  43.344  1.00  0.00     0.293 HD
ENDBRANCH   5  25
BRANCH   7  27
ATOM     27  O   UNL     1     -26.124  18.113  40.821  1.00  0.00    -0.507 OA
ATOM     28  H   UNL     1     -26.492  18.858  41.394  1.00  0.00     0.293 HD
ENDBRANCH   7  27
TORSDOF 7
ENDMDL
MODEL 7
REMARK VINA RESULT:    -4.390      1.799      7.309
REMARK INTER + INTRA:          -5.784
REMARK INTER:                  -5.751
REMARK INTRA:                  -0.033
REMARK UNBOUND:                -0.368
REMARK SMILES Oc1cc(O)c2cc(O)c(-c3cc(O)c(O)c(O)c3)[o+]c2c1
REMARK SMILES IDX 10 1 20 2 21 3 22 4 2 5 3 6 4 7 6 8 7 9 8 10 11 11 12 12
REMARK SMILES IDX 13 13 19 14 15 15 17 16 14 17 16 19 18 21 9 23 1 25 5 27
REMARK H PARENT 14 18 16 20 18 22 9 24 1 26 5 28
REMARK Flexibility Score: inf
ROOT
ATOM      1  C   UNL     1     -21.971  17.936  39.867  1.00  0.00     0.402 A 
ATOM      2  O   UNL     1     -21.598  17.732  41.126  1.00  0.00    -0.202 OA
ATOM      3  C   UNL     1     -22.455  17.498  42.113  1.00  0.00     0.368 A 
ATOM      4  C   UNL     1     -21.965  17.292  43.406  1.00  0.00     0.162 A 
ATOM      5  C   UNL     1     -22.846  17.042  44.462  1.00  0.00     0.128 A 
ATOM      6  C   UNL     1     -24.222  16.995  44.225  1.00  0.00     0.093 A 
ATOM      7  C   UNL     1     -24.738  17.198  42.939  1.00  0.00     0.136 A 
ATOM      8  C   UNL     1     -23.848  17.456  41.864  1.00  0.00     0.125 A 
ATOM      9  C   UNL     1     -24.276  17.684  40.546  1.00  0.00     0.078 A 
ATOM     10  C   UNL     1     -23.339  17.936  39.539  1.00  0.00     0.223 A 
ENDROOT
BRANCH   1  11
ATOM     11  C   UNL     1     -20.918  18.177  38.853  1.00  0.00     0.091 A 
ATOM     12  C   UNL     1     -19.839  19.019  39.165  1.00  0.00     0.068 A 
ATOM     13  C   UNL     1     -18.818  19.248  38.232  1.00  0.00     0.162 A 
ATOM     14  C   UNL     1     -20.945  17.535  37.603  1.00  0.00     0.068 A 
ATOM     15  C   UNL     1     -18.864  18.618  36.977  1.00  0.00     0.200 A 
ATOM     16  C   UNL     1     -19.926  17.758  36.667  1.00  0.00     0.162 A 
BRANCH  13  17
ATOM     17  O   UNL     1     -17.759  20.097  38.548  1.00  0.00    -0.504 OA
ATOM     18  H   UNL     1     -17.234  19.993  39.409  1.00  0.00     0.293 HD
ENDBRANCH  13  17
BRANCH  15  19
ATOM     19  O   UNL     1     -17.862  18.832  36.030  1.00  0.00    -0.502 OA
ATOM     20  H   UNL     1     -17.782  19.702  35.518  1.00  0.00     0.293 HD
ENDBRANCH  15  19
BRANCH  16  21
ATOM     21  O   UNL     1     -19.959  17.125  35.426  1.00  0.00    -0.504 OA
ATOM     22  H   UNL     1     -20.403  16.222  35.302  1.00  0.00     0.293 HD
ENDBRANCH  16  21
ENDBRANCH   1  11
BRANCH  10  23
ATOM     23  O   UNL     1     -23.766  18.212  38.239  1.00  0.00    -0.500 OA
ATOM     24  H   UNL     1     -23.507  17.621  37.457  1.00  0.00     0.294 HD
ENDBRANCH  10  23
BRANCH   5  25
ATOM     25  O   UNL     1     -22.365  16.836  45.754  1.00  0.00    -0.507 OA
ATOM     26  H   UNL     1     -22.768  16.132  46.363  1.00  0.00     0.293 HD
ENDBRANCH   5  25
BRANCH   7  27
ATOM     27  O   UNL     1     -26.125  17.132  42.784  1.00  0.00    -0.507 OA
ATOM     28  H   UNL     1     -26.787  17.182  43.545  1.00  0.00     0.293 HD
ENDBRANCH   7  27
TORSDOF 7
ENDMDL
MODEL 8
REMARK VINA RESULT:    -4.316      2.226      3.383
REMARK INTER + INTRA:          -5.692
REMARK INTER:                  -5.324
REMARK INTRA:                  -0.369
REMARK UNBOUND:                -0.368
REMARK SMILES Oc1cc(O)c2cc(O)c(-c3cc(O)c(O)c(O)c3)[o+]c2c1
REMARK SMILES IDX 10 1 20 2 21 3 22 4 2 5 3 6 4 7 6 8 7 9 8 10 11 11 12 12
REMARK SMILES IDX 13 13 19 14 15 15 17 16 14 17 16 19 18 21 9 23 1 25 5 27
REMARK H PARENT 14 18 16 20 18 22 9 24 1 26 5 28
REMARK Flexibility Score: inf
ROOT
ATOM      1  C   UNL     1     -22.542  17.613  40.562  1.00  0.00     0.402 A 
ATOM      2  O   UNL     1     -21.396  17.219  40.014  1.00  0.00    -0.202 OA
ATOM      3  C   UNL     1     -21.107  17.383  38.728  1.00  0.00     0.368 A 
ATOM      4  C   UNL     1     -19.873  16.938  38.245  1.00  0.00     0.162 A 
ATOM      5  C   UNL     1     -19.543  17.100  36.897  1.00  0.00     0.128 A 
ATOM      6  C   UNL     1     -20.450  17.712  36.027  1.00  0.00     0.093 A 
ATOM      7  C   UNL     1     -21.693  18.166  36.486  1.00  0.00     0.136 A 
ATOM      8  C   UNL     1     -22.034  18.001  37.854  1.00  0.00     0.125 A 
ATOM      9  C   UNL     1     -23.261  18.414  38.398  1.00  0.00     0.078 A 
ATOM     10  C   UNL     1     -23.527  18.213  39.756  1.00  0.00     0.223 A 
ENDROOT
BRANCH   1  11
ATOM     11  C   UNL     1     -22.742  17.383  42.011  1.00  0.00     0.091 A 
ATOM     12  C   UNL     1     -23.399  16.219  42.441  1.00  0.00     0.068 A 
ATOM     13  C   UNL     1     -23.584  15.966  43.807  1.00  0.00     0.162 A 
ATOM     14  C   UNL     1     -22.238  18.277  42.971  1.00  0.00     0.068 A 
ATOM     15  C   UNL     1     -23.095  16.877  44.759  1.00  0.00     0.200 A 
ATOM     16  C   UNL     1     -22.418  18.029  44.338  1.00  0.00     0.162 A 
BRANCH  13  17
ATOM     17  O   UNL     1     -24.250  14.814  44.221  1.00  0.00    -0.504 OA
ATOM     18  H   UNL     1     -25.166  14.857  44.654  1.00  0.00     0.293 HD
ENDBRANCH  13  17
BRANCH  15  19
ATOM     19  O   UNL     1     -23.268  16.649  46.125  1.00  0.00    -0.502 OA
ATOM     20  H   UNL     1     -23.254  17.402  46.802  1.00  0.00     0.293 HD
ENDBRANCH  15  19
BRANCH  16  21
ATOM     21  O   UNL     1     -21.922  18.921  45.287  1.00  0.00    -0.504 OA
ATOM     22  H   UNL     1     -22.426  19.120  46.144  1.00  0.00     0.293 HD
ENDBRANCH  16  21
ENDBRANCH   1  11
BRANCH  10  23
ATOM     23  O   UNL     1     -24.765  18.577  40.287  1.00  0.00    -0.500 OA
ATOM     24  H   UNL     1     -25.302  19.348  39.906  1.00  0.00     0.294 HD
ENDBRANCH  10  23
BRANCH   5  25
ATOM     25  O   UNL     1     -18.316  16.659  36.408  1.00  0.00    -0.507 OA
ATOM     26  H   UNL     1     -18.027  15.691  36.498  1.00  0.00     0.293 HD
ENDBRANCH   5  25
BRANCH   7  27
ATOM     27  O   UNL     1     -22.541  18.769  35.554  1.00  0.00    -0.507 OA
ATOM     28  H   UNL     1     -22.947  19.687  35.662  1.00  0.00     0.293 HD
ENDBRANCH   7  27
TORSDOF 7
ENDMDL
MODEL 9
REMARK VINA RESULT:    -4.113      2.973      6.801
REMARK INTER + INTRA:          -5.442
REMARK INTER:                  -5.147
REMARK INTRA:                  -0.295
REMARK UNBOUND:                -0.368
REMARK SMILES Oc1cc(O)c2cc(O)c(-c3cc(O)c(O)c(O)c3)[o+]c2c1
REMARK SMILES IDX 10 1 20 2 21 3 22 4 2 5 3 6 4 7 6 8 7 9 8 10 11 11 12 12
REMARK SMILES IDX 13 13 19 14 15 15 17 16 14 17 16 19 18 21 9 23 1 25 5 27
REMARK H PARENT 14 18 16 20 18 22 9 24 1 26 5 28
REMARK Flexibility Score: inf
ROOT
ATOM      1  C   UNL     1     -21.801  17.546  41.131  1.00  0.00     0.402 A 
ATOM      2  O   UNL     1     -21.056  18.340  41.893  1.00  0.00    -0.202 OA
ATOM      3  C   UNL     1     -21.125  18.356  43.220  1.00  0.00     0.368 A 
ATOM      4  C   UNL     1     -20.296  19.225  43.935  1.00  0.00     0.162 A 
ATOM      5  C   UNL     1     -20.347  19.260  45.331  1.00  0.00     0.128 A 
ATOM      6  C   UNL     1     -21.230  18.421  46.016  1.00  0.00     0.093 A 
ATOM      7  C   UNL     1     -22.071  17.541  45.323  1.00  0.00     0.136 A 
ATOM      8  C   UNL     1     -22.025  17.504  43.905  1.00  0.00     0.125 A 
ATOM      9  C   UNL     1     -22.839  16.664  43.128  1.00  0.00     0.078 A 
ATOM     10  C   UNL     1     -22.740  16.687  41.733  1.00  0.00     0.223 A 
ENDROOT
BRANCH   1  11
ATOM     11  C   UNL     1     -21.625  17.614  39.663  1.00  0.00     0.091 A 
ATOM     12  C   UNL     1     -22.596  18.257  38.880  1.00  0.00     0.068 A 
ATOM     13  C   UNL     1     -22.444  18.354  37.490  1.00  0.00     0.162 A 
ATOM     14  C   UNL     1     -20.475  17.098  39.039  1.00  0.00     0.068 A 
ATOM     15  C   UNL     1     -21.301  17.817  36.872  1.00  0.00     0.200 A 
ATOM     16  C   UNL     1     -20.317  17.194  37.650  1.00  0.00     0.162 A 
BRANCH  13  17
ATOM     17  O   UNL     1     -23.422  18.983  36.721  1.00  0.00    -0.504 OA
ATOM     18  H   UNL     1     -24.408  18.883  36.931  1.00  0.00     0.293 HD
ENDBRANCH  13  17
BRANCH  15  19
ATOM     19  O   UNL     1     -21.128  17.899  35.490  1.00  0.00    -0.502 OA
ATOM     20  H   UNL     1     -21.258  18.765  34.981  1.00  0.00     0.293 HD
ENDBRANCH  15  19
BRANCH  16  21
ATOM     21  O   UNL     1     -19.179  16.676  37.034  1.00  0.00    -0.504 OA
ATOM     22  H   UNL     1     -19.025  16.769  36.036  1.00  0.00     0.293 HD
ENDBRANCH  16  21
ENDBRANCH   1  11
BRANCH  10  23
ATOM     23  O   UNL     1     -23.583  15.890  40.959  1.00  0.00    -0.500 OA
ATOM     24  H   UNL     1     -24.572  15.805  41.164  1.00  0.00     0.294 HD
ENDBRANCH  10  23
BRANCH   5  25
ATOM     25  O   UNL     1     -19.525  20.124  46.050  1.00  0.00    -0.507 OA
ATOM     26  H   UNL     1     -18.553  20.262  45.798  1.00  0.00     0.293 HD
ENDBRANCH   5  25
BRANCH   7  27
ATOM     27  O   UNL     1     -22.922  16.733  46.081  1.00  0.00    -0.507 OA
ATOM     28  H   UNL     1     -22.614  16.103  46.808  1.00  0.00     0.293 HD
ENDBRANCH   7  27
TORSDOF 7
ENDMDL
