MODEL 1
REMARK VINA RESULT:     1.209      0.000      0.000
REMARK INTER + INTRA:           2.024
REMARK INTER:                   2.623
REMARK INTRA:                  -0.599
REMARK UNBOUND:                -0.599
REMARK SMILES CCCCCCCCCCCCCCCCCCCCCC(=O)[O-]
REMARK SMILES IDX 12 1 11 2 10 3 9 4 8 5 7 6 6 7 5 8 4 9 3 10 2 11 1 12 13 13
REMARK SMILES IDX 14 14 15 15 16 16 17 17 18 18 19 19 20 20 21 21 22 22 23 23
REMARK SMILES IDX 24 24
REMARK H PARENT
REMARK Flexibility Score: inf
ROOT
ATOM      1  C   UNL     1      21.955  20.587  14.732  1.00  0.00     0.000 C 
ENDROOT
BRANCH   1   2
ATOM      2  C   UNL     1      20.775  19.879  15.416  1.00  0.00     0.000 C 
BRANCH   2   3
ATOM      3  C   UNL     1      19.487  20.716  15.356  1.00  0.00     0.000 C 
BRANCH   3   4
ATOM      4  C   UNL     1      18.251  19.905  15.780  1.00  0.00    -0.000 C 
BRANCH   4   5
ATOM      5  C   UNL     1      17.316  20.701  16.707  1.00  0.00    -0.000 C 
BRANCH   5   6
ATOM      6  C   UNL     1      15.850  20.631  16.246  1.00  0.00    -0.000 C 
BRANCH   6   7
ATOM      7  C   UNL     1      14.948  19.877  17.235  1.00  0.00    -0.000 C 
BRANCH   7   8
ATOM      8  C   UNL     1      13.526  20.456  17.308  1.00  0.00    -0.000 C 
BRANCH   8   9
ATOM      9  C   UNL     1      12.979  20.401  18.740  1.00  0.00    -0.000 C 
BRANCH   9  10
ATOM     10  C   UNL     1      11.492  20.787  18.776  1.00  0.00    -0.000 C 
BRANCH  10  11
ATOM     11  C   UNL     1      11.090  21.468  20.092  1.00  0.00    -0.003 C 
ATOM     12  C   UNL     1      11.000  20.490  21.264  1.00  0.00     0.004 C 
ENDBRANCH  10  11
ENDBRANCH   9  10
ENDBRANCH   8   9
ENDBRANCH   7   8
ENDBRANCH   6   7
ENDBRANCH   5   6
ENDBRANCH   4   5
ENDBRANCH   3   4
ENDBRANCH   2   3
ENDBRANCH   1   2
BRANCH   1  13
ATOM     13  C   UNL     1      23.292  20.333  15.444  1.00  0.00     0.000 C 
BRANCH  13  14
ATOM     14  C   UNL     1      24.402  19.896  14.474  1.00  0.00     0.000 C 
BRANCH  14  15
ATOM     15  C   UNL     1      25.774  19.891  15.161  1.00  0.00     0.000 C 
BRANCH  15  16
ATOM     16  C   UNL     1      25.834  20.958  16.266  1.00  0.00     0.000 C 
BRANCH  16  17
ATOM     17  C   UNL     1      27.275  21.304  16.681  1.00  0.00     0.000 C 
BRANCH  17  18
ATOM     18  C   UNL     1      28.236  20.115  16.507  1.00  0.00     0.000 C 
BRANCH  18  19
ATOM     19  C   UNL     1      29.184  20.297  15.310  1.00  0.00     0.000 C 
BRANCH  19  20
ATOM     20  C   UNL     1      28.771  21.472  14.406  1.00  0.00     0.006 C 
BRANCH  20  21
ATOM     21  C   UNL     1      29.661  21.588  13.161  1.00  0.00     0.053 C 
BRANCH  21  22
ATOM     22  C   UNL     1      28.915  22.159  11.993  1.00  0.00     0.041 C 
ATOM     23  O   UNL     1      28.399  21.395  11.136  1.00  0.00    -0.550 OA
ATOM     24  O   UNL     1      28.811  23.536  11.840  1.00  0.00    -0.550 OA
ENDBRANCH  21  22
ENDBRANCH  20  21
ENDBRANCH  19  20
ENDBRANCH  18  19
ENDBRANCH  17  18
ENDBRANCH  16  17
ENDBRANCH  15  16
ENDBRANCH  14  15
ENDBRANCH  13  14
ENDBRANCH   1  13
TORSDOF 20
ENDMDL
MODEL 2
REMARK VINA RESULT:     1.221      1.369      4.057
REMARK INTER + INTRA:           2.049
REMARK INTER:                   2.710
REMARK INTRA:                  -0.662
REMARK UNBOUND:                -0.599
REMARK SMILES CCCCCCCCCCCCCCCCCCCCCC(=O)[O-]
REMARK SMILES IDX 12 1 11 2 10 3 9 4 8 5 7 6 6 7 5 8 4 9 3 10 2 11 1 12 13 13
REMARK SMILES IDX 14 14 15 15 16 16 17 17 18 18 19 19 20 20 21 21 22 22 23 23
REMARK SMILES IDX 24 24
REMARK H PARENT
REMARK Flexibility Score: inf
ROOT
ATOM      1  C   UNL     1      17.366  20.128  16.654  1.00  0.00     0.000 C 
ENDROOT
BRANCH   1   2
ATOM      2  C   UNL     1      15.932  20.520  16.263  1.00  0.00     0.000 C 
BRANCH   2   3
ATOM      3  C   UNL     1      14.917  20.169  17.364  1.00  0.00     0.000 C 
BRANCH   3   4
ATOM      4  C   UNL     1      13.791  21.211  17.466  1.00  0.00    -0.000 C 
BRANCH   4   5
ATOM      5  C   UNL     1      12.591  20.870  16.567  1.00  0.00    -0.000 C 
BRANCH   5   6
ATOM      6  C   UNL     1      11.311  21.595  17.015  1.00  0.00    -0.000 C 
BRANCH   6   7
ATOM      7  C   UNL     1      10.287  20.653  17.667  1.00  0.00    -0.000 C 
BRANCH   7   8
ATOM      8  C   UNL     1      10.865  19.877  18.861  1.00  0.00    -0.000 C 
BRANCH   8   9
ATOM      9  C   UNL     1      11.310  20.830  19.977  1.00  0.00    -0.000 C 
BRANCH   9  10
ATOM     10  C   UNL     1      11.055  20.214  21.361  1.00  0.00    -0.000 C 
BRANCH  10  11
ATOM     11  C   UNL     1      11.876  20.889  22.469  1.00  0.00    -0.003 C 
ATOM     12  C   UNL     1      11.801  20.145  23.802  1.00  0.00     0.004 C 
ENDBRANCH  10  11
ENDBRANCH   9  10
ENDBRANCH   8   9
ENDBRANCH   7   8
ENDBRANCH   6   7
ENDBRANCH   5   6
ENDBRANCH   4   5
ENDBRANCH   3   4
ENDBRANCH   2   3
ENDBRANCH   1   2
BRANCH   1  13
ATOM     13  C   UNL     1      18.264  19.875  15.434  1.00  0.00     0.000 C 
BRANCH  13  14
ATOM     14  C   UNL     1      19.760  19.995  15.770  1.00  0.00     0.000 C 
BRANCH  14  15
ATOM     15  C   UNL     1      20.623  19.926  14.503  1.00  0.00     0.000 C 
BRANCH  15  16
ATOM     16  C   UNL     1      21.918  20.734  14.681  1.00  0.00     0.000 C 
BRANCH  16  17
ATOM     17  C   UNL     1      23.069  19.892  15.261  1.00  0.00     0.000 C 
BRANCH  17  18
ATOM     18  C   UNL     1      24.105  20.753  16.006  1.00  0.00     0.000 C 
BRANCH  18  19
ATOM     19  C   UNL     1      25.340  19.944  16.433  1.00  0.00     0.000 C 
BRANCH  19  20
ATOM     20  C   UNL     1      26.632  20.781  16.399  1.00  0.00     0.006 C 
BRANCH  20  21
ATOM     21  C   UNL     1      27.761  20.075  15.638  1.00  0.00     0.053 C 
BRANCH  21  22
ATOM     22  C   UNL     1      28.182  20.847  14.424  1.00  0.00     0.041 C 
ATOM     23  O   UNL     1      28.252  20.276  13.304  1.00  0.00    -0.550 OA
ATOM     24  O   UNL     1      28.520  22.189  14.535  1.00  0.00    -0.550 OA
ENDBRANCH  21  22
ENDBRANCH  20  21
ENDBRANCH  19  20
ENDBRANCH  18  19
ENDBRANCH  17  18
ENDBRANCH  16  17
ENDBRANCH  15  16
ENDBRANCH  14  15
ENDBRANCH  13  14
ENDBRANCH   1  13
TORSDOF 20
ENDMDL
MODEL 3
REMARK VINA RESULT:     1.493      6.030     14.113
REMARK INTER + INTRA:           2.638
REMARK INTER:                   3.166
REMARK INTRA:                  -0.528
REMARK UNBOUND:                -0.599
REMARK SMILES CCCCCCCCCCCCCCCCCCCCCC(=O)[O-]
REMARK SMILES IDX 12 1 11 2 10 3 9 4 8 5 7 6 6 7 5 8 4 9 3 10 2 11 1 12 13 13
REMARK SMILES IDX 14 14 15 15 16 16 17 17 18 18 19 19 20 20 21 21 22 22 23 23
REMARK SMILES IDX 24 24
REMARK H PARENT
REMARK Flexibility Score: inf
ROOT
ATOM      1  C   UNL     1      18.700  20.728  15.936  1.00  0.00     0.000 C 
ENDROOT
BRANCH   1   2
ATOM      2  C   UNL     1      19.973  19.875  15.811  1.00  0.00     0.000 C 
BRANCH   2   3
ATOM      3  C   UNL     1      20.664  20.068  14.451  1.00  0.00     0.000 C 
BRANCH   3   4
ATOM      4  C   UNL     1      22.189  19.887  14.547  1.00  0.00    -0.000 C 
BRANCH   4   5
ATOM      5  C   UNL     1      22.827  20.827  15.584  1.00  0.00    -0.000 C 
BRANCH   5   6
ATOM      6  C   UNL     1      24.085  20.213  16.222  1.00  0.00    -0.000 C 
BRANCH   6   7
ATOM      7  C   UNL     1      25.208  19.961  15.205  1.00  0.00    -0.000 C 
BRANCH   7   8
ATOM      8  C   UNL     1      26.520  20.669  15.577  1.00  0.00    -0.000 C 
BRANCH   8   9
ATOM      9  C   UNL     1      27.622  20.365  14.553  1.00  0.00    -0.000 C 
BRANCH   9  10
ATOM     10  C   UNL     1      27.019  20.014  13.184  1.00  0.00    -0.000 C 
BRANCH  10  11
ATOM     11  C   UNL     1      27.982  20.303  12.023  1.00  0.00    -0.003 C 
ATOM     12  C   UNL     1      28.565  21.715  12.072  1.00  0.00     0.004 C 
ENDBRANCH  10  11
ENDBRANCH   9  10
ENDBRANCH   8   9
ENDBRANCH   7   8
ENDBRANCH   6   7
ENDBRANCH   5   6
ENDBRANCH   4   5
ENDBRANCH   3   4
ENDBRANCH   2   3
ENDBRANCH   1   2
BRANCH   1  13
ATOM     13  C   UNL     1      17.429  19.876  16.079  1.00  0.00     0.000 C 
BRANCH  13  14
ATOM     14  C   UNL     1      16.386  20.527  17.002  1.00  0.00     0.000 C 
BRANCH  14  15
ATOM     15  C   UNL     1      14.962  20.318  16.468  1.00  0.00     0.000 C 
BRANCH  15  16
ATOM     16  C   UNL     1      13.997  19.965  17.611  1.00  0.00     0.000 C 
BRANCH  16  17
ATOM     17  C   UNL     1      12.580  20.519  17.385  1.00  0.00     0.000 C 
BRANCH  17  18
ATOM     18  C   UNL     1      11.933  21.020  18.689  1.00  0.00     0.000 C 
BRANCH  18  19
ATOM     19  C   UNL     1      11.721  19.890  19.710  1.00  0.00     0.000 C 
BRANCH  19  20
ATOM     20  C   UNL     1      12.800  19.877  20.807  1.00  0.00     0.006 C 
BRANCH  20  21
ATOM     21  C   UNL     1      12.224  20.196  22.193  1.00  0.00     0.053 C 
BRANCH  21  22
ATOM     22  C   UNL     1      11.459  21.485  22.195  1.00  0.00     0.041 C 
ATOM     23  O   UNL     1      10.251  21.505  21.840  1.00  0.00    -0.550 OA
ATOM     24  O   UNL     1      12.087  22.667  22.566  1.00  0.00    -0.550 OA
ENDBRANCH  21  22
ENDBRANCH  20  21
ENDBRANCH  19  20
ENDBRANCH  18  19
ENDBRANCH  17  18
ENDBRANCH  16  17
ENDBRANCH  15  16
ENDBRANCH  14  15
ENDBRANCH  13  14
ENDBRANCH   1  13
TORSDOF 20
ENDMDL
MODEL 4
REMARK VINA RESULT:     3.209      1.810      5.813
REMARK INTER + INTRA:           6.363
REMARK INTER:                   7.130
REMARK INTRA:                  -0.767
REMARK UNBOUND:                -0.599
REMARK SMILES CCCCCCCCCCCCCCCCCCCCCC(=O)[O-]
REMARK SMILES IDX 12 1 11 2 10 3 9 4 8 5 7 6 6 7 5 8 4 9 3 10 2 11 1 12 13 13
REMARK SMILES IDX 14 14 15 15 16 16 17 17 18 18 19 19 20 20 21 21 22 22 23 23
REMARK SMILES IDX 24 24
REMARK H PARENT
REMARK Flexibility Score: inf
ROOT
ATOM      1  C   UNL     1      14.854  20.379  16.136  1.00  0.00     0.000 C 
ENDROOT
BRANCH   1   2
ATOM      2  C   UNL     1      13.743  19.925  17.096  1.00  0.00     0.000 C 
BRANCH   2   3
ATOM      3  C   UNL     1      12.644  20.991  17.252  1.00  0.00     0.000 C 
BRANCH   3   4
ATOM      4  C   UNL     1      11.242  20.366  17.337  1.00  0.00    -0.000 C 
BRANCH   4   5
ATOM      5  C   UNL     1      10.378  21.011  18.434  1.00  0.00    -0.000 C 
BRANCH   5   6
ATOM      6  C   UNL     1      10.300  20.136  19.696  1.00  0.00    -0.000 C 
BRANCH   6   7
ATOM      7  C   UNL     1      11.440  20.413  20.688  1.00  0.00    -0.000 C 
BRANCH   7   8
ATOM      8  C   UNL     1      11.013  21.321  21.851  1.00  0.00    -0.000 C 
BRANCH   8   9
ATOM      9  C   UNL     1      10.158  22.493  21.353  1.00  0.00    -0.000 C 
BRANCH   9  10
ATOM     10  C   UNL     1      11.036  23.584  20.720  1.00  0.00    -0.000 C 
BRANCH  10  11
ATOM     11  C   UNL     1      10.210  24.710  20.081  1.00  0.00    -0.003 C 
ATOM     12  C   UNL     1       9.922  24.467  18.599  1.00  0.00     0.004 C 
ENDBRANCH  10  11
ENDBRANCH   9  10
ENDBRANCH   8   9
ENDBRANCH   7   8
ENDBRANCH   6   7
ENDBRANCH   5   6
ENDBRANCH   4   5
ENDBRANCH   3   4
ENDBRANCH   2   3
ENDBRANCH   1   2
BRANCH   1  13
ATOM     13  C   UNL     1      16.201  20.587  16.845  1.00  0.00     0.000 C 
BRANCH  13  14
ATOM     14  C   UNL     1      17.360  19.877  16.125  1.00  0.00     0.000 C 
BRANCH  14  15
ATOM     15  C   UNL     1      18.608  20.768  16.066  1.00  0.00     0.000 C 
BRANCH  15  16
ATOM     16  C   UNL     1      19.885  19.915  16.012  1.00  0.00     0.000 C 
BRANCH  16  17
ATOM     17  C   UNL     1      20.818  20.314  14.855  1.00  0.00     0.000 C 
BRANCH  17  18
ATOM     18  C   UNL     1      22.289  19.968  15.145  1.00  0.00     0.000 C 
BRANCH  18  19
ATOM     19  C   UNL     1      23.256  20.646  14.160  1.00  0.00     0.000 C 
BRANCH  19  20
ATOM     20  C   UNL     1      24.580  19.876  14.010  1.00  0.00     0.006 C 
BRANCH  20  21
ATOM     21  C   UNL     1      25.681  20.429  14.924  1.00  0.00     0.053 C 
BRANCH  21  22
ATOM     22  C   UNL     1      26.943  20.713  14.167  1.00  0.00     0.041 C 
ATOM     23  O   UNL     1      28.011  20.962  14.786  1.00  0.00    -0.550 OA
ATOM     24  O   UNL     1      26.933  20.728  12.778  1.00  0.00    -0.550 OA
ENDBRANCH  21  22
ENDBRANCH  20  21
ENDBRANCH  19  20
ENDBRANCH  18  19
ENDBRANCH  17  18
ENDBRANCH  16  17
ENDBRANCH  15  16
ENDBRANCH  14  15
ENDBRANCH  13  14
ENDBRANCH   1  13
TORSDOF 20
ENDMDL
MODEL 5
REMARK VINA RESULT:     3.360      2.413      5.661
REMARK INTER + INTRA:           6.690
REMARK INTER:                   5.806
REMARK INTRA:                   0.884
REMARK UNBOUND:                -0.599
REMARK SMILES CCCCCCCCCCCCCCCCCCCCCC(=O)[O-]
REMARK SMILES IDX 12 1 11 2 10 3 9 4 8 5 7 6 6 7 5 8 4 9 3 10 2 11 1 12 13 13
REMARK SMILES IDX 14 14 15 15 16 16 17 17 18 18 19 19 20 20 21 21 22 22 23 23
REMARK SMILES IDX 24 24
REMARK H PARENT
REMARK Flexibility Score: inf
ROOT
ATOM      1  C   UNL     1      15.252  21.197  15.821  1.00  0.00     0.000 C 
ENDROOT
BRANCH   1   2
ATOM      2  C   UNL     1      14.390  20.994  17.077  1.00  0.00     0.000 C 
BRANCH   2   3
ATOM      3  C   UNL     1      14.971  19.914  18.006  1.00  0.00     0.000 C 
BRANCH   3   4
ATOM      4  C   UNL     1      14.314  19.934  19.397  1.00  0.00    -0.000 C 
BRANCH   4   5
ATOM      5  C   UNL     1      12.779  19.879  19.322  1.00  0.00    -0.000 C 
BRANCH   5   6
ATOM      6  C   UNL     1      12.218  20.841  18.261  1.00  0.00    -0.000 C 
BRANCH   6   7
ATOM      7  C   UNL     1      10.720  21.129  18.447  1.00  0.00    -0.000 C 
BRANCH   7   8
ATOM      8  C   UNL     1      10.023  21.537  17.140  1.00  0.00    -0.000 C 
BRANCH   8   9
ATOM      9  C   UNL     1      10.110  23.052  16.917  1.00  0.00    -0.000 C 
BRANCH   9  10
ATOM     10  C   UNL     1      10.578  23.372  15.488  1.00  0.00    -0.000 C 
BRANCH  10  11
ATOM     11  C   UNL     1      10.778  22.110  14.636  1.00  0.00    -0.003 C 
ATOM     12  C   UNL     1      12.211  21.580  14.689  1.00  0.00     0.004 C 
ENDBRANCH  10  11
ENDBRANCH   9  10
ENDBRANCH   8   9
ENDBRANCH   7   8
ENDBRANCH   6   7
ENDBRANCH   5   6
ENDBRANCH   4   5
ENDBRANCH   3   4
ENDBRANCH   2   3
ENDBRANCH   1   2
BRANCH   1  13
ATOM     13  C   UNL     1      16.755  21.233  16.135  1.00  0.00     0.000 C 
BRANCH  13  14
ATOM     14  C   UNL     1      17.439  19.876  15.897  1.00  0.00     0.000 C 
BRANCH  14  15
ATOM     15  C   UNL     1      18.910  19.908  16.335  1.00  0.00     0.000 C 
BRANCH  15  16
ATOM     16  C   UNL     1      19.842  19.928  15.114  1.00  0.00     0.000 C 
BRANCH  16  17
ATOM     17  C   UNL     1      21.260  20.419  15.455  1.00  0.00     0.000 C 
BRANCH  17  18
ATOM     18  C   UNL     1      22.318  19.876  14.479  1.00  0.00     0.000 C 
BRANCH  18  19
ATOM     19  C   UNL     1      23.644  20.648  14.562  1.00  0.00     0.000 C 
BRANCH  19  20
ATOM     20  C   UNL     1      24.587  20.085  15.641  1.00  0.00     0.006 C 
BRANCH  20  21
ATOM     21  C   UNL     1      25.548  21.150  16.186  1.00  0.00     0.053 C 
BRANCH  21  22
ATOM     22  C   UNL     1      26.938  20.613  16.352  1.00  0.00     0.041 C 
ATOM     23  O   UNL     1      27.704  20.523  15.357  1.00  0.00    -0.550 OA
ATOM     24  O   UNL     1      27.376  20.190  17.600  1.00  0.00    -0.550 OA
ENDBRANCH  21  22
ENDBRANCH  20  21
ENDBRANCH  19  20
ENDBRANCH  18  19
ENDBRANCH  17  18
ENDBRANCH  16  17
ENDBRANCH  15  16
ENDBRANCH  14  15
ENDBRANCH  13  14
ENDBRANCH   1  13
TORSDOF 20
ENDMDL
MODEL 6
REMARK VINA RESULT:     3.555      6.104     14.222
REMARK INTER + INTRA:           7.111
REMARK INTER:                   8.076
REMARK INTRA:                  -0.965
REMARK UNBOUND:                -0.599
REMARK SMILES CCCCCCCCCCCCCCCCCCCCCC(=O)[O-]
REMARK SMILES IDX 12 1 11 2 10 3 9 4 8 5 7 6 6 7 5 8 4 9 3 10 2 11 1 12 13 13
REMARK SMILES IDX 14 14 15 15 16 16 17 17 18 18 19 19 20 20 21 21 22 22 23 23
REMARK SMILES IDX 24 24
REMARK H PARENT
REMARK Flexibility Score: inf
ROOT
ATOM      1  C   UNL     1      15.957  21.117  17.055  1.00  0.00     0.000 C 
ENDROOT
BRANCH   1   2
ATOM      2  C   UNL     1      16.719  19.875  16.567  1.00  0.00     0.000 C 
BRANCH   2   3
ATOM      3  C   UNL     1      17.805  20.233  15.538  1.00  0.00     0.000 C 
BRANCH   3   4
ATOM      4  C   UNL     1      19.215  19.875  16.038  1.00  0.00    -0.000 C 
BRANCH   4   5
ATOM      5  C   UNL     1      20.315  20.307  15.053  1.00  0.00    -0.000 C 
BRANCH   5   6
ATOM      6  C   UNL     1      21.497  20.982  15.769  1.00  0.00    -0.000 C 
BRANCH   6   7
ATOM      7  C   UNL     1      22.855  20.380  15.376  1.00  0.00    -0.000 C 
BRANCH   7   8
ATOM      8  C   UNL     1      24.020  20.940  16.208  1.00  0.00    -0.000 C 
BRANCH   8   9
ATOM      9  C   UNL     1      25.220  19.984  16.194  1.00  0.00    -0.000 C 
BRANCH   9  10
ATOM     10  C   UNL     1      26.138  20.271  14.995  1.00  0.00    -0.000 C 
BRANCH  10  11
ATOM     11  C   UNL     1      27.499  20.843  15.418  1.00  0.00    -0.003 C 
ATOM     12  C   UNL     1      27.962  20.327  16.780  1.00  0.00     0.004 C 
ENDBRANCH  10  11
ENDBRANCH   9  10
ENDBRANCH   8   9
ENDBRANCH   7   8
ENDBRANCH   6   7
ENDBRANCH   5   6
ENDBRANCH   4   5
ENDBRANCH   3   4
ENDBRANCH   2   3
ENDBRANCH   1   2
BRANCH   1  13
ATOM     13  C   UNL     1      14.433  20.920  17.039  1.00  0.00     0.000 C 
BRANCH  13  14
ATOM     14  C   UNL     1      13.871  20.806  15.612  1.00  0.00     0.000 C 
BRANCH  14  15
ATOM     15  C   UNL     1      13.311  22.149  15.124  1.00  0.00     0.000 C 
BRANCH  15  16
ATOM     16  C   UNL     1      11.986  22.476  15.829  1.00  0.00     0.000 C 
BRANCH  16  17
ATOM     17  C   UNL     1      11.047  21.261  15.925  1.00  0.00     0.000 C 
BRANCH  17  18
ATOM     18  C   UNL     1       9.880  21.498  16.899  1.00  0.00     0.000 C 
BRANCH  18  19
ATOM     19  C   UNL     1      10.018  20.678  18.192  1.00  0.00     0.000 C 
BRANCH  19  20
ATOM     20  C   UNL     1      10.449  21.540  19.392  1.00  0.00     0.006 C 
BRANCH  20  21
ATOM     21  C   UNL     1      10.406  20.760  20.713  1.00  0.00     0.053 C 
BRANCH  21  22
ATOM     22  C   UNL     1      10.977  21.554  21.848  1.00  0.00     0.041 C 
ATOM     23  O   UNL     1      10.980  22.812  21.802  1.00  0.00    -0.550 OA
ATOM     24  O   UNL     1      11.528  20.904  22.946  1.00  0.00    -0.550 OA
ENDBRANCH  21  22
ENDBRANCH  20  21
ENDBRANCH  19  20
ENDBRANCH  18  19
ENDBRANCH  17  18
ENDBRANCH  16  17
ENDBRANCH  15  16
ENDBRANCH  14  15
ENDBRANCH  13  14
ENDBRANCH   1  13
TORSDOF 20
ENDMDL
