MODEL 1
REMARK VINA RESULT:     1.836      0.000      0.000
REMARK INTER + INTRA:           5.497
REMARK INTER:                   3.554
REMARK INTRA:                   1.943
REMARK UNBOUND:                 1.943
REMARK SMILES CCCCCCCCCCCCCCCCCC(=O)[O-]
REMARK SMILES IDX 10 1 11 2 12 3 13 4 14 5 15 6 16 7 17 8 18 9 19 10 20 11
REMARK SMILES IDX 9 12 8 13 7 14 6 15 5 16 4 17 3 18 2 19 1 20
REMARK H PARENT
REMARK Flexibility Score: inf
ROOT
ATOM      1  C   UNL     1      44.288 -24.117  -2.314  1.00  0.00     0.000 C 
ENDROOT
BRANCH   1   2
ATOM      2  C   UNL     1      44.538 -25.622  -2.538  1.00  0.00     0.000 C 
BRANCH   2   3
ATOM      3  C   UNL     1      45.948 -25.986  -3.044  1.00  0.00     0.000 C 
BRANCH   3   4
ATOM      4  C   UNL     1      46.092 -26.037  -4.575  1.00  0.00     0.000 C 
BRANCH   4   5
ATOM      5  C   UNL     1      46.119 -24.639  -5.217  1.00  0.00     0.000 C 
BRANCH   5   6
ATOM      6  C   UNL     1      45.124 -24.503  -6.379  1.00  0.00     0.000 C 
BRANCH   6   7
ATOM      7  C   UNL     1      45.743 -24.881  -7.734  1.00  0.00     0.006 C 
BRANCH   7   8
ATOM      8  C   UNL     1      46.117 -23.630  -8.535  1.00  0.00     0.053 C 
BRANCH   8   9
ATOM      9  C   UNL     1      45.897 -22.397  -7.717  1.00  0.00     0.041 C 
ATOM     10  O   UNL     1      46.071 -21.259  -8.229  1.00  0.00    -0.550 OA
ATOM     11  O   UNL     1      45.456 -22.502  -6.404  1.00  0.00    -0.550 OA
ENDBRANCH   8   9
ENDBRANCH   7   8
ENDBRANCH   6   7
ENDBRANCH   5   6
ENDBRANCH   4   5
ENDBRANCH   3   4
ENDBRANCH   2   3
ENDBRANCH   1   2
BRANCH   1  12
ATOM     12  C   UNL     1      43.687 -23.752  -0.945  1.00  0.00     0.000 C 
BRANCH  12  13
ATOM     13  C   UNL     1      44.477 -22.649  -0.220  1.00  0.00    -0.000 C 
BRANCH  13  14
ATOM     14  C   UNL     1      45.941 -23.043   0.029  1.00  0.00    -0.000 C 
BRANCH  14  15
ATOM     15  C   UNL     1      46.111 -23.954   1.257  1.00  0.00    -0.000 C 
BRANCH  15  16
ATOM     16  C   UNL     1      46.125 -25.446   0.885  1.00  0.00    -0.000 C 
BRANCH  16  17
ATOM     17  C   UNL     1      45.360 -26.313   1.900  1.00  0.00    -0.000 C 
BRANCH  17  18
ATOM     18  C   UNL     1      45.924 -26.194   3.323  1.00  0.00    -0.000 C 
BRANCH  18  19
ATOM     19  C   UNL     1      45.595 -27.418   4.192  1.00  0.00    -0.003 C 
ATOM     20  C   UNL     1      45.995 -28.713   3.490  1.00  0.00     0.004 C 
ENDBRANCH  18  19
ENDBRANCH  17  18
ENDBRANCH  16  17
ENDBRANCH  15  16
ENDBRANCH  14  15
ENDBRANCH  13  14
ENDBRANCH  12  13
ENDBRANCH   1  12
TORSDOF 16
ENDMDL
MODEL 2
REMARK VINA RESULT:     2.870      4.260      9.234
REMARK INTER + INTRA:           7.497
REMARK INTER:                   7.882
REMARK INTRA:                  -0.385
REMARK UNBOUND:                 1.943
REMARK SMILES CCCCCCCCCCCCCCCCCC(=O)[O-]
REMARK SMILES IDX 10 1 11 2 12 3 13 4 14 5 15 6 16 7 17 8 18 9 19 10 20 11
REMARK SMILES IDX 9 12 8 13 7 14 6 15 5 16 4 17 3 18 2 19 1 20
REMARK H PARENT
REMARK Flexibility Score: inf
ROOT
ATOM      1  C   UNL     1      45.889 -24.151  -1.507  1.00  0.00     0.000 C 
ENDROOT
BRANCH   1   2
ATOM      2  C   UNL     1      44.939 -23.732  -0.367  1.00  0.00     0.000 C 
BRANCH   2   3
ATOM      3  C   UNL     1      45.160 -24.460   0.974  1.00  0.00     0.000 C 
BRANCH   3   4
ATOM      4  C   UNL     1      45.090 -25.995   0.895  1.00  0.00     0.000 C 
BRANCH   4   5
ATOM      5  C   UNL     1      46.088 -26.685   1.841  1.00  0.00     0.000 C 
BRANCH   5   6
ATOM      6  C   UNL     1      45.491 -26.964   3.229  1.00  0.00     0.000 C 
BRANCH   6   7
ATOM      7  C   UNL     1      44.995 -28.411   3.379  1.00  0.00     0.006 C 
BRANCH   7   8
ATOM      8  C   UNL     1      45.128 -29.176   2.058  1.00  0.00     0.053 C 
BRANCH   8   9
ATOM      9  C   UNL     1      45.650 -30.556   2.300  1.00  0.00     0.041 C 
ATOM     10  O   UNL     1      46.104 -30.872   3.432  1.00  0.00    -0.550 OA
ATOM     11  O   UNL     1      45.593 -31.509   1.290  1.00  0.00    -0.550 OA
ENDBRANCH   8   9
ENDBRANCH   7   8
ENDBRANCH   6   7
ENDBRANCH   5   6
ENDBRANCH   4   5
ENDBRANCH   3   4
ENDBRANCH   2   3
ENDBRANCH   1   2
BRANCH   1  12
ATOM     12  C   UNL     1      45.396 -23.810  -2.924  1.00  0.00     0.000 C 
BRANCH  12  13
ATOM     13  C   UNL     1      44.430 -24.864  -3.491  1.00  0.00    -0.000 C 
BRANCH  13  14
ATOM     14  C   UNL     1      44.850 -25.358  -4.883  1.00  0.00    -0.000 C 
BRANCH  14  15
ATOM     15  C   UNL     1      45.835 -24.404  -5.580  1.00  0.00    -0.000 C 
BRANCH  15  16
ATOM     16  C   UNL     1      45.336 -23.947  -6.960  1.00  0.00    -0.000 C 
BRANCH  16  17
ATOM     17  C   UNL     1      45.756 -24.908  -8.086  1.00  0.00    -0.000 C 
BRANCH  17  18
ATOM     18  C   UNL     1      46.014 -26.335  -7.580  1.00  0.00    -0.000 C 
BRANCH  18  19
ATOM     19  C   UNL     1      45.440 -27.406  -8.521  1.00  0.00    -0.003 C 
ATOM     20  C   UNL     1      45.307 -28.749  -7.809  1.00  0.00     0.004 C 
ENDBRANCH  18  19
ENDBRANCH  17  18
ENDBRANCH  16  17
ENDBRANCH  15  16
ENDBRANCH  14  15
ENDBRANCH  13  14
ENDBRANCH  12  13
ENDBRANCH   1  12
TORSDOF 16
ENDMDL
MODEL 3
REMARK VINA RESULT:     3.403      6.025     11.031
REMARK INTER + INTRA:           8.529
REMARK INTER:                   8.437
REMARK INTRA:                   0.092
REMARK UNBOUND:                 1.943
REMARK SMILES CCCCCCCCCCCCCCCCCC(=O)[O-]
REMARK SMILES IDX 10 1 11 2 12 3 13 4 14 5 15 6 16 7 17 8 18 9 19 10 20 11
REMARK SMILES IDX 9 12 8 13 7 14 6 15 5 16 4 17 3 18 2 19 1 20
REMARK H PARENT
REMARK Flexibility Score: inf
ROOT
ATOM      1  C   UNL     1      44.046 -25.246   2.707  1.00  0.00     0.000 C 
ENDROOT
BRANCH   1   2
ATOM      2  C   UNL     1      44.837 -26.558   2.530  1.00  0.00     0.000 C 
BRANCH   2   3
ATOM      3  C   UNL     1      44.279 -27.771   3.300  1.00  0.00     0.000 C 
BRANCH   3   4
ATOM      4  C   UNL     1      45.055 -29.083   3.089  1.00  0.00     0.000 C 
BRANCH   4   5
ATOM      5  C   UNL     1      46.125 -29.321   4.170  1.00  0.00     0.000 C 
BRANCH   5   6
ATOM      6  C   UNL     1      45.605 -29.039   5.588  1.00  0.00     0.000 C 
BRANCH   6   7
ATOM      7  C   UNL     1      46.119 -30.056   6.618  1.00  0.00     0.006 C 
BRANCH   7   8
ATOM      8  C   UNL     1      44.995 -30.495   7.563  1.00  0.00     0.053 C 
BRANCH   8   9
ATOM      9  C   UNL     1      45.431 -30.379   8.989  1.00  0.00     0.041 C 
ATOM     10  O   UNL     1      46.050 -31.327   9.541  1.00  0.00    -0.550 OA
ATOM     11  O   UNL     1      45.193 -29.207   9.696  1.00  0.00    -0.550 OA
ENDBRANCH   8   9
ENDBRANCH   7   8
ENDBRANCH   6   7
ENDBRANCH   5   6
ENDBRANCH   4   5
ENDBRANCH   3   4
ENDBRANCH   2   3
ENDBRANCH   1   2
BRANCH   1  12
ATOM     12  C   UNL     1      44.751 -23.984   2.179  1.00  0.00     0.000 C 
BRANCH  12  13
ATOM     13  C   UNL     1      45.866 -24.301   1.168  1.00  0.00    -0.000 C 
BRANCH  13  14
ATOM     14  C   UNL     1      45.422 -25.315   0.103  1.00  0.00    -0.000 C 
BRANCH  14  15
ATOM     15  C   UNL     1      45.076 -24.650  -1.241  1.00  0.00    -0.000 C 
BRANCH  15  16
ATOM     16  C   UNL     1      45.112 -25.643  -2.414  1.00  0.00    -0.000 C 
BRANCH  16  17
ATOM     17  C   UNL     1      46.068 -25.197  -3.534  1.00  0.00    -0.000 C 
BRANCH  17  18
ATOM     18  C   UNL     1      45.496 -24.048  -4.378  1.00  0.00    -0.000 C 
BRANCH  18  19
ATOM     19  C   UNL     1      46.026 -24.056  -5.820  1.00  0.00    -0.003 C 
ATOM     20  C   UNL     1      45.597 -22.797  -6.569  1.00  0.00     0.004 C 
ENDBRANCH  18  19
ENDBRANCH  17  18
ENDBRANCH  16  17
ENDBRANCH  15  16
ENDBRANCH  14  15
ENDBRANCH  13  14
ENDBRANCH  12  13
ENDBRANCH   1  12
TORSDOF 16
ENDMDL
