MODEL 1
REMARK VINA RESULT:    -4.739      0.000      0.000
REMARK INTER + INTRA:         -15.565
REMARK INTER:                 -12.496
REMARK INTRA:                  -3.069
REMARK UNBOUND:                -3.069
REMARK SMILES CCCCCCCCCCCCCCCCCCCCCCCCCCCCCC(=O)[O-]
REMARK SMILES IDX 16 1 17 2 18 3 19 4 20 5 21 6 22 7 23 8 24 9 25 10 26 11
REMARK SMILES IDX 27 12 28 13 29 14 30 15 31 16 32 17 15 18 14 19 13 20 12 21
REMARK SMILES IDX 11 22 10 23 9 24 8 25 7 26 6 27 5 28 4 29 3 30 2 31 1 32
REMARK H PARENT
REMARK Flexibility Score: inf
ROOT
ATOM      1  C   UNL     1      23.304 -14.869  26.401  1.00  0.00     0.000 C 
ENDROOT
BRANCH   1   2
ATOM      2  C   UNL     1      22.791 -16.312  26.268  1.00  0.00     0.000 C 
BRANCH   2   3
ATOM      3  C   UNL     1      22.159 -16.837  27.568  1.00  0.00     0.000 C 
BRANCH   3   4
ATOM      4  C   UNL     1      21.729 -15.706  28.514  1.00  0.00     0.000 C 
BRANCH   4   5
ATOM      5  C   UNL     1      20.645 -16.148  29.511  1.00  0.00     0.000 C 
BRANCH   5   6
ATOM      6  C   UNL     1      19.550 -15.086  29.718  1.00  0.00     0.000 C 
BRANCH   6   7
ATOM      7  C   UNL     1      18.800 -15.217  31.062  1.00  0.00     0.000 C 
BRANCH   7   8
ATOM      8  C   UNL     1      19.583 -16.043  32.098  1.00  0.00     0.000 C 
BRANCH   8   9
ATOM      9  C   UNL     1      18.645 -16.850  33.023  1.00  0.00     0.000 C 
BRANCH   9  10
ATOM     10  C   UNL     1      17.839 -17.933  32.286  1.00  0.00     0.000 C 
BRANCH  10  11
ATOM     11  C   UNL     1      16.327 -17.823  32.541  1.00  0.00     0.000 C 
BRANCH  11  12
ATOM     12  C   UNL     1      15.655 -16.719  31.704  1.00  0.00     0.000 C 
BRANCH  12  13
ATOM     13  C   UNL     1      14.312 -17.111  31.052  1.00  0.00     0.006 C 
BRANCH  13  14
ATOM     14  C   UNL     1      13.090 -16.354  31.597  1.00  0.00     0.053 C 
BRANCH  14  15
ATOM     15  C   UNL     1      12.010 -16.213  30.570  1.00  0.00     0.041 C 
ATOM     16  O   UNL     1      11.644 -17.210  29.892  1.00  0.00    -0.550 OA
ATOM     17  O   UNL     1      11.388 -14.985  30.378  1.00  0.00    -0.550 OA
ENDBRANCH  14  15
ENDBRANCH  13  14
ENDBRANCH  12  13
ENDBRANCH  11  12
ENDBRANCH  10  11
ENDBRANCH   9  10
ENDBRANCH   8   9
ENDBRANCH   7   8
ENDBRANCH   6   7
ENDBRANCH   5   6
ENDBRANCH   4   5
ENDBRANCH   3   4
ENDBRANCH   2   3
ENDBRANCH   1   2
BRANCH   1  18
ATOM     18  C   UNL     1      24.837 -14.719  26.367  1.00  0.00     0.000 C 
BRANCH  18  19
ATOM     19  C   UNL     1      25.599 -16.062  26.361  1.00  0.00     0.000 C 
BRANCH  19  20
ATOM     20  C   UNL     1      26.627 -16.148  25.219  1.00  0.00     0.000 C 
BRANCH  20  21
ATOM     21  C   UNL     1      26.487 -17.444  24.403  1.00  0.00     0.000 C 
BRANCH  21  22
ATOM     22  C   UNL     1      26.582 -18.701  25.287  1.00  0.00     0.000 C 
BRANCH  22  23
ATOM     23  C   UNL     1      27.664 -19.683  24.811  1.00  0.00     0.000 C 
BRANCH  23  24
ATOM     24  C   UNL     1      28.909 -18.975  24.249  1.00  0.00    -0.000 C 
BRANCH  24  25
ATOM     25  C   UNL     1      29.939 -18.623  25.336  1.00  0.00    -0.000 C 
BRANCH  25  26
ATOM     26  C   UNL     1      30.269 -19.818  26.248  1.00  0.00    -0.000 C 
BRANCH  26  27
ATOM     27  C   UNL     1      30.402 -19.417  27.728  1.00  0.00    -0.000 C 
BRANCH  27  28
ATOM     28  C   UNL     1      29.353 -18.403  28.231  1.00  0.00    -0.000 C 
BRANCH  28  29
ATOM     29  C   UNL     1      28.095 -19.025  28.865  1.00  0.00    -0.000 C 
BRANCH  29  30
ATOM     30  C   UNL     1      26.917 -18.039  28.941  1.00  0.00    -0.000 C 
BRANCH  30  31
ATOM     31  C   UNL     1      25.553 -18.744  28.869  1.00  0.00    -0.003 C 
ATOM     32  C   UNL     1      25.423 -19.880  29.884  1.00  0.00     0.004 C 
ENDBRANCH  30  31
ENDBRANCH  29  30
ENDBRANCH  28  29
ENDBRANCH  27  28
ENDBRANCH  26  27
ENDBRANCH  25  26
ENDBRANCH  24  25
ENDBRANCH  23  24
ENDBRANCH  22  23
ENDBRANCH  21  22
ENDBRANCH  20  21
ENDBRANCH  19  20
ENDBRANCH  18  19
ENDBRANCH   1  18
TORSDOF 28
ENDMDL
MODEL 2
REMARK VINA RESULT:    -4.629      4.010     11.939
REMARK INTER + INTRA:         -15.275
REMARK INTER:                 -11.670
REMARK INTRA:                  -3.605
REMARK UNBOUND:                -3.069
REMARK SMILES CCCCCCCCCCCCCCCCCCCCCCCCCCCCCC(=O)[O-]
REMARK SMILES IDX 16 1 17 2 18 3 19 4 20 5 21 6 22 7 23 8 24 9 25 10 26 11
REMARK SMILES IDX 27 12 28 13 29 14 30 15 31 16 32 17 15 18 14 19 13 20 12 21
REMARK SMILES IDX 11 22 10 23 9 24 8 25 7 26 6 27 5 28 4 29 3 30 2 31 1 32
REMARK H PARENT
REMARK Flexibility Score: inf
ROOT
ATOM      1  C   UNL     1      22.130 -17.897  26.805  1.00  0.00     0.000 C 
ENDROOT
BRANCH   1   2
ATOM      2  C   UNL     1      23.092 -17.100  25.910  1.00  0.00     0.000 C 
BRANCH   2   3
ATOM      3  C   UNL     1      23.158 -15.611  26.290  1.00  0.00     0.000 C 
BRANCH   3   4
ATOM      4  C   UNL     1      24.600 -15.100  26.431  1.00  0.00     0.000 C 
BRANCH   4   5
ATOM      5  C   UNL     1      25.631 -16.240  26.473  1.00  0.00     0.000 C 
BRANCH   5   6
ATOM      6  C   UNL     1      26.632 -16.190  25.306  1.00  0.00     0.000 C 
BRANCH   6   7
ATOM      7  C   UNL     1      26.593 -17.437  24.396  1.00  0.00     0.000 C 
BRANCH   7   8
ATOM      8  C   UNL     1      26.456 -18.746  25.193  1.00  0.00     0.000 C 
BRANCH   8   9
ATOM      9  C   UNL     1      27.655 -19.692  24.963  1.00  0.00     0.000 C 
BRANCH   9  10
ATOM     10  C   UNL     1      28.941 -18.963  24.541  1.00  0.00     0.000 C 
BRANCH  10  11
ATOM     11  C   UNL     1      30.087 -19.148  25.548  1.00  0.00     0.000 C 
BRANCH  11  12
ATOM     12  C   UNL     1      29.611 -19.704  26.904  1.00  0.00     0.000 C 
BRANCH  12  13
ATOM     13  C   UNL     1      29.587 -18.684  28.062  1.00  0.00     0.006 C 
BRANCH  13  14
ATOM     14  C   UNL     1      28.200 -18.094  28.365  1.00  0.00     0.053 C 
BRANCH  14  15
ATOM     15  C   UNL     1      27.279 -19.104  28.976  1.00  0.00     0.041 C 
ATOM     16  O   UNL     1      27.729 -19.981  29.761  1.00  0.00    -0.550 OA
ATOM     17  O   UNL     1      25.917 -19.062  28.700  1.00  0.00    -0.550 OA
ENDBRANCH  14  15
ENDBRANCH  13  14
ENDBRANCH  12  13
ENDBRANCH  11  12
ENDBRANCH  10  11
ENDBRANCH   9  10
ENDBRANCH   8   9
ENDBRANCH   7   8
ENDBRANCH   6   7
ENDBRANCH   5   6
ENDBRANCH   4   5
ENDBRANCH   3   4
ENDBRANCH   2   3
ENDBRANCH   1   2
BRANCH   1  18
ATOM     18  C   UNL     1      22.293 -17.647  28.317  1.00  0.00     0.000 C 
BRANCH  18  19
ATOM     19  C   UNL     1      21.004 -17.163  29.015  1.00  0.00     0.000 C 
BRANCH  19  20
ATOM     20  C   UNL     1      21.031 -15.652  29.313  1.00  0.00     0.000 C 
BRANCH  20  21
ATOM     21  C   UNL     1      19.956 -15.238  30.332  1.00  0.00     0.000 C 
BRANCH  21  22
ATOM     22  C   UNL     1      18.532 -15.526  29.825  1.00  0.00     0.000 C 
BRANCH  22  23
ATOM     23  C   UNL     1      17.586 -15.997  30.941  1.00  0.00     0.000 C 
BRANCH  23  24
ATOM     24  C   UNL     1      18.028 -17.327  31.578  1.00  0.00    -0.000 C 
BRANCH  24  25
ATOM     25  C   UNL     1      18.000 -18.503  30.588  1.00  0.00    -0.000 C 
BRANCH  25  26
ATOM     26  C   UNL     1      16.607 -19.146  30.472  1.00  0.00    -0.000 C 
BRANCH  26  27
ATOM     27  C   UNL     1      15.856 -18.713  29.199  1.00  0.00    -0.000 C 
BRANCH  27  28
ATOM     28  C   UNL     1      14.330 -18.552  29.360  1.00  0.00    -0.000 C 
BRANCH  28  29
ATOM     29  C   UNL     1      13.857 -18.192  30.781  1.00  0.00    -0.000 C 
BRANCH  29  30
ATOM     30  C   UNL     1      14.023 -16.696  31.103  1.00  0.00    -0.000 C 
BRANCH  30  31
ATOM     31  C   UNL     1      12.725 -16.057  31.620  1.00  0.00    -0.003 C 
ATOM     32  C   UNL     1      11.757 -15.696  30.493  1.00  0.00     0.004 C 
ENDBRANCH  30  31
ENDBRANCH  29  30
ENDBRANCH  28  29
ENDBRANCH  27  28
ENDBRANCH  26  27
ENDBRANCH  25  26
ENDBRANCH  24  25
ENDBRANCH  23  24
ENDBRANCH  22  23
ENDBRANCH  21  22
ENDBRANCH  20  21
ENDBRANCH  19  20
ENDBRANCH  18  19
ENDBRANCH   1  18
TORSDOF 28
ENDMDL
MODEL 3
REMARK VINA RESULT:    -4.610      2.480      3.805
REMARK INTER + INTRA:         -15.226
REMARK INTER:                 -12.175
REMARK INTRA:                  -3.051
REMARK UNBOUND:                -3.069
REMARK SMILES CCCCCCCCCCCCCCCCCCCCCCCCCCCCCC(=O)[O-]
REMARK SMILES IDX 16 1 17 2 18 3 19 4 20 5 21 6 22 7 23 8 24 9 25 10 26 11
REMARK SMILES IDX 27 12 28 13 29 14 30 15 31 16 32 17 15 18 14 19 13 20 12 21
REMARK SMILES IDX 11 22 10 23 9 24 8 25 7 26 6 27 5 28 4 29 3 30 2 31 1 32
REMARK H PARENT
REMARK Flexibility Score: inf
ROOT
ATOM      1  C   UNL     1      26.246 -16.093  25.619  1.00  0.00     0.000 C 
ENDROOT
BRANCH   1   2
ATOM      2  C   UNL     1      25.341 -16.252  26.851  1.00  0.00     0.000 C 
BRANCH   2   3
ATOM      3  C   UNL     1      23.947 -16.795  26.495  1.00  0.00     0.000 C 
BRANCH   3   4
ATOM      4  C   UNL     1      22.893 -15.683  26.380  1.00  0.00     0.000 C 
BRANCH   4   5
ATOM      5  C   UNL     1      22.127 -15.454  27.693  1.00  0.00     0.000 C 
BRANCH   5   6
ATOM      6  C   UNL     1      21.839 -16.758  28.457  1.00  0.00     0.000 C 
BRANCH   6   7
ATOM      7  C   UNL     1      20.611 -16.679  29.389  1.00  0.00     0.000 C 
BRANCH   7   8
ATOM      8  C   UNL     1      20.330 -15.246  29.875  1.00  0.00     0.000 C 
BRANCH   8   9
ATOM      9  C   UNL     1      19.122 -15.187  30.836  1.00  0.00     0.000 C 
BRANCH   9  10
ATOM     10  C   UNL     1      19.275 -16.091  32.071  1.00  0.00     0.000 C 
BRANCH  10  11
ATOM     11  C   UNL     1      18.050 -16.992  32.302  1.00  0.00     0.000 C 
BRANCH  11  12
ATOM     12  C   UNL     1      17.478 -17.574  30.996  1.00  0.00     0.000 C 
BRANCH  12  13
ATOM     13  C   UNL     1      16.145 -16.954  30.527  1.00  0.00     0.006 C 
BRANCH  13  14
ATOM     14  C   UNL     1      15.129 -16.693  31.650  1.00  0.00     0.053 C 
BRANCH  14  15
ATOM     15  C   UNL     1      13.721 -16.667  31.142  1.00  0.00     0.041 C 
ATOM     16  O   UNL     1      13.413 -17.292  30.093  1.00  0.00    -0.550 OA
ATOM     17  O   UNL     1      12.741 -15.973  31.842  1.00  0.00    -0.550 OA
ENDBRANCH  14  15
ENDBRANCH  13  14
ENDBRANCH  12  13
ENDBRANCH  11  12
ENDBRANCH  10  11
ENDBRANCH   9  10
ENDBRANCH   8   9
ENDBRANCH   7   8
ENDBRANCH   6   7
ENDBRANCH   5   6
ENDBRANCH   4   5
ENDBRANCH   3   4
ENDBRANCH   2   3
ENDBRANCH   1   2
BRANCH   1  18
ATOM     18  C   UNL     1      27.370 -17.140  25.498  1.00  0.00     0.000 C 
BRANCH  18  19
ATOM     19  C   UNL     1      27.057 -18.285  24.510  1.00  0.00     0.000 C 
BRANCH  19  20
ATOM     20  C   UNL     1      26.580 -19.562  25.225  1.00  0.00     0.000 C 
BRANCH  20  21
ATOM     21  C   UNL     1      27.277 -19.769  26.580  1.00  0.00     0.000 C 
BRANCH  21  22
ATOM     22  C   UNL     1      26.277 -19.797  27.750  1.00  0.00     0.000 C 
BRANCH  22  23
ATOM     23  C   UNL     1      26.956 -19.622  29.117  1.00  0.00     0.000 C 
BRANCH  23  24
ATOM     24  C   UNL     1      26.687 -18.244  29.747  1.00  0.00    -0.000 C 
BRANCH  24  25
ATOM     25  C   UNL     1      27.768 -17.207  29.403  1.00  0.00    -0.000 C 
BRANCH  25  26
ATOM     26  C   UNL     1      29.149 -17.846  29.174  1.00  0.00    -0.000 C 
BRANCH  26  27
ATOM     27  C   UNL     1      30.211 -17.337  30.167  1.00  0.00    -0.000 C 
BRANCH  27  28
ATOM     28  C   UNL     1      29.713 -16.285  31.180  1.00  0.00    -0.000 C 
BRANCH  28  29
ATOM     29  C   UNL     1      30.275 -14.866  30.977  1.00  0.00    -0.000 C 
BRANCH  29  30
ATOM     30  C   UNL     1      29.181 -13.784  30.990  1.00  0.00    -0.000 C 
BRANCH  30  31
ATOM     31  C   UNL     1      29.233 -12.908  32.252  1.00  0.00    -0.003 C 
ATOM     32  C   UNL     1      30.549 -13.056  33.017  1.00  0.00     0.004 C 
ENDBRANCH  30  31
ENDBRANCH  29  30
ENDBRANCH  28  29
ENDBRANCH  27  28
ENDBRANCH  26  27
ENDBRANCH  25  26
ENDBRANCH  24  25
ENDBRANCH  23  24
ENDBRANCH  22  23
ENDBRANCH  21  22
ENDBRANCH  20  21
ENDBRANCH  19  20
ENDBRANCH  18  19
ENDBRANCH   1  18
TORSDOF 28
ENDMDL
MODEL 4
REMARK VINA RESULT:    -4.595      4.619     12.033
REMARK INTER + INTRA:         -15.185
REMARK INTER:                 -12.022
REMARK INTRA:                  -3.163
REMARK UNBOUND:                -3.069
REMARK SMILES CCCCCCCCCCCCCCCCCCCCCCCCCCCCCC(=O)[O-]
REMARK SMILES IDX 16 1 17 2 18 3 19 4 20 5 21 6 22 7 23 8 24 9 25 10 26 11
REMARK SMILES IDX 27 12 28 13 29 14 30 15 31 16 32 17 15 18 14 19 13 20 12 21
REMARK SMILES IDX 11 22 10 23 9 24 8 25 7 26 6 27 5 28 4 29 3 30 2 31 1 32
REMARK H PARENT
REMARK Flexibility Score: inf
ROOT
ATOM      1  C   UNL     1      22.725 -15.852  26.375  1.00  0.00     0.000 C 
ENDROOT
BRANCH   1   2
ATOM      2  C   UNL     1      23.381 -17.226  26.162  1.00  0.00     0.000 C 
BRANCH   2   3
ATOM      3  C   UNL     1      24.838 -17.267  26.652  1.00  0.00     0.000 C 
BRANCH   3   4
ATOM      4  C   UNL     1      25.737 -16.262  25.917  1.00  0.00     0.000 C 
BRANCH   4   5
ATOM      5  C   UNL     1      27.052 -16.891  25.427  1.00  0.00     0.000 C 
BRANCH   5   6
ATOM      6  C   UNL     1      26.844 -18.239  24.714  1.00  0.00     0.000 C 
BRANCH   6   7
ATOM      7  C   UNL     1      28.146 -19.043  24.506  1.00  0.00     0.000 C 
BRANCH   7   8
ATOM      8  C   UNL     1      29.349 -18.418  25.235  1.00  0.00     0.000 C 
BRANCH   8   9
ATOM      9  C   UNL     1      30.255 -19.489  25.882  1.00  0.00     0.000 C 
BRANCH   9  10
ATOM     10  C   UNL     1      30.024 -19.657  27.394  1.00  0.00     0.000 C 
BRANCH  10  11
ATOM     11  C   UNL     1      29.486 -18.379  28.058  1.00  0.00     0.000 C 
BRANCH  11  12
ATOM     12  C   UNL     1      28.055 -18.542  28.603  1.00  0.00     0.000 C 
BRANCH  12  13
ATOM     13  C   UNL     1      27.464 -17.291  29.287  1.00  0.00     0.006 C 
BRANCH  13  14
ATOM     14  C   UNL     1      28.130 -16.915  30.620  1.00  0.00     0.053 C 
BRANCH  14  15
ATOM     15  C   UNL     1      28.977 -15.686  30.500  1.00  0.00     0.041 C 
ATOM     16  O   UNL     1      28.441 -14.545  30.483  1.00  0.00    -0.550 OA
ATOM     17  O   UNL     1      30.360 -15.797  30.433  1.00  0.00    -0.550 OA
ENDBRANCH  14  15
ENDBRANCH  13  14
ENDBRANCH  12  13
ENDBRANCH  11  12
ENDBRANCH  10  11
ENDBRANCH   9  10
ENDBRANCH   8   9
ENDBRANCH   7   8
ENDBRANCH   6   7
ENDBRANCH   5   6
ENDBRANCH   4   5
ENDBRANCH   3   4
ENDBRANCH   2   3
ENDBRANCH   1   2
BRANCH   1  18
ATOM     18  C   UNL     1      22.171 -15.608  27.792  1.00  0.00     0.000 C 
BRANCH  18  19
ATOM     19  C   UNL     1      21.736 -16.895  28.525  1.00  0.00     0.000 C 
BRANCH  19  20
ATOM     20  C   UNL     1      20.513 -16.668  29.432  1.00  0.00     0.000 C 
BRANCH  20  21
ATOM     21  C   UNL     1      20.197 -15.176  29.627  1.00  0.00     0.000 C 
BRANCH  21  22
ATOM     22  C   UNL     1      19.278 -14.929  30.836  1.00  0.00     0.000 C 
BRANCH  22  23
ATOM     23  C   UNL     1      18.393 -16.141  31.168  1.00  0.00     0.000 C 
BRANCH  23  24
ATOM     24  C   UNL     1      18.646 -16.697  32.581  1.00  0.00    -0.000 C 
BRANCH  24  25
ATOM     25  C   UNL     1      17.787 -17.932  32.900  1.00  0.00    -0.000 C 
BRANCH  25  26
ATOM     26  C   UNL     1      17.610 -18.860  31.686  1.00  0.00    -0.000 C 
BRANCH  26  27
ATOM     27  C   UNL     1      16.131 -19.145  31.366  1.00  0.00    -0.000 C 
BRANCH  27  28
ATOM     28  C   UNL     1      15.572 -18.407  30.131  1.00  0.00    -0.000 C 
BRANCH  28  29
ATOM     29  C   UNL     1      14.948 -17.029  30.421  1.00  0.00    -0.000 C 
BRANCH  29  30
ATOM     30  C   UNL     1      14.284 -16.956  31.807  1.00  0.00    -0.000 C 
BRANCH  30  31
ATOM     31  C   UNL     1      12.965 -16.167  31.788  1.00  0.00    -0.003 C 
ATOM     32  C   UNL     1      12.278 -16.203  30.422  1.00  0.00     0.004 C 
ENDBRANCH  30  31
ENDBRANCH  29  30
ENDBRANCH  28  29
ENDBRANCH  27  28
ENDBRANCH  26  27
ENDBRANCH  25  26
ENDBRANCH  24  25
ENDBRANCH  23  24
ENDBRANCH  22  23
ENDBRANCH  21  22
ENDBRANCH  20  21
ENDBRANCH  19  20
ENDBRANCH  18  19
ENDBRANCH   1  18
TORSDOF 28
ENDMDL
MODEL 5
REMARK VINA RESULT:    -4.518      1.196      3.582
REMARK INTER + INTRA:         -14.982
REMARK INTER:                 -11.307
REMARK INTRA:                  -3.675
REMARK UNBOUND:                -3.069
REMARK SMILES CCCCCCCCCCCCCCCCCCCCCCCCCCCCCC(=O)[O-]
REMARK SMILES IDX 16 1 17 2 18 3 19 4 20 5 21 6 22 7 23 8 24 9 25 10 26 11
REMARK SMILES IDX 27 12 28 13 29 14 30 15 31 16 32 17 15 18 14 19 13 20 12 21
REMARK SMILES IDX 11 22 10 23 9 24 8 25 7 26 6 27 5 28 4 29 3 30 2 31 1 32
REMARK H PARENT
REMARK Flexibility Score: inf
ROOT
ATOM      1  C   UNL     1      26.258 -16.146  25.258  1.00  0.00     0.000 C 
ENDROOT
BRANCH   1   2
ATOM      2  C   UNL     1      25.399 -15.733  26.464  1.00  0.00     0.000 C 
BRANCH   2   3
ATOM      3  C   UNL     1      23.964 -16.281  26.383  1.00  0.00     0.000 C 
BRANCH   3   4
ATOM      4  C   UNL     1      22.903 -15.171  26.436  1.00  0.00     0.000 C 
BRANCH   4   5
ATOM      5  C   UNL     1      22.133 -15.150  27.766  1.00  0.00     0.000 C 
BRANCH   5   6
ATOM      6  C   UNL     1      21.752 -16.556  28.263  1.00  0.00     0.000 C 
BRANCH   6   7
ATOM      7  C   UNL     1      20.731 -16.554  29.421  1.00  0.00     0.000 C 
BRANCH   7   8
ATOM      8  C   UNL     1      20.021 -15.197  29.580  1.00  0.00     0.000 C 
BRANCH   8   9
ATOM      9  C   UNL     1      19.332 -15.062  30.955  1.00  0.00     0.000 C 
BRANCH   9  10
ATOM     10  C   UNL     1      19.533 -16.285  31.867  1.00  0.00     0.000 C 
BRANCH  10  11
ATOM     11  C   UNL     1      18.223 -16.771  32.507  1.00  0.00     0.000 C 
BRANCH  11  12
ATOM     12  C   UNL     1      17.010 -16.640  31.566  1.00  0.00     0.000 C 
BRANCH  12  13
ATOM     13  C   UNL     1      15.641 -16.521  32.269  1.00  0.00     0.006 C 
BRANCH  13  14
ATOM     14  C   UNL     1      14.668 -17.673  31.972  1.00  0.00     0.053 C 
BRANCH  14  15
ATOM     15  C   UNL     1      13.287 -17.179  31.666  1.00  0.00     0.041 C 
ATOM     16  O   UNL     1      13.043 -15.943  31.654  1.00  0.00    -0.550 OA
ATOM     17  O   UNL     1      12.275 -18.084  31.368  1.00  0.00    -0.550 OA
ENDBRANCH  14  15
ENDBRANCH  13  14
ENDBRANCH  12  13
ENDBRANCH  11  12
ENDBRANCH  10  11
ENDBRANCH   9  10
ENDBRANCH   8   9
ENDBRANCH   7   8
ENDBRANCH   6   7
ENDBRANCH   5   6
ENDBRANCH   4   5
ENDBRANCH   3   4
ENDBRANCH   2   3
ENDBRANCH   1   2
BRANCH   1  18
ATOM     18  C   UNL     1      27.364 -17.173  25.569  1.00  0.00     0.000 C 
BRANCH  18  19
ATOM     19  C   UNL     1      27.255 -18.479  24.754  1.00  0.00     0.000 C 
BRANCH  19  20
ATOM     20  C   UNL     1      26.249 -19.471  25.367  1.00  0.00     0.000 C 
BRANCH  20  21
ATOM     21  C   UNL     1      26.589 -19.822  26.825  1.00  0.00     0.000 C 
BRANCH  21  22
ATOM     22  C   UNL     1      25.343 -19.821  27.729  1.00  0.00     0.000 C 
BRANCH  22  23
ATOM     23  C   UNL     1      25.334 -18.653  28.727  1.00  0.00     0.000 C 
BRANCH  23  24
ATOM     24  C   UNL     1      26.747 -18.183  29.112  1.00  0.00    -0.000 C 
BRANCH  24  25
ATOM     25  C   UNL     1      26.963 -18.119  30.633  1.00  0.00    -0.000 C 
BRANCH  25  26
ATOM     26  C   UNL     1      28.452 -18.076  31.019  1.00  0.00    -0.000 C 
BRANCH  26  27
ATOM     27  C   UNL     1      29.363 -18.699  29.945  1.00  0.00    -0.000 C 
BRANCH  27  28
ATOM     28  C   UNL     1      30.417 -17.745  29.345  1.00  0.00    -0.000 C 
BRANCH  28  29
ATOM     29  C   UNL     1      31.058 -18.225  28.029  1.00  0.00    -0.000 C 
BRANCH  29  30
ATOM     30  C   UNL     1      30.214 -19.291  27.309  1.00  0.00    -0.000 C 
BRANCH  30  31
ATOM     31  C   UNL     1      30.638 -19.489  25.845  1.00  0.00    -0.003 C 
ATOM     32  C   UNL     1      31.104 -18.190  25.187  1.00  0.00     0.004 C 
ENDBRANCH  30  31
ENDBRANCH  29  30
ENDBRANCH  28  29
ENDBRANCH  27  28
ENDBRANCH  26  27
ENDBRANCH  25  26
ENDBRANCH  24  25
ENDBRANCH  23  24
ENDBRANCH  22  23
ENDBRANCH  21  22
ENDBRANCH  20  21
ENDBRANCH  19  20
ENDBRANCH  18  19
ENDBRANCH   1  18
TORSDOF 28
ENDMDL
MODEL 6
REMARK VINA RESULT:    -4.489      2.025      2.510
REMARK INTER + INTRA:         -14.906
REMARK INTER:                 -11.274
REMARK INTRA:                  -3.632
REMARK UNBOUND:                -3.069
REMARK SMILES CCCCCCCCCCCCCCCCCCCCCCCCCCCCCC(=O)[O-]
REMARK SMILES IDX 16 1 17 2 18 3 19 4 20 5 21 6 22 7 23 8 24 9 25 10 26 11
REMARK SMILES IDX 27 12 28 13 29 14 30 15 31 16 32 17 15 18 14 19 13 20 12 21
REMARK SMILES IDX 11 22 10 23 9 24 8 25 7 26 6 27 5 28 4 29 3 30 2 31 1 32
REMARK H PARENT
REMARK Flexibility Score: inf
ROOT
ATOM      1  C   UNL     1      23.222 -15.019  26.413  1.00  0.00     0.000 C 
ENDROOT
BRANCH   1   2
ATOM      2  C   UNL     1      22.612 -16.422  26.560  1.00  0.00     0.000 C 
BRANCH   2   3
ATOM      3  C   UNL     1      22.024 -16.667  27.960  1.00  0.00     0.000 C 
BRANCH   3   4
ATOM      4  C   UNL     1      21.482 -15.383  28.606  1.00  0.00     0.000 C 
BRANCH   4   5
ATOM      5  C   UNL     1      20.705 -15.656  29.905  1.00  0.00     0.000 C 
BRANCH   5   6
ATOM      6  C   UNL     1      19.668 -16.782  29.760  1.00  0.00     0.000 C 
BRANCH   6   7
ATOM      7  C   UNL     1      18.203 -16.298  29.838  1.00  0.00     0.000 C 
BRANCH   7   8
ATOM      8  C   UNL     1      17.757 -16.000  31.281  1.00  0.00     0.000 C 
BRANCH   8   9
ATOM      9  C   UNL     1      17.701 -17.278  32.146  1.00  0.00     0.000 C 
BRANCH   9  10
ATOM     10  C   UNL     1      16.271 -17.716  32.503  1.00  0.00     0.000 C 
BRANCH  10  11
ATOM     11  C   UNL     1      15.218 -16.654  32.147  1.00  0.00     0.000 C 
BRANCH  11  12
ATOM     12  C   UNL     1      14.294 -17.088  30.994  1.00  0.00     0.000 C 
BRANCH  12  13
ATOM     13  C   UNL     1      14.662 -18.428  30.322  1.00  0.00     0.006 C 
BRANCH  13  14
ATOM     14  C   UNL     1      15.282 -18.293  28.922  1.00  0.00     0.053 C 
BRANCH  14  15
ATOM     15  C   UNL     1      16.347 -19.318  28.676  1.00  0.00     0.041 C 
ATOM     16  O   UNL     1      17.093 -19.697  29.618  1.00  0.00    -0.550 OA
ATOM     17  O   UNL     1      16.499 -19.874  27.412  1.00  0.00    -0.550 OA
ENDBRANCH  14  15
ENDBRANCH  13  14
ENDBRANCH  12  13
ENDBRANCH  11  12
ENDBRANCH  10  11
ENDBRANCH   9  10
ENDBRANCH   8   9
ENDBRANCH   7   8
ENDBRANCH   6   7
ENDBRANCH   5   6
ENDBRANCH   4   5
ENDBRANCH   3   4
ENDBRANCH   2   3
ENDBRANCH   1   2
BRANCH   1  18
ATOM     18  C   UNL     1      24.753 -14.955  26.573  1.00  0.00     0.000 C 
BRANCH  18  19
ATOM     19  C   UNL     1      25.459 -16.317  26.398  1.00  0.00     0.000 C 
BRANCH  19  20
ATOM     20  C   UNL     1      26.629 -16.248  25.400  1.00  0.00     0.000 C 
BRANCH  20  21
ATOM     21  C   UNL     1      26.627 -17.429  24.415  1.00  0.00     0.000 C 
BRANCH  21  22
ATOM     22  C   UNL     1      26.603 -18.788  25.137  1.00  0.00     0.000 C 
BRANCH  22  23
ATOM     23  C   UNL     1      27.815 -19.667  24.790  1.00  0.00     0.000 C 
BRANCH  23  24
ATOM     24  C   UNL     1      28.990 -18.863  24.208  1.00  0.00    -0.000 C 
BRANCH  24  25
ATOM     25  C   UNL     1      30.311 -19.104  24.958  1.00  0.00    -0.000 C 
BRANCH  25  26
ATOM     26  C   UNL     1      30.490 -18.160  26.160  1.00  0.00    -0.000 C 
BRANCH  26  27
ATOM     27  C   UNL     1      30.743 -18.916  27.477  1.00  0.00    -0.000 C 
BRANCH  27  28
ATOM     28  C   UNL     1      29.647 -19.926  27.876  1.00  0.00    -0.000 C 
BRANCH  28  29
ATOM     29  C   UNL     1      28.710 -19.461  29.007  1.00  0.00    -0.000 C 
BRANCH  29  30
ATOM     30  C   UNL     1      27.636 -18.473  28.523  1.00  0.00    -0.000 C 
BRANCH  30  31
ATOM     31  C   UNL     1      27.619 -17.172  29.341  1.00  0.00    -0.003 C 
ATOM     32  C   UNL     1      28.939 -16.920  30.072  1.00  0.00     0.004 C 
ENDBRANCH  30  31
ENDBRANCH  29  30
ENDBRANCH  28  29
ENDBRANCH  27  28
ENDBRANCH  26  27
ENDBRANCH  25  26
ENDBRANCH  24  25
ENDBRANCH  23  24
ENDBRANCH  22  23
ENDBRANCH  21  22
ENDBRANCH  20  21
ENDBRANCH  19  20
ENDBRANCH  18  19
ENDBRANCH   1  18
TORSDOF 28
ENDMDL
MODEL 7
REMARK VINA RESULT:    -4.470      1.899      2.917
REMARK INTER + INTRA:         -14.856
REMARK INTER:                 -12.470
REMARK INTRA:                  -2.385
REMARK UNBOUND:                -3.069
REMARK SMILES CCCCCCCCCCCCCCCCCCCCCCCCCCCCCC(=O)[O-]
REMARK SMILES IDX 16 1 17 2 18 3 19 4 20 5 21 6 22 7 23 8 24 9 25 10 26 11
REMARK SMILES IDX 27 12 28 13 29 14 30 15 31 16 32 17 15 18 14 19 13 20 12 21
REMARK SMILES IDX 11 22 10 23 9 24 8 25 7 26 6 27 5 28 4 29 3 30 2 31 1 32
REMARK H PARENT
REMARK Flexibility Score: inf
ROOT
ATOM      1  C   UNL     1      25.038 -14.544  26.379  1.00  0.00     0.000 C 
ENDROOT
BRANCH   1   2
ATOM      2  C   UNL     1      23.607 -14.619  26.936  1.00  0.00     0.000 C 
BRANCH   2   3
ATOM      3  C   UNL     1      22.644 -15.357  25.991  1.00  0.00     0.000 C 
BRANCH   3   4
ATOM      4  C   UNL     1      22.513 -16.850  26.328  1.00  0.00     0.000 C 
BRANCH   4   5
ATOM      5  C   UNL     1      22.722 -17.140  27.824  1.00  0.00     0.000 C 
BRANCH   5   6
ATOM      6  C   UNL     1      21.405 -17.169  28.620  1.00  0.00     0.000 C 
BRANCH   6   7
ATOM      7  C   UNL     1      21.034 -15.816  29.265  1.00  0.00     0.000 C 
BRANCH   7   8
ATOM      8  C   UNL     1      20.419 -15.978  30.667  1.00  0.00     0.000 C 
BRANCH   8   9
ATOM      9  C   UNL     1      19.186 -15.070  30.866  1.00  0.00     0.000 C 
BRANCH   9  10
ATOM     10  C   UNL     1      17.892 -15.847  31.161  1.00  0.00     0.000 C 
BRANCH  10  11
ATOM     11  C   UNL     1      18.050 -17.363  30.960  1.00  0.00     0.000 C 
BRANCH  11  12
ATOM     12  C   UNL     1      16.785 -18.028  30.386  1.00  0.00     0.000 C 
BRANCH  12  13
ATOM     13  C   UNL     1      15.450 -17.525  30.976  1.00  0.00     0.006 C 
BRANCH  13  14
ATOM     14  C   UNL     1      14.258 -17.592  30.009  1.00  0.00     0.053 C 
BRANCH  14  15
ATOM     15  C   UNL     1      12.973 -17.195  30.670  1.00  0.00     0.041 C 
ATOM     16  O   UNL     1      12.485 -16.050  30.472  1.00  0.00    -0.550 OA
ATOM     17  O   UNL     1      12.301 -18.098  31.484  1.00  0.00    -0.550 OA
ENDBRANCH  14  15
ENDBRANCH  13  14
ENDBRANCH  12  13
ENDBRANCH  11  12
ENDBRANCH  10  11
ENDBRANCH   9  10
ENDBRANCH   8   9
ENDBRANCH   7   8
ENDBRANCH   6   7
ENDBRANCH   5   6
ENDBRANCH   4   5
ENDBRANCH   3   4
ENDBRANCH   2   3
ENDBRANCH   1   2
BRANCH   1  18
ATOM     18  C   UNL     1      25.886 -15.813  26.589  1.00  0.00     0.000 C 
BRANCH  18  19
ATOM     19  C   UNL     1      26.591 -16.315  25.310  1.00  0.00     0.000 C 
BRANCH  19  20
ATOM     20  C   UNL     1      26.499 -17.843  25.151  1.00  0.00     0.000 C 
BRANCH  20  21
ATOM     21  C   UNL     1      27.561 -18.396  24.186  1.00  0.00     0.000 C 
BRANCH  21  22
ATOM     22  C   UNL     1      28.551 -19.341  24.890  1.00  0.00     0.000 C 
BRANCH  22  23
ATOM     23  C   UNL     1      29.876 -18.652  25.252  1.00  0.00     0.000 C 
BRANCH  23  24
ATOM     24  C   UNL     1      30.778 -19.521  26.146  1.00  0.00    -0.000 C 
BRANCH  24  25
ATOM     25  C   UNL     1      30.232 -19.677  27.575  1.00  0.00    -0.000 C 
BRANCH  25  26
ATOM     26  C   UNL     1      29.896 -18.326  28.231  1.00  0.00    -0.000 C 
BRANCH  26  27
ATOM     27  C   UNL     1      28.758 -18.433  29.262  1.00  0.00    -0.000 C 
BRANCH  27  28
ATOM     28  C   UNL     1      27.977 -17.126  29.516  1.00  0.00    -0.000 C 
BRANCH  28  29
ATOM     29  C   UNL     1      28.003 -16.621  30.971  1.00  0.00    -0.000 C 
BRANCH  29  30
ATOM     30  C   UNL     1      29.165 -15.652  31.245  1.00  0.00    -0.000 C 
BRANCH  30  31
ATOM     31  C   UNL     1      28.849 -14.213  30.808  1.00  0.00    -0.003 C 
ATOM     32  C   UNL     1      29.567 -13.167  31.662  1.00  0.00     0.004 C 
ENDBRANCH  30  31
ENDBRANCH  29  30
ENDBRANCH  28  29
ENDBRANCH  27  28
ENDBRANCH  26  27
ENDBRANCH  25  26
ENDBRANCH  24  25
ENDBRANCH  23  24
ENDBRANCH  22  23
ENDBRANCH  21  22
ENDBRANCH  20  21
ENDBRANCH  19  20
ENDBRANCH  18  19
ENDBRANCH   1  18
TORSDOF 28
ENDMDL
MODEL 8
REMARK VINA RESULT:    -4.465      3.549     11.334
REMARK INTER + INTRA:         -14.843
REMARK INTER:                 -10.935
REMARK INTRA:                  -3.909
REMARK UNBOUND:                -3.069
REMARK SMILES CCCCCCCCCCCCCCCCCCCCCCCCCCCCCC(=O)[O-]
REMARK SMILES IDX 16 1 17 2 18 3 19 4 20 5 21 6 22 7 23 8 24 9 25 10 26 11
REMARK SMILES IDX 27 12 28 13 29 14 30 15 31 16 32 17 15 18 14 19 13 20 12 21
REMARK SMILES IDX 11 22 10 23 9 24 8 25 7 26 6 27 5 28 4 29 3 30 2 31 1 32
REMARK H PARENT
REMARK Flexibility Score: inf
ROOT
ATOM      1  C   UNL     1      23.051 -19.200  26.925  1.00  0.00     0.000 C 
ENDROOT
BRANCH   1   2
ATOM      2  C   UNL     1      23.781 -19.666  28.194  1.00  0.00     0.000 C 
BRANCH   2   3
ATOM      3  C   UNL     1      25.311 -19.575  28.062  1.00  0.00     0.000 C 
BRANCH   3   4
ATOM      4  C   UNL     1      25.940 -18.644  29.110  1.00  0.00     0.000 C 
BRANCH   4   5
ATOM      5  C   UNL     1      27.263 -18.022  28.631  1.00  0.00     0.000 C 
BRANCH   5   6
ATOM      6  C   UNL     1      28.502 -18.765  29.159  1.00  0.00     0.000 C 
BRANCH   6   7
ATOM      7  C   UNL     1      29.384 -19.376  28.048  1.00  0.00     0.000 C 
BRANCH   7   8
ATOM      8  C   UNL     1      29.003 -18.869  26.645  1.00  0.00     0.000 C 
BRANCH   8   9
ATOM      9  C   UNL     1      28.531 -20.015  25.724  1.00  0.00     0.000 C 
BRANCH   9  10
ATOM     10  C   UNL     1      27.358 -19.624  24.808  1.00  0.00     0.000 C 
BRANCH  10  11
ATOM     11  C   UNL     1      27.240 -18.104  24.611  1.00  0.00     0.000 C 
BRANCH  11  12
ATOM     12  C   UNL     1      25.933 -17.524  25.183  1.00  0.00     0.000 C 
BRANCH  12  13
ATOM     13  C   UNL     1      26.017 -16.060  25.666  1.00  0.00     0.006 C 
BRANCH  13  14
ATOM     14  C   UNL     1      25.083 -15.718  26.838  1.00  0.00     0.053 C 
BRANCH  14  15
ATOM     15  C   UNL     1      24.302 -14.464  26.589  1.00  0.00     0.041 C 
ATOM     16  O   UNL     1      24.779 -13.345  26.916  1.00  0.00    -0.550 OA
ATOM     17  O   UNL     1      23.058 -14.530  25.974  1.00  0.00    -0.550 OA
ENDBRANCH  14  15
ENDBRANCH  13  14
ENDBRANCH  12  13
ENDBRANCH  11  12
ENDBRANCH  10  11
ENDBRANCH   9  10
ENDBRANCH   8   9
ENDBRANCH   7   8
ENDBRANCH   6   7
ENDBRANCH   5   6
ENDBRANCH   4   5
ENDBRANCH   3   4
ENDBRANCH   2   3
ENDBRANCH   1   2
BRANCH   1  18
ATOM     18  C   UNL     1      22.302 -17.860  27.060  1.00  0.00     0.000 C 
BRANCH  18  19
ATOM     19  C   UNL     1      21.871 -17.525  28.504  1.00  0.00     0.000 C 
BRANCH  19  20
ATOM     20  C   UNL     1      21.455 -16.052  28.666  1.00  0.00     0.000 C 
BRANCH  20  21
ATOM     21  C   UNL     1      20.718 -15.794  29.991  1.00  0.00     0.000 C 
BRANCH  21  22
ATOM     22  C   UNL     1      19.405 -15.018  29.784  1.00  0.00     0.000 C 
BRANCH  22  23
ATOM     23  C   UNL     1      18.426 -15.183  30.957  1.00  0.00     0.000 C 
BRANCH  23  24
ATOM     24  C   UNL     1      17.661 -16.517  30.914  1.00  0.00    -0.000 C 
BRANCH  24  25
ATOM     25  C   UNL     1      17.173 -16.882  29.503  1.00  0.00    -0.000 C 
BRANCH  25  26
ATOM     26  C   UNL     1      16.576 -18.298  29.430  1.00  0.00    -0.000 C 
BRANCH  26  27
ATOM     27  C   UNL     1      16.225 -18.867  30.818  1.00  0.00    -0.000 C 
BRANCH  27  28
ATOM     28  C   UNL     1      14.760 -19.321  30.989  1.00  0.00    -0.000 C 
BRANCH  28  29
ATOM     29  C   UNL     1      13.706 -18.217  30.784  1.00  0.00    -0.000 C 
BRANCH  29  30
ATOM     30  C   UNL     1      13.918 -17.010  31.714  1.00  0.00    -0.000 C 
BRANCH  30  31
ATOM     31  C   UNL     1      12.830 -15.938  31.548  1.00  0.00    -0.003 C 
ATOM     32  C   UNL     1      11.884 -16.236  30.384  1.00  0.00     0.004 C 
ENDBRANCH  30  31
ENDBRANCH  29  30
ENDBRANCH  28  29
ENDBRANCH  27  28
ENDBRANCH  26  27
ENDBRANCH  25  26
ENDBRANCH  24  25
ENDBRANCH  23  24
ENDBRANCH  22  23
ENDBRANCH  21  22
ENDBRANCH  20  21
ENDBRANCH  19  20
ENDBRANCH  18  19
ENDBRANCH   1  18
TORSDOF 28
ENDMDL
MODEL 9
REMARK VINA RESULT:    -4.454      1.426      2.453
REMARK INTER + INTRA:         -14.813
REMARK INTER:                 -11.260
REMARK INTRA:                  -3.553
REMARK UNBOUND:                -3.069
REMARK SMILES CCCCCCCCCCCCCCCCCCCCCCCCCCCCCC(=O)[O-]
REMARK SMILES IDX 16 1 17 2 18 3 19 4 20 5 21 6 22 7 23 8 24 9 25 10 26 11
REMARK SMILES IDX 27 12 28 13 29 14 30 15 31 16 32 17 15 18 14 19 13 20 12 21
REMARK SMILES IDX 11 22 10 23 9 24 8 25 7 26 6 27 5 28 4 29 3 30 2 31 1 32
REMARK H PARENT
REMARK Flexibility Score: inf
ROOT
ATOM      1  C   UNL     1      25.490 -14.247  26.362  1.00  0.00     0.000 C 
ENDROOT
BRANCH   1   2
ATOM      2  C   UNL     1      24.143 -13.629  26.772  1.00  0.00     0.000 C 
BRANCH   2   3
ATOM      3  C   UNL     1      22.946 -14.522  26.404  1.00  0.00     0.000 C 
BRANCH   3   4
ATOM      4  C   UNL     1      22.102 -14.912  27.628  1.00  0.00     0.000 C 
BRANCH   4   5
ATOM      5  C   UNL     1      22.091 -16.428  27.881  1.00  0.00     0.000 C 
BRANCH   5   6
ATOM      6  C   UNL     1      21.158 -16.839  29.033  1.00  0.00     0.000 C 
BRANCH   6   7
ATOM      7  C   UNL     1      20.585 -15.646  29.829  1.00  0.00     0.000 C 
BRANCH   7   8
ATOM      8  C   UNL     1      19.278 -15.999  30.563  1.00  0.00     0.000 C 
BRANCH   8   9
ATOM      9  C   UNL     1      19.502 -16.208  32.076  1.00  0.00     0.000 C 
BRANCH   9  10
ATOM     10  C   UNL     1      18.372 -16.994  32.762  1.00  0.00     0.000 C 
BRANCH  10  11
ATOM     11  C   UNL     1      16.985 -16.667  32.183  1.00  0.00     0.000 C 
BRANCH  11  12
ATOM     12  C   UNL     1      15.853 -17.476  32.845  1.00  0.00     0.000 C 
BRANCH  12  13
ATOM     13  C   UNL     1      14.566 -17.615  32.005  1.00  0.00     0.006 C 
BRANCH  13  14
ATOM     14  C   UNL     1      14.677 -17.078  30.569  1.00  0.00     0.053 C 
BRANCH  14  15
ATOM     15  C   UNL     1      14.862 -18.176  29.568  1.00  0.00     0.041 C 
ATOM     16  O   UNL     1      13.921 -18.977  29.323  1.00  0.00    -0.550 OA
ATOM     17  O   UNL     1      16.067 -18.301  28.886  1.00  0.00    -0.550 OA
ENDBRANCH  14  15
ENDBRANCH  13  14
ENDBRANCH  12  13
ENDBRANCH  11  12
ENDBRANCH  10  11
ENDBRANCH   9  10
ENDBRANCH   8   9
ENDBRANCH   7   8
ENDBRANCH   6   7
ENDBRANCH   5   6
ENDBRANCH   4   5
ENDBRANCH   3   4
ENDBRANCH   2   3
ENDBRANCH   1   2
BRANCH   1  18
ATOM     18  C   UNL     1      25.551 -15.784  26.444  1.00  0.00     0.000 C 
BRANCH  18  19
ATOM     19  C   UNL     1      26.279 -16.447  25.255  1.00  0.00     0.000 C 
BRANCH  19  20
ATOM     20  C   UNL     1      27.333 -17.473  25.710  1.00  0.00     0.000 C 
BRANCH  20  21
ATOM     21  C   UNL     1      27.351 -18.727  24.819  1.00  0.00     0.000 C 
BRANCH  21  22
ATOM     22  C   UNL     1      28.755 -19.026  24.265  1.00  0.00     0.000 C 
BRANCH  22  23
ATOM     23  C   UNL     1      29.875 -18.654  25.250  1.00  0.00     0.000 C 
BRANCH  23  24
ATOM     24  C   UNL     1      30.155 -19.760  26.282  1.00  0.00    -0.000 C 
BRANCH  24  25
ATOM     25  C   UNL     1      30.365 -19.212  27.703  1.00  0.00    -0.000 C 
BRANCH  25  26
ATOM     26  C   UNL     1      29.069 -19.202  28.532  1.00  0.00    -0.000 C 
BRANCH  26  27
ATOM     27  C   UNL     1      28.599 -17.779  28.883  1.00  0.00    -0.000 C 
BRANCH  27  28
ATOM     28  C   UNL     1      27.123 -17.663  29.319  1.00  0.00    -0.000 C 
BRANCH  28  29
ATOM     29  C   UNL     1      26.321 -18.977  29.262  1.00  0.00    -0.000 C 
BRANCH  29  30
ATOM     30  C   UNL     1      24.946 -18.807  28.592  1.00  0.00    -0.000 C 
BRANCH  30  31
ATOM     31  C   UNL     1      24.748 -19.758  27.402  1.00  0.00    -0.003 C 
ATOM     32  C   UNL     1      23.922 -19.131  26.279  1.00  0.00     0.004 C 
ENDBRANCH  30  31
ENDBRANCH  29  30
ENDBRANCH  28  29
ENDBRANCH  27  28
ENDBRANCH  26  27
ENDBRANCH  25  26
ENDBRANCH  24  25
ENDBRANCH  23  24
ENDBRANCH  22  23
ENDBRANCH  21  22
ENDBRANCH  20  21
ENDBRANCH  19  20
ENDBRANCH  18  19
ENDBRANCH   1  18
TORSDOF 28
ENDMDL
