MODEL 1
REMARK VINA RESULT:    -4.299      0.000      0.000
REMARK INTER + INTRA:         -13.593
REMARK INTER:                 -11.337
REMARK INTRA:                  -2.256
REMARK UNBOUND:                -2.256
REMARK SMILES CCCCCCCCCCCCCCCCCCCCCCCCCCCCCC(=O)[O-]
REMARK SMILES IDX 16 1 17 2 18 3 19 4 20 5 21 6 22 7 23 8 24 9 25 10 26 11
REMARK SMILES IDX 27 12 28 13 29 14 30 15 31 16 32 17 15 18 14 19 13 20 12 21
REMARK SMILES IDX 11 22 10 23 9 24 8 25 7 26 6 27 5 28 4 29 3 30 2 31 1 32
REMARK H PARENT
REMARK Flexibility Score: inf
ROOT
ATOM      1  C   UNL     1     -10.443 -10.650 -12.698  1.00  0.00     0.000 C 
ENDROOT
BRANCH   1   2
ATOM      2  C   UNL     1     -11.497 -11.559 -12.030  1.00  0.00     0.000 C 
BRANCH   2   3
ATOM      3  C   UNL     1     -12.754 -11.748 -12.895  1.00  0.00     0.000 C 
BRANCH   3   4
ATOM      4  C   UNL     1     -13.955 -11.007 -12.294  1.00  0.00     0.000 C 
BRANCH   4   5
ATOM      5  C   UNL     1     -13.884  -9.503 -12.601  1.00  0.00     0.000 C 
BRANCH   5   6
ATOM      6  C   UNL     1     -15.239  -8.911 -13.017  1.00  0.00     0.000 C 
BRANCH   6   7
ATOM      7  C   UNL     1     -16.169  -9.950 -13.667  1.00  0.00     0.000 C 
BRANCH   7   8
ATOM      8  C   UNL     1     -17.311  -9.300 -14.465  1.00  0.00     0.000 C 
BRANCH   8   9
ATOM      9  C   UNL     1     -17.493  -7.812 -14.133  1.00  0.00     0.000 C 
BRANCH   9  10
ATOM     10  C   UNL     1     -17.228  -6.939 -15.366  1.00  0.00     0.000 C 
BRANCH  10  11
ATOM     11  C   UNL     1     -16.470  -5.659 -14.981  1.00  0.00     0.000 C 
BRANCH  11  12
ATOM     12  C   UNL     1     -17.268  -4.377 -15.282  1.00  0.00     0.000 C 
BRANCH  12  13
ATOM     13  C   UNL     1     -16.931  -3.700 -16.623  1.00  0.00     0.006 C 
BRANCH  13  14
ATOM     14  C   UNL     1     -16.736  -2.184 -16.493  1.00  0.00     0.053 C 
BRANCH  14  15
ATOM     15  C   UNL     1     -15.295  -1.855 -16.257  1.00  0.00     0.041 C 
ATOM     16  O   UNL     1     -14.502  -1.742 -17.229  1.00  0.00    -0.550 OA
ATOM     17  O   UNL     1     -14.830  -1.663 -14.962  1.00  0.00    -0.550 OA
ENDBRANCH  14  15
ENDBRANCH  13  14
ENDBRANCH  12  13
ENDBRANCH  11  12
ENDBRANCH  10  11
ENDBRANCH   9  10
ENDBRANCH   8   9
ENDBRANCH   7   8
ENDBRANCH   6   7
ENDBRANCH   5   6
ENDBRANCH   4   5
ENDBRANCH   3   4
ENDBRANCH   2   3
ENDBRANCH   1   2
BRANCH   1  18
ATOM     18  C   UNL     1      -8.989 -11.003 -12.330  1.00  0.00     0.000 C 
BRANCH  18  19
ATOM     19  C   UNL     1      -8.060 -11.294 -13.524  1.00  0.00     0.000 C 
BRANCH  19  20
ATOM     20  C   UNL     1      -6.929 -10.267 -13.730  1.00  0.00     0.000 C 
BRANCH  20  21
ATOM     21  C   UNL     1      -6.623 -10.012 -15.215  1.00  0.00     0.000 C 
BRANCH  21  22
ATOM     22  C   UNL     1      -5.854  -8.699 -15.452  1.00  0.00     0.000 C 
BRANCH  22  23
ATOM     23  C   UNL     1      -4.553  -8.545 -14.637  1.00  0.00     0.000 C 
BRANCH  23  24
ATOM     24  C   UNL     1      -3.551  -9.706 -14.781  1.00  0.00    -0.000 C 
BRANCH  24  25
ATOM     25  C   UNL     1      -2.075  -9.273 -14.834  1.00  0.00    -0.000 C 
BRANCH  25  26
ATOM     26  C   UNL     1      -1.402  -9.550 -16.199  1.00  0.00    -0.000 C 
BRANCH  26  27
ATOM     27  C   UNL     1      -1.000  -8.274 -16.960  1.00  0.00    -0.000 C 
BRANCH  27  28
ATOM     28  C   UNL     1      -2.138  -7.239 -17.016  1.00  0.00    -0.000 C 
BRANCH  28  29
ATOM     29  C   UNL     1      -2.644  -7.005 -18.454  1.00  0.00    -0.000 C 
BRANCH  29  30
ATOM     30  C   UNL     1      -3.952  -7.750 -18.789  1.00  0.00    -0.000 C 
BRANCH  30  31
ATOM     31  C   UNL     1      -3.784  -9.274 -18.939  1.00  0.00    -0.003 C 
ATOM     32  C   UNL     1      -5.079 -10.040 -18.666  1.00  0.00     0.004 C 
ENDBRANCH  30  31
ENDBRANCH  29  30
ENDBRANCH  28  29
ENDBRANCH  27  28
ENDBRANCH  26  27
ENDBRANCH  25  26
ENDBRANCH  24  25
ENDBRANCH  23  24
ENDBRANCH  22  23
ENDBRANCH  21  22
ENDBRANCH  20  21
ENDBRANCH  19  20
ENDBRANCH  18  19
ENDBRANCH   1  18
TORSDOF 28
ENDMDL
MODEL 2
REMARK VINA RESULT:    -4.255      8.238     13.769
REMARK INTER + INTRA:         -13.476
REMARK INTER:                  -9.637
REMARK INTRA:                  -3.839
REMARK UNBOUND:                -2.256
REMARK SMILES CCCCCCCCCCCCCCCCCCCCCCCCCCCCCC(=O)[O-]
REMARK SMILES IDX 16 1 17 2 18 3 19 4 20 5 21 6 22 7 23 8 24 9 25 10 26 11
REMARK SMILES IDX 27 12 28 13 29 14 30 15 31 16 32 17 15 18 14 19 13 20 12 21
REMARK SMILES IDX 11 22 10 23 9 24 8 25 7 26 6 27 5 28 4 29 3 30 2 31 1 32
REMARK H PARENT
REMARK Flexibility Score: inf
ROOT
ATOM      1  C   UNL     1     -15.599  -1.346 -17.771  1.00  0.00     0.000 C 
ENDROOT
BRANCH   1   2
ATOM      2  C   UNL     1     -15.499  -2.745 -17.126  1.00  0.00     0.000 C 
BRANCH   2   3
ATOM      3  C   UNL     1     -16.831  -3.216 -16.518  1.00  0.00     0.000 C 
BRANCH   3   4
ATOM      4  C   UNL     1     -17.599  -4.111 -17.499  1.00  0.00     0.000 C 
BRANCH   4   5
ATOM      5  C   UNL     1     -19.096  -3.761 -17.506  1.00  0.00     0.000 C 
BRANCH   5   6
ATOM      6  C   UNL     1     -19.759  -3.936 -16.131  1.00  0.00     0.000 C 
BRANCH   6   7
ATOM      7  C   UNL     1     -19.992  -5.412 -15.765  1.00  0.00     0.000 C 
BRANCH   7   8
ATOM      8  C   UNL     1     -19.312  -5.806 -14.443  1.00  0.00     0.000 C 
BRANCH   8   9
ATOM      9  C   UNL     1     -17.881  -6.324 -14.646  1.00  0.00     0.000 C 
BRANCH   9  10
ATOM     10  C   UNL     1     -17.876  -7.604 -15.490  1.00  0.00     0.000 C 
BRANCH  10  11
ATOM     11  C   UNL     1     -18.354  -8.809 -14.665  1.00  0.00     0.000 C 
BRANCH  11  12
ATOM     12  C   UNL     1     -18.153 -10.151 -15.393  1.00  0.00     0.000 C 
BRANCH  12  13
ATOM     13  C   UNL     1     -17.350 -11.204 -14.609  1.00  0.00     0.006 C 
BRANCH  13  14
ATOM     14  C   UNL     1     -16.531 -10.597 -13.463  1.00  0.00     0.053 C 
BRANCH  14  15
ATOM     15  C   UNL     1     -15.067 -10.658 -13.770  1.00  0.00     0.041 C 
ATOM     16  O   UNL     1     -14.376  -9.605 -13.785  1.00  0.00    -0.550 OA
ATOM     17  O   UNL     1     -14.463 -11.883 -14.028  1.00  0.00    -0.550 OA
ENDBRANCH  14  15
ENDBRANCH  13  14
ENDBRANCH  12  13
ENDBRANCH  11  12
ENDBRANCH  10  11
ENDBRANCH   9  10
ENDBRANCH   8   9
ENDBRANCH   7   8
ENDBRANCH   6   7
ENDBRANCH   5   6
ENDBRANCH   4   5
ENDBRANCH   3   4
ENDBRANCH   2   3
ENDBRANCH   1   2
BRANCH   1  18
ATOM     18  C   UNL     1     -15.066  -1.283 -19.215  1.00  0.00     0.000 C 
BRANCH  18  19
ATOM     19  C   UNL     1     -15.767  -2.222 -20.215  1.00  0.00     0.000 C 
BRANCH  19  20
ATOM     20  C   UNL     1     -17.221  -1.839 -20.554  1.00  0.00     0.000 C 
BRANCH  20  21
ATOM     21  C   UNL     1     -17.392  -1.394 -22.017  1.00  0.00     0.000 C 
BRANCH  21  22
ATOM     22  C   UNL     1     -18.847  -1.498 -22.508  1.00  0.00     0.000 C 
BRANCH  22  23
ATOM     23  C   UNL     1     -19.120  -0.864 -23.888  1.00  0.00     0.000 C 
BRANCH  23  24
ATOM     24  C   UNL     1     -19.522   0.624 -23.855  1.00  0.00    -0.000 C 
BRANCH  24  25
ATOM     25  C   UNL     1     -20.111   1.097 -22.513  1.00  0.00    -0.000 C 
BRANCH  25  26
ATOM     26  C   UNL     1     -19.423   2.364 -21.953  1.00  0.00    -0.000 C 
BRANCH  26  27
ATOM     27  C   UNL     1     -19.455   2.456 -20.417  1.00  0.00    -0.000 C 
BRANCH  27  28
ATOM     28  C   UNL     1     -18.721   1.284 -19.741  1.00  0.00    -0.000 C 
BRANCH  28  29
ATOM     29  C   UNL     1     -19.474   0.762 -18.500  1.00  0.00    -0.000 C 
BRANCH  29  30
ATOM     30  C   UNL     1     -18.582   0.583 -17.254  1.00  0.00    -0.000 C 
BRANCH  30  31
ATOM     31  C   UNL     1     -19.363   0.281 -15.962  1.00  0.00    -0.003 C 
ATOM     32  C   UNL     1     -18.582  -0.609 -14.994  1.00  0.00     0.004 C 
ENDBRANCH  30  31
ENDBRANCH  29  30
ENDBRANCH  28  29
ENDBRANCH  27  28
ENDBRANCH  26  27
ENDBRANCH  25  26
ENDBRANCH  24  25
ENDBRANCH  23  24
ENDBRANCH  22  23
ENDBRANCH  21  22
ENDBRANCH  20  21
ENDBRANCH  19  20
ENDBRANCH  18  19
ENDBRANCH   1  18
TORSDOF 28
ENDMDL
MODEL 3
REMARK VINA RESULT:    -4.154      8.700     11.873
REMARK INTER + INTRA:         -13.210
REMARK INTER:                  -9.233
REMARK INTRA:                  -3.977
REMARK UNBOUND:                -2.256
REMARK SMILES CCCCCCCCCCCCCCCCCCCCCCCCCCCCCC(=O)[O-]
REMARK SMILES IDX 16 1 17 2 18 3 19 4 20 5 21 6 22 7 23 8 24 9 25 10 26 11
REMARK SMILES IDX 27 12 28 13 29 14 30 15 31 16 32 17 15 18 14 19 13 20 12 21
REMARK SMILES IDX 11 22 10 23 9 24 8 25 7 26 6 27 5 28 4 29 3 30 2 31 1 32
REMARK H PARENT
REMARK Flexibility Score: inf
ROOT
ATOM      1  C   UNL     1      -4.784  -8.453 -14.595  1.00  0.00     0.000 C 
ENDROOT
BRANCH   1   2
ATOM      2  C   UNL     1      -5.493  -8.221 -15.947  1.00  0.00     0.000 C 
BRANCH   2   3
ATOM      3  C   UNL     1      -4.793  -7.159 -16.811  1.00  0.00     0.000 C 
BRANCH   3   4
ATOM      4  C   UNL     1      -3.690  -7.787 -17.672  1.00  0.00     0.000 C 
BRANCH   4   5
ATOM      5  C   UNL     1      -4.198  -8.073 -19.093  1.00  0.00     0.000 C 
BRANCH   5   6
ATOM      6  C   UNL     1      -3.885  -9.502 -19.566  1.00  0.00     0.000 C 
BRANCH   6   7
ATOM      7  C   UNL     1      -3.800 -10.508 -18.405  1.00  0.00     0.000 C 
BRANCH   7   8
ATOM      8  C   UNL     1      -2.556 -11.406 -18.494  1.00  0.00     0.000 C 
BRANCH   8   9
ATOM      9  C   UNL     1      -1.995 -11.499 -19.921  1.00  0.00     0.000 C 
BRANCH   9  10
ATOM     10  C   UNL     1      -0.473 -11.310 -19.925  1.00  0.00     0.000 C 
BRANCH  10  11
ATOM     11  C   UNL     1       0.122 -11.665 -21.296  1.00  0.00     0.000 C 
BRANCH  11  12
ATOM     12  C   UNL     1      -0.320 -10.698 -22.409  1.00  0.00     0.000 C 
BRANCH  12  13
ATOM     13  C   UNL     1      -1.447 -11.223 -23.318  1.00  0.00     0.006 C 
BRANCH  13  14
ATOM     14  C   UNL     1      -2.430 -10.125 -23.743  1.00  0.00     0.053 C 
BRANCH  14  15
ATOM     15  C   UNL     1      -2.020  -9.527 -25.052  1.00  0.00     0.041 C 
ATOM     16  O   UNL     1      -0.880  -9.007 -25.184  1.00  0.00    -0.550 OA
ATOM     17  O   UNL     1      -2.895  -9.553 -26.132  1.00  0.00    -0.550 OA
ENDBRANCH  14  15
ENDBRANCH  13  14
ENDBRANCH  12  13
ENDBRANCH  11  12
ENDBRANCH  10  11
ENDBRANCH   9  10
ENDBRANCH   8   9
ENDBRANCH   7   8
ENDBRANCH   6   7
ENDBRANCH   5   6
ENDBRANCH   4   5
ENDBRANCH   3   4
ENDBRANCH   2   3
ENDBRANCH   1   2
BRANCH   1  18
ATOM     18  C   UNL     1      -4.063  -9.811 -14.491  1.00  0.00     0.000 C 
BRANCH  18  19
ATOM     19  C   UNL     1      -2.692  -9.882 -15.190  1.00  0.00     0.000 C 
BRANCH  19  20
ATOM     20  C   UNL     1      -1.500  -9.423 -14.328  1.00  0.00     0.000 C 
BRANCH  20  21
ATOM     21  C   UNL     1      -1.429  -7.893 -14.180  1.00  0.00     0.000 C 
BRANCH  21  22
ATOM     22  C   UNL     1      -0.963  -7.187 -15.465  1.00  0.00     0.000 C 
BRANCH  22  23
ATOM     23  C   UNL     1      -0.009  -8.010 -16.356  1.00  0.00     0.000 C 
BRANCH  23  24
ATOM     24  C   UNL     1      -0.628  -8.532 -17.668  1.00  0.00    -0.000 C 
BRANCH  24  25
ATOM     25  C   UNL     1       0.124  -8.105 -18.942  1.00  0.00    -0.000 C 
BRANCH  25  26
ATOM     26  C   UNL     1      -0.698  -7.163 -19.853  1.00  0.00    -0.000 C 
BRANCH  26  27
ATOM     27  C   UNL     1      -1.095  -7.797 -21.198  1.00  0.00    -0.000 C 
BRANCH  27  28
ATOM     28  C   UNL     1      -0.946  -6.818 -22.377  1.00  0.00    -0.000 C 
BRANCH  28  29
ATOM     29  C   UNL     1      -1.788  -5.540 -22.184  1.00  0.00    -0.000 C 
BRANCH  29  30
ATOM     30  C   UNL     1      -1.469  -4.420 -23.196  1.00  0.00    -0.000 C 
BRANCH  30  31
ATOM     31  C   UNL     1      -2.456  -3.238 -23.155  1.00  0.00    -0.003 C 
ATOM     32  C   UNL     1      -2.192  -2.211 -24.257  1.00  0.00     0.004 C 
ENDBRANCH  30  31
ENDBRANCH  29  30
ENDBRANCH  28  29
ENDBRANCH  27  28
ENDBRANCH  26  27
ENDBRANCH  25  26
ENDBRANCH  24  25
ENDBRANCH  23  24
ENDBRANCH  22  23
ENDBRANCH  21  22
ENDBRANCH  20  21
ENDBRANCH  19  20
ENDBRANCH  18  19
ENDBRANCH   1  18
TORSDOF 28
ENDMDL
MODEL 4
REMARK VINA RESULT:    -4.087      7.429     13.968
REMARK INTER + INTRA:         -13.034
REMARK INTER:                 -10.517
REMARK INTRA:                  -2.517
REMARK UNBOUND:                -2.256
REMARK SMILES CCCCCCCCCCCCCCCCCCCCCCCCCCCCCC(=O)[O-]
REMARK SMILES IDX 16 1 17 2 18 3 19 4 20 5 21 6 22 7 23 8 24 9 25 10 26 11
REMARK SMILES IDX 27 12 28 13 29 14 30 15 31 16 32 17 15 18 14 19 13 20 12 21
REMARK SMILES IDX 11 22 10 23 9 24 8 25 7 26 6 27 5 28 4 29 3 30 2 31 1 32
REMARK H PARENT
REMARK Flexibility Score: inf
ROOT
ATOM      1  C   UNL     1     -16.139  -1.618 -16.091  1.00  0.00     0.000 C 
ENDROOT
BRANCH   1   2
ATOM      2  C   UNL     1     -16.418  -2.577 -14.913  1.00  0.00     0.000 C 
BRANCH   2   3
ATOM      3  C   UNL     1     -16.089  -4.041 -15.246  1.00  0.00     0.000 C 
BRANCH   3   4
ATOM      4  C   UNL     1     -17.367  -4.881 -15.363  1.00  0.00     0.000 C 
BRANCH   4   5
ATOM      5  C   UNL     1     -17.827  -4.982 -16.826  1.00  0.00     0.000 C 
BRANCH   5   6
ATOM      6  C   UNL     1     -19.297  -5.409 -16.964  1.00  0.00     0.000 C 
BRANCH   6   7
ATOM      7  C   UNL     1     -19.577  -6.789 -16.344  1.00  0.00     0.000 C 
BRANCH   7   8
ATOM      8  C   UNL     1     -18.760  -7.910 -17.007  1.00  0.00     0.000 C 
BRANCH   8   9
ATOM      9  C   UNL     1     -18.499  -9.090 -16.060  1.00  0.00     0.000 C 
BRANCH   9  10
ATOM     10  C   UNL     1     -19.320  -8.951 -14.772  1.00  0.00     0.000 C 
BRANCH  10  11
ATOM     11  C   UNL     1     -18.610  -9.629 -13.591  1.00  0.00     0.000 C 
BRANCH  11  12
ATOM     12  C   UNL     1     -17.225  -9.024 -13.297  1.00  0.00     0.000 C 
BRANCH  12  13
ATOM     13  C   UNL     1     -16.061 -10.031 -13.296  1.00  0.00     0.006 C 
BRANCH  13  14
ATOM     14  C   UNL     1     -14.687  -9.354 -13.374  1.00  0.00     0.053 C 
BRANCH  14  15
ATOM     15  C   UNL     1     -13.592 -10.375 -13.334  1.00  0.00     0.041 C 
ATOM     16  O   UNL     1     -12.559 -10.172 -12.641  1.00  0.00    -0.550 OA
ATOM     17  O   UNL     1     -13.718 -11.556 -14.055  1.00  0.00    -0.550 OA
ENDBRANCH  14  15
ENDBRANCH  13  14
ENDBRANCH  12  13
ENDBRANCH  11  12
ENDBRANCH  10  11
ENDBRANCH   9  10
ENDBRANCH   8   9
ENDBRANCH   7   8
ENDBRANCH   6   7
ENDBRANCH   5   6
ENDBRANCH   4   5
ENDBRANCH   3   4
ENDBRANCH   2   3
ENDBRANCH   1   2
BRANCH   1  18
ATOM     18  C   UNL     1     -15.254  -2.226 -17.196  1.00  0.00     0.000 C 
BRANCH  18  19
ATOM     19  C   UNL     1     -15.942  -2.415 -18.560  1.00  0.00     0.000 C 
BRANCH  19  20
ATOM     20  C   UNL     1     -17.343  -1.784 -18.673  1.00  0.00     0.000 C 
BRANCH  20  21
ATOM     21  C   UNL     1     -17.632  -1.227 -20.078  1.00  0.00     0.000 C 
BRANCH  21  22
ATOM     22  C   UNL     1     -19.104  -1.395 -20.498  1.00  0.00     0.000 C 
BRANCH  22  23
ATOM     23  C   UNL     1     -19.326  -1.747 -21.983  1.00  0.00     0.000 C 
BRANCH  23  24
ATOM     24  C   UNL     1     -18.254  -1.207 -22.950  1.00  0.00    -0.000 C 
BRANCH  24  25
ATOM     25  C   UNL     1     -18.739  -0.074 -23.873  1.00  0.00    -0.000 C 
BRANCH  25  26
ATOM     26  C   UNL     1     -19.894   0.758 -23.268  1.00  0.00    -0.000 C 
BRANCH  26  27
ATOM     27  C   UNL     1     -19.424   2.025 -22.532  1.00  0.00    -0.000 C 
BRANCH  27  28
ATOM     28  C   UNL     1     -19.844   3.317 -23.255  1.00  0.00    -0.000 C 
BRANCH  28  29
ATOM     29  C   UNL     1     -19.079   3.519 -24.580  1.00  0.00    -0.000 C 
BRANCH  29  30
ATOM     30  C   UNL     1     -17.690   4.167 -24.411  1.00  0.00    -0.000 C 
BRANCH  30  31
ATOM     31  C   UNL     1     -17.588   5.592 -24.987  1.00  0.00    -0.003 C 
ATOM     32  C   UNL     1     -18.935   6.317 -25.008  1.00  0.00     0.004 C 
ENDBRANCH  30  31
ENDBRANCH  29  30
ENDBRANCH  28  29
ENDBRANCH  27  28
ENDBRANCH  26  27
ENDBRANCH  25  26
ENDBRANCH  24  25
ENDBRANCH  23  24
ENDBRANCH  22  23
ENDBRANCH  21  22
ENDBRANCH  20  21
ENDBRANCH  19  20
ENDBRANCH  18  19
ENDBRANCH   1  18
TORSDOF 28
ENDMDL
MODEL 5
REMARK VINA RESULT:    -4.077      7.742     12.146
REMARK INTER + INTRA:         -13.006
REMARK INTER:                  -9.070
REMARK INTRA:                  -3.936
REMARK UNBOUND:                -2.256
REMARK SMILES CCCCCCCCCCCCCCCCCCCCCCCCCCCCCC(=O)[O-]
REMARK SMILES IDX 16 1 17 2 18 3 19 4 20 5 21 6 22 7 23 8 24 9 25 10 26 11
REMARK SMILES IDX 27 12 28 13 29 14 30 15 31 16 32 17 15 18 14 19 13 20 12 21
REMARK SMILES IDX 11 22 10 23 9 24 8 25 7 26 6 27 5 28 4 29 3 30 2 31 1 32
REMARK H PARENT
REMARK Flexibility Score: inf
ROOT
ATOM      1  C   UNL     1      -4.431  -7.299 -18.799  1.00  0.00     0.000 C 
ENDROOT
BRANCH   1   2
ATOM      2  C   UNL     1      -3.995  -8.677 -19.343  1.00  0.00     0.000 C 
BRANCH   2   3
ATOM      3  C   UNL     1      -5.101  -9.738 -19.232  1.00  0.00     0.000 C 
BRANCH   3   4
ATOM      4  C   UNL     1      -4.761 -10.781 -18.160  1.00  0.00     0.000 C 
BRANCH   4   5
ATOM      5  C   UNL     1      -3.322 -10.601 -17.655  1.00  0.00     0.000 C 
BRANCH   5   6
ATOM      6  C   UNL     1      -2.360 -11.675 -18.187  1.00  0.00     0.000 C 
BRANCH   6   7
ATOM      7  C   UNL     1      -1.217 -11.989 -17.206  1.00  0.00     0.000 C 
BRANCH   7   8
ATOM      8  C   UNL     1       0.124 -11.383 -17.650  1.00  0.00     0.000 C 
BRANCH   8   9
ATOM      9  C   UNL     1       0.125 -10.971 -19.130  1.00  0.00     0.000 C 
BRANCH   9  10
ATOM     10  C   UNL     1      -0.384  -9.534 -19.299  1.00  0.00     0.000 C 
BRANCH  10  11
ATOM     11  C   UNL     1      -0.206  -9.054 -20.747  1.00  0.00     0.000 C 
BRANCH  11  12
ATOM     12  C   UNL     1      -0.388 -10.181 -21.779  1.00  0.00     0.000 C 
BRANCH  12  13
ATOM     13  C   UNL     1      -0.590  -9.710 -23.231  1.00  0.00     0.006 C 
BRANCH  13  14
ATOM     14  C   UNL     1      -2.068  -9.531 -23.599  1.00  0.00     0.053 C 
BRANCH  14  15
ATOM     15  C   UNL     1      -2.340 -10.072 -24.969  1.00  0.00     0.041 C 
ATOM     16  O   UNL     1      -2.908  -9.354 -25.834  1.00  0.00    -0.550 OA
ATOM     17  O   UNL     1      -1.954 -11.367 -25.293  1.00  0.00    -0.550 OA
ENDBRANCH  14  15
ENDBRANCH  13  14
ENDBRANCH  12  13
ENDBRANCH  11  12
ENDBRANCH  10  11
ENDBRANCH   9  10
ENDBRANCH   8   9
ENDBRANCH   7   8
ENDBRANCH   6   7
ENDBRANCH   5   6
ENDBRANCH   4   5
ENDBRANCH   3   4
ENDBRANCH   2   3
ENDBRANCH   1   2
BRANCH   1  18
ATOM     18  C   UNL     1      -4.166  -7.108 -17.294  1.00  0.00     0.000 C 
BRANCH  18  19
ATOM     19  C   UNL     1      -3.230  -5.939 -16.934  1.00  0.00     0.000 C 
BRANCH  19  20
ATOM     20  C   UNL     1      -1.753  -6.330 -16.731  1.00  0.00     0.000 C 
BRANCH  20  21
ATOM     21  C   UNL     1      -1.550  -7.851 -16.626  1.00  0.00     0.000 C 
BRANCH  21  22
ATOM     22  C   UNL     1      -0.366  -8.237 -15.722  1.00  0.00     0.000 C 
BRANCH  22  23
ATOM     23  C   UNL     1      -0.714  -8.431 -14.232  1.00  0.00     0.000 C 
BRANCH  23  24
ATOM     24  C   UNL     1       0.060  -9.558 -13.522  1.00  0.00    -0.000 C 
BRANCH  24  25
ATOM     25  C   UNL     1      -0.654 -10.146 -12.291  1.00  0.00    -0.000 C 
BRANCH  25  26
ATOM     26  C   UNL     1      -1.428 -11.451 -12.595  1.00  0.00    -0.000 C 
BRANCH  26  27
ATOM     27  C   UNL     1      -2.365 -11.344 -13.810  1.00  0.00    -0.000 C 
BRANCH  27  28
ATOM     28  C   UNL     1      -3.679 -12.120 -13.610  1.00  0.00    -0.000 C 
BRANCH  28  29
ATOM     29  C   UNL     1      -4.920 -11.213 -13.751  1.00  0.00    -0.000 C 
BRANCH  29  30
ATOM     30  C   UNL     1      -4.680  -9.949 -14.602  1.00  0.00    -0.000 C 
BRANCH  30  31
ATOM     31  C   UNL     1      -5.911  -9.032 -14.722  1.00  0.00    -0.003 C 
ATOM     32  C   UNL     1      -7.231  -9.799 -14.624  1.00  0.00     0.004 C 
ENDBRANCH  30  31
ENDBRANCH  29  30
ENDBRANCH  28  29
ENDBRANCH  27  28
ENDBRANCH  26  27
ENDBRANCH  25  26
ENDBRANCH  24  25
ENDBRANCH  23  24
ENDBRANCH  22  23
ENDBRANCH  21  22
ENDBRANCH  20  21
ENDBRANCH  19  20
ENDBRANCH  18  19
ENDBRANCH   1  18
TORSDOF 28
ENDMDL
MODEL 6
REMARK VINA RESULT:    -3.984      3.805     12.028
REMARK INTER + INTRA:         -12.760
REMARK INTER:                 -10.990
REMARK INTRA:                  -1.771
REMARK UNBOUND:                -2.256
REMARK SMILES CCCCCCCCCCCCCCCCCCCCCCCCCCCCCC(=O)[O-]
REMARK SMILES IDX 16 1 17 2 18 3 19 4 20 5 21 6 22 7 23 8 24 9 25 10 26 11
REMARK SMILES IDX 27 12 28 13 29 14 30 15 31 16 32 17 15 18 14 19 13 20 12 21
REMARK SMILES IDX 11 22 10 23 9 24 8 25 7 26 6 27 5 28 4 29 3 30 2 31 1 32
REMARK H PARENT
REMARK Flexibility Score: inf
ROOT
ATOM      1  C   UNL     1     -13.595 -10.364 -13.533  1.00  0.00     0.000 C 
ENDROOT
BRANCH   1   2
ATOM      2  C   UNL     1     -12.371 -10.112 -12.626  1.00  0.00     0.000 C 
BRANCH   2   3
ATOM      3  C   UNL     1     -11.457 -11.343 -12.504  1.00  0.00     0.000 C 
BRANCH   3   4
ATOM      4  C   UNL     1     -10.109 -10.969 -11.876  1.00  0.00     0.000 C 
BRANCH   4   5
ATOM      5  C   UNL     1      -8.980 -11.039 -12.916  1.00  0.00     0.000 C 
BRANCH   5   6
ATOM      6  C   UNL     1      -7.580 -10.936 -12.289  1.00  0.00     0.000 C 
BRANCH   6   7
ATOM      7  C   UNL     1      -6.453 -11.178 -13.308  1.00  0.00     0.000 C 
BRANCH   7   8
ATOM      8  C   UNL     1      -6.960 -11.181 -14.759  1.00  0.00     0.000 C 
BRANCH   8   9
ATOM      9  C   UNL     1      -6.201 -10.190 -15.653  1.00  0.00     0.000 C 
BRANCH   9  10
ATOM     10  C   UNL     1      -6.225  -8.780 -15.051  1.00  0.00     0.000 C 
BRANCH  10  11
ATOM     11  C   UNL     1      -4.802  -8.282 -14.758  1.00  0.00     0.000 C 
BRANCH  11  12
ATOM     12  C   UNL     1      -3.738  -8.949 -15.649  1.00  0.00     0.000 C 
BRANCH  12  13
ATOM     13  C   UNL     1      -2.731  -7.980 -16.297  1.00  0.00     0.006 C 
BRANCH  13  14
ATOM     14  C   UNL     1      -3.275  -7.317 -17.569  1.00  0.00     0.053 C 
BRANCH  14  15
ATOM     15  C   UNL     1      -2.535  -7.806 -18.776  1.00  0.00     0.041 C 
ATOM     16  O   UNL     1      -1.669  -8.714 -18.666  1.00  0.00    -0.550 OA
ATOM     17  O   UNL     1      -2.812  -7.264 -20.025  1.00  0.00    -0.550 OA
ENDBRANCH  14  15
ENDBRANCH  13  14
ENDBRANCH  12  13
ENDBRANCH  11  12
ENDBRANCH  10  11
ENDBRANCH   9  10
ENDBRANCH   8   9
ENDBRANCH   7   8
ENDBRANCH   6   7
ENDBRANCH   5   6
ENDBRANCH   4   5
ENDBRANCH   3   4
ENDBRANCH   2   3
ENDBRANCH   1   2
BRANCH   1  18
ATOM     18  C   UNL     1     -14.929 -10.473 -12.770  1.00  0.00     0.000 C 
BRANCH  18  19
ATOM     19  C   UNL     1     -16.071 -11.164 -13.536  1.00  0.00     0.000 C 
BRANCH  19  20
ATOM     20  C   UNL     1     -17.085 -10.206 -14.192  1.00  0.00     0.000 C 
BRANCH  20  21
ATOM     21  C   UNL     1     -17.742  -9.253 -13.179  1.00  0.00     0.000 C 
BRANCH  21  22
ATOM     22  C   UNL     1     -17.699  -7.781 -13.627  1.00  0.00     0.000 C 
BRANCH  22  23
ATOM     23  C   UNL     1     -16.353  -7.315 -14.221  1.00  0.00     0.000 C 
BRANCH  23  24
ATOM     24  C   UNL     1     -16.261  -5.807 -14.527  1.00  0.00    -0.000 C 
BRANCH  24  25
ATOM     25  C   UNL     1     -16.994  -5.370 -15.808  1.00  0.00    -0.000 C 
BRANCH  25  26
ATOM     26  C   UNL     1     -17.426  -3.884 -15.791  1.00  0.00    -0.000 C 
BRANCH  26  27
ATOM     27  C   UNL     1     -16.329  -2.928 -15.292  1.00  0.00    -0.000 C 
BRANCH  27  28
ATOM     28  C   UNL     1     -15.617  -2.196 -16.444  1.00  0.00    -0.000 C 
BRANCH  28  29
ATOM     29  C   UNL     1     -16.119  -2.658 -17.828  1.00  0.00    -0.000 C 
BRANCH  29  30
ATOM     30  C   UNL     1     -16.153  -1.538 -18.889  1.00  0.00    -0.000 C 
BRANCH  30  31
ATOM     31  C   UNL     1     -17.336  -1.640 -19.869  1.00  0.00    -0.003 C 
ATOM     32  C   UNL     1     -16.894  -1.589 -21.333  1.00  0.00     0.004 C 
ENDBRANCH  30  31
ENDBRANCH  29  30
ENDBRANCH  28  29
ENDBRANCH  27  28
ENDBRANCH  26  27
ENDBRANCH  25  26
ENDBRANCH  24  25
ENDBRANCH  23  24
ENDBRANCH  22  23
ENDBRANCH  21  22
ENDBRANCH  20  21
ENDBRANCH  19  20
ENDBRANCH  18  19
ENDBRANCH   1  18
TORSDOF 28
ENDMDL
MODEL 7
REMARK VINA RESULT:    -3.976      7.777     11.613
REMARK INTER + INTRA:         -12.740
REMARK INTER:                  -8.693
REMARK INTRA:                  -4.047
REMARK UNBOUND:                -2.256
REMARK SMILES CCCCCCCCCCCCCCCCCCCCCCCCCCCCCC(=O)[O-]
REMARK SMILES IDX 16 1 17 2 18 3 19 4 20 5 21 6 22 7 23 8 24 9 25 10 26 11
REMARK SMILES IDX 27 12 28 13 29 14 30 15 31 16 32 17 15 18 14 19 13 20 12 21
REMARK SMILES IDX 11 22 10 23 9 24 8 25 7 26 6 27 5 28 4 29 3 30 2 31 1 32
REMARK H PARENT
REMARK Flexibility Score: inf
ROOT
ATOM      1  C   UNL     1      -3.230  -7.106 -17.948  1.00  0.00     0.000 C 
ENDROOT
BRANCH   1   2
ATOM      2  C   UNL     1      -3.707  -7.480 -16.527  1.00  0.00     0.000 C 
BRANCH   2   3
ATOM      3  C   UNL     1      -2.844  -8.575 -15.879  1.00  0.00     0.000 C 
BRANCH   3   4
ATOM      4  C   UNL     1      -2.481  -8.209 -14.435  1.00  0.00     0.000 C 
BRANCH   4   5
ATOM      5  C   UNL     1      -1.274  -9.026 -13.948  1.00  0.00     0.000 C 
BRANCH   5   6
ATOM      6  C   UNL     1      -0.297  -9.386 -15.079  1.00  0.00     0.000 C 
BRANCH   6   7
ATOM      7  C   UNL     1       0.119 -10.867 -15.057  1.00  0.00     0.000 C 
BRANCH   7   8
ATOM      8  C   UNL     1      -1.018 -11.805 -15.495  1.00  0.00     0.000 C 
BRANCH   8   9
ATOM      9  C   UNL     1      -1.471 -11.550 -16.940  1.00  0.00     0.000 C 
BRANCH   9  10
ATOM     10  C   UNL     1      -2.961 -11.868 -17.112  1.00  0.00     0.000 C 
BRANCH  10  11
ATOM     11  C   UNL     1      -3.544 -11.136 -18.330  1.00  0.00     0.000 C 
BRANCH  11  12
ATOM     12  C   UNL     1      -4.978 -10.628 -18.093  1.00  0.00     0.000 C 
BRANCH  12  13
ATOM     13  C   UNL     1      -5.663 -11.176 -16.828  1.00  0.00     0.006 C 
BRANCH  13  14
ATOM     14  C   UNL     1      -6.144 -10.067 -15.883  1.00  0.00     0.053 C 
BRANCH  14  15
ATOM     15  C   UNL     1      -5.991 -10.488 -14.455  1.00  0.00     0.041 C 
ATOM     16  O   UNL     1      -6.972 -10.427 -13.666  1.00  0.00    -0.550 OA
ATOM     17  O   UNL     1      -4.767 -10.960 -13.997  1.00  0.00    -0.550 OA
ENDBRANCH  14  15
ENDBRANCH  13  14
ENDBRANCH  12  13
ENDBRANCH  11  12
ENDBRANCH  10  11
ENDBRANCH   9  10
ENDBRANCH   8   9
ENDBRANCH   7   8
ENDBRANCH   6   7
ENDBRANCH   5   6
ENDBRANCH   4   5
ENDBRANCH   3   4
ENDBRANCH   2   3
ENDBRANCH   1   2
BRANCH   1  18
ATOM     18  C   UNL     1      -1.738  -7.394 -18.203  1.00  0.00     0.000 C 
BRANCH  18  19
ATOM     19  C   UNL     1      -1.433  -8.203 -19.477  1.00  0.00     0.000 C 
BRANCH  19  20
ATOM     20  C   UNL     1      -0.075  -8.932 -19.473  1.00  0.00     0.000 C 
BRANCH  20  21
ATOM     21  C   UNL     1       0.125  -9.824 -20.710  1.00  0.00     0.000 C 
BRANCH  21  22
ATOM     22  C   UNL     1      -1.116 -10.670 -21.045  1.00  0.00     0.000 C 
BRANCH  22  23
ATOM     23  C   UNL     1      -1.758 -10.380 -22.417  1.00  0.00     0.000 C 
BRANCH  23  24
ATOM     24  C   UNL     1      -0.945 -10.863 -23.634  1.00  0.00    -0.000 C 
BRANCH  24  25
ATOM     25  C   UNL     1      -1.752 -11.682 -24.657  1.00  0.00    -0.000 C 
BRANCH  25  26
ATOM     26  C   UNL     1      -0.948 -12.037 -25.931  1.00  0.00    -0.000 C 
BRANCH  26  27
ATOM     27  C   UNL     1      -0.358 -10.811 -26.649  1.00  0.00    -0.000 C 
BRANCH  27  28
ATOM     28  C   UNL     1      -0.982  -9.489 -26.168  1.00  0.00    -0.000 C 
BRANCH  28  29
ATOM     29  C   UNL     1       0.072  -8.376 -25.992  1.00  0.00    -0.000 C 
BRANCH  29  30
ATOM     30  C   UNL     1      -0.431  -7.157 -25.192  1.00  0.00    -0.000 C 
BRANCH  30  31
ATOM     31  C   UNL     1       0.037  -7.133 -23.725  1.00  0.00    -0.003 C 
ATOM     32  C   UNL     1      -1.021  -6.567 -22.777  1.00  0.00     0.004 C 
ENDBRANCH  30  31
ENDBRANCH  29  30
ENDBRANCH  28  29
ENDBRANCH  27  28
ENDBRANCH  26  27
ENDBRANCH  25  26
ENDBRANCH  24  25
ENDBRANCH  23  24
ENDBRANCH  22  23
ENDBRANCH  21  22
ENDBRANCH  20  21
ENDBRANCH  19  20
ENDBRANCH  18  19
ENDBRANCH   1  18
TORSDOF 28
ENDMDL
MODEL 8
REMARK VINA RESULT:    -3.957      8.027     13.841
REMARK INTER + INTRA:         -12.690
REMARK INTER:                  -9.049
REMARK INTRA:                  -3.641
REMARK UNBOUND:                -2.256
REMARK SMILES CCCCCCCCCCCCCCCCCCCCCCCCCCCCCC(=O)[O-]
REMARK SMILES IDX 16 1 17 2 18 3 19 4 20 5 21 6 22 7 23 8 24 9 25 10 26 11
REMARK SMILES IDX 27 12 28 13 29 14 30 15 31 16 32 17 15 18 14 19 13 20 12 21
REMARK SMILES IDX 11 22 10 23 9 24 8 25 7 26 6 27 5 28 4 29 3 30 2 31 1 32
REMARK H PARENT
REMARK Flexibility Score: inf
ROOT
ATOM      1  C   UNL     1     -18.316   1.620 -23.217  1.00  0.00     0.000 C 
ENDROOT
BRANCH   1   2
ATOM      2  C   UNL     1     -19.266   2.762 -22.794  1.00  0.00     0.000 C 
BRANCH   2   3
ATOM      3  C   UNL     1     -19.010   3.248 -21.358  1.00  0.00     0.000 C 
BRANCH   3   4
ATOM      4  C   UNL     1     -20.125   2.785 -20.411  1.00  0.00     0.000 C 
BRANCH   4   5
ATOM      5  C   UNL     1     -19.757   1.453 -19.739  1.00  0.00     0.000 C 
BRANCH   5   6
ATOM      6  C   UNL     1     -20.093   1.425 -18.240  1.00  0.00     0.000 C 
BRANCH   6   7
ATOM      7  C   UNL     1     -18.877   1.078 -17.363  1.00  0.00     0.000 C 
BRANCH   7   8
ATOM      8  C   UNL     1     -19.216   0.058 -16.264  1.00  0.00     0.000 C 
BRANCH   8   9
ATOM      9  C   UNL     1     -18.005  -0.287 -15.384  1.00  0.00     0.000 C 
BRANCH   9  10
ATOM     10  C   UNL     1     -17.979  -1.784 -15.052  1.00  0.00     0.000 C 
BRANCH  10  11
ATOM     11  C   UNL     1     -16.879  -2.505 -15.845  1.00  0.00     0.000 C 
BRANCH  11  12
ATOM     12  C   UNL     1     -15.583  -1.681 -15.957  1.00  0.00     0.000 C 
BRANCH  12  13
ATOM     13  C   UNL     1     -14.894  -1.734 -17.333  1.00  0.00     0.006 C 
BRANCH  13  14
ATOM     14  C   UNL     1     -15.679  -2.558 -18.361  1.00  0.00     0.053 C 
BRANCH  14  15
ATOM     15  C   UNL     1     -15.573  -1.943 -19.722  1.00  0.00     0.041 C 
ATOM     16  O   UNL     1     -15.496  -0.692 -19.850  1.00  0.00    -0.550 OA
ATOM     17  O   UNL     1     -15.546  -2.754 -20.850  1.00  0.00    -0.550 OA
ENDBRANCH  14  15
ENDBRANCH  13  14
ENDBRANCH  12  13
ENDBRANCH  11  12
ENDBRANCH  10  11
ENDBRANCH   9  10
ENDBRANCH   8   9
ENDBRANCH   7   8
ENDBRANCH   6   7
ENDBRANCH   5   6
ENDBRANCH   4   5
ENDBRANCH   3   4
ENDBRANCH   2   3
ENDBRANCH   1   2
BRANCH   1  18
ATOM     18  C   UNL     1     -19.032   0.414 -23.855  1.00  0.00     0.000 C 
BRANCH  18  19
ATOM     19  C   UNL     1     -18.585  -0.965 -23.337  1.00  0.00     0.000 C 
BRANCH  19  20
ATOM     20  C   UNL     1     -18.561  -1.105 -21.802  1.00  0.00     0.000 C 
BRANCH  20  21
ATOM     21  C   UNL     1     -19.658  -2.045 -21.274  1.00  0.00     0.000 C 
BRANCH  21  22
ATOM     22  C   UNL     1     -19.862  -1.933 -19.752  1.00  0.00     0.000 C 
BRANCH  22  23
ATOM     23  C   UNL     1     -19.099  -2.976 -18.910  1.00  0.00     0.000 C 
BRANCH  23  24
ATOM     24  C   UNL     1     -19.875  -3.534 -17.702  1.00  0.00    -0.000 C 
BRANCH  24  25
ATOM     25  C   UNL     1     -19.557  -5.002 -17.361  1.00  0.00    -0.000 C 
BRANCH  25  26
ATOM     26  C   UNL     1     -19.586  -5.300 -15.844  1.00  0.00    -0.000 C 
BRANCH  26  27
ATOM     27  C   UNL     1     -18.203  -5.626 -15.252  1.00  0.00    -0.000 C 
BRANCH  27  28
ATOM     28  C   UNL     1     -17.669  -6.991 -15.721  1.00  0.00    -0.000 C 
BRANCH  28  29
ATOM     29  C   UNL     1     -16.566  -7.537 -14.791  1.00  0.00    -0.000 C 
BRANCH  29  30
ATOM     30  C   UNL     1     -17.098  -8.153 -13.481  1.00  0.00    -0.000 C 
BRANCH  30  31
ATOM     31  C   UNL     1     -16.086  -9.063 -12.760  1.00  0.00    -0.003 C 
ATOM     32  C   UNL     1     -15.121  -9.753 -13.726  1.00  0.00     0.004 C 
ENDBRANCH  30  31
ENDBRANCH  29  30
ENDBRANCH  28  29
ENDBRANCH  27  28
ENDBRANCH  26  27
ENDBRANCH  25  26
ENDBRANCH  24  25
ENDBRANCH  23  24
ENDBRANCH  22  23
ENDBRANCH  21  22
ENDBRANCH  20  21
ENDBRANCH  19  20
ENDBRANCH  18  19
ENDBRANCH   1  18
TORSDOF 28
ENDMDL
MODEL 9
REMARK VINA RESULT:    -1.996      7.357     11.351
REMARK INTER + INTRA:          -7.518
REMARK INTER:                  -3.713
REMARK INTRA:                  -3.805
REMARK UNBOUND:                -2.256
REMARK SMILES CCCCCCCCCCCCCCCCCCCCCCCCCCCCCC(=O)[O-]
REMARK SMILES IDX 16 1 17 2 18 3 19 4 20 5 21 6 22 7 23 8 24 9 25 10 26 11
REMARK SMILES IDX 27 12 28 13 29 14 30 15 31 16 32 17 15 18 14 19 13 20 12 21
REMARK SMILES IDX 11 22 10 23 9 24 8 25 7 26 6 27 5 28 4 29 3 30 2 31 1 32
REMARK H PARENT
REMARK Flexibility Score: inf
ROOT
ATOM      1  C   UNL     1      -3.565  -7.481 -18.976  1.00  0.00     0.000 C 
ENDROOT
BRANCH   1   2
ATOM      2  C   UNL     1      -2.977  -6.973 -17.641  1.00  0.00     0.000 C 
BRANCH   2   3
ATOM      3  C   UNL     1      -2.062  -8.004 -16.963  1.00  0.00     0.000 C 
BRANCH   3   4
ATOM      4  C   UNL     1      -0.844  -7.326 -16.323  1.00  0.00     0.000 C 
BRANCH   4   5
ATOM      5  C   UNL     1      -0.288  -8.171 -15.166  1.00  0.00     0.000 C 
BRANCH   5   6
ATOM      6  C   UNL     1      -1.323  -8.429 -14.060  1.00  0.00     0.000 C 
BRANCH   6   7
ATOM      7  C   UNL     1      -1.181  -9.823 -13.425  1.00  0.00     0.000 C 
BRANCH   7   8
ATOM      8  C   UNL     1      -0.836 -10.908 -14.458  1.00  0.00     0.000 C 
BRANCH   8   9
ATOM      9  C   UNL     1      -1.805 -12.099 -14.411  1.00  0.00     0.000 C 
BRANCH   9  10
ATOM     10  C   UNL     1      -3.139 -11.694 -13.770  1.00  0.00     0.000 C 
BRANCH  10  11
ATOM     11  C   UNL     1      -4.323 -12.100 -14.661  1.00  0.00     0.000 C 
BRANCH  11  12
ATOM     12  C   UNL     1      -5.681 -11.973 -13.948  1.00  0.00     0.000 C 
BRANCH  12  13
ATOM     13  C   UNL     1      -6.699 -11.052 -14.645  1.00  0.00     0.006 C 
BRANCH  13  14
ATOM     14  C   UNL     1      -6.061 -10.165 -15.722  1.00  0.00     0.053 C 
BRANCH  14  15
ATOM     15  C   UNL     1      -5.964  -8.748 -15.250  1.00  0.00     0.041 C 
ATOM     16  O   UNL     1      -5.957  -8.488 -14.017  1.00  0.00    -0.550 OA
ATOM     17  O   UNL     1      -5.869  -7.714 -16.173  1.00  0.00    -0.550 OA
ENDBRANCH  14  15
ENDBRANCH  13  14
ENDBRANCH  12  13
ENDBRANCH  11  12
ENDBRANCH  10  11
ENDBRANCH   9  10
ENDBRANCH   8   9
ENDBRANCH   7   8
ENDBRANCH   6   7
ENDBRANCH   5   6
ENDBRANCH   4   5
ENDBRANCH   3   4
ENDBRANCH   2   3
ENDBRANCH   1   2
BRANCH   1  18
ATOM     18  C   UNL     1      -2.823  -6.965 -20.223  1.00  0.00     0.000 C 
BRANCH  18  19
ATOM     19  C   UNL     1      -1.289  -6.906 -20.099  1.00  0.00     0.000 C 
BRANCH  19  20
ATOM     20  C   UNL     1      -0.532  -7.995 -20.884  1.00  0.00     0.000 C 
BRANCH  20  21
ATOM     21  C   UNL     1       0.027  -9.102 -19.975  1.00  0.00     0.000 C 
BRANCH  21  22
ATOM     22  C   UNL     1      -1.041 -10.128 -19.555  1.00  0.00     0.000 C 
BRANCH  22  23
ATOM     23  C   UNL     1      -1.075 -11.421 -20.396  1.00  0.00     0.000 C 
BRANCH  23  24
ATOM     24  C   UNL     1       0.125 -11.615 -21.344  1.00  0.00    -0.000 C 
BRANCH  24  25
ATOM     25  C   UNL     1      -0.219 -11.505 -22.840  1.00  0.00    -0.000 C 
BRANCH  25  26
ATOM     26  C   UNL     1      -1.732 -11.338 -23.112  1.00  0.00    -0.000 C 
BRANCH  26  27
ATOM     27  C   UNL     1      -2.117  -9.937 -23.621  1.00  0.00    -0.000 C 
BRANCH  27  28
ATOM     28  C   UNL     1      -0.941  -9.215 -24.302  1.00  0.00    -0.000 C 
BRANCH  28  29
ATOM     29  C   UNL     1      -0.986  -9.345 -25.839  1.00  0.00    -0.000 C 
BRANCH  29  30
ATOM     30  C   UNL     1      -2.167 -10.189 -26.363  1.00  0.00    -0.000 C 
BRANCH  30  31
ATOM     31  C   UNL     1      -1.742 -11.489 -27.071  1.00  0.00    -0.003 C 
ATOM     32  C   UNL     1      -0.286 -11.864 -26.792  1.00  0.00     0.004 C 
ENDBRANCH  30  31
ENDBRANCH  29  30
ENDBRANCH  28  29
ENDBRANCH  27  28
ENDBRANCH  26  27
ENDBRANCH  25  26
ENDBRANCH  24  25
ENDBRANCH  23  24
ENDBRANCH  22  23
ENDBRANCH  21  22
ENDBRANCH  20  21
ENDBRANCH  19  20
ENDBRANCH  18  19
ENDBRANCH   1  18
TORSDOF 28
ENDMDL
