MODEL 1
REMARK VINA RESULT:    -7.330      0.000      0.000
REMARK INTER + INTRA:          -7.386
REMARK INTER:                  -7.973
REMARK INTRA:                   0.587
REMARK UNBOUND:                 0.587
REMARK SMILES CC1(C)CC[C@@]2(C(=O)[O-])CC[C@@]3(C)C(=CC[C@H]4[C@@]5(C)CC[C@H](O)C(C)(C)[C@@H]5CC[C@]43C)[C@@H]2C1
REMARK SMILES IDX 6 1 5 2 10 3 32 4 4 5 11 6 14 7 33 8 2 9 12 10 15 11 1 12
REMARK SMILES IDX 3 13 13 14 30 15 16 16 17 17 29 18 31 19 18 20 28 21 27 22
REMARK SMILES IDX 20 23 19 24 24 25 21 26 22 27 25 28 26 29 7 30 8 31 9 32
REMARK SMILES IDX 23 33
REMARK H PARENT 23 34
REMARK Flexibility Score: inf
ROOT
ATOM      1  C   UNL     1      54.012  33.524  49.241  1.00  0.00     0.017 C 
ATOM      2  C   UNL     1      55.512  33.910  49.510  1.00  0.00     0.014 C 
ATOM      3  C   UNL     1      53.736  33.673  47.730  1.00  0.00     0.014 C 
ATOM      4  C   UNL     1      53.733  32.034  49.611  1.00  0.00     0.028 C 
ATOM      5  C   UNL     1      56.307  32.877  50.321  1.00  0.00     0.007 C 
ATOM      6  C   UNL     1      52.277  33.379  47.372  1.00  0.00     0.013 C 
ATOM      7  C   UNL     1      52.298  31.598  49.217  1.00  0.00    -0.064 C 
ATOM      8  C   UNL     1      54.152  31.716  51.082  1.00  0.00     0.015 C 
ATOM      9  C   UNL     1      55.522  32.326  51.533  1.00  0.00    -0.035 C 
ATOM     10  C   UNL     1      51.730  31.976  47.840  1.00  0.00    -0.006 C 
ATOM     11  C   UNL     1      51.690  30.615  49.910  1.00  0.00    -0.027 C 
ATOM     12  C   UNL     1      56.383  31.229  52.202  1.00  0.00     0.011 C 
ATOM     13  C   UNL     1      55.303  33.444  52.580  1.00  0.00     0.011 C 
ATOM     14  C   UNL     1      52.301  30.921  46.843  1.00  0.00     0.017 C 
ATOM     15  C   UNL     1      50.109  31.950  47.855  1.00  0.00    -0.020 C 
ATOM     16  C   UNL     1      50.364  30.004  49.580  1.00  0.00     0.032 C 
ATOM     17  C   UNL     1      49.584  30.523  48.325  1.00  0.00     0.006 C 
ATOM     18  C   UNL     1      49.517  33.017  48.838  1.00  0.00     0.008 C 
ATOM     19  C   UNL     1      49.611  32.290  46.410  1.00  0.00     0.012 C 
ATOM     20  C   UNL     1      47.995  30.403  48.537  1.00  0.00    -0.025 C 
ATOM     21  C   UNL     1      47.990  32.938  49.043  1.00  0.00     0.005 C 
ATOM     22  C   UNL     1      47.529  31.542  49.525  1.00  0.00     0.003 C 
ATOM     23  C   UNL     1      47.616  29.011  49.163  1.00  0.00     0.010 C 
ATOM     24  C   UNL     1      47.274  30.462  47.146  1.00  0.00     0.012 C 
ATOM     25  C   UNL     1      46.026  31.458  50.020  1.00  0.00    -0.006 C 
ATOM     26  C   UNL     1      46.147  28.905  49.606  1.00  0.00     0.033 C 
ATOM     27  C   UNL     1      45.763  30.024  50.587  1.00  0.00     0.120 C 
ATOM     28  C   UNL     1      44.988  31.815  48.923  1.00  0.00     0.014 C 
ATOM     29  C   UNL     1      45.806  32.458  51.190  1.00  0.00     0.014 C 
ENDROOT
BRANCH   1  30
ATOM     30  C   UNL     1      53.109  34.498  50.001  1.00  0.00     0.048 C 
ATOM     31  O   UNL     1      51.952  34.171  50.373  1.00  0.00    -0.550 OA
ATOM     32  O   UNL     1      53.555  35.788  50.262  1.00  0.00    -0.550 OA
ENDBRANCH   1  30
BRANCH  27  33
ATOM     33  O   UNL     1      44.411  29.880  50.947  1.00  0.00    -0.393 OA
ATOM     34  H   UNL     1      44.253  30.472  51.729  1.00  0.00     0.210 HD
ENDBRANCH  27  33
TORSDOF 2
ENDMDL
MODEL 2
REMARK VINA RESULT:    -6.806      4.029      8.024
REMARK INTER + INTRA:          -6.816
REMARK INTER:                  -7.005
REMARK INTRA:                   0.189
REMARK UNBOUND:                 0.587
REMARK SMILES CC1(C)CC[C@@]2(C(=O)[O-])CC[C@@]3(C)C(=CC[C@H]4[C@@]5(C)CC[C@H](O)C(C)(C)[C@@H]5CC[C@]43C)[C@@H]2C1
REMARK SMILES IDX 6 1 5 2 10 3 32 4 4 5 11 6 14 7 33 8 2 9 12 10 15 11 1 12
REMARK SMILES IDX 3 13 13 14 30 15 16 16 17 17 29 18 31 19 18 20 28 21 27 22
REMARK SMILES IDX 20 23 19 24 24 25 21 26 22 27 25 28 26 29 7 30 8 31 9 32
REMARK SMILES IDX 23 33
REMARK H PARENT 23 34
REMARK Flexibility Score: inf
ROOT
ATOM      1  C   UNL     1      49.482  32.396  48.548  1.00  0.00     0.017 C 
ATOM      2  C   UNL     1      49.163  30.885  48.839  1.00  0.00     0.014 C 
ATOM      3  C   UNL     1      48.270  33.242  48.994  1.00  0.00     0.014 C 
ATOM      4  C   UNL     1      50.710  32.888  49.374  1.00  0.00     0.028 C 
ATOM      5  C   UNL     1      50.250  30.138  49.625  1.00  0.00     0.007 C 
ATOM      6  C   UNL     1      48.457  34.731  48.693  1.00  0.00     0.013 C 
ATOM      7  C   UNL     1      50.948  34.412  49.208  1.00  0.00    -0.064 C 
ATOM      8  C   UNL     1      51.962  31.984  49.142  1.00  0.00     0.015 C 
ATOM      9  C   UNL     1      51.679  30.443  49.121  1.00  0.00    -0.035 C 
ATOM     10  C   UNL     1      49.763  35.388  49.282  1.00  0.00    -0.006 C 
ATOM     11  C   UNL     1      52.193  34.908  49.350  1.00  0.00    -0.027 C 
ATOM     12  C   UNL     1      52.680  29.718  50.050  1.00  0.00     0.011 C 
ATOM     13  C   UNL     1      51.875  29.874  47.695  1.00  0.00     0.011 C 
ATOM     14  C   UNL     1      49.499  35.617  50.803  1.00  0.00     0.017 C 
ATOM     15  C   UNL     1      50.114  36.782  48.533  1.00  0.00    -0.020 C 
ATOM     16  C   UNL     1      52.563  36.358  49.338  1.00  0.00     0.032 C 
ATOM     17  C   UNL     1      51.432  37.425  49.151  1.00  0.00     0.006 C 
ATOM     18  C   UNL     1      50.364  36.574  47.000  1.00  0.00     0.008 C 
ATOM     19  C   UNL     1      48.884  37.737  48.700  1.00  0.00     0.012 C 
ATOM     20  C   UNL     1      51.986  38.733  48.397  1.00  0.00    -0.025 C 
ATOM     21  C   UNL     1      50.876  37.820  46.248  1.00  0.00     0.005 C 
ATOM     22  C   UNL     1      52.172  38.395  46.867  1.00  0.00     0.003 C 
ATOM     23  C   UNL     1      53.375  39.174  48.986  1.00  0.00     0.010 C 
ATOM     24  C   UNL     1      51.009  39.934  48.647  1.00  0.00     0.012 C 
ATOM     25  C   UNL     1      52.908  39.497  45.998  1.00  0.00    -0.006 C 
ATOM     26  C   UNL     1      54.076  40.275  48.173  1.00  0.00     0.033 C 
ATOM     27  C   UNL     1      54.254  39.875  46.700  1.00  0.00     0.120 C 
ATOM     28  C   UNL     1      52.047  40.762  45.739  1.00  0.00     0.014 C 
ATOM     29  C   UNL     1      53.270  38.907  44.606  1.00  0.00     0.014 C 
ENDROOT
BRANCH   1  30
ATOM     30  C   UNL     1      49.676  32.577  47.041  1.00  0.00     0.048 C 
ATOM     31  O   UNL     1      50.735  33.064  46.566  1.00  0.00    -0.550 OA
ATOM     32  O   UNL     1      48.651  32.230  46.169  1.00  0.00    -0.550 OA
ENDBRANCH   1  30
BRANCH  27  33
ATOM     33  O   UNL     1      54.889  40.922  46.009  1.00  0.00    -0.393 OA
ATOM     34  H   UNL     1      54.900  40.672  45.048  1.00  0.00     0.210 HD
ENDBRANCH  27  33
TORSDOF 2
ENDMDL
MODEL 3
REMARK VINA RESULT:    -6.642      4.294      7.783
REMARK INTER + INTRA:          -6.637
REMARK INTER:                  -7.367
REMARK INTRA:                   0.730
REMARK UNBOUND:                 0.587
REMARK SMILES CC1(C)CC[C@@]2(C(=O)[O-])CC[C@@]3(C)C(=CC[C@H]4[C@@]5(C)CC[C@H](O)C(C)(C)[C@@H]5CC[C@]43C)[C@@H]2C1
REMARK SMILES IDX 6 1 5 2 10 3 32 4 4 5 11 6 14 7 33 8 2 9 12 10 15 11 1 12
REMARK SMILES IDX 3 13 13 14 30 15 16 16 17 17 29 18 31 19 18 20 28 21 27 22
REMARK SMILES IDX 20 23 19 24 24 25 21 26 22 27 25 28 26 29 7 30 8 31 9 32
REMARK SMILES IDX 23 33
REMARK H PARENT 23 34
REMARK Flexibility Score: inf
ROOT
ATOM      1  C   UNL     1      53.170  32.848  49.562  1.00  0.00     0.017 C 
ATOM      2  C   UNL     1      53.582  31.418  50.068  1.00  0.00     0.014 C 
ATOM      3  C   UNL     1      51.735  32.768  48.998  1.00  0.00     0.014 C 
ATOM      4  C   UNL     1      53.143  33.880  50.731  1.00  0.00     0.028 C 
ATOM      5  C   UNL     1      54.136  31.378  51.500  1.00  0.00     0.007 C 
ATOM      6  C   UNL     1      51.261  34.103  48.418  1.00  0.00     0.013 C 
ATOM      7  C   UNL     1      52.599  35.259  50.275  1.00  0.00    -0.064 C 
ATOM      8  C   UNL     1      54.501  33.916  51.502  1.00  0.00     0.015 C 
ATOM      9  C   UNL     1      55.141  32.516  51.792  1.00  0.00    -0.035 C 
ATOM     10  C   UNL     1      51.341  35.337  49.395  1.00  0.00    -0.006 C 
ATOM     11  C   UNL     1      53.000  36.375  50.915  1.00  0.00    -0.027 C 
ATOM     12  C   UNL     1      55.544  32.428  53.282  1.00  0.00     0.011 C 
ATOM     13  C   UNL     1      56.427  32.321  50.952  1.00  0.00     0.011 C 
ATOM     14  C   UNL     1      50.132  35.209  50.374  1.00  0.00     0.017 C 
ATOM     15  C   UNL     1      51.289  36.739  48.582  1.00  0.00    -0.020 C 
ATOM     16  C   UNL     1      52.478  37.757  50.674  1.00  0.00     0.032 C 
ATOM     17  C   UNL     1      51.366  37.967  49.591  1.00  0.00     0.006 C 
ATOM     18  C   UNL     1      52.486  36.877  47.580  1.00  0.00     0.008 C 
ATOM     19  C   UNL     1      49.959  36.765  47.757  1.00  0.00     0.012 C 
ATOM     20  C   UNL     1      51.483  39.419  48.911  1.00  0.00    -0.025 C 
ATOM     21  C   UNL     1      52.608  38.255  46.897  1.00  0.00     0.005 C 
ATOM     22  C   UNL     1      52.706  39.415  47.916  1.00  0.00     0.003 C 
ATOM     23  C   UNL     1      51.724  40.530  49.998  1.00  0.00     0.010 C 
ATOM     24  C   UNL     1      50.125  39.782  48.216  1.00  0.00     0.012 C 
ATOM     25  C   UNL     1      53.109  40.821  47.306  1.00  0.00    -0.006 C 
ATOM     26  C   UNL     1      52.072  41.909  49.413  1.00  0.00     0.033 C 
ATOM     27  C   UNL     1      53.288  41.844  48.476  1.00  0.00     0.120 C 
ATOM     28  C   UNL     1      52.100  41.356  46.256  1.00  0.00     0.014 C 
ATOM     29  C   UNL     1      54.484  40.704  46.590  1.00  0.00     0.014 C 
ENDROOT
BRANCH   1  30
ATOM     30  C   UNL     1      54.116  33.262  48.433  1.00  0.00     0.048 C 
ATOM     31  O   UNL     1      55.213  33.834  48.668  1.00  0.00    -0.550 OA
ATOM     32  O   UNL     1      53.750  33.038  47.112  1.00  0.00    -0.550 OA
ENDBRANCH   1  30
BRANCH  27  33
ATOM     33  O   UNL     1      53.550  43.128  47.967  1.00  0.00    -0.393 OA
ATOM     34  H   UNL     1      52.874  43.741  48.360  1.00  0.00     0.210 HD
ENDBRANCH  27  33
TORSDOF 2
ENDMDL
MODEL 4
REMARK VINA RESULT:    -6.603      7.324     11.556
REMARK INTER + INTRA:          -6.594
REMARK INTER:                  -6.777
REMARK INTRA:                   0.183
REMARK UNBOUND:                 0.587
REMARK SMILES CC1(C)CC[C@@]2(C(=O)[O-])CC[C@@]3(C)C(=CC[C@H]4[C@@]5(C)CC[C@H](O)C(C)(C)[C@@H]5CC[C@]43C)[C@@H]2C1
REMARK SMILES IDX 6 1 5 2 10 3 32 4 4 5 11 6 14 7 33 8 2 9 12 10 15 11 1 12
REMARK SMILES IDX 3 13 13 14 30 15 16 16 17 17 29 18 31 19 18 20 28 21 27 22
REMARK SMILES IDX 20 23 19 24 24 25 21 26 22 27 25 28 26 29 7 30 8 31 9 32
REMARK SMILES IDX 23 33
REMARK H PARENT 23 34
REMARK Flexibility Score: inf
ROOT
ATOM      1  C   UNL     1      43.103  40.358  54.980  1.00  0.00     0.017 C 
ATOM      2  C   UNL     1      42.243  41.632  55.308  1.00  0.00     0.014 C 
ATOM      3  C   UNL     1      44.591  40.715  55.179  1.00  0.00     0.014 C 
ATOM      4  C   UNL     1      42.781  39.186  55.959  1.00  0.00     0.028 C 
ATOM      5  C   UNL     1      41.093  41.395  56.299  1.00  0.00     0.007 C 
ATOM      6  C   UNL     1      45.522  39.552  54.822  1.00  0.00     0.013 C 
ATOM      7  C   UNL     1      43.722  37.973  55.741  1.00  0.00    -0.064 C 
ATOM      8  C   UNL     1      41.254  38.856  55.981  1.00  0.00     0.015 C 
ATOM      9  C   UNL     1      40.302  40.099  56.008  1.00  0.00    -0.035 C 
ATOM     10  C   UNL     1      45.234  38.194  55.569  1.00  0.00    -0.006 C 
ATOM     11  C   UNL     1      43.289  36.734  56.046  1.00  0.00    -0.027 C 
ATOM     12  C   UNL     1      39.247  39.922  57.125  1.00  0.00     0.011 C 
ATOM     13  C   UNL     1      39.539  40.230  54.668  1.00  0.00     0.011 C 
ATOM     14  C   UNL     1      45.805  38.350  57.013  1.00  0.00     0.017 C 
ATOM     15  C   UNL     1      45.918  36.941  54.801  1.00  0.00    -0.020 C 
ATOM     16  C   UNL     1      44.113  35.486  56.006  1.00  0.00     0.032 C 
ATOM     17  C   UNL     1      45.616  35.585  55.579  1.00  0.00     0.006 C 
ATOM     18  C   UNL     1      45.369  36.780  53.342  1.00  0.00     0.008 C 
ATOM     19  C   UNL     1      47.457  37.215  54.715  1.00  0.00     0.012 C 
ATOM     20  C   UNL     1      46.103  34.240  54.845  1.00  0.00    -0.025 C 
ATOM     21  C   UNL     1      45.839  35.507  52.607  1.00  0.00     0.005 C 
ATOM     22  C   UNL     1      45.501  34.214  53.387  1.00  0.00     0.003 C 
ATOM     23  C   UNL     1      45.601  32.966  55.617  1.00  0.00     0.010 C 
ATOM     24  C   UNL     1      47.669  34.169  54.866  1.00  0.00     0.012 C 
ATOM     25  C   UNL     1      45.698  32.864  52.579  1.00  0.00    -0.006 C 
ATOM     26  C   UNL     1      45.829  31.647  54.860  1.00  0.00     0.033 C 
ATOM     27  C   UNL     1      45.196  31.673  53.460  1.00  0.00     0.120 C 
ATOM     28  C   UNL     1      47.159  32.627  52.112  1.00  0.00     0.014 C 
ATOM     29  C   UNL     1      44.816  32.889  51.300  1.00  0.00     0.014 C 
ENDROOT
BRANCH   1  30
ATOM     30  C   UNL     1      42.882  39.979  53.515  1.00  0.00     0.048 C 
ATOM     31  O   UNL     1      42.466  38.837  53.184  1.00  0.00    -0.550 OA
ATOM     32  O   UNL     1      43.178  40.897  52.515  1.00  0.00    -0.550 OA
ENDBRANCH   1  30
BRANCH  27  33
ATOM     33  O   UNL     1      45.445  30.449  52.816  1.00  0.00    -0.393 OA
ATOM     34  H   UNL     1      44.854  30.413  52.019  1.00  0.00     0.210 HD
ENDBRANCH  27  33
TORSDOF 2
ENDMDL
MODEL 5
REMARK VINA RESULT:    -6.549      8.499     13.061
REMARK INTER + INTRA:          -6.536
REMARK INTER:                  -6.719
REMARK INTRA:                   0.183
REMARK UNBOUND:                 0.587
REMARK SMILES CC1(C)CC[C@@]2(C(=O)[O-])CC[C@@]3(C)C(=CC[C@H]4[C@@]5(C)CC[C@H](O)C(C)(C)[C@@H]5CC[C@]43C)[C@@H]2C1
REMARK SMILES IDX 6 1 5 2 10 3 32 4 4 5 11 6 14 7 33 8 2 9 12 10 15 11 1 12
REMARK SMILES IDX 3 13 13 14 30 15 16 16 17 17 29 18 31 19 18 20 28 21 27 22
REMARK SMILES IDX 20 23 19 24 24 25 21 26 22 27 25 28 26 29 7 30 8 31 9 32
REMARK SMILES IDX 23 33
REMARK H PARENT 23 34
REMARK Flexibility Score: inf
ROOT
ATOM      1  C   UNL     1      41.371  41.051  53.633  1.00  0.00     0.017 C 
ATOM      2  C   UNL     1      40.039  41.768  53.209  1.00  0.00     0.014 C 
ATOM      3  C   UNL     1      42.170  42.010  54.541  1.00  0.00     0.014 C 
ATOM      4  C   UNL     1      41.085  39.765  54.469  1.00  0.00     0.028 C 
ATOM      5  C   UNL     1      38.763  40.945  53.439  1.00  0.00     0.007 C 
ATOM      6  C   UNL     1      43.522  41.427  54.960  1.00  0.00     0.013 C 
ATOM      7  C   UNL     1      42.388  39.127  55.017  1.00  0.00    -0.064 C 
ATOM      8  C   UNL     1      40.124  38.790  53.717  1.00  0.00     0.015 C 
ATOM      9  C   UNL     1      38.908  39.469  53.001  1.00  0.00    -0.035 C 
ATOM     10  C   UNL     1      43.468  40.014  55.658  1.00  0.00    -0.006 C 
ATOM     11  C   UNL     1      42.429  37.801  55.253  1.00  0.00    -0.027 C 
ATOM     12  C   UNL     1      37.604  38.728  53.377  1.00  0.00     0.011 C 
ATOM     13  C   UNL     1      39.064  39.382  51.464  1.00  0.00     0.011 C 
ATOM     14  C   UNL     1      42.997  40.260  57.125  1.00  0.00     0.017 C 
ATOM     15  C   UNL     1      44.914  39.282  55.622  1.00  0.00    -0.020 C 
ATOM     16  C   UNL     1      43.564  37.061  55.889  1.00  0.00     0.032 C 
ATOM     17  C   UNL     1      44.832  37.862  56.338  1.00  0.00     0.006 C 
ATOM     18  C   UNL     1      45.411  39.043  54.156  1.00  0.00     0.008 C 
ATOM     19  C   UNL     1      45.943  40.220  56.338  1.00  0.00     0.012 C 
ATOM     20  C   UNL     1      46.157  36.957  56.238  1.00  0.00    -0.025 C 
ATOM     21  C   UNL     1      46.694  38.195  54.033  1.00  0.00     0.005 C 
ATOM     22  C   UNL     1      46.560  36.814  54.719  1.00  0.00     0.003 C 
ATOM     23  C   UNL     1      45.902  35.522  56.826  1.00  0.00     0.010 C 
ATOM     24  C   UNL     1      47.291  37.589  57.118  1.00  0.00     0.012 C 
ATOM     25  C   UNL     1      47.722  35.784  54.404  1.00  0.00    -0.006 C 
ATOM     26  C   UNL     1      47.044  34.527  56.562  1.00  0.00     0.033 C 
ATOM     27  C   UNL     1      47.370  34.411  55.065  1.00  0.00     0.120 C 
ATOM     28  C   UNL     1      49.124  36.270  54.856  1.00  0.00     0.014 C 
ATOM     29  C   UNL     1      47.803  35.544  52.870  1.00  0.00     0.014 C 
ENDROOT
BRANCH   1  30
ATOM     30  C   UNL     1      42.198  40.765  52.378  1.00  0.00     0.048 C 
ATOM     31  O   UNL     1      42.552  39.595  52.073  1.00  0.00    -0.550 OA
ATOM     32  O   UNL     1      42.602  41.817  51.566  1.00  0.00    -0.550 OA
ENDBRANCH   1  30
BRANCH  27  33
ATOM     33  O   UNL     1      48.425  33.498  54.889  1.00  0.00    -0.393 OA
ATOM     34  H   UNL     1      49.260  34.030  54.814  1.00  0.00     0.210 HD
ENDBRANCH  27  33
TORSDOF 2
ENDMDL
MODEL 6
REMARK VINA RESULT:    -6.471      8.186     10.822
REMARK INTER + INTRA:          -6.451
REMARK INTER:                  -6.633
REMARK INTRA:                   0.183
REMARK UNBOUND:                 0.587
REMARK SMILES CC1(C)CC[C@@]2(C(=O)[O-])CC[C@@]3(C)C(=CC[C@H]4[C@@]5(C)CC[C@H](O)C(C)(C)[C@@H]5CC[C@]43C)[C@@H]2C1
REMARK SMILES IDX 6 1 5 2 10 3 32 4 4 5 11 6 14 7 33 8 2 9 12 10 15 11 1 12
REMARK SMILES IDX 3 13 13 14 30 15 16 16 17 17 29 18 31 19 18 20 28 21 27 22
REMARK SMILES IDX 20 23 19 24 24 25 21 26 22 27 25 28 26 29 7 30 8 31 9 32
REMARK SMILES IDX 23 33
REMARK H PARENT 23 34
REMARK Flexibility Score: inf
ROOT
ATOM      1  C   UNL     1      52.222  44.802  51.398  1.00  0.00     0.017 C 
ATOM      2  C   UNL     1      52.197  45.899  52.524  1.00  0.00     0.014 C 
ATOM      3  C   UNL     1      53.344  45.160  50.399  1.00  0.00     0.014 C 
ATOM      4  C   UNL     1      52.563  43.396  51.981  1.00  0.00     0.028 C 
ATOM      5  C   UNL     1      52.222  45.350  53.958  1.00  0.00     0.007 C 
ATOM      6  C   UNL     1      53.411  44.182  49.223  1.00  0.00     0.013 C 
ATOM      7  C   UNL     1      52.734  42.332  50.866  1.00  0.00    -0.064 C 
ATOM      8  C   UNL     1      51.594  43.002  53.141  1.00  0.00     0.015 C 
ATOM      9  C   UNL     1      51.274  44.147  54.162  1.00  0.00    -0.035 C 
ATOM     10  C   UNL     1      53.557  42.660  49.609  1.00  0.00    -0.006 C 
ATOM     11  C   UNL     1      52.474  41.038  51.138  1.00  0.00    -0.027 C 
ATOM     12  C   UNL     1      51.466  43.625  55.604  1.00  0.00     0.011 C 
ATOM     13  C   UNL     1      49.800  44.600  54.026  1.00  0.00     0.011 C 
ATOM     14  C   UNL     1      55.049  42.446  50.014  1.00  0.00     0.017 C 
ATOM     15  C   UNL     1      53.141  41.695  48.375  1.00  0.00    -0.020 C 
ATOM     16  C   UNL     1      52.705  39.886  50.210  1.00  0.00     0.032 C 
ATOM     17  C   UNL     1      53.304  40.166  48.790  1.00  0.00     0.006 C 
ATOM     18  C   UNL     1      51.650  41.910  47.943  1.00  0.00     0.008 C 
ATOM     19  C   UNL     1      54.057  42.052  47.157  1.00  0.00     0.012 C 
ATOM     20  C   UNL     1      52.776  39.095  47.715  1.00  0.00    -0.025 C 
ATOM     21  C   UNL     1      51.125  40.907  46.895  1.00  0.00     0.005 C 
ATOM     22  C   UNL     1      51.279  39.437  47.352  1.00  0.00     0.003 C 
ATOM     23  C   UNL     1      52.829  37.638  48.302  1.00  0.00     0.010 C 
ATOM     24  C   UNL     1      53.726  39.093  46.467  1.00  0.00     0.012 C 
ATOM     25  C   UNL     1      50.519  38.367  46.463  1.00  0.00    -0.006 C 
ATOM     26  C   UNL     1      52.131  36.585  47.424  1.00  0.00     0.033 C 
ATOM     27  C   UNL     1      50.671  36.960  47.130  1.00  0.00     0.120 C 
ATOM     28  C   UNL     1      50.996  38.332  44.987  1.00  0.00     0.014 C 
ATOM     29  C   UNL     1      49.000  38.697  46.437  1.00  0.00     0.014 C 
ENDROOT
BRANCH   1  30
ATOM     30  C   UNL     1      50.884  44.825  50.658  1.00  0.00     0.048 C 
ATOM     31  O   UNL     1      50.158  43.799  50.576  1.00  0.00    -0.550 OA
ATOM     32  O   UNL     1      50.465  45.990  50.028  1.00  0.00    -0.550 OA
ENDBRANCH   1  30
BRANCH  27  33
ATOM     33  O   UNL     1      50.092  35.969  46.318  1.00  0.00    -0.393 OA
ATOM     34  H   UNL     1      50.018  35.147  46.870  1.00  0.00     0.210 HD
ENDBRANCH  27  33
TORSDOF 2
ENDMDL
MODEL 7
REMARK VINA RESULT:    -6.430      5.916      7.716
REMARK INTER + INTRA:          -6.407
REMARK INTER:                  -6.640
REMARK INTRA:                   0.233
REMARK UNBOUND:                 0.587
REMARK SMILES CC1(C)CC[C@@]2(C(=O)[O-])CC[C@@]3(C)C(=CC[C@H]4[C@@]5(C)CC[C@H](O)C(C)(C)[C@@H]5CC[C@]43C)[C@@H]2C1
REMARK SMILES IDX 6 1 5 2 10 3 32 4 4 5 11 6 14 7 33 8 2 9 12 10 15 11 1 12
REMARK SMILES IDX 3 13 13 14 30 15 16 16 17 17 29 18 31 19 18 20 28 21 27 22
REMARK SMILES IDX 20 23 19 24 24 25 21 26 22 27 25 28 26 29 7 30 8 31 9 32
REMARK SMILES IDX 23 33
REMARK H PARENT 23 34
REMARK Flexibility Score: inf
ROOT
ATOM      1  C   UNL     1      53.306  39.955  46.336  1.00  0.00     0.017 C 
ATOM      2  C   UNL     1      54.392  40.620  45.416  1.00  0.00     0.014 C 
ATOM      3  C   UNL     1      52.784  38.686  45.630  1.00  0.00     0.014 C 
ATOM      4  C   UNL     1      53.914  39.501  47.699  1.00  0.00     0.028 C 
ATOM      5  C   UNL     1      55.719  40.944  46.118  1.00  0.00     0.007 C 
ATOM      6  C   UNL     1      51.670  37.995  46.421  1.00  0.00     0.013 C 
ATOM      7  C   UNL     1      52.891  38.715  48.558  1.00  0.00    -0.064 C 
ATOM      8  C   UNL     1      54.640  40.677  48.428  1.00  0.00     0.015 C 
ATOM      9  C   UNL     1      55.526  41.586  47.511  1.00  0.00    -0.035 C 
ATOM     10  C   UNL     1      52.021  37.623  47.912  1.00  0.00    -0.006 C 
ATOM     11  C   UNL     1      53.001  38.730  49.901  1.00  0.00    -0.027 C 
ATOM     12  C   UNL     1      56.921  41.768  48.152  1.00  0.00     0.011 C 
ATOM     13  C   UNL     1      54.896  42.993  47.367  1.00  0.00     0.011 C 
ATOM     14  C   UNL     1      52.919  36.348  47.853  1.00  0.00     0.017 C 
ATOM     15  C   UNL     1      50.682  37.357  48.787  1.00  0.00    -0.020 C 
ATOM     16  C   UNL     1      52.170  37.931  50.856  1.00  0.00     0.032 C 
ATOM     17  C   UNL     1      51.066  36.979  50.284  1.00  0.00     0.006 C 
ATOM     18  C   UNL     1      49.759  38.622  48.841  1.00  0.00     0.008 C 
ATOM     19  C   UNL     1      49.883  36.201  48.097  1.00  0.00     0.012 C 
ATOM     20  C   UNL     1      49.831  36.841  51.304  1.00  0.00    -0.025 C 
ATOM     21  C   UNL     1      48.554  38.508  49.797  1.00  0.00     0.005 C 
ATOM     22  C   UNL     1      48.976  38.166  51.246  1.00  0.00     0.003 C 
ATOM     23  C   UNL     1      50.340  36.638  52.778  1.00  0.00     0.010 C 
ATOM     24  C   UNL     1      49.002  35.558  50.952  1.00  0.00     0.012 C 
ATOM     25  C   UNL     1      47.834  38.303  52.336  1.00  0.00    -0.006 C 
ATOM     26  C   UNL     1      49.231  36.725  53.839  1.00  0.00     0.033 C 
ATOM     27  C   UNL     1      48.454  38.048  53.749  1.00  0.00     0.120 C 
ATOM     28  C   UNL     1      46.623  37.365  52.088  1.00  0.00     0.014 C 
ATOM     29  C   UNL     1      47.284  39.757  52.335  1.00  0.00     0.014 C 
ENDROOT
BRANCH   1  30
ATOM     30  C   UNL     1      52.141  40.932  46.508  1.00  0.00     0.048 C 
ATOM     31  O   UNL     1      51.501  41.378  45.520  1.00  0.00    -0.550 OA
ATOM     32  O   UNL     1      51.794  41.372  47.780  1.00  0.00    -0.550 OA
ENDBRANCH   1  30
BRANCH  27  33
ATOM     33  O   UNL     1      47.451  38.064  54.734  1.00  0.00    -0.393 OA
ATOM     34  H   UNL     1      47.908  38.080  55.615  1.00  0.00     0.210 HD
ENDBRANCH  27  33
TORSDOF 2
ENDMDL
MODEL 8
REMARK VINA RESULT:    -6.399      3.861      7.877
REMARK INTER + INTRA:          -6.373
REMARK INTER:                  -6.556
REMARK INTRA:                   0.183
REMARK UNBOUND:                 0.587
REMARK SMILES CC1(C)CC[C@@]2(C(=O)[O-])CC[C@@]3(C)C(=CC[C@H]4[C@@]5(C)CC[C@H](O)C(C)(C)[C@@H]5CC[C@]43C)[C@@H]2C1
REMARK SMILES IDX 6 1 5 2 10 3 32 4 4 5 11 6 14 7 33 8 2 9 12 10 15 11 1 12
REMARK SMILES IDX 3 13 13 14 30 15 16 16 17 17 29 18 31 19 18 20 28 21 27 22
REMARK SMILES IDX 20 23 19 24 24 25 21 26 22 27 25 28 26 29 7 30 8 31 9 32
REMARK SMILES IDX 23 33
REMARK H PARENT 23 34
REMARK Flexibility Score: inf
ROOT
ATOM      1  C   UNL     1      45.836  35.108  53.859  1.00  0.00     0.017 C 
ATOM      2  C   UNL     1      45.071  35.509  55.172  1.00  0.00     0.014 C 
ATOM      3  C   UNL     1      44.815  35.052  52.702  1.00  0.00     0.014 C 
ATOM      4  C   UNL     1      46.904  36.178  53.473  1.00  0.00     0.028 C 
ATOM      5  C   UNL     1      45.694  36.679  55.948  1.00  0.00     0.007 C 
ATOM      6  C   UNL     1      45.453  34.606  51.384  1.00  0.00     0.013 C 
ATOM      7  C   UNL     1      47.565  35.869  52.104  1.00  0.00    -0.064 C 
ATOM      8  C   UNL     1      47.893  36.456  54.649  1.00  0.00     0.015 C 
ATOM      9  C   UNL     1      47.232  36.577  56.064  1.00  0.00    -0.035 C 
ATOM     10  C   UNL     1      46.696  35.450  50.907  1.00  0.00    -0.006 C 
ATOM     11  C   UNL     1      48.820  36.296  51.863  1.00  0.00    -0.027 C 
ATOM     12  C   UNL     1      47.744  37.853  56.770  1.00  0.00     0.011 C 
ATOM     13  C   UNL     1      47.621  35.370  56.951  1.00  0.00     0.011 C 
ATOM     14  C   UNL     1      46.131  36.777  50.311  1.00  0.00     0.017 C 
ATOM     15  C   UNL     1      47.574  34.642  49.809  1.00  0.00    -0.020 C 
ATOM     16  C   UNL     1      49.546  36.183  50.559  1.00  0.00     0.032 C 
ATOM     17  C   UNL     1      48.818  35.520  49.343  1.00  0.00     0.006 C 
ATOM     18  C   UNL     1      48.135  33.298  50.386  1.00  0.00     0.008 C 
ATOM     19  C   UNL     1      46.636  34.301  48.604  1.00  0.00     0.012 C 
ATOM     20  C   UNL     1      49.863  34.780  48.371  1.00  0.00    -0.025 C 
ATOM     21  C   UNL     1      49.125  32.557  49.463  1.00  0.00     0.005 C 
ATOM     22  C   UNL     1      50.330  33.438  49.057  1.00  0.00     0.003 C 
ATOM     23  C   UNL     1      51.127  35.680  48.118  1.00  0.00     0.010 C 
ATOM     24  C   UNL     1      49.204  34.556  46.966  1.00  0.00     0.012 C 
ATOM     25  C   UNL     1      51.521  32.673  48.344  1.00  0.00    -0.006 C 
ATOM     26  C   UNL     1      52.271  34.957  47.387  1.00  0.00     0.033 C 
ATOM     27  C   UNL     1      52.700  33.675  48.119  1.00  0.00     0.120 C 
ATOM     28  C   UNL     1      51.113  31.992  47.011  1.00  0.00     0.014 C 
ATOM     29  C   UNL     1      52.051  31.549  49.279  1.00  0.00     0.014 C 
ENDROOT
BRANCH   1  30
ATOM     30  C   UNL     1      46.439  33.715  54.046  1.00  0.00     0.048 C 
ATOM     31  O   UNL     1      47.676  33.510  53.929  1.00  0.00    -0.550 OA
ATOM     32  O   UNL     1      45.607  32.636  54.320  1.00  0.00    -0.550 OA
ENDBRANCH   1  30
BRANCH  27  33
ATOM     33  O   UNL     1      53.738  33.057  47.400  1.00  0.00    -0.393 OA
ATOM     34  H   UNL     1      53.685  33.391  46.466  1.00  0.00     0.210 HD
ENDBRANCH  27  33
TORSDOF 2
ENDMDL
