MODEL 1
REMARK VINA RESULT:    -3.772      0.000      0.000
REMARK INTER + INTRA:         -11.787
REMARK INTER:                  -8.623
REMARK INTRA:                  -3.164
REMARK UNBOUND:                -3.164
REMARK SMILES CCCCCCCCCCCCCCCCCCCCCCCC(=O)[O-]
REMARK SMILES IDX 13 1 14 2 15 3 16 4 17 5 18 6 19 7 20 8 21 9 22 10 23 11
REMARK SMILES IDX 24 12 25 13 26 14 12 15 11 16 10 17 9 18 8 19 7 20 6 21 5 22
REMARK SMILES IDX 4 23 3 24 2 25 1 26
REMARK H PARENT
REMARK Flexibility Score: inf
ROOT
ATOM      1  C   UNL     1      -7.494  -5.527   5.296  1.00  0.00     0.000 C 
ENDROOT
BRANCH   1   2
ATOM      2  C   UNL     1      -8.964  -5.764   4.920  1.00  0.00     0.000 C 
BRANCH   2   3
ATOM      3  C   UNL     1      -9.123  -6.542   3.601  1.00  0.00     0.000 C 
BRANCH   3   4
ATOM      4  C   UNL     1     -10.007  -7.795   3.753  1.00  0.00     0.000 C 
BRANCH   4   5
ATOM      5  C   UNL     1      -9.301  -9.121   3.411  1.00  0.00     0.000 C 
BRANCH   5   6
ATOM      6  C   UNL     1      -7.907  -9.235   4.045  1.00  0.00     0.000 C 
BRANCH   6   7
ATOM      7  C   UNL     1      -8.011  -9.590   5.534  1.00  0.00     0.000 C 
BRANCH   7   8
ATOM      8  C   UNL     1      -6.626  -9.615   6.194  1.00  0.00     0.000 C 
BRANCH   8   9
ATOM      9  C   UNL     1      -5.637 -10.447   5.363  1.00  0.00     0.000 C 
BRANCH   9  10
ATOM     10  C   UNL     1      -4.288  -9.740   5.162  1.00  0.00     0.006 C 
BRANCH  10  11
ATOM     11  C   UNL     1      -3.547 -10.224   3.908  1.00  0.00     0.053 C 
BRANCH  11  12
ATOM     12  C   UNL     1      -2.419  -9.300   3.571  1.00  0.00     0.041 C 
ATOM     13  O   UNL     1      -1.925  -8.555   4.458  1.00  0.00    -0.550 OA
ATOM     14  O   UNL     1      -1.901  -9.274   2.283  1.00  0.00    -0.550 OA
ENDBRANCH  11  12
ENDBRANCH  10  11
ENDBRANCH   9  10
ENDBRANCH   8   9
ENDBRANCH   7   8
ENDBRANCH   6   7
ENDBRANCH   5   6
ENDBRANCH   4   5
ENDBRANCH   3   4
ENDBRANCH   2   3
ENDBRANCH   1   2
BRANCH   1  15
ATOM     15  C   UNL     1      -7.144  -6.051   6.698  1.00  0.00     0.000 C 
BRANCH  15  16
ATOM     16  C   UNL     1      -6.625  -4.916   7.593  1.00  0.00     0.000 C 
BRANCH  16  17
ATOM     17  C   UNL     1      -7.751  -4.006   8.110  1.00  0.00     0.000 C 
BRANCH  17  18
ATOM     18  C   UNL     1      -7.423  -2.510   7.952  1.00  0.00    -0.000 C 
BRANCH  18  19
ATOM     19  C   UNL     1      -7.961  -1.935   6.625  1.00  0.00    -0.000 C 
BRANCH  19  20
ATOM     20  C   UNL     1      -6.896  -1.826   5.520  1.00  0.00    -0.000 C 
BRANCH  20  21
ATOM     21  C   UNL     1      -5.599  -1.155   6.005  1.00  0.00    -0.000 C 
BRANCH  21  22
ATOM     22  C   UNL     1      -4.399  -2.117   6.003  1.00  0.00    -0.000 C 
BRANCH  22  23
ATOM     23  C   UNL     1      -4.540  -3.240   4.962  1.00  0.00    -0.000 C 
BRANCH  23  24
ATOM     24  C   UNL     1      -3.857  -4.526   5.447  1.00  0.00    -0.000 C 
BRANCH  24  25
ATOM     25  C   UNL     1      -2.638  -4.248   6.342  1.00  0.00    -0.003 C 
ATOM     26  C   UNL     1      -2.945  -4.415   7.830  1.00  0.00     0.004 C 
ENDBRANCH  24  25
ENDBRANCH  23  24
ENDBRANCH  22  23
ENDBRANCH  21  22
ENDBRANCH  20  21
ENDBRANCH  19  20
ENDBRANCH  18  19
ENDBRANCH  17  18
ENDBRANCH  16  17
ENDBRANCH  15  16
ENDBRANCH   1  15
TORSDOF 22
ENDMDL
MODEL 2
REMARK VINA RESULT:    -3.587      2.395      7.127
REMARK INTER + INTRA:         -11.364
REMARK INTER:                  -8.755
REMARK INTRA:                  -2.609
REMARK UNBOUND:                -3.164
REMARK SMILES CCCCCCCCCCCCCCCCCCCCCCCC(=O)[O-]
REMARK SMILES IDX 13 1 14 2 15 3 16 4 17 5 18 6 19 7 20 8 21 9 22 10 23 11
REMARK SMILES IDX 24 12 25 13 26 14 12 15 11 16 10 17 9 18 8 19 7 20 6 21 5 22
REMARK SMILES IDX 4 23 3 24 2 25 1 26
REMARK H PARENT
REMARK Flexibility Score: inf
ROOT
ATOM      1  C   UNL     1      -2.884  -4.424   6.638  1.00  0.00     0.000 C 
ENDROOT
BRANCH   1   2
ATOM      2  C   UNL     1      -2.767  -3.000   6.073  1.00  0.00     0.000 C 
BRANCH   2   3
ATOM      3  C   UNL     1      -4.058  -2.526   5.379  1.00  0.00     0.000 C 
BRANCH   3   4
ATOM      4  C   UNL     1      -4.863  -1.534   6.238  1.00  0.00     0.000 C 
BRANCH   4   5
ATOM      5  C   UNL     1      -5.577  -2.166   7.448  1.00  0.00     0.000 C 
BRANCH   5   6
ATOM      6  C   UNL     1      -7.092  -1.914   7.444  1.00  0.00     0.000 C 
BRANCH   6   7
ATOM      7  C   UNL     1      -7.712  -2.327   6.103  1.00  0.00     0.000 C 
BRANCH   7   8
ATOM      8  C   UNL     1      -7.888  -3.849   6.020  1.00  0.00     0.000 C 
BRANCH   8   9
ATOM      9  C   UNL     1      -9.375  -4.226   5.934  1.00  0.00     0.000 C 
BRANCH   9  10
ATOM     10  C   UNL     1      -9.597  -5.660   5.431  1.00  0.00     0.006 C 
BRANCH  10  11
ATOM     11  C   UNL     1      -8.486  -6.136   4.486  1.00  0.00     0.053 C 
BRANCH  11  12
ATOM     12  C   UNL     1      -8.693  -7.569   4.107  1.00  0.00     0.041 C 
ATOM     13  O   UNL     1      -8.712  -7.907   2.894  1.00  0.00    -0.550 OA
ATOM     14  O   UNL     1      -8.845  -8.535   5.094  1.00  0.00    -0.550 OA
ENDBRANCH  11  12
ENDBRANCH  10  11
ENDBRANCH   9  10
ENDBRANCH   8   9
ENDBRANCH   7   8
ENDBRANCH   6   7
ENDBRANCH   5   6
ENDBRANCH   4   5
ENDBRANCH   3   4
ENDBRANCH   2   3
ENDBRANCH   1   2
BRANCH   1  15
ATOM     15  C   UNL     1      -3.932  -5.274   5.902  1.00  0.00     0.000 C 
BRANCH  15  16
ATOM     16  C   UNL     1      -4.944  -5.871   6.891  1.00  0.00     0.000 C 
BRANCH  16  17
ATOM     17  C   UNL     1      -5.586  -7.168   6.372  1.00  0.00     0.000 C 
BRANCH  17  18
ATOM     18  C   UNL     1      -5.526  -8.311   7.402  1.00  0.00    -0.000 C 
BRANCH  18  19
ATOM     19  C   UNL     1      -5.930  -9.668   6.789  1.00  0.00    -0.000 C 
BRANCH  19  20
ATOM     20  C   UNL     1      -5.486  -9.844   5.326  1.00  0.00    -0.000 C 
BRANCH  20  21
ATOM     21  C   UNL     1      -4.567 -11.060   5.123  1.00  0.00    -0.000 C 
BRANCH  21  22
ATOM     22  C   UNL     1      -3.601 -10.880   3.940  1.00  0.00    -0.000 C 
BRANCH  22  23
ATOM     23  C   UNL     1      -2.957  -9.485   3.907  1.00  0.00    -0.000 C 
BRANCH  23  24
ATOM     24  C   UNL     1      -2.072  -9.319   2.662  1.00  0.00    -0.000 C 
BRANCH  24  25
ATOM     25  C   UNL     1      -2.212 -10.490   1.676  1.00  0.00    -0.003 C 
ATOM     26  C   UNL     1      -1.623 -10.179   0.300  1.00  0.00     0.004 C 
ENDBRANCH  24  25
ENDBRANCH  23  24
ENDBRANCH  22  23
ENDBRANCH  21  22
ENDBRANCH  20  21
ENDBRANCH  19  20
ENDBRANCH  18  19
ENDBRANCH  17  18
ENDBRANCH  16  17
ENDBRANCH  15  16
ENDBRANCH   1  15
TORSDOF 22
ENDMDL
MODEL 3
REMARK VINA RESULT:    -3.527      6.182      8.886
REMARK INTER + INTRA:         -11.227
REMARK INTER:                  -9.987
REMARK INTRA:                  -1.240
REMARK UNBOUND:                -3.164
REMARK SMILES CCCCCCCCCCCCCCCCCCCCCCCC(=O)[O-]
REMARK SMILES IDX 13 1 14 2 15 3 16 4 17 5 18 6 19 7 20 8 21 9 22 10 23 11
REMARK SMILES IDX 24 12 25 13 26 14 12 15 11 16 10 17 9 18 8 19 7 20 6 21 5 22
REMARK SMILES IDX 4 23 3 24 2 25 1 26
REMARK H PARENT
REMARK Flexibility Score: inf
ROOT
ATOM      1  C   UNL     1      -1.404  -9.847  -0.224  1.00  0.00     0.000 C 
ENDROOT
BRANCH   1   2
ATOM      2  C   UNL     1      -1.901  -9.553   1.199  1.00  0.00     0.000 C 
BRANCH   2   3
ATOM      3  C   UNL     1      -1.863 -10.793   2.112  1.00  0.00     0.000 C 
BRANCH   3   4
ATOM      4  C   UNL     1      -3.130 -10.933   2.976  1.00  0.00     0.000 C 
BRANCH   4   5
ATOM      5  C   UNL     1      -3.355  -9.781   3.974  1.00  0.00     0.000 C 
BRANCH   5   6
ATOM      6  C   UNL     1      -4.526 -10.043   4.932  1.00  0.00     0.000 C 
BRANCH   6   7
ATOM      7  C   UNL     1      -4.697  -8.880   5.918  1.00  0.00     0.000 C 
BRANCH   7   8
ATOM      8  C   UNL     1      -6.142  -8.362   5.917  1.00  0.00     0.000 C 
BRANCH   8   9
ATOM      9  C   UNL     1      -6.255  -7.051   6.709  1.00  0.00     0.000 C 
BRANCH   9  10
ATOM     10  C   UNL     1      -4.899  -6.360   6.913  1.00  0.00     0.006 C 
BRANCH  10  11
ATOM     11  C   UNL     1      -4.664  -5.210   5.924  1.00  0.00     0.053 C 
BRANCH  11  12
ATOM     12  C   UNL     1      -3.202  -5.032   5.659  1.00  0.00     0.041 C 
ATOM     13  O   UNL     1      -2.660  -3.908   5.831  1.00  0.00    -0.550 OA
ATOM     14  O   UNL     1      -2.434  -6.111   5.239  1.00  0.00    -0.550 OA
ENDBRANCH  11  12
ENDBRANCH  10  11
ENDBRANCH   9  10
ENDBRANCH   8   9
ENDBRANCH   7   8
ENDBRANCH   6   7
ENDBRANCH   5   6
ENDBRANCH   4   5
ENDBRANCH   3   4
ENDBRANCH   2   3
ENDBRANCH   1   2
BRANCH   1  15
ATOM     15  C   UNL     1      -0.600  -8.685  -0.828  1.00  0.00     0.000 C 
BRANCH  15  16
ATOM     16  C   UNL     1      -1.210  -8.233  -2.163  1.00  0.00     0.000 C 
BRANCH  16  17
ATOM     17  C   UNL     1      -0.705  -6.851  -2.609  1.00  0.00     0.000 C 
BRANCH  17  18
ATOM     18  C   UNL     1       0.330  -6.258  -1.635  1.00  0.00    -0.000 C 
BRANCH  18  19
ATOM     19  C   UNL     1       0.732  -4.819  -2.021  1.00  0.00    -0.000 C 
BRANCH  19  20
ATOM     20  C   UNL     1       0.246  -3.752  -1.025  1.00  0.00    -0.000 C 
BRANCH  20  21
ATOM     21  C   UNL     1       0.679  -2.329  -1.415  1.00  0.00    -0.000 C 
BRANCH  21  22
ATOM     22  C   UNL     1       1.294  -2.264  -2.823  1.00  0.00    -0.000 C 
BRANCH  22  23
ATOM     23  C   UNL     1       2.633  -1.510  -2.852  1.00  0.00    -0.000 C 
BRANCH  23  24
ATOM     24  C   UNL     1       2.754  -0.560  -1.651  1.00  0.00    -0.000 C 
BRANCH  24  25
ATOM     25  C   UNL     1       4.211  -0.180  -1.341  1.00  0.00    -0.003 C 
ATOM     26  C   UNL     1       5.218  -0.939  -2.205  1.00  0.00     0.004 C 
ENDBRANCH  24  25
ENDBRANCH  23  24
ENDBRANCH  22  23
ENDBRANCH  21  22
ENDBRANCH  20  21
ENDBRANCH  19  20
ENDBRANCH  18  19
ENDBRANCH  17  18
ENDBRANCH  16  17
ENDBRANCH  15  16
ENDBRANCH   1  15
TORSDOF 22
ENDMDL
MODEL 4
REMARK VINA RESULT:    -3.411      1.353      4.443
REMARK INTER + INTRA:         -10.962
REMARK INTER:                  -7.954
REMARK INTRA:                  -3.008
REMARK UNBOUND:                -3.164
REMARK SMILES CCCCCCCCCCCCCCCCCCCCCCCC(=O)[O-]
REMARK SMILES IDX 13 1 14 2 15 3 16 4 17 5 18 6 19 7 20 8 21 9 22 10 23 11
REMARK SMILES IDX 24 12 25 13 26 14 12 15 11 16 10 17 9 18 8 19 7 20 6 21 5 22
REMARK SMILES IDX 4 23 3 24 2 25 1 26
REMARK H PARENT
REMARK Flexibility Score: inf
ROOT
ATOM      1  C   UNL     1      -2.068  -3.158   6.330  1.00  0.00     0.000 C 
ENDROOT
BRANCH   1   2
ATOM      2  C   UNL     1      -2.776  -4.518   6.247  1.00  0.00     0.000 C 
BRANCH   2   3
ATOM      3  C   UNL     1      -4.005  -4.494   5.319  1.00  0.00     0.000 C 
BRANCH   3   4
ATOM      4  C   UNL     1      -5.225  -5.210   5.930  1.00  0.00     0.000 C 
BRANCH   4   5
ATOM      5  C   UNL     1      -4.901  -6.108   7.139  1.00  0.00     0.000 C 
BRANCH   5   6
ATOM      6  C   UNL     1      -6.157  -6.692   7.800  1.00  0.00     0.000 C 
BRANCH   6   7
ATOM      7  C   UNL     1      -6.679  -7.901   7.012  1.00  0.00     0.000 C 
BRANCH   7   8
ATOM      8  C   UNL     1      -5.520  -8.741   6.458  1.00  0.00     0.000 C 
BRANCH   8   9
ATOM      9  C   UNL     1      -5.819  -9.212   5.027  1.00  0.00     0.000 C 
BRANCH   9  10
ATOM     10  C   UNL     1      -5.281 -10.622   4.739  1.00  0.00     0.006 C 
BRANCH  10  11
ATOM     11  C   UNL     1      -3.767 -10.736   4.965  1.00  0.00     0.053 C 
BRANCH  11  12
ATOM     12  C   UNL     1      -3.023  -9.855   4.011  1.00  0.00     0.041 C 
ATOM     13  O   UNL     1      -2.977 -10.146   2.786  1.00  0.00    -0.550 OA
ATOM     14  O   UNL     1      -2.396  -8.704   4.470  1.00  0.00    -0.550 OA
ENDBRANCH  11  12
ENDBRANCH  10  11
ENDBRANCH   9  10
ENDBRANCH   8   9
ENDBRANCH   7   8
ENDBRANCH   6   7
ENDBRANCH   5   6
ENDBRANCH   4   5
ENDBRANCH   3   4
ENDBRANCH   2   3
ENDBRANCH   1   2
BRANCH   1  15
ATOM     15  C   UNL     1      -2.278  -2.458   7.682  1.00  0.00     0.000 C 
BRANCH  15  16
ATOM     16  C   UNL     1      -3.745  -2.553   8.125  1.00  0.00     0.000 C 
BRANCH  16  17
ATOM     17  C   UNL     1      -4.515  -1.238   7.915  1.00  0.00     0.000 C 
BRANCH  17  18
ATOM     18  C   UNL     1      -5.119  -1.126   6.504  1.00  0.00    -0.000 C 
BRANCH  18  19
ATOM     19  C   UNL     1      -6.582  -0.636   6.536  1.00  0.00    -0.000 C 
BRANCH  19  20
ATOM     20  C   UNL     1      -7.545  -1.505   5.708  1.00  0.00    -0.000 C 
BRANCH  20  21
ATOM     21  C   UNL     1      -8.508  -2.326   6.581  1.00  0.00    -0.000 C 
BRANCH  21  22
ATOM     22  C   UNL     1      -8.136  -3.818   6.630  1.00  0.00    -0.000 C 
BRANCH  22  23
ATOM     23  C   UNL     1      -9.366  -4.738   6.600  1.00  0.00    -0.000 C 
BRANCH  23  24
ATOM     24  C   UNL     1      -9.657  -5.219   5.171  1.00  0.00    -0.000 C 
BRANCH  24  25
ATOM     25  C   UNL     1      -8.508  -6.052   4.580  1.00  0.00    -0.003 C 
ATOM     26  C   UNL     1      -9.001  -7.248   3.766  1.00  0.00     0.004 C 
ENDBRANCH  24  25
ENDBRANCH  23  24
ENDBRANCH  22  23
ENDBRANCH  21  22
ENDBRANCH  20  21
ENDBRANCH  19  20
ENDBRANCH  18  19
ENDBRANCH  17  18
ENDBRANCH  16  17
ENDBRANCH  15  16
ENDBRANCH   1  15
TORSDOF 22
ENDMDL
MODEL 5
REMARK VINA RESULT:    -3.316      2.556      6.735
REMARK INTER + INTRA:         -10.745
REMARK INTER:                  -8.343
REMARK INTRA:                  -2.402
REMARK UNBOUND:                -3.164
REMARK SMILES CCCCCCCCCCCCCCCCCCCCCCCC(=O)[O-]
REMARK SMILES IDX 13 1 14 2 15 3 16 4 17 5 18 6 19 7 20 8 21 9 22 10 23 11
REMARK SMILES IDX 24 12 25 13 26 14 12 15 11 16 10 17 9 18 8 19 7 20 6 21 5 22
REMARK SMILES IDX 4 23 3 24 2 25 1 26
REMARK H PARENT
REMARK Flexibility Score: inf
ROOT
ATOM      1  C   UNL     1      -4.087  -2.894   5.448  1.00  0.00     0.000 C 
ENDROOT
BRANCH   1   2
ATOM      2  C   UNL     1      -4.698  -1.724   6.234  1.00  0.00     0.000 C 
BRANCH   2   3
ATOM      3  C   UNL     1      -5.941  -1.130   5.547  1.00  0.00     0.000 C 
BRANCH   3   4
ATOM      4  C   UNL     1      -7.114  -0.917   6.523  1.00  0.00     0.000 C 
BRANCH   4   5
ATOM      5  C   UNL     1      -7.927  -2.188   6.834  1.00  0.00     0.000 C 
BRANCH   5   6
ATOM      6  C   UNL     1      -9.413  -2.047   6.472  1.00  0.00     0.000 C 
BRANCH   6   7
ATOM      7  C   UNL     1     -10.047  -3.420   6.217  1.00  0.00     0.000 C 
BRANCH   7   8
ATOM      8  C   UNL     1      -9.073  -4.553   6.568  1.00  0.00     0.000 C 
BRANCH   8   9
ATOM      9  C   UNL     1      -8.834  -5.466   5.356  1.00  0.00     0.000 C 
BRANCH   9  10
ATOM     10  C   UNL     1      -9.715  -6.725   5.377  1.00  0.00     0.006 C 
BRANCH  10  11
ATOM     11  C   UNL     1      -8.917  -8.011   5.124  1.00  0.00     0.053 C 
BRANCH  11  12
ATOM     12  C   UNL     1      -9.174  -8.529   3.743  1.00  0.00     0.041 C 
ATOM     13  O   UNL     1      -9.556  -9.717   3.574  1.00  0.00    -0.550 OA
ATOM     14  O   UNL     1      -9.011  -7.695   2.645  1.00  0.00    -0.550 OA
ENDBRANCH  11  12
ENDBRANCH  10  11
ENDBRANCH   9  10
ENDBRANCH   8   9
ENDBRANCH   7   8
ENDBRANCH   6   7
ENDBRANCH   5   6
ENDBRANCH   4   5
ENDBRANCH   3   4
ENDBRANCH   2   3
ENDBRANCH   1   2
BRANCH   1  15
ATOM     15  C   UNL     1      -5.096  -4.019   5.171  1.00  0.00     0.000 C 
BRANCH  15  16
ATOM     16  C   UNL     1      -5.418  -4.794   6.457  1.00  0.00     0.000 C 
BRANCH  16  17
ATOM     17  C   UNL     1      -4.770  -6.187   6.489  1.00  0.00     0.000 C 
BRANCH  17  18
ATOM     18  C   UNL     1      -5.809  -7.321   6.570  1.00  0.00    -0.000 C 
BRANCH  18  19
ATOM     19  C   UNL     1      -5.403  -8.409   7.585  1.00  0.00    -0.000 C 
BRANCH  19  20
ATOM     20  C   UNL     1      -4.962  -9.731   6.933  1.00  0.00    -0.000 C 
BRANCH  20  21
ATOM     21  C   UNL     1      -5.677 -10.008   5.600  1.00  0.00    -0.000 C 
BRANCH  21  22
ATOM     22  C   UNL     1      -4.804 -10.802   4.614  1.00  0.00    -0.000 C 
BRANCH  22  23
ATOM     23  C   UNL     1      -3.543 -10.034   4.186  1.00  0.00    -0.000 C 
BRANCH  23  24
ATOM     24  C   UNL     1      -2.958 -10.617   2.892  1.00  0.00    -0.000 C 
BRANCH  24  25
ATOM     25  C   UNL     1      -2.029  -9.631   2.165  1.00  0.00    -0.003 C 
ATOM     26  C   UNL     1      -1.802 -10.002   0.699  1.00  0.00     0.004 C 
ENDBRANCH  24  25
ENDBRANCH  23  24
ENDBRANCH  22  23
ENDBRANCH  21  22
ENDBRANCH  20  21
ENDBRANCH  19  20
ENDBRANCH  18  19
ENDBRANCH  17  18
ENDBRANCH  16  17
ENDBRANCH  15  16
ENDBRANCH   1  15
TORSDOF 22
ENDMDL
MODEL 6
REMARK VINA RESULT:    -3.211      3.433      7.952
REMARK INTER + INTRA:         -10.505
REMARK INTER:                  -7.220
REMARK INTRA:                  -3.285
REMARK UNBOUND:                -3.164
REMARK SMILES CCCCCCCCCCCCCCCCCCCCCCCC(=O)[O-]
REMARK SMILES IDX 13 1 14 2 15 3 16 4 17 5 18 6 19 7 20 8 21 9 22 10 23 11
REMARK SMILES IDX 24 12 25 13 26 14 12 15 11 16 10 17 9 18 8 19 7 20 6 21 5 22
REMARK SMILES IDX 4 23 3 24 2 25 1 26
REMARK H PARENT
REMARK Flexibility Score: inf
ROOT
ATOM      1  C   UNL     1      -3.657  -5.064   5.600  1.00  0.00     0.000 C 
ENDROOT
BRANCH   1   2
ATOM      2  C   UNL     1      -3.420  -4.324   6.925  1.00  0.00     0.000 C 
BRANCH   2   3
ATOM      3  C   UNL     1      -4.483  -4.652   7.990  1.00  0.00     0.000 C 
BRANCH   3   4
ATOM      4  C   UNL     1      -5.156  -6.018   7.756  1.00  0.00     0.000 C 
BRANCH   4   5
ATOM      5  C   UNL     1      -6.660  -5.943   7.432  1.00  0.00     0.000 C 
BRANCH   5   6
ATOM      6  C   UNL     1      -6.947  -5.989   5.924  1.00  0.00     0.000 C 
BRANCH   6   7
ATOM      7  C   UNL     1      -7.955  -4.903   5.526  1.00  0.00     0.000 C 
BRANCH   7   8
ATOM      8  C   UNL     1      -7.780  -3.644   6.385  1.00  0.00     0.000 C 
BRANCH   8   9
ATOM      9  C   UNL     1      -6.774  -2.677   5.743  1.00  0.00     0.000 C 
BRANCH   9  10
ATOM     10  C   UNL     1      -6.933  -1.234   6.245  1.00  0.00     0.006 C 
BRANCH  10  11
ATOM     11  C   UNL     1      -5.611  -0.453   6.230  1.00  0.00     0.053 C 
BRANCH  11  12
ATOM     12  C   UNL     1      -5.750   0.834   6.982  1.00  0.00     0.041 C 
ATOM     13  O   UNL     1      -4.743   1.565   7.177  1.00  0.00    -0.550 OA
ATOM     14  O   UNL     1      -6.994   1.235   7.452  1.00  0.00    -0.550 OA
ENDBRANCH  11  12
ENDBRANCH  10  11
ENDBRANCH   9  10
ENDBRANCH   8   9
ENDBRANCH   7   8
ENDBRANCH   6   7
ENDBRANCH   5   6
ENDBRANCH   4   5
ENDBRANCH   3   4
ENDBRANCH   2   3
ENDBRANCH   1   2
BRANCH   1  15
ATOM     15  C   UNL     1      -2.613  -6.159   5.333  1.00  0.00     0.000 C 
BRANCH  15  16
ATOM     16  C   UNL     1      -3.222  -7.309   4.516  1.00  0.00     0.000 C 
BRANCH  16  17
ATOM     17  C   UNL     1      -2.191  -8.390   4.153  1.00  0.00     0.000 C 
BRANCH  17  18
ATOM     18  C   UNL     1      -2.838  -9.766   3.912  1.00  0.00    -0.000 C 
BRANCH  18  19
ATOM     19  C   UNL     1      -4.288  -9.827   4.435  1.00  0.00    -0.000 C 
BRANCH  19  20
ATOM     20  C   UNL     1      -4.413 -10.430   5.845  1.00  0.00    -0.000 C 
BRANCH  20  21
ATOM     21  C   UNL     1      -5.243  -9.553   6.798  1.00  0.00    -0.000 C 
BRANCH  21  22
ATOM     22  C   UNL     1      -6.564 -10.221   7.216  1.00  0.00    -0.000 C 
BRANCH  22  23
ATOM     23  C   UNL     1      -7.800  -9.466   6.700  1.00  0.00    -0.000 C 
BRANCH  23  24
ATOM     24  C   UNL     1      -8.468 -10.229   5.547  1.00  0.00    -0.000 C 
BRANCH  24  25
ATOM     25  C   UNL     1      -7.949  -9.791   4.168  1.00  0.00    -0.003 C 
ATOM     26  C   UNL     1      -8.563  -8.474   3.695  1.00  0.00     0.004 C 
ENDBRANCH  24  25
ENDBRANCH  23  24
ENDBRANCH  22  23
ENDBRANCH  21  22
ENDBRANCH  20  21
ENDBRANCH  19  20
ENDBRANCH  18  19
ENDBRANCH  17  18
ENDBRANCH  16  17
ENDBRANCH  15  16
ENDBRANCH   1  15
TORSDOF 22
ENDMDL
MODEL 7
REMARK VINA RESULT:    -3.182      6.562      9.917
REMARK INTER + INTRA:         -10.439
REMARK INTER:                  -9.101
REMARK INTRA:                  -1.338
REMARK UNBOUND:                -3.164
REMARK SMILES CCCCCCCCCCCCCCCCCCCCCCCC(=O)[O-]
REMARK SMILES IDX 13 1 14 2 15 3 16 4 17 5 18 6 19 7 20 8 21 9 22 10 23 11
REMARK SMILES IDX 24 12 25 13 26 14 12 15 11 16 10 17 9 18 8 19 7 20 6 21 5 22
REMARK SMILES IDX 4 23 3 24 2 25 1 26
REMARK H PARENT
REMARK Flexibility Score: inf
ROOT
ATOM      1  C   UNL     1      -1.231  -9.842  -0.326  1.00  0.00     0.000 C 
ENDROOT
BRANCH   1   2
ATOM      2  C   UNL     1      -0.564  -8.543  -0.803  1.00  0.00     0.000 C 
BRANCH   2   3
ATOM      3  C   UNL     1      -1.024  -8.120  -2.211  1.00  0.00     0.000 C 
BRANCH   3   4
ATOM      4  C   UNL     1      -0.726  -6.639  -2.512  1.00  0.00     0.000 C 
BRANCH   4   5
ATOM      5  C   UNL     1       0.378  -6.017  -1.637  1.00  0.00     0.000 C 
BRANCH   5   6
ATOM      6  C   UNL     1       0.789  -4.613  -2.105  1.00  0.00     0.000 C 
BRANCH   6   7
ATOM      7  C   UNL     1       0.410  -3.555  -1.061  1.00  0.00     0.000 C 
BRANCH   7   8
ATOM      8  C   UNL     1       0.570  -2.137  -1.626  1.00  0.00     0.000 C 
BRANCH   8   9
ATOM      9  C   UNL     1       1.276  -2.167  -2.989  1.00  0.00     0.000 C 
BRANCH   9  10
ATOM     10  C   UNL     1       2.676  -1.533  -2.948  1.00  0.00     0.006 C 
BRANCH  10  11
ATOM     11  C   UNL     1       2.923  -0.725  -1.667  1.00  0.00     0.053 C 
BRANCH  11  12
ATOM     12  C   UNL     1       4.389  -0.515  -1.449  1.00  0.00     0.041 C 
ATOM     13  O   UNL     1       5.204  -0.729  -2.385  1.00  0.00    -0.550 OA
ATOM     14  O   UNL     1       4.853  -0.066  -0.219  1.00  0.00    -0.550 OA
ENDBRANCH  11  12
ENDBRANCH  10  11
ENDBRANCH   9  10
ENDBRANCH   8   9
ENDBRANCH   7   8
ENDBRANCH   6   7
ENDBRANCH   5   6
ENDBRANCH   4   5
ENDBRANCH   3   4
ENDBRANCH   2   3
ENDBRANCH   1   2
BRANCH   1  15
ATOM     15  C   UNL     1      -2.242  -9.612   0.808  1.00  0.00     0.000 C 
BRANCH  15  16
ATOM     16  C   UNL     1      -1.780 -10.300   2.101  1.00  0.00     0.000 C 
BRANCH  16  17
ATOM     17  C   UNL     1      -2.101  -9.477   3.359  1.00  0.00     0.000 C 
BRANCH  17  18
ATOM     18  C   UNL     1      -3.290 -10.049   4.153  1.00  0.00    -0.000 C 
BRANCH  18  19
ATOM     19  C   UNL     1      -4.101  -8.944   4.861  1.00  0.00    -0.000 C 
BRANCH  19  20
ATOM     20  C   UNL     1      -4.862  -9.435   6.105  1.00  0.00    -0.000 C 
BRANCH  20  21
ATOM     21  C   UNL     1      -5.379  -8.282   6.982  1.00  0.00    -0.000 C 
BRANCH  21  22
ATOM     22  C   UNL     1      -6.456  -7.440   6.277  1.00  0.00    -0.000 C 
BRANCH  22  23
ATOM     23  C   UNL     1      -6.130  -5.938   6.278  1.00  0.00    -0.000 C 
BRANCH  23  24
ATOM     24  C   UNL     1      -4.727  -5.682   6.847  1.00  0.00    -0.000 C 
BRANCH  24  25
ATOM     25  C   UNL     1      -3.813  -4.940   5.858  1.00  0.00    -0.003 C 
ATOM     26  C   UNL     1      -4.580  -3.974   4.954  1.00  0.00     0.004 C 
ENDBRANCH  24  25
ENDBRANCH  23  24
ENDBRANCH  22  23
ENDBRANCH  21  22
ENDBRANCH  20  21
ENDBRANCH  19  20
ENDBRANCH  18  19
ENDBRANCH  17  18
ENDBRANCH  16  17
ENDBRANCH  15  16
ENDBRANCH   1  15
TORSDOF 22
ENDMDL
MODEL 8
REMARK VINA RESULT:    -3.088      7.054     10.574
REMARK INTER + INTRA:         -10.222
REMARK INTER:                  -8.918
REMARK INTRA:                  -1.304
REMARK UNBOUND:                -3.164
REMARK SMILES CCCCCCCCCCCCCCCCCCCCCCCC(=O)[O-]
REMARK SMILES IDX 13 1 14 2 15 3 16 4 17 5 18 6 19 7 20 8 21 9 22 10 23 11
REMARK SMILES IDX 24 12 25 13 26 14 12 15 11 16 10 17 9 18 8 19 7 20 6 21 5 22
REMARK SMILES IDX 4 23 3 24 2 25 1 26
REMARK H PARENT
REMARK Flexibility Score: inf
ROOT
ATOM      1  C   UNL     1      -0.746  -8.640  -1.018  1.00  0.00     0.000 C 
ENDROOT
BRANCH   1   2
ATOM      2  C   UNL     1      -1.116  -8.166  -2.431  1.00  0.00     0.000 C 
BRANCH   2   3
ATOM      3  C   UNL     1      -0.738  -6.694  -2.684  1.00  0.00     0.000 C 
BRANCH   3   4
ATOM      4  C   UNL     1       0.206  -6.130  -1.605  1.00  0.00     0.000 C 
BRANCH   4   5
ATOM      5  C   UNL     1       0.772  -4.732  -1.917  1.00  0.00     0.000 C 
BRANCH   5   6
ATOM      6  C   UNL     1       0.398  -3.688  -0.855  1.00  0.00     0.000 C 
BRANCH   6   7
ATOM      7  C   UNL     1       0.683  -2.267  -1.360  1.00  0.00     0.000 C 
BRANCH   7   8
ATOM      8  C   UNL     1       0.886  -2.251  -2.881  1.00  0.00     0.000 C 
BRANCH   8   9
ATOM      9  C   UNL     1       2.290  -1.745  -3.242  1.00  0.00     0.000 C 
BRANCH   9  10
ATOM     10  C   UNL     1       2.981  -1.022  -2.075  1.00  0.00     0.006 C 
BRANCH  10  11
ATOM     11  C   UNL     1       4.222  -0.235  -2.516  1.00  0.00     0.053 C 
BRANCH  11  12
ATOM     12  C   UNL     1       5.325  -0.384  -1.515  1.00  0.00     0.041 C 
ATOM     13  O   UNL     1       5.101  -0.186  -0.292  1.00  0.00    -0.550 OA
ATOM     14  O   UNL     1       6.596  -0.759  -1.931  1.00  0.00    -0.550 OA
ENDBRANCH  11  12
ENDBRANCH  10  11
ENDBRANCH   9  10
ENDBRANCH   8   9
ENDBRANCH   7   8
ENDBRANCH   6   7
ENDBRANCH   5   6
ENDBRANCH   4   5
ENDBRANCH   3   4
ENDBRANCH   2   3
ENDBRANCH   1   2
BRANCH   1  15
ATOM     15  C   UNL     1      -1.607  -9.820  -0.540  1.00  0.00     0.000 C 
BRANCH  15  16
ATOM     16  C   UNL     1      -1.102 -10.356   0.808  1.00  0.00     0.000 C 
BRANCH  16  17
ATOM     17  C   UNL     1      -2.194 -10.367   1.889  1.00  0.00     0.000 C 
BRANCH  17  18
ATOM     18  C   UNL     1      -2.297  -9.027   2.640  1.00  0.00    -0.000 C 
BRANCH  18  19
ATOM     19  C   UNL     1      -2.571  -9.224   4.146  1.00  0.00    -0.000 C 
BRANCH  19  20
ATOM     20  C   UNL     1      -3.803 -10.098   4.442  1.00  0.00    -0.000 C 
BRANCH  20  21
ATOM     21  C   UNL     1      -4.472  -9.752   5.783  1.00  0.00    -0.000 C 
BRANCH  21  22
ATOM     22  C   UNL     1      -5.476  -8.594   5.661  1.00  0.00    -0.000 C 
BRANCH  22  23
ATOM     23  C   UNL     1      -5.581  -7.762   6.950  1.00  0.00    -0.000 C 
BRANCH  23  24
ATOM     24  C   UNL     1      -5.295  -6.279   6.670  1.00  0.00    -0.000 C 
BRANCH  24  25
ATOM     25  C   UNL     1      -3.985  -6.064   5.896  1.00  0.00    -0.003 C 
ATOM     26  C   UNL     1      -3.424  -4.652   6.061  1.00  0.00     0.004 C 
ENDBRANCH  24  25
ENDBRANCH  23  24
ENDBRANCH  22  23
ENDBRANCH  21  22
ENDBRANCH  20  21
ENDBRANCH  19  20
ENDBRANCH  18  19
ENDBRANCH  17  18
ENDBRANCH  16  17
ENDBRANCH  15  16
ENDBRANCH   1  15
TORSDOF 22
ENDMDL
MODEL 9
REMARK VINA RESULT:    -2.795      1.452      1.989
REMARK INTER + INTRA:          -9.554
REMARK INTER:                  -6.062
REMARK INTRA:                  -3.492
REMARK UNBOUND:                -3.164
REMARK SMILES CCCCCCCCCCCCCCCCCCCCCCCC(=O)[O-]
REMARK SMILES IDX 13 1 14 2 15 3 16 4 17 5 18 6 19 7 20 8 21 9 22 10 23 11
REMARK SMILES IDX 24 12 25 13 26 14 12 15 11 16 10 17 9 18 8 19 7 20 6 21 5 22
REMARK SMILES IDX 4 23 3 24 2 25 1 26
REMARK H PARENT
REMARK Flexibility Score: inf
ROOT
ATOM      1  C   UNL     1      -6.903  -5.178   5.580  1.00  0.00     0.000 C 
ENDROOT
BRANCH   1   2
ATOM      2  C   UNL     1      -8.095  -5.781   4.822  1.00  0.00     0.000 C 
BRANCH   2   3
ATOM      3  C   UNL     1      -8.266  -7.289   5.083  1.00  0.00     0.000 C 
BRANCH   3   4
ATOM      4  C   UNL     1      -9.679  -7.649   5.581  1.00  0.00     0.000 C 
BRANCH   4   5
ATOM      5  C   UNL     1      -9.892  -9.147   5.871  1.00  0.00     0.000 C 
BRANCH   5   6
ATOM      6  C   UNL     1      -8.673 -10.005   5.502  1.00  0.00     0.000 C 
BRANCH   6   7
ATOM      7  C   UNL     1      -8.452 -11.115   6.537  1.00  0.00     0.000 C 
BRANCH   7   8
ATOM      8  C   UNL     1      -7.045 -11.034   7.144  1.00  0.00     0.000 C 
BRANCH   8   9
ATOM      9  C   UNL     1      -6.660  -9.578   7.444  1.00  0.00     0.000 C 
BRANCH   9  10
ATOM     10  C   UNL     1      -5.165  -9.300   7.225  1.00  0.00     0.006 C 
BRANCH  10  11
ATOM     11  C   UNL     1      -4.837  -8.936   5.770  1.00  0.00     0.053 C 
BRANCH  11  12
ATOM     12  C   UNL     1      -3.935  -9.963   5.159  1.00  0.00     0.041 C 
ATOM     13  O   UNL     1      -3.483  -9.796   3.996  1.00  0.00    -0.550 OA
ATOM     14  O   UNL     1      -3.578 -11.094   5.882  1.00  0.00    -0.550 OA
ENDBRANCH  11  12
ENDBRANCH  10  11
ENDBRANCH   9  10
ENDBRANCH   8   9
ENDBRANCH   7   8
ENDBRANCH   6   7
ENDBRANCH   5   6
ENDBRANCH   4   5
ENDBRANCH   3   4
ENDBRANCH   2   3
ENDBRANCH   1   2
BRANCH   1  15
ATOM     15  C   UNL     1      -6.679  -5.828   6.954  1.00  0.00     0.000 C 
BRANCH  15  16
ATOM     16  C   UNL     1      -7.291  -4.970   8.071  1.00  0.00     0.000 C 
BRANCH  16  17
ATOM     17  C   UNL     1      -8.637  -4.345   7.669  1.00  0.00     0.000 C 
BRANCH  17  18
ATOM     18  C   UNL     1      -8.683  -2.828   7.926  1.00  0.00    -0.000 C 
BRANCH  18  19
ATOM     19  C   UNL     1      -8.820  -2.021   6.617  1.00  0.00    -0.000 C 
BRANCH  19  20
ATOM     20  C   UNL     1      -7.483  -1.775   5.898  1.00  0.00    -0.000 C 
BRANCH  20  21
ATOM     21  C   UNL     1      -6.826  -0.444   6.298  1.00  0.00    -0.000 C 
BRANCH  21  22
ATOM     22  C   UNL     1      -5.379  -0.622   6.791  1.00  0.00    -0.000 C 
BRANCH  22  23
ATOM     23  C   UNL     1      -5.133  -2.002   7.421  1.00  0.00    -0.000 C 
BRANCH  23  24
ATOM     24  C   UNL     1      -3.728  -2.519   7.079  1.00  0.00    -0.000 C 
BRANCH  24  25
ATOM     25  C   UNL     1      -3.694  -3.317   5.765  1.00  0.00    -0.003 C 
ATOM     26  C   UNL     1      -3.275  -4.773   5.967  1.00  0.00     0.004 C 
ENDBRANCH  24  25
ENDBRANCH  23  24
ENDBRANCH  22  23
ENDBRANCH  21  22
ENDBRANCH  20  21
ENDBRANCH  19  20
ENDBRANCH  18  19
ENDBRANCH  17  18
ENDBRANCH  16  17
ENDBRANCH  15  16
ENDBRANCH   1  15
TORSDOF 22
ENDMDL
