MODEL 1
REMARK VINA RESULT:    -3.741      0.000      0.000
REMARK INTER + INTRA:          -7.278
REMARK INTER:                  -5.928
REMARK INTRA:                  -1.350
REMARK UNBOUND:                -1.350
REMARK SMILES CCCCCCCCCCCC(=O)[O-]
REMARK SMILES IDX 7 1 8 2 9 3 10 4 11 5 12 6 13 7 14 8 6 9 5 10 4 11 3 12 2 13
REMARK SMILES IDX 1 14
REMARK H PARENT
REMARK Flexibility Score: inf
ROOT
ATOM      1  C   UNL     1     158.431 173.867 164.524  1.00  0.00     0.000 C 
ENDROOT
BRANCH   1   2
ATOM      2  C   UNL     1     157.714 173.165 163.356  1.00  0.00     0.000 C 
BRANCH   2   3
ATOM      3  C   UNL     1     158.139 173.716 161.985  1.00  0.00     0.000 C 
BRANCH   3   4
ATOM      4  C   UNL     1     156.976 174.371 161.222  1.00  0.00     0.006 C 
BRANCH   4   5
ATOM      5  C   UNL     1     155.609 173.922 161.754  1.00  0.00     0.053 C 
BRANCH   5   6
ATOM      6  C   UNL     1     154.520 174.881 161.379  1.00  0.00     0.041 C 
ATOM      7  O   UNL     1     153.800 175.401 162.271  1.00  0.00    -0.550 OA
ATOM      8  O   UNL     1     154.283 175.178 160.043  1.00  0.00    -0.550 OA
ENDBRANCH   5   6
ENDBRANCH   4   5
ENDBRANCH   3   4
ENDBRANCH   2   3
ENDBRANCH   1   2
BRANCH   1   9
ATOM      9  C   UNL     1     157.471 174.239 165.667  1.00  0.00     0.000 C 
BRANCH   9  10
ATOM     10  C   UNL     1     156.116 174.757 165.156  1.00  0.00    -0.000 C 
BRANCH  10  11
ATOM     11  C   UNL     1     154.925 174.119 165.890  1.00  0.00    -0.000 C 
BRANCH  11  12
ATOM     12  C   UNL     1     154.168 173.101 165.019  1.00  0.00    -0.000 C 
BRANCH  12  13
ATOM     13  C   UNL     1     154.771 171.690 165.105  1.00  0.00    -0.003 C 
ATOM     14  C   UNL     1     154.473 170.840 163.870  1.00  0.00     0.004 C 
ENDBRANCH  12  13
ENDBRANCH  11  12
ENDBRANCH  10  11
ENDBRANCH   9  10
ENDBRANCH   1   9
TORSDOF 10
ENDMDL
MODEL 2
REMARK VINA RESULT:    -3.686      1.275      3.471
REMARK INTER + INTRA:          -7.190
REMARK INTER:                  -5.919
REMARK INTRA:                  -1.271
REMARK UNBOUND:                -1.350
REMARK SMILES CCCCCCCCCCCC(=O)[O-]
REMARK SMILES IDX 7 1 8 2 9 3 10 4 11 5 12 6 13 7 14 8 6 9 5 10 4 11 3 12 2 13
REMARK SMILES IDX 1 14
REMARK H PARENT
REMARK Flexibility Score: inf
ROOT
ATOM      1  C   UNL     1     154.269 171.416 166.096  1.00  0.00     0.000 C 
ENDROOT
BRANCH   1   2
ATOM      2  C   UNL     1     154.456 171.147 164.592  1.00  0.00     0.000 C 
BRANCH   2   3
ATOM      3  C   UNL     1     153.272 171.652 163.750  1.00  0.00     0.000 C 
BRANCH   3   4
ATOM      4  C   UNL     1     153.391 173.144 163.393  1.00  0.00     0.006 C 
BRANCH   4   5
ATOM      5  C   UNL     1     153.335 173.382 161.878  1.00  0.00     0.053 C 
BRANCH   5   6
ATOM      6  C   UNL     1     154.272 174.470 161.449  1.00  0.00     0.041 C 
ATOM      7  O   UNL     1     155.158 174.238 160.585  1.00  0.00    -0.550 OA
ATOM      8  O   UNL     1     154.185 175.731 162.024  1.00  0.00    -0.550 OA
ENDBRANCH   5   6
ENDBRANCH   4   5
ENDBRANCH   3   4
ENDBRANCH   2   3
ENDBRANCH   1   2
BRANCH   1   9
ATOM      9  C   UNL     1     155.496 172.092 166.732  1.00  0.00     0.000 C 
BRANCH   9  10
ATOM     10  C   UNL     1     155.601 173.584 166.372  1.00  0.00    -0.000 C 
BRANCH  10  11
ATOM     11  C   UNL     1     156.945 173.940 165.715  1.00  0.00    -0.000 C 
BRANCH  11  12
ATOM     12  C   UNL     1     156.806 174.257 164.216  1.00  0.00    -0.000 C 
BRANCH  12  13
ATOM     13  C   UNL     1     157.195 173.066 163.324  1.00  0.00    -0.003 C 
ATOM     14  C   UNL     1     158.636 173.148 162.821  1.00  0.00     0.004 C 
ENDBRANCH  12  13
ENDBRANCH  11  12
ENDBRANCH  10  11
ENDBRANCH   9  10
ENDBRANCH   1   9
TORSDOF 10
ENDMDL
MODEL 3
REMARK VINA RESULT:    -3.683      1.647      1.974
REMARK INTER + INTRA:          -7.185
REMARK INTER:                  -5.928
REMARK INTRA:                  -1.258
REMARK UNBOUND:                -1.350
REMARK SMILES CCCCCCCCCCCC(=O)[O-]
REMARK SMILES IDX 7 1 8 2 9 3 10 4 11 5 12 6 13 7 14 8 6 9 5 10 4 11 3 12 2 13
REMARK SMILES IDX 1 14
REMARK H PARENT
REMARK Flexibility Score: inf
ROOT
ATOM      1  C   UNL     1     157.953 173.750 164.624  1.00  0.00     0.000 C 
ENDROOT
BRANCH   1   2
ATOM      2  C   UNL     1     157.779 173.096 163.242  1.00  0.00     0.000 C 
BRANCH   2   3
ATOM      3  C   UNL     1     158.542 173.843 162.135  1.00  0.00     0.000 C 
BRANCH   3   4
ATOM      4  C   UNL     1     157.677 174.899 161.426  1.00  0.00     0.006 C 
BRANCH   4   5
ATOM      5  C   UNL     1     156.491 174.270 160.682  1.00  0.00     0.053 C 
BRANCH   5   6
ATOM      6  C   UNL     1     156.522 174.583 159.217  1.00  0.00     0.041 C 
ATOM      7  O   UNL     1     157.056 173.779 158.409  1.00  0.00    -0.550 OA
ATOM      8  O   UNL     1     155.986 175.775 158.748  1.00  0.00    -0.550 OA
ENDBRANCH   5   6
ENDBRANCH   4   5
ENDBRANCH   3   4
ENDBRANCH   2   3
ENDBRANCH   1   2
BRANCH   1   9
ATOM      9  C   UNL     1     156.613 173.965 165.348  1.00  0.00     0.000 C 
BRANCH   9  10
ATOM     10  C   UNL     1     155.784 175.105 164.730  1.00  0.00    -0.000 C 
BRANCH  10  11
ATOM     11  C   UNL     1     154.328 174.694 164.454  1.00  0.00    -0.000 C 
BRANCH  11  12
ATOM     12  C   UNL     1     154.220 173.533 163.451  1.00  0.00    -0.000 C 
BRANCH  12  13
ATOM     13  C   UNL     1     153.654 172.254 164.090  1.00  0.00    -0.003 C 
ATOM     14  C   UNL     1     154.565 171.041 163.900  1.00  0.00     0.004 C 
ENDBRANCH  12  13
ENDBRANCH  11  12
ENDBRANCH  10  11
ENDBRANCH   9  10
ENDBRANCH   1   9
TORSDOF 10
ENDMDL
MODEL 4
REMARK VINA RESULT:    -3.651      1.610      2.589
REMARK INTER + INTRA:          -7.135
REMARK INTER:                  -5.819
REMARK INTRA:                  -1.316
REMARK UNBOUND:                -1.350
REMARK SMILES CCCCCCCCCCCC(=O)[O-]
REMARK SMILES IDX 7 1 8 2 9 3 10 4 11 5 12 6 13 7 14 8 6 9 5 10 4 11 3 12 2 13
REMARK SMILES IDX 1 14
REMARK H PARENT
REMARK Flexibility Score: inf
ROOT
ATOM      1  C   UNL     1     157.149 173.493 166.519  1.00  0.00     0.000 C 
ENDROOT
BRANCH   1   2
ATOM      2  C   UNL     1     156.548 174.461 165.484  1.00  0.00     0.000 C 
BRANCH   2   3
ATOM      3  C   UNL     1     157.430 174.611 164.234  1.00  0.00     0.000 C 
BRANCH   3   4
ATOM      4  C   UNL     1     157.667 173.274 163.512  1.00  0.00     0.006 C 
BRANCH   4   5
ATOM      5  C   UNL     1     158.184 173.472 162.080  1.00  0.00     0.053 C 
BRANCH   5   6
ATOM      6  C   UNL     1     157.327 174.426 161.305  1.00  0.00     0.041 C 
ATOM      7  O   UNL     1     156.170 174.086 160.943  1.00  0.00    -0.550 OA
ATOM      8  O   UNL     1     157.817 175.678 160.956  1.00  0.00    -0.550 OA
ENDBRANCH   5   6
ENDBRANCH   4   5
ENDBRANCH   3   4
ENDBRANCH   2   3
ENDBRANCH   1   2
BRANCH   1   9
ATOM      9  C   UNL     1     156.085 172.600 167.180  1.00  0.00     0.000 C 
BRANCH   9  10
ATOM     10  C   UNL     1     154.658 173.143 166.991  1.00  0.00    -0.000 C 
BRANCH  10  11
ATOM     11  C   UNL     1     153.764 172.185 166.185  1.00  0.00    -0.000 C 
BRANCH  11  12
ATOM     12  C   UNL     1     154.568 171.080 165.478  1.00  0.00    -0.000 C 
BRANCH  12  13
ATOM     13  C   UNL     1     154.327 171.057 163.960  1.00  0.00    -0.003 C 
ATOM     14  C   UNL     1     154.135 172.454 163.368  1.00  0.00     0.004 C 
ENDBRANCH  12  13
ENDBRANCH  11  12
ENDBRANCH  10  11
ENDBRANCH   9  10
ENDBRANCH   1   9
TORSDOF 10
ENDMDL
MODEL 5
REMARK VINA RESULT:    -3.597      2.017      3.519
REMARK INTER + INTRA:          -7.049
REMARK INTER:                  -5.637
REMARK INTRA:                  -1.412
REMARK UNBOUND:                -1.350
REMARK SMILES CCCCCCCCCCCC(=O)[O-]
REMARK SMILES IDX 7 1 8 2 9 3 10 4 11 5 12 6 13 7 14 8 6 9 5 10 4 11 3 12 2 13
REMARK SMILES IDX 1 14
REMARK H PARENT
REMARK Flexibility Score: inf
ROOT
ATOM      1  C   UNL     1     157.319 174.751 160.442  1.00  0.00     0.000 C 
ENDROOT
BRANCH   1   2
ATOM      2  C   UNL     1     155.788 174.614 160.355  1.00  0.00     0.000 C 
BRANCH   2   3
ATOM      3  C   UNL     1     155.052 175.709 161.146  1.00  0.00     0.000 C 
BRANCH   3   4
ATOM      4  C   UNL     1     154.040 175.135 162.152  1.00  0.00     0.006 C 
BRANCH   4   5
ATOM      5  C   UNL     1     153.661 173.684 161.828  1.00  0.00     0.053 C 
BRANCH   5   6
ATOM      6  C   UNL     1     153.342 172.900 163.064  1.00  0.00     0.041 C 
ATOM      7  O   UNL     1     153.151 171.657 162.995  1.00  0.00    -0.550 OA
ATOM      8  O   UNL     1     153.227 173.546 164.288  1.00  0.00    -0.550 OA
ENDBRANCH   5   6
ENDBRANCH   4   5
ENDBRANCH   3   4
ENDBRANCH   2   3
ENDBRANCH   1   2
BRANCH   1   9
ATOM      9  C   UNL     1     157.837 174.681 161.889  1.00  0.00     0.000 C 
BRANCH   9  10
ATOM     10  C   UNL     1     157.883 173.243 162.432  1.00  0.00    -0.000 C 
BRANCH  10  11
ATOM     11  C   UNL     1     156.981 173.046 163.662  1.00  0.00    -0.000 C 
BRANCH  11  12
ATOM     12  C   UNL     1     156.752 174.352 164.442  1.00  0.00    -0.000 C 
BRANCH  12  13
ATOM     13  C   UNL     1     156.463 174.104 165.932  1.00  0.00    -0.003 C 
ATOM     14  C   UNL     1     155.959 172.688 166.212  1.00  0.00     0.004 C 
ENDBRANCH  12  13
ENDBRANCH  11  12
ENDBRANCH  10  11
ENDBRANCH   9  10
ENDBRANCH   1   9
TORSDOF 10
ENDMDL
MODEL 6
REMARK VINA RESULT:    -3.572      3.083      4.705
REMARK INTER + INTRA:          -7.010
REMARK INTER:                  -5.375
REMARK INTRA:                  -1.635
REMARK UNBOUND:                -1.350
REMARK SMILES CCCCCCCCCCCC(=O)[O-]
REMARK SMILES IDX 7 1 8 2 9 3 10 4 11 5 12 6 13 7 14 8 6 9 5 10 4 11 3 12 2 13
REMARK SMILES IDX 1 14
REMARK H PARENT
REMARK Flexibility Score: inf
ROOT
ATOM      1  C   UNL     1     155.006 173.596 163.006  1.00  0.00     0.000 C 
ENDROOT
BRANCH   1   2
ATOM      2  C   UNL     1     154.675 174.786 163.925  1.00  0.00     0.000 C 
BRANCH   2   3
ATOM      3  C   UNL     1     155.910 175.320 164.669  1.00  0.00     0.000 C 
BRANCH   3   4
ATOM      4  C   UNL     1     157.132 174.396 164.528  1.00  0.00     0.006 C 
BRANCH   4   5
ATOM      5  C   UNL     1     157.883 174.225 165.855  1.00  0.00     0.053 C 
BRANCH   5   6
ATOM      6  C   UNL     1     159.312 174.661 165.749  1.00  0.00     0.041 C 
ATOM      7  O   UNL     1     159.604 175.734 165.158  1.00  0.00    -0.550 OA
ATOM      8  O   UNL     1     160.324 173.869 166.277  1.00  0.00    -0.550 OA
ENDBRANCH   5   6
ENDBRANCH   4   5
ENDBRANCH   3   4
ENDBRANCH   2   3
ENDBRANCH   1   2
BRANCH   1   9
ATOM      9  C   UNL     1     154.076 172.393 163.238  1.00  0.00     0.000 C 
BRANCH   9  10
ATOM     10  C   UNL     1     154.710 171.321 164.141  1.00  0.00    -0.000 C 
BRANCH  10  11
ATOM     11  C   UNL     1     154.142 171.339 165.569  1.00  0.00    -0.000 C 
BRANCH  11  12
ATOM     12  C   UNL     1     155.159 171.851 166.604  1.00  0.00    -0.000 C 
BRANCH  12  13
ATOM     13  C   UNL     1     154.636 173.062 167.395  1.00  0.00    -0.003 C 
ATOM     14  C   UNL     1     153.214 173.460 166.998  1.00  0.00     0.004 C 
ENDBRANCH  12  13
ENDBRANCH  11  12
ENDBRANCH  10  11
ENDBRANCH   9  10
ENDBRANCH   1   9
TORSDOF 10
ENDMDL
MODEL 7
REMARK VINA RESULT:    -3.557      2.054      4.311
REMARK INTER + INTRA:          -6.987
REMARK INTER:                  -5.692
REMARK INTRA:                  -1.295
REMARK UNBOUND:                -1.350
REMARK SMILES CCCCCCCCCCCC(=O)[O-]
REMARK SMILES IDX 7 1 8 2 9 3 10 4 11 5 12 6 13 7 14 8 6 9 5 10 4 11 3 12 2 13
REMARK SMILES IDX 1 14
REMARK H PARENT
REMARK Flexibility Score: inf
ROOT
ATOM      1  C   UNL     1     158.495 173.913 164.256  1.00  0.00     0.000 C 
ENDROOT
BRANCH   1   2
ATOM      2  C   UNL     1     157.691 174.234 165.529  1.00  0.00     0.000 C 
BRANCH   2   3
ATOM      3  C   UNL     1     156.238 174.633 165.225  1.00  0.00     0.000 C 
BRANCH   3   4
ATOM      4  C   UNL     1     155.222 173.896 166.115  1.00  0.00     0.006 C 
BRANCH   4   5
ATOM      5  C   UNL     1     155.339 172.371 165.987  1.00  0.00     0.053 C 
BRANCH   5   6
ATOM      6  C   UNL     1     154.404 171.823 164.953  1.00  0.00     0.041 C 
ATOM      7  O   UNL     1     154.844 171.101 164.020  1.00  0.00    -0.550 OA
ATOM      8  O   UNL     1     153.051 172.134 165.003  1.00  0.00    -0.550 OA
ENDBRANCH   5   6
ENDBRANCH   4   5
ENDBRANCH   3   4
ENDBRANCH   2   3
ENDBRANCH   1   2
BRANCH   1   9
ATOM      9  C   UNL     1     157.652 173.190 163.192  1.00  0.00     0.000 C 
BRANCH   9  10
ATOM     10  C   UNL     1     157.829 173.793 161.788  1.00  0.00    -0.000 C 
BRANCH  10  11
ATOM     11  C   UNL     1     157.071 175.119 161.614  1.00  0.00    -0.000 C 
BRANCH  11  12
ATOM     12  C   UNL     1     155.660 174.922 161.034  1.00  0.00    -0.000 C 
BRANCH  12  13
ATOM     13  C   UNL     1     154.582 175.660 161.844  1.00  0.00    -0.003 C 
ATOM     14  C   UNL     1     153.646 174.710 162.592  1.00  0.00     0.004 C 
ENDBRANCH  12  13
ENDBRANCH  11  12
ENDBRANCH  10  11
ENDBRANCH   9  10
ENDBRANCH   1   9
TORSDOF 10
ENDMDL
MODEL 8
REMARK VINA RESULT:    -3.550      2.206      4.604
REMARK INTER + INTRA:          -6.976
REMARK INTER:                  -5.522
REMARK INTRA:                  -1.453
REMARK UNBOUND:                -1.350
REMARK SMILES CCCCCCCCCCCC(=O)[O-]
REMARK SMILES IDX 7 1 8 2 9 3 10 4 11 5 12 6 13 7 14 8 6 9 5 10 4 11 3 12 2 13
REMARK SMILES IDX 1 14
REMARK H PARENT
REMARK Flexibility Score: inf
ROOT
ATOM      1  C   UNL     1     155.188 175.396 161.983  1.00  0.00     0.000 C 
ENDROOT
BRANCH   1   2
ATOM      2  C   UNL     1     154.302 175.009 163.181  1.00  0.00     0.000 C 
BRANCH   2   3
ATOM      3  C   UNL     1     155.061 175.056 164.517  1.00  0.00     0.000 C 
BRANCH   3   4
ATOM      4  C   UNL     1     154.502 174.065 165.553  1.00  0.00     0.006 C 
BRANCH   4   5
ATOM      5  C   UNL     1     155.192 172.697 165.476  1.00  0.00     0.053 C 
BRANCH   5   6
ATOM      6  C   UNL     1     154.330 171.674 164.801  1.00  0.00     0.041 C 
ATOM      7  O   UNL     1     153.147 171.488 165.188  1.00  0.00    -0.550 OA
ATOM      8  O   UNL     1     154.843 170.907 163.763  1.00  0.00    -0.550 OA
ENDBRANCH   5   6
ENDBRANCH   4   5
ENDBRANCH   3   4
ENDBRANCH   2   3
ENDBRANCH   1   2
BRANCH   1   9
ATOM      9  C   UNL     1     156.501 176.070 162.414  1.00  0.00     0.000 C 
BRANCH   9  10
ATOM     10  C   UNL     1     157.744 175.348 161.864  1.00  0.00    -0.000 C 
BRANCH  10  11
ATOM     11  C   UNL     1     157.542 173.828 161.749  1.00  0.00    -0.000 C 
BRANCH  11  12
ATOM     12  C   UNL     1     157.935 173.080 163.034  1.00  0.00    -0.000 C 
BRANCH  12  13
ATOM     13  C   UNL     1     159.046 173.798 163.817  1.00  0.00    -0.003 C 
ATOM     14  C   UNL     1     158.637 174.142 165.249  1.00  0.00     0.004 C 
ENDBRANCH  12  13
ENDBRANCH  11  12
ENDBRANCH  10  11
ENDBRANCH   9  10
ENDBRANCH   1   9
TORSDOF 10
ENDMDL
MODEL 9
REMARK VINA RESULT:    -3.529      1.987      2.727
REMARK INTER + INTRA:          -6.942
REMARK INTER:                  -6.012
REMARK INTRA:                  -0.929
REMARK UNBOUND:                -1.350
REMARK SMILES CCCCCCCCCCCC(=O)[O-]
REMARK SMILES IDX 7 1 8 2 9 3 10 4 11 5 12 6 13 7 14 8 6 9 5 10 4 11 3 12 2 13
REMARK SMILES IDX 1 14
REMARK H PARENT
REMARK Flexibility Score: inf
ROOT
ATOM      1  C   UNL     1     157.980 173.144 162.979  1.00  0.00     0.000 C 
ENDROOT
BRANCH   1   2
ATOM      2  C   UNL     1     157.652 174.110 161.826  1.00  0.00     0.000 C 
BRANCH   2   3
ATOM      3  C   UNL     1     156.146 174.180 161.525  1.00  0.00     0.000 C 
BRANCH   3   4
ATOM      4  C   UNL     1     155.849 174.568 160.066  1.00  0.00     0.006 C 
BRANCH   4   5
ATOM      5  C   UNL     1     156.999 174.190 159.122  1.00  0.00     0.053 C 
BRANCH   5   6
ATOM      6  C   UNL     1     156.642 174.426 157.686  1.00  0.00     0.041 C 
ATOM      7  O   UNL     1     156.386 175.590 157.280  1.00  0.00    -0.550 OA
ATOM      8  O   UNL     1     156.565 173.357 156.803  1.00  0.00    -0.550 OA
ENDBRANCH   5   6
ENDBRANCH   4   5
ENDBRANCH   3   4
ENDBRANCH   2   3
ENDBRANCH   1   2
BRANCH   1   9
ATOM      9  C   UNL     1     158.626 173.856 164.179  1.00  0.00     0.000 C 
BRANCH   9  10
ATOM     10  C   UNL     1     157.606 174.645 165.018  1.00  0.00    -0.000 C 
BRANCH  10  11
ATOM     11  C   UNL     1     156.824 173.750 165.993  1.00  0.00    -0.000 C 
BRANCH  11  12
ATOM     12  C   UNL     1     155.350 173.577 165.587  1.00  0.00    -0.000 C 
BRANCH  12  13
ATOM     13  C   UNL     1     154.942 172.099 165.469  1.00  0.00    -0.003 C 
ATOM     14  C   UNL     1     154.842 171.625 164.019  1.00  0.00     0.004 C 
ENDBRANCH  12  13
ENDBRANCH  11  12
ENDBRANCH  10  11
ENDBRANCH   9  10
ENDBRANCH   1   9
TORSDOF 10
ENDMDL
