MODEL 1
REMARK VINA RESULT:    -7.145      0.000      0.000
REMARK INTER + INTRA:          -8.890
REMARK INTER:                  -8.607
REMARK INTRA:                  -0.284
REMARK UNBOUND:                -0.284
REMARK SMILES O=c1c(O)c(-c2ccc(O)c(O)c2)oc2cc(O)cc(O)c12
REMARK SMILES IDX 5 1 3 2 2 3 1 4 22 5 20 6 19 7 17 8 16 9 15 10 14 11 6 12
REMARK SMILES IDX 7 13 8 14 9 15 13 16 11 17 10 18 12 20 4 22 21 24 18 26
REMARK H PARENT 10 19 12 21 4 23 21 25 18 27
REMARK Flexibility Score: inf
ROOT
ATOM      1  C   UNL     1      13.256   8.353  56.572  1.00  0.00     0.180 A 
ATOM      2  C   UNL     1      11.887   8.103  56.376  1.00  0.00     0.208 A 
ATOM      3  C   UNL     1      11.055   7.957  57.497  1.00  0.00     0.238 A 
ATOM      4  O   UNL     1       9.840   7.680  57.315  1.00  0.00    -0.285 OA
ATOM      5  C   UNL     1      11.597   8.079  58.798  1.00  0.00     0.111 A 
ATOM      6  C   UNL     1      10.839   7.989  60.005  1.00  0.00     0.134 A 
ATOM      7  C   UNL     1      11.500   7.995  61.238  1.00  0.00     0.093 A 
ATOM      8  C   UNL     1      12.887   8.152  61.311  1.00  0.00     0.123 A 
ATOM      9  C   UNL     1      13.629   8.300  60.142  1.00  0.00     0.094 A 
ATOM     10  C   UNL     1      13.001   8.262  58.895  1.00  0.00     0.146 A 
ATOM     11  O   UNL     1      13.747   8.397  57.805  1.00  0.00    -0.452 OA
ENDROOT
BRANCH   1  12
ATOM     12  C   UNL     1      14.192   8.544  55.440  1.00  0.00     0.025 A 
ATOM     13  C   UNL     1      15.111   7.530  55.126  1.00  0.00     0.016 A 
ATOM     14  C   UNL     1      16.017   7.697  54.075  1.00  0.00     0.051 A 
ATOM     15  C   UNL     1      16.030   8.882  53.334  1.00  0.00     0.157 A 
ATOM     16  C   UNL     1      14.220   9.743  54.707  1.00  0.00     0.062 A 
ATOM     17  C   UNL     1      15.131   9.913  53.653  1.00  0.00     0.158 A 
BRANCH  15  18
ATOM     18  O   UNL     1      16.945   9.020  52.290  1.00  0.00    -0.504 OA
ATOM     19  H   UNL     1      17.165   8.255  51.665  1.00  0.00     0.293 HD
ENDBRANCH  15  18
BRANCH  17  20
ATOM     20  O   UNL     1      15.148  11.104  52.927  1.00  0.00    -0.504 OA
ATOM     21  H   UNL     1      15.642  11.180  52.047  1.00  0.00     0.293 HD
ENDBRANCH  17  20
ENDBRANCH   1  12
BRANCH   2  22
ATOM     22  O   UNL     1      11.377   7.965  55.083  1.00  0.00    -0.502 OA
ATOM     23  H   UNL     1      10.705   8.614  54.691  1.00  0.00     0.293 HD
ENDBRANCH   2  22
BRANCH   6  24
ATOM     24  O   UNL     1       9.443   7.922  60.046  1.00  0.00    -0.507 OA
ATOM     25  H   UNL     1       8.895   7.859  60.890  1.00  0.00     0.293 HD
ENDBRANCH   6  24
BRANCH   8  26
ATOM     26  O   UNL     1      13.536   8.171  62.544  1.00  0.00    -0.508 OA
ATOM     27  H   UNL     1      14.545   8.092  62.613  1.00  0.00     0.293 HD
ENDBRANCH   8  26
TORSDOF 6
ENDMDL
MODEL 2
REMARK VINA RESULT:    -7.011      1.681      2.600
REMARK INTER + INTRA:          -8.729
REMARK INTER:                  -8.752
REMARK INTRA:                   0.023
REMARK UNBOUND:                -0.284
REMARK SMILES O=c1c(O)c(-c2ccc(O)c(O)c2)oc2cc(O)cc(O)c12
REMARK SMILES IDX 5 1 3 2 2 3 1 4 22 5 20 6 19 7 17 8 16 9 15 10 14 11 6 12
REMARK SMILES IDX 7 13 8 14 9 15 13 16 11 17 10 18 12 20 4 22 21 24 18 26
REMARK H PARENT 10 19 12 21 4 23 21 25 18 27
REMARK Flexibility Score: inf
ROOT
ATOM      1  C   UNL     1      13.582   8.484  56.244  1.00  0.00     0.180 A 
ATOM      2  C   UNL     1      14.223   7.451  56.949  1.00  0.00     0.208 A 
ATOM      3  C   UNL     1      13.654   6.988  58.146  1.00  0.00     0.238 A 
ATOM      4  O   UNL     1      14.261   6.100  58.799  1.00  0.00    -0.285 OA
ATOM      5  C   UNL     1      12.443   7.551  58.614  1.00  0.00     0.111 A 
ATOM      6  C   UNL     1      11.756   7.132  59.793  1.00  0.00     0.134 A 
ATOM      7  C   UNL     1      10.636   7.847  60.232  1.00  0.00     0.093 A 
ATOM      8  C   UNL     1      10.140   8.928  59.498  1.00  0.00     0.123 A 
ATOM      9  C   UNL     1      10.768   9.308  58.315  1.00  0.00     0.094 A 
ATOM     10  C   UNL     1      11.909   8.636  57.871  1.00  0.00     0.146 A 
ATOM     11  O   UNL     1      12.483   9.037  56.743  1.00  0.00    -0.452 OA
ENDROOT
BRANCH   1  12
ATOM     12  C   UNL     1      14.108   9.008  54.963  1.00  0.00     0.025 A 
ATOM     13  C   UNL     1      14.458   8.110  53.941  1.00  0.00     0.016 A 
ATOM     14  C   UNL     1      14.974   8.582  52.731  1.00  0.00     0.051 A 
ATOM     15  C   UNL     1      15.165   9.951  52.529  1.00  0.00     0.157 A 
ATOM     16  C   UNL     1      14.319  10.384  54.765  1.00  0.00     0.062 A 
ATOM     17  C   UNL     1      14.840  10.858  53.552  1.00  0.00     0.158 A 
BRANCH  15  18
ATOM     18  O   UNL     1      15.681  10.392  51.311  1.00  0.00    -0.504 OA
ATOM     19  H   UNL     1      16.330   9.836  50.769  1.00  0.00     0.293 HD
ENDBRANCH  15  18
BRANCH  17  20
ATOM     20  O   UNL     1      15.040  12.226  53.362  1.00  0.00    -0.504 OA
ATOM     21  H   UNL     1      14.477  12.758  52.710  1.00  0.00     0.293 HD
ENDBRANCH  17  20
ENDBRANCH   1  12
BRANCH   2  22
ATOM     22  O   UNL     1      15.429   6.924  56.479  1.00  0.00    -0.502 OA
ATOM     23  H   UNL     1      16.271   6.905  57.044  1.00  0.00     0.293 HD
ENDBRANCH   2  22
BRANCH   6  24
ATOM     24  O   UNL     1      12.114   6.010  60.547  1.00  0.00    -0.507 OA
ATOM     25  H   UNL     1      13.050   5.641  60.619  1.00  0.00     0.293 HD
ENDBRANCH   6  24
BRANCH   8  26
ATOM     26  O   UNL     1       9.015   9.626  59.934  1.00  0.00    -0.508 OA
ATOM     27  H   UNL     1       8.215   9.147  60.332  1.00  0.00     0.293 HD
ENDBRANCH   8  26
TORSDOF 6
ENDMDL
MODEL 3
REMARK VINA RESULT:    -6.947      2.088      7.259
REMARK INTER + INTRA:          -8.653
REMARK INTER:                  -8.330
REMARK INTRA:                  -0.323
REMARK UNBOUND:                -0.284
REMARK SMILES O=c1c(O)c(-c2ccc(O)c(O)c2)oc2cc(O)cc(O)c12
REMARK SMILES IDX 5 1 3 2 2 3 1 4 22 5 20 6 19 7 17 8 16 9 15 10 14 11 6 12
REMARK SMILES IDX 7 13 8 14 9 15 13 16 11 17 10 18 12 20 4 22 21 24 18 26
REMARK H PARENT 10 19 12 21 4 23 21 25 18 27
REMARK Flexibility Score: inf
ROOT
ATOM      1  C   UNL     1      13.913   8.221  55.721  1.00  0.00     0.180 A 
ATOM      2  C   UNL     1      13.989   9.624  55.687  1.00  0.00     0.208 A 
ATOM      3  C   UNL     1      14.495  10.250  54.537  1.00  0.00     0.238 A 
ATOM      4  O   UNL     1      14.610  11.504  54.534  1.00  0.00    -0.285 OA
ATOM      5  C   UNL     1      14.900   9.469  53.429  1.00  0.00     0.111 A 
ATOM      6  C   UNL     1      15.390  10.000  52.198  1.00  0.00     0.134 A 
ATOM      7  C   UNL     1      15.885   9.131  51.219  1.00  0.00     0.093 A 
ATOM      8  C   UNL     1      15.849   7.746  51.401  1.00  0.00     0.123 A 
ATOM      9  C   UNL     1      15.319   7.215  52.575  1.00  0.00     0.094 A 
ATOM     10  C   UNL     1      14.851   8.059  53.585  1.00  0.00     0.146 A 
ATOM     11  O   UNL     1      14.363   7.512  54.692  1.00  0.00    -0.452 OA
ENDROOT
BRANCH   1  12
ATOM     12  C   UNL     1      13.369   7.490  56.888  1.00  0.00     0.025 A 
ATOM     13  C   UNL     1      14.252   6.924  57.822  1.00  0.00     0.016 A 
ATOM     14  C   UNL     1      13.761   6.212  58.920  1.00  0.00     0.051 A 
ATOM     15  C   UNL     1      12.385   6.041  59.093  1.00  0.00     0.157 A 
ATOM     16  C   UNL     1      11.986   7.298  57.053  1.00  0.00     0.062 A 
ATOM     17  C   UNL     1      11.491   6.582  58.153  1.00  0.00     0.158 A 
BRANCH  15  18
ATOM     18  O   UNL     1      11.924   5.327  60.199  1.00  0.00    -0.504 OA
ATOM     19  H   UNL     1      10.971   5.407  60.532  1.00  0.00     0.293 HD
ENDBRANCH  15  18
BRANCH  17  20
ATOM     20  O   UNL     1      10.117   6.403  58.313  1.00  0.00    -0.504 OA
ATOM     21  H   UNL     1       9.449   7.062  57.932  1.00  0.00     0.293 HD
ENDBRANCH  17  20
ENDBRANCH   1  12
BRANCH   2  22
ATOM     22  O   UNL     1      13.603  10.375  56.801  1.00  0.00    -0.502 OA
ATOM     23  H   UNL     1      13.674  10.020  57.747  1.00  0.00     0.293 HD
ENDBRANCH   2  22
BRANCH   6  24
ATOM     24  O   UNL     1      15.384  11.361  51.878  1.00  0.00    -0.507 OA
ATOM     25  H   UNL     1      16.158  11.990  52.030  1.00  0.00     0.293 HD
ENDBRANCH   6  24
BRANCH   8  26
ATOM     26  O   UNL     1      16.331   6.886  50.415  1.00  0.00    -0.508 OA
ATOM     27  H   UNL     1      15.736   6.187  49.985  1.00  0.00     0.293 HD
ENDBRANCH   8  26
TORSDOF 6
ENDMDL
MODEL 4
REMARK VINA RESULT:    -6.721      1.813      7.114
REMARK INTER + INTRA:          -8.380
REMARK INTER:                  -8.120
REMARK INTRA:                  -0.260
REMARK UNBOUND:                -0.284
REMARK SMILES O=c1c(O)c(-c2ccc(O)c(O)c2)oc2cc(O)cc(O)c12
REMARK SMILES IDX 5 1 3 2 2 3 1 4 22 5 20 6 19 7 17 8 16 9 15 10 14 11 6 12
REMARK SMILES IDX 7 13 8 14 9 15 13 16 11 17 10 18 12 20 4 22 21 24 18 26
REMARK H PARENT 10 19 12 21 4 23 21 25 18 27
REMARK Flexibility Score: inf
ROOT
ATOM      1  C   UNL     1      12.960   8.472  58.321  1.00  0.00     0.180 A 
ATOM      2  C   UNL     1      13.693   7.274  58.274  1.00  0.00     0.208 A 
ATOM      3  C   UNL     1      14.586   7.063  57.211  1.00  0.00     0.238 A 
ATOM      4  O   UNL     1      15.200   5.966  57.146  1.00  0.00    -0.285 OA
ATOM      5  C   UNL     1      14.747   8.058  56.218  1.00  0.00     0.111 A 
ATOM      6  C   UNL     1      15.653   7.968  55.119  1.00  0.00     0.134 A 
ATOM      7  C   UNL     1      15.634   8.954  54.125  1.00  0.00     0.093 A 
ATOM      8  C   UNL     1      14.787  10.061  54.226  1.00  0.00     0.123 A 
ATOM      9  C   UNL     1      13.942  10.189  55.325  1.00  0.00     0.094 A 
ATOM     10  C   UNL     1      13.912   9.202  56.313  1.00  0.00     0.146 A 
ATOM     11  O   UNL     1      13.084   9.358  57.339  1.00  0.00    -0.452 OA
ENDROOT
BRANCH   1  12
ATOM     12  C   UNL     1      12.018   8.777  59.422  1.00  0.00     0.025 A 
ATOM     13  C   UNL     1      10.638   8.800  59.164  1.00  0.00     0.016 A 
ATOM     14  C   UNL     1       9.733   9.106  60.184  1.00  0.00     0.051 A 
ATOM     15  C   UNL     1      10.191   9.407  61.470  1.00  0.00     0.157 A 
ATOM     16  C   UNL     1      12.478   9.100  60.711  1.00  0.00     0.062 A 
ATOM     17  C   UNL     1      11.571   9.408  61.735  1.00  0.00     0.158 A 
BRANCH  15  18
ATOM     18  O   UNL     1       9.264   9.706  62.468  1.00  0.00    -0.504 OA
ATOM     19  H   UNL     1       8.951  10.653  62.644  1.00  0.00     0.293 HD
ENDBRANCH  15  18
BRANCH  17  20
ATOM     20  O   UNL     1      12.036   9.722  63.012  1.00  0.00    -0.504 OA
ATOM     21  H   UNL     1      12.024  10.673  63.361  1.00  0.00     0.293 HD
ENDBRANCH  17  20
ENDBRANCH   1  12
BRANCH   2  22
ATOM     22  O   UNL     1      13.503   6.295  59.253  1.00  0.00    -0.502 OA
ATOM     23  H   UNL     1      14.275   5.823  59.708  1.00  0.00     0.293 HD
ENDBRANCH   2  22
BRANCH   6  24
ATOM     24  O   UNL     1      16.603   6.953  54.972  1.00  0.00    -0.507 OA
ATOM     25  H   UNL     1      17.547   6.995  55.324  1.00  0.00     0.293 HD
ENDBRANCH   6  24
BRANCH   8  26
ATOM     26  O   UNL     1      14.786  11.046  53.240  1.00  0.00    -0.508 OA
ATOM     27  H   UNL     1      15.080  10.846  52.290  1.00  0.00     0.293 HD
ENDBRANCH   8  26
TORSDOF 6
ENDMDL
MODEL 5
REMARK VINA RESULT:    -6.587      2.293      7.388
REMARK INTER + INTRA:          -8.218
REMARK INTER:                  -7.993
REMARK INTRA:                  -0.226
REMARK UNBOUND:                -0.284
REMARK SMILES O=c1c(O)c(-c2ccc(O)c(O)c2)oc2cc(O)cc(O)c12
REMARK SMILES IDX 5 1 3 2 2 3 1 4 22 5 20 6 19 7 17 8 16 9 15 10 14 11 6 12
REMARK SMILES IDX 7 13 8 14 9 15 13 16 11 17 10 18 12 20 4 22 21 24 18 26
REMARK H PARENT 10 19 12 21 4 23 21 25 18 27
REMARK Flexibility Score: inf
ROOT
ATOM      1  C   UNL     1      11.903   8.434  59.628  1.00  0.00     0.180 A 
ATOM      2  C   UNL     1      12.428   7.131  59.640  1.00  0.00     0.208 A 
ATOM      3  C   UNL     1      13.368   6.766  58.664  1.00  0.00     0.238 A 
ATOM      4  O   UNL     1      13.794   5.581  58.648  1.00  0.00    -0.285 OA
ATOM      5  C   UNL     1      13.784   7.712  57.698  1.00  0.00     0.111 A 
ATOM      6  C   UNL     1      14.761   7.464  56.686  1.00  0.00     0.134 A 
ATOM      7  C   UNL     1      14.999   8.432  55.703  1.00  0.00     0.093 A 
ATOM      8  C   UNL     1      14.342   9.665  55.732  1.00  0.00     0.123 A 
ATOM      9  C   UNL     1      13.431   9.940  56.749  1.00  0.00     0.094 A 
ATOM     10  C   UNL     1      13.146   8.980  57.723  1.00  0.00     0.146 A 
ATOM     11  O   UNL     1      12.264   9.279  58.669  1.00  0.00    -0.452 OA
ENDROOT
BRANCH   1  12
ATOM     12  C   UNL     1      10.927   8.900  60.639  1.00  0.00     0.025 A 
ATOM     13  C   UNL     1       9.624   9.236  60.238  1.00  0.00     0.016 A 
ATOM     14  C   UNL     1       8.693   9.697  61.173  1.00  0.00     0.051 A 
ATOM     15  C   UNL     1       9.052   9.845  62.515  1.00  0.00     0.157 A 
ATOM     16  C   UNL     1      11.293   9.069  61.986  1.00  0.00     0.062 A 
ATOM     17  C   UNL     1      10.360   9.534  62.925  1.00  0.00     0.158 A 
BRANCH  15  18
ATOM     18  O   UNL     1       8.101  10.306  63.425  1.00  0.00    -0.504 OA
ATOM     19  H   UNL     1       8.246  10.255  64.426  1.00  0.00     0.293 HD
ENDBRANCH  15  18
BRANCH  17  20
ATOM     20  O   UNL     1      10.729   9.694  64.261  1.00  0.00    -0.504 OA
ATOM     21  H   UNL     1      11.172  10.543  64.590  1.00  0.00     0.293 HD
ENDBRANCH  17  20
ENDBRANCH   1  12
BRANCH   2  22
ATOM     22  O   UNL     1      11.987   6.205  60.590  1.00  0.00    -0.502 OA
ATOM     23  H   UNL     1      11.091   5.738  60.519  1.00  0.00     0.293 HD
ENDBRANCH   2  22
BRANCH   6  24
ATOM     24  O   UNL     1      15.538   6.304  56.621  1.00  0.00    -0.507 OA
ATOM     25  H   UNL     1      15.186   5.368  56.755  1.00  0.00     0.293 HD
ENDBRANCH   6  24
BRANCH   8  26
ATOM     26  O   UNL     1      14.596  10.628  54.758  1.00  0.00    -0.508 OA
ATOM     27  H   UNL     1      15.135  11.462  54.965  1.00  0.00     0.293 HD
ENDBRANCH   8  26
TORSDOF 6
ENDMDL
MODEL 6
REMARK VINA RESULT:    -6.507      2.023      2.372
REMARK INTER + INTRA:          -8.123
REMARK INTER:                  -7.929
REMARK INTRA:                  -0.194
REMARK UNBOUND:                -0.284
REMARK SMILES O=c1c(O)c(-c2ccc(O)c(O)c2)oc2cc(O)cc(O)c12
REMARK SMILES IDX 5 1 3 2 2 3 1 4 22 5 20 6 19 7 17 8 16 9 15 10 14 11 6 12
REMARK SMILES IDX 7 13 8 14 9 15 13 16 11 17 10 18 12 20 4 22 21 24 18 26
REMARK H PARENT 10 19 12 21 4 23 21 25 18 27
REMARK Flexibility Score: inf
ROOT
ATOM      1  C   UNL     1      13.866   8.273  56.027  1.00  0.00     0.180 A 
ATOM      2  C   UNL     1      13.476   9.499  56.592  1.00  0.00     0.208 A 
ATOM      3  C   UNL     1      12.852   9.502  57.849  1.00  0.00     0.238 A 
ATOM      4  O   UNL     1      12.458  10.598  58.326  1.00  0.00    -0.285 OA
ATOM      5  C   UNL     1      12.642   8.281  58.534  1.00  0.00     0.111 A 
ATOM      6  C   UNL     1      12.056   8.169  59.831  1.00  0.00     0.134 A 
ATOM      7  C   UNL     1      11.776   6.901  60.355  1.00  0.00     0.093 A 
ATOM      8  C   UNL     1      12.121   5.741  59.657  1.00  0.00     0.123 A 
ATOM      9  C   UNL     1      12.747   5.840  58.417  1.00  0.00     0.094 A 
ATOM     10  C   UNL     1      13.005   7.090  57.852  1.00  0.00     0.146 A 
ATOM     11  O   UNL     1      13.595   7.140  56.663  1.00  0.00    -0.452 OA
ENDROOT
BRANCH   1  12
ATOM     12  C   UNL     1      14.551   8.192  54.716  1.00  0.00     0.025 A 
ATOM     13  C   UNL     1      15.907   7.832  54.667  1.00  0.00     0.016 A 
ATOM     14  C   UNL     1      16.578   7.769  53.443  1.00  0.00     0.051 A 
ATOM     15  C   UNL     1      15.912   8.079  52.254  1.00  0.00     0.157 A 
ATOM     16  C   UNL     1      13.888   8.524  53.522  1.00  0.00     0.062 A 
ATOM     17  C   UNL     1      14.561   8.464  52.292  1.00  0.00     0.158 A 
BRANCH  15  18
ATOM     18  O   UNL     1      16.607   8.006  51.047  1.00  0.00    -0.504 OA
ATOM     19  H   UNL     1      17.305   8.692  50.787  1.00  0.00     0.293 HD
ENDBRANCH  15  18
BRANCH  17  20
ATOM     20  O   UNL     1      13.894   8.789  51.111  1.00  0.00    -0.504 OA
ATOM     21  H   UNL     1      12.906   8.601  50.992  1.00  0.00     0.293 HD
ENDBRANCH  17  20
ENDBRANCH   1  12
BRANCH   2  22
ATOM     22  O   UNL     1      13.674  10.691  55.890  1.00  0.00    -0.502 OA
ATOM     23  H   UNL     1      12.934  11.143  55.365  1.00  0.00     0.293 HD
ENDBRANCH   2  22
BRANCH   6  24
ATOM     24  O   UNL     1      11.758   9.262  60.650  1.00  0.00    -0.507 OA
ATOM     25  H   UNL     1      12.439   9.913  61.010  1.00  0.00     0.293 HD
ENDBRANCH   6  24
BRANCH   8  26
ATOM     26  O   UNL     1      11.853   4.483  60.193  1.00  0.00    -0.508 OA
ATOM     27  H   UNL     1      12.265   3.642  59.803  1.00  0.00     0.293 HD
ENDBRANCH   8  26
TORSDOF 6
ENDMDL
MODEL 7
REMARK VINA RESULT:    -6.319      2.034      2.883
REMARK INTER + INTRA:          -7.896
REMARK INTER:                  -7.755
REMARK INTRA:                  -0.141
REMARK UNBOUND:                -0.284
REMARK SMILES O=c1c(O)c(-c2ccc(O)c(O)c2)oc2cc(O)cc(O)c12
REMARK SMILES IDX 5 1 3 2 2 3 1 4 22 5 20 6 19 7 17 8 16 9 15 10 14 11 6 12
REMARK SMILES IDX 7 13 8 14 9 15 13 16 11 17 10 18 12 20 4 22 21 24 18 26
REMARK H PARENT 10 19 12 21 4 23 21 25 18 27
REMARK Flexibility Score: inf
ROOT
ATOM      1  C   UNL     1      12.141   8.798  59.053  1.00  0.00     0.180 A 
ATOM      2  C   UNL     1      10.803   9.128  58.780  1.00  0.00     0.208 A 
ATOM      3  C   UNL     1       9.917   9.318  59.852  1.00  0.00     0.238 A 
ATOM      4  O   UNL     1       8.707   9.561  59.601  1.00  0.00    -0.285 OA
ATOM      5  C   UNL     1      10.383   9.194  61.183  1.00  0.00     0.111 A 
ATOM      6  C   UNL     1       9.583   9.404  62.346  1.00  0.00     0.134 A 
ATOM      7  C   UNL     1      10.115   9.125  63.610  1.00  0.00     0.093 A 
ATOM      8  C   UNL     1      11.439   8.705  63.757  1.00  0.00     0.123 A 
ATOM      9  C   UNL     1      12.247   8.553  62.633  1.00  0.00     0.094 A 
ATOM     10  C   UNL     1      11.733   8.789  61.356  1.00  0.00     0.146 A 
ATOM     11  O   UNL     1      12.533   8.623  60.309  1.00  0.00    -0.452 OA
ENDROOT
BRANCH   1  12
ATOM     12  C   UNL     1      13.140   8.607  57.976  1.00  0.00     0.025 A 
ATOM     13  C   UNL     1      13.835   7.390  57.888  1.00  0.00     0.016 A 
ATOM     14  C   UNL     1      14.797   7.195  56.892  1.00  0.00     0.051 A 
ATOM     15  C   UNL     1      15.089   8.215  55.982  1.00  0.00     0.157 A 
ATOM     16  C   UNL     1      13.450   9.638  57.073  1.00  0.00     0.062 A 
ATOM     17  C   UNL     1      14.416   9.445  56.074  1.00  0.00     0.158 A 
BRANCH  15  18
ATOM     18  O   UNL     1      16.053   7.991  54.999  1.00  0.00    -0.504 OA
ATOM     19  H   UNL     1      16.598   7.139  54.965  1.00  0.00     0.293 HD
ENDBRANCH  15  18
BRANCH  17  20
ATOM     20  O   UNL     1      14.714  10.472  55.178  1.00  0.00    -0.504 OA
ATOM     21  H   UNL     1      14.483  10.399  54.194  1.00  0.00     0.293 HD
ENDBRANCH  17  20
ENDBRANCH   1  12
BRANCH   2  22
ATOM     22  O   UNL     1      10.358   9.226  57.459  1.00  0.00    -0.502 OA
ATOM     23  H   UNL     1      10.482  10.064  56.904  1.00  0.00     0.293 HD
ENDBRANCH   2  22
BRANCH   6  24
ATOM     24  O   UNL     1       8.280   9.909  62.316  1.00  0.00    -0.507 OA
ATOM     25  H   UNL     1       7.446   9.357  62.448  1.00  0.00     0.293 HD
ENDBRANCH   6  24
BRANCH   8  26
ATOM     26  O   UNL     1      11.966   8.443  65.021  1.00  0.00    -0.508 OA
ATOM     27  H   UNL     1      11.860   7.536  65.462  1.00  0.00     0.293 HD
ENDBRANCH   8  26
TORSDOF 6
ENDMDL
MODEL 8
REMARK VINA RESULT:    -6.279      2.022      3.325
REMARK INTER + INTRA:          -7.847
REMARK INTER:                  -7.633
REMARK INTRA:                  -0.214
REMARK UNBOUND:                -0.284
REMARK SMILES O=c1c(O)c(-c2ccc(O)c(O)c2)oc2cc(O)cc(O)c12
REMARK SMILES IDX 5 1 3 2 2 3 1 4 22 5 20 6 19 7 17 8 16 9 15 10 14 11 6 12
REMARK SMILES IDX 7 13 8 14 9 15 13 16 11 17 10 18 12 20 4 22 21 24 18 26
REMARK H PARENT 10 19 12 21 4 23 21 25 18 27
REMARK Flexibility Score: inf
ROOT
ATOM      1  C   UNL     1      13.064   8.441  55.681  1.00  0.00     0.180 A 
ATOM      2  C   UNL     1      13.192   9.247  56.825  1.00  0.00     0.208 A 
ATOM      3  C   UNL     1      12.149   9.269  57.763  1.00  0.00     0.238 A 
ATOM      4  O   UNL     1      12.247  10.033  58.759  1.00  0.00    -0.285 OA
ATOM      5  C   UNL     1      10.998   8.472  57.556  1.00  0.00     0.111 A 
ATOM      6  C   UNL     1       9.897   8.386  58.461  1.00  0.00     0.134 A 
ATOM      7  C   UNL     1       8.754   7.668  58.091  1.00  0.00     0.093 A 
ATOM      8  C   UNL     1       8.697   6.980  56.877  1.00  0.00     0.123 A 
ATOM      9  C   UNL     1       9.789   7.009  56.013  1.00  0.00     0.094 A 
ATOM     10  C   UNL     1      10.929   7.747  56.338  1.00  0.00     0.146 A 
ATOM     11  O   UNL     1      11.944   7.756  55.482  1.00  0.00    -0.452 OA
ENDROOT
BRANCH   1  12
ATOM     12  C   UNL     1      14.132   8.347  54.660  1.00  0.00     0.025 A 
ATOM     13  C   UNL     1      15.341   7.711  54.982  1.00  0.00     0.016 A 
ATOM     14  C   UNL     1      16.370   7.629  54.040  1.00  0.00     0.051 A 
ATOM     15  C   UNL     1      16.214   8.192  52.770  1.00  0.00     0.157 A 
ATOM     16  C   UNL     1      13.984   8.931  53.390  1.00  0.00     0.062 A 
ATOM     17  C   UNL     1      15.017   8.851  52.443  1.00  0.00     0.158 A 
BRANCH  15  18
ATOM     18  O   UNL     1      17.258   8.093  51.851  1.00  0.00    -0.504 OA
ATOM     19  H   UNL     1      18.217   7.951  52.140  1.00  0.00     0.293 HD
ENDBRANCH  15  18
BRANCH  17  20
ATOM     20  O   UNL     1      14.859   9.428  51.183  1.00  0.00    -0.504 OA
ATOM     21  H   UNL     1      15.500  10.133  50.840  1.00  0.00     0.293 HD
ENDBRANCH  17  20
ENDBRANCH   1  12
BRANCH   2  22
ATOM     22  O   UNL     1      14.328  10.043  57.000  1.00  0.00    -0.502 OA
ATOM     23  H   UNL     1      14.702  10.627  56.261  1.00  0.00     0.293 HD
ENDBRANCH   2  22
BRANCH   6  24
ATOM     24  O   UNL     1       9.888   8.959  59.736  1.00  0.00    -0.507 OA
ATOM     25  H   UNL     1      10.016   8.448  60.597  1.00  0.00     0.293 HD
ENDBRANCH   6  24
BRANCH   8  26
ATOM     26  O   UNL     1       7.560   6.255  56.523  1.00  0.00    -0.508 OA
ATOM     27  H   UNL     1       7.603   5.258  56.341  1.00  0.00     0.293 HD
ENDBRANCH   8  26
TORSDOF 6
ENDMDL
MODEL 9
REMARK VINA RESULT:    -6.165     12.755     14.905
REMARK INTER + INTRA:          -7.710
REMARK INTER:                  -7.383
REMARK INTRA:                  -0.327
REMARK UNBOUND:                -0.284
REMARK SMILES O=c1c(O)c(-c2ccc(O)c(O)c2)oc2cc(O)cc(O)c12
REMARK SMILES IDX 5 1 3 2 2 3 1 4 22 5 20 6 19 7 17 8 16 9 15 10 14 11 6 12
REMARK SMILES IDX 7 13 8 14 9 15 13 16 11 17 10 18 12 20 4 22 21 24 18 26
REMARK H PARENT 10 19 12 21 4 23 21 25 18 27
REMARK Flexibility Score: inf
ROOT
ATOM      1  C   UNL     1      18.389  20.898  51.336  1.00  0.00     0.180 A 
ATOM      2  C   UNL     1      17.942  21.819  50.374  1.00  0.00     0.208 A 
ATOM      3  C   UNL     1      16.599  22.227  50.394  1.00  0.00     0.238 A 
ATOM      4  O   UNL     1      16.193  23.011  49.497  1.00  0.00    -0.285 OA
ATOM      5  C   UNL     1      15.724  21.722  51.385  1.00  0.00     0.111 A 
ATOM      6  C   UNL     1      14.354  22.098  51.525  1.00  0.00     0.134 A 
ATOM      7  C   UNL     1      13.548  21.437  52.459  1.00  0.00     0.093 A 
ATOM      8  C   UNL     1      14.080  20.459  53.305  1.00  0.00     0.123 A 
ATOM      9  C   UNL     1      15.430  20.128  53.217  1.00  0.00     0.094 A 
ATOM     10  C   UNL     1      16.250  20.744  52.269  1.00  0.00     0.146 A 
ATOM     11  O   UNL     1      17.529  20.392  52.213  1.00  0.00    -0.452 OA
ENDROOT
BRANCH   1  12
ATOM     12  C   UNL     1      19.796  20.439  51.395  1.00  0.00     0.025 A 
ATOM     13  C   UNL     1      20.182  19.301  50.669  1.00  0.00     0.016 A 
ATOM     14  C   UNL     1      21.500  18.839  50.725  1.00  0.00     0.051 A 
ATOM     15  C   UNL     1      22.446  19.495  51.518  1.00  0.00     0.157 A 
ATOM     16  C   UNL     1      20.744  21.085  52.208  1.00  0.00     0.062 A 
ATOM     17  C   UNL     1      22.066  20.622  52.268  1.00  0.00     0.158 A 
BRANCH  15  18
ATOM     18  O   UNL     1      23.754  19.012  51.554  1.00  0.00    -0.504 OA
ATOM     19  H   UNL     1      24.500  19.515  52.018  1.00  0.00     0.293 HD
ENDBRANCH  15  18
BRANCH  17  20
ATOM     20  O   UNL     1      23.002  21.272  53.072  1.00  0.00    -0.504 OA
ATOM     21  H   UNL     1      23.655  21.943  52.687  1.00  0.00     0.293 HD
ENDBRANCH  17  20
ENDBRANCH   1  12
BRANCH   2  22
ATOM     22  O   UNL     1      18.818  22.288  49.391  1.00  0.00    -0.502 OA
ATOM     23  H   UNL     1      18.650  22.149  48.401  1.00  0.00     0.293 HD
ENDBRANCH   2  22
BRANCH   6  24
ATOM     24  O   UNL     1      13.748  23.124  50.794  1.00  0.00    -0.507 OA
ATOM     25  H   UNL     1      12.765  23.348  50.824  1.00  0.00     0.293 HD
ENDBRANCH   6  24
BRANCH   8  26
ATOM     26  O   UNL     1      13.274  19.817  54.243  1.00  0.00    -0.508 OA
ATOM     27  H   UNL     1      13.397  19.967  55.238  1.00  0.00     0.293 HD
ENDBRANCH   8  26
TORSDOF 6
ENDMDL
