MODEL 1
REMARK VINA RESULT:    -3.518      0.000      0.000
REMARK INTER + INTRA:          -7.066
REMARK INTER:                  -5.985
REMARK INTRA:                  -1.080
REMARK UNBOUND:                -1.080
REMARK SMILES CCCCCCCCCCCCCC(=O)[O-]
REMARK SMILES IDX 8 1 9 2 10 3 11 4 12 5 13 6 14 7 15 8 16 9 7 10 6 11 5 12
REMARK SMILES IDX 4 13 3 14 2 15 1 16
REMARK H PARENT
REMARK Flexibility Score: inf
ROOT
ATOM      1  C   UNL     1     -99.774 -39.661  93.669  1.00  0.00     0.000 C 
ENDROOT
BRANCH   1   2
ATOM      2  C   UNL     1     -98.586 -40.634  93.719  1.00  0.00     0.000 C 
BRANCH   2   3
ATOM      3  C   UNL     1     -98.386 -41.391  92.397  1.00  0.00     0.000 C 
BRANCH   3   4
ATOM      4  C   UNL     1     -96.938 -41.270  91.909  1.00  0.00     0.000 C 
BRANCH   4   5
ATOM      5  C   UNL     1     -96.864 -41.359  90.377  1.00  0.00     0.006 C 
BRANCH   5   6
ATOM      6  C   UNL     1     -97.842 -40.396  89.691  1.00  0.00     0.053 C 
BRANCH   6   7
ATOM      7  C   UNL     1     -97.286 -39.862  88.406  1.00  0.00     0.041 C 
ATOM      8  O   UNL     1     -97.228 -40.598  87.386  1.00  0.00    -0.550 OA
ATOM      9  O   UNL     1     -96.864 -38.540  88.327  1.00  0.00    -0.550 OA
ENDBRANCH   6   7
ENDBRANCH   5   6
ENDBRANCH   4   5
ENDBRANCH   3   4
ENDBRANCH   2   3
ENDBRANCH   1   2
BRANCH   1  10
ATOM     10  C   UNL     1    -100.390 -39.552  92.263  1.00  0.00     0.000 C 
BRANCH  10  11
ATOM     11  C   UNL     1    -100.217 -38.155  91.640  1.00  0.00    -0.000 C 
BRANCH  11  12
ATOM     12  C   UNL     1    -101.151 -37.067  92.202  1.00  0.00    -0.000 C 
BRANCH  12  13
ATOM     13  C   UNL     1    -100.436 -36.100  93.162  1.00  0.00    -0.000 C 
BRANCH  13  14
ATOM     14  C   UNL     1    -101.412 -35.317  94.059  1.00  0.00    -0.000 C 
BRANCH  14  15
ATOM     15  C   UNL     1    -101.273 -35.588  95.568  1.00  0.00    -0.003 C 
ATOM     16  C   UNL     1    -100.392 -36.797  95.881  1.00  0.00     0.004 C 
ENDBRANCH  14  15
ENDBRANCH  13  14
ENDBRANCH  12  13
ENDBRANCH  11  12
ENDBRANCH  10  11
ENDBRANCH   1  10
TORSDOF 12
ENDMDL
MODEL 2
REMARK VINA RESULT:    -3.401      1.317      2.128
REMARK INTER + INTRA:          -6.867
REMARK INTER:                  -5.778
REMARK INTRA:                  -1.089
REMARK UNBOUND:                -1.080
REMARK SMILES CCCCCCCCCCCCCC(=O)[O-]
REMARK SMILES IDX 8 1 9 2 10 3 11 4 12 5 13 6 14 7 15 8 16 9 7 10 6 11 5 12
REMARK SMILES IDX 4 13 3 14 2 15 1 16
REMARK H PARENT
REMARK Flexibility Score: inf
ROOT
ATOM      1  C   UNL     1     -98.685 -41.202  93.608  1.00  0.00     0.000 C 
ENDROOT
BRANCH   1   2
ATOM      2  C   UNL     1     -97.338 -41.202  92.867  1.00  0.00     0.000 C 
BRANCH   2   3
ATOM      3  C   UNL     1     -97.450 -41.755  91.439  1.00  0.00     0.000 C 
BRANCH   3   4
ATOM      4  C   UNL     1     -96.770 -40.819  90.433  1.00  0.00     0.000 C 
BRANCH   4   5
ATOM      5  C   UNL     1     -97.780 -40.293  89.401  1.00  0.00     0.006 C 
BRANCH   5   6
ATOM      6  C   UNL     1     -97.174 -40.191  87.995  1.00  0.00     0.053 C 
BRANCH   6   7
ATOM      7  C   UNL     1     -97.086 -41.530  87.329  1.00  0.00     0.041 C 
ATOM      8  O   UNL     1     -95.987 -42.141  87.278  1.00  0.00    -0.550 OA
ATOM      9  O   UNL     1     -98.227 -42.117  86.795  1.00  0.00    -0.550 OA
ENDBRANCH   6   7
ENDBRANCH   5   6
ENDBRANCH   4   5
ENDBRANCH   3   4
ENDBRANCH   2   3
ENDBRANCH   1   2
BRANCH   1  10
ATOM     10  C   UNL     1     -99.432 -39.863  93.475  1.00  0.00     0.000 C 
BRANCH  10  11
ATOM     11  C   UNL     1    -100.293 -39.782  92.201  1.00  0.00    -0.000 C 
BRANCH  11  12
ATOM     12  C   UNL     1    -100.228 -38.437  91.453  1.00  0.00    -0.000 C 
BRANCH  12  13
ATOM     13  C   UNL     1    -101.599 -37.747  91.341  1.00  0.00    -0.000 C 
BRANCH  13  14
ATOM     14  C   UNL     1    -101.787 -36.620  92.373  1.00  0.00    -0.000 C 
BRANCH  14  15
ATOM     15  C   UNL     1    -100.525 -36.251  93.174  1.00  0.00    -0.003 C 
ATOM     16  C   UNL     1    -100.838 -35.686  94.559  1.00  0.00     0.004 C 
ENDBRANCH  14  15
ENDBRANCH  13  14
ENDBRANCH  12  13
ENDBRANCH  11  12
ENDBRANCH  10  11
ENDBRANCH   1  10
TORSDOF 12
ENDMDL
MODEL 3
REMARK VINA RESULT:    -3.368      3.060      6.582
REMARK INTER + INTRA:          -6.811
REMARK INTER:                  -5.461
REMARK INTRA:                  -1.350
REMARK UNBOUND:                -1.080
REMARK SMILES CCCCCCCCCCCCCC(=O)[O-]
REMARK SMILES IDX 8 1 9 2 10 3 11 4 12 5 13 6 14 7 15 8 16 9 7 10 6 11 5 12
REMARK SMILES IDX 4 13 3 14 2 15 1 16
REMARK H PARENT
REMARK Flexibility Score: inf
ROOT
ATOM      1  C   UNL     1     -98.096 -40.807  93.746  1.00  0.00     0.000 C 
ENDROOT
BRANCH   1   2
ATOM      2  C   UNL     1     -99.265 -39.810  93.777  1.00  0.00     0.000 C 
BRANCH   2   3
ATOM      3  C   UNL     1    -100.512 -40.340  93.056  1.00  0.00     0.000 C 
BRANCH   3   4
ATOM      4  C   UNL     1    -101.031 -39.320  92.035  1.00  0.00     0.000 C 
BRANCH   4   5
ATOM      5  C   UNL     1    -100.270 -37.991  92.150  1.00  0.00     0.006 C 
BRANCH   5   6
ATOM      6  C   UNL     1    -101.215 -36.782  92.197  1.00  0.00     0.053 C 
BRANCH   6   7
ATOM      7  C   UNL     1    -101.008 -35.963  93.433  1.00  0.00     0.041 C 
ATOM      8  O   UNL     1    -101.457 -34.788  93.498  1.00  0.00    -0.550 OA
ATOM      9  O   UNL     1    -100.348 -36.508  94.528  1.00  0.00    -0.550 OA
ENDBRANCH   6   7
ENDBRANCH   5   6
ENDBRANCH   4   5
ENDBRANCH   3   4
ENDBRANCH   2   3
ENDBRANCH   1   2
BRANCH   1  10
ATOM     10  C   UNL     1     -98.137 -41.728  92.515  1.00  0.00     0.000 C 
BRANCH  10  11
ATOM     11  C   UNL     1     -97.414 -41.129  91.294  1.00  0.00    -0.000 C 
BRANCH  11  12
ATOM     12  C   UNL     1     -98.306 -40.876  90.064  1.00  0.00    -0.000 C 
BRANCH  12  13
ATOM     13  C   UNL     1     -97.826 -39.690  89.210  1.00  0.00    -0.000 C 
BRANCH  13  14
ATOM     14  C   UNL     1     -97.174 -40.132  87.886  1.00  0.00    -0.000 C 
BRANCH  14  15
ATOM     15  C   UNL     1     -97.292 -41.634  87.570  1.00  0.00    -0.003 C 
ATOM     16  C   UNL     1     -95.937 -42.331  87.453  1.00  0.00     0.004 C 
ENDBRANCH  14  15
ENDBRANCH  13  14
ENDBRANCH  12  13
ENDBRANCH  11  12
ENDBRANCH  10  11
ENDBRANCH   1  10
TORSDOF 12
ENDMDL
MODEL 4
REMARK VINA RESULT:    -3.339      3.099      6.812
REMARK INTER + INTRA:          -6.763
REMARK INTER:                  -5.576
REMARK INTRA:                  -1.187
REMARK UNBOUND:                -1.080
REMARK SMILES CCCCCCCCCCCCCC(=O)[O-]
REMARK SMILES IDX 8 1 9 2 10 3 11 4 12 5 13 6 14 7 15 8 16 9 7 10 6 11 5 12
REMARK SMILES IDX 4 13 3 14 2 15 1 16
REMARK H PARENT
REMARK Flexibility Score: inf
ROOT
ATOM      1  C   UNL     1     -97.270 -41.325  92.660  1.00  0.00     0.000 C 
ENDROOT
BRANCH   1   2
ATOM      2  C   UNL     1     -98.798 -41.307  92.499  1.00  0.00     0.000 C 
BRANCH   2   3
ATOM      3  C   UNL     1     -99.289 -40.121  91.656  1.00  0.00     0.000 C 
BRANCH   3   4
ATOM      4  C   UNL     1     -99.807 -38.989  92.552  1.00  0.00     0.000 C 
BRANCH   4   5
ATOM      5  C   UNL     1    -100.296 -37.801  91.709  1.00  0.00     0.006 C 
BRANCH   5   6
ATOM      6  C   UNL     1    -101.632 -37.241  92.214  1.00  0.00     0.053 C 
BRANCH   6   7
ATOM      7  C   UNL     1    -101.468 -35.894  92.847  1.00  0.00     0.041 C 
ATOM      8  O   UNL     1    -100.472 -35.654  93.579  1.00  0.00    -0.550 OA
ATOM      9  O   UNL     1    -102.398 -34.891  92.600  1.00  0.00    -0.550 OA
ENDBRANCH   6   7
ENDBRANCH   5   6
ENDBRANCH   4   5
ENDBRANCH   3   4
ENDBRANCH   2   3
ENDBRANCH   1   2
BRANCH   1  10
ATOM     10  C   UNL     1     -96.534 -41.392  91.310  1.00  0.00     0.000 C 
BRANCH  10  11
ATOM     11  C   UNL     1     -96.189 -42.832  90.888  1.00  0.00    -0.000 C 
BRANCH  11  12
ATOM     12  C   UNL     1     -96.699 -43.246  89.494  1.00  0.00    -0.000 C 
BRANCH  12  13
ATOM     13  C   UNL     1     -98.006 -42.537  89.100  1.00  0.00    -0.000 C 
BRANCH  13  14
ATOM     14  C   UNL     1     -97.944 -41.905  87.698  1.00  0.00    -0.000 C 
BRANCH  14  15
ATOM     15  C   UNL     1     -96.896 -40.790  87.530  1.00  0.00    -0.003 C 
ATOM     16  C   UNL     1     -97.230 -39.527  88.323  1.00  0.00     0.004 C 
ENDBRANCH  14  15
ENDBRANCH  13  14
ENDBRANCH  12  13
ENDBRANCH  11  12
ENDBRANCH  10  11
ENDBRANCH   1  10
TORSDOF 12
ENDMDL
MODEL 5
REMARK VINA RESULT:    -3.331     13.404     15.430
REMARK INTER + INTRA:          -6.748
REMARK INTER:                  -5.126
REMARK INTRA:                  -1.622
REMARK UNBOUND:                -1.080
REMARK SMILES CCCCCCCCCCCCCC(=O)[O-]
REMARK SMILES IDX 8 1 9 2 10 3 11 4 12 5 13 6 14 7 15 8 16 9 7 10 6 11 5 12
REMARK SMILES IDX 4 13 3 14 2 15 1 16
REMARK H PARENT
REMARK Flexibility Score: inf
ROOT
ATOM      1  C   UNL     1     -96.459 -28.680  79.443  1.00  0.00     0.000 C 
ENDROOT
BRANCH   1   2
ATOM      2  C   UNL     1     -97.970 -28.860  79.232  1.00  0.00     0.000 C 
BRANCH   2   3
ATOM      3  C   UNL     1     -98.744 -28.952  80.555  1.00  0.00     0.000 C 
BRANCH   3   4
ATOM      4  C   UNL     1     -99.561 -27.679  80.804  1.00  0.00     0.000 C 
BRANCH   4   5
ATOM      5  C   UNL     1    -100.553 -27.877  81.961  1.00  0.00     0.006 C 
BRANCH   5   6
ATOM      6  C   UNL     1     -99.976 -28.760  83.076  1.00  0.00     0.053 C 
BRANCH   6   7
ATOM      7  C   UNL     1    -100.925 -29.848  83.470  1.00  0.00     0.041 C 
ATOM      8  O   UNL     1    -101.466 -30.568  82.590  1.00  0.00    -0.550 OA
ATOM      9  O   UNL     1    -101.188 -30.089  84.814  1.00  0.00    -0.550 OA
ENDBRANCH   6   7
ENDBRANCH   5   6
ENDBRANCH   4   5
ENDBRANCH   3   4
ENDBRANCH   2   3
ENDBRANCH   1   2
BRANCH   1  10
ATOM     10  C   UNL     1     -95.966 -27.282  79.031  1.00  0.00     0.000 C 
BRANCH  10  11
ATOM     11  C   UNL     1     -96.207 -26.217  80.117  1.00  0.00    -0.000 C 
BRANCH  11  12
ATOM     12  C   UNL     1     -95.497 -26.479  81.459  1.00  0.00    -0.000 C 
BRANCH  12  13
ATOM     13  C   UNL     1     -96.477 -26.679  82.627  1.00  0.00    -0.000 C 
BRANCH  13  14
ATOM     14  C   UNL     1     -96.397 -28.089  83.241  1.00  0.00    -0.000 C 
BRANCH  14  15
ATOM     15  C   UNL     1     -96.465 -28.137  84.778  1.00  0.00    -0.003 C 
ATOM     16  C   UNL     1     -95.978 -29.464  85.359  1.00  0.00     0.004 C 
ENDBRANCH  14  15
ENDBRANCH  13  14
ENDBRANCH  12  13
ENDBRANCH  11  12
ENDBRANCH  10  11
ENDBRANCH   1  10
TORSDOF 12
ENDMDL
MODEL 6
REMARK VINA RESULT:    -3.303     14.007     16.176
REMARK INTER + INTRA:          -6.701
REMARK INTER:                  -5.147
REMARK INTRA:                  -1.554
REMARK UNBOUND:                -1.080
REMARK SMILES CCCCCCCCCCCCCC(=O)[O-]
REMARK SMILES IDX 8 1 9 2 10 3 11 4 12 5 13 6 14 7 15 8 16 9 7 10 6 11 5 12
REMARK SMILES IDX 4 13 3 14 2 15 1 16
REMARK H PARENT
REMARK Flexibility Score: inf
ROOT
ATOM      1  C   UNL     1     -99.224 -28.423  79.925  1.00  0.00     0.000 C 
ENDROOT
BRANCH   1   2
ATOM      2  C   UNL     1     -99.226 -27.660  81.259  1.00  0.00     0.000 C 
BRANCH   2   3
ATOM      3  C   UNL     1     -99.824 -28.484  82.409  1.00  0.00     0.000 C 
BRANCH   3   4
ATOM      4  C   UNL     1     -99.027 -28.279  83.702  1.00  0.00     0.000 C 
BRANCH   4   5
ATOM      5  C   UNL     1     -97.743 -27.477  83.437  1.00  0.00     0.006 C 
BRANCH   5   6
ATOM      6  C   UNL     1     -96.478 -28.320  83.642  1.00  0.00     0.053 C 
BRANCH   6   7
ATOM      7  C   UNL     1     -96.221 -28.594  85.092  1.00  0.00     0.041 C 
ATOM      8  O   UNL     1     -95.889 -27.658  85.865  1.00  0.00    -0.550 OA
ATOM      9  O   UNL     1     -96.381 -29.879  85.596  1.00  0.00    -0.550 OA
ENDBRANCH   6   7
ENDBRANCH   5   6
ENDBRANCH   4   5
ENDBRANCH   3   4
ENDBRANCH   2   3
ENDBRANCH   1   2
BRANCH   1  10
ATOM     10  C   UNL     1     -98.004 -29.348  79.775  1.00  0.00     0.000 C 
BRANCH  10  11
ATOM     11  C   UNL     1     -96.670 -28.628  80.044  1.00  0.00    -0.000 C 
BRANCH  11  12
ATOM     12  C   UNL     1     -96.181 -27.709  78.910  1.00  0.00    -0.000 C 
BRANCH  12  13
ATOM     13  C   UNL     1     -95.889 -26.274  79.384  1.00  0.00    -0.000 C 
BRANCH  13  14
ATOM     14  C   UNL     1     -95.300 -26.223  80.806  1.00  0.00    -0.000 C 
BRANCH  14  15
ATOM     15  C   UNL     1     -93.944 -25.504  80.925  1.00  0.00    -0.003 C 
ATOM     16  C   UNL     1     -93.442 -24.945  79.594  1.00  0.00     0.004 C 
ENDBRANCH  14  15
ENDBRANCH  13  14
ENDBRANCH  12  13
ENDBRANCH  11  12
ENDBRANCH  10  11
ENDBRANCH   1  10
TORSDOF 12
ENDMDL
MODEL 7
REMARK VINA RESULT:    -3.285     13.957     16.105
REMARK INTER + INTRA:          -6.670
REMARK INTER:                  -4.937
REMARK INTRA:                  -1.733
REMARK UNBOUND:                -1.080
REMARK SMILES CCCCCCCCCCCCCC(=O)[O-]
REMARK SMILES IDX 8 1 9 2 10 3 11 4 12 5 13 6 14 7 15 8 16 9 7 10 6 11 5 12
REMARK SMILES IDX 4 13 3 14 2 15 1 16
REMARK H PARENT
REMARK Flexibility Score: inf
ROOT
ATOM      1  C   UNL     1     -95.967 -26.196  79.142  1.00  0.00     0.000 C 
ENDROOT
BRANCH   1   2
ATOM      2  C   UNL     1     -94.826 -25.880  80.122  1.00  0.00     0.000 C 
BRANCH   2   3
ATOM      3  C   UNL     1     -95.187 -26.215  81.577  1.00  0.00     0.000 C 
BRANCH   3   4
ATOM      4  C   UNL     1     -96.691 -26.042  81.822  1.00  0.00     0.000 C 
BRANCH   4   5
ATOM      5  C   UNL     1     -97.119 -26.734  83.126  1.00  0.00     0.006 C 
BRANCH   5   6
ATOM      6  C   UNL     1     -96.397 -28.071  83.338  1.00  0.00     0.053 C 
BRANCH   6   7
ATOM      7  C   UNL     1     -96.221 -28.383  84.793  1.00  0.00     0.041 C 
ATOM      8  O   UNL     1     -96.158 -27.451  85.637  1.00  0.00    -0.550 OA
ATOM      9  O   UNL     1     -96.159 -29.704  85.219  1.00  0.00    -0.550 OA
ENDBRANCH   6   7
ENDBRANCH   5   6
ENDBRANCH   4   5
ENDBRANCH   3   4
ENDBRANCH   2   3
ENDBRANCH   1   2
BRANCH   1  10
ATOM     10  C   UNL     1     -95.733 -27.503  78.364  1.00  0.00     0.000 C 
BRANCH  10  11
ATOM     11  C   UNL     1     -96.301 -28.739  79.086  1.00  0.00    -0.000 C 
BRANCH  11  12
ATOM     12  C   UNL     1     -97.838 -28.831  79.116  1.00  0.00    -0.000 C 
BRANCH  12  13
ATOM     13  C   UNL     1     -98.392 -29.151  80.515  1.00  0.00    -0.000 C 
BRANCH  13  14
ATOM     14  C   UNL     1     -99.604 -28.278  80.892  1.00  0.00    -0.000 C 
BRANCH  14  15
ATOM     15  C   UNL     1    -100.597 -28.928  81.872  1.00  0.00    -0.003 C 
ATOM     16  C   UNL     1    -100.134 -28.862  83.328  1.00  0.00     0.004 C 
ENDBRANCH  14  15
ENDBRANCH  13  14
ENDBRANCH  12  13
ENDBRANCH  11  12
ENDBRANCH  10  11
ENDBRANCH   1  10
TORSDOF 12
ENDMDL
MODEL 8
REMARK VINA RESULT:    -3.259     13.901     16.010
REMARK INTER + INTRA:          -6.625
REMARK INTER:                  -4.377
REMARK INTRA:                  -2.249
REMARK UNBOUND:                -1.080
REMARK SMILES CCCCCCCCCCCCCC(=O)[O-]
REMARK SMILES IDX 8 1 9 2 10 3 11 4 12 5 13 6 14 7 15 8 16 9 7 10 6 11 5 12
REMARK SMILES IDX 4 13 3 14 2 15 1 16
REMARK H PARENT
REMARK Flexibility Score: inf
ROOT
ATOM      1  C   UNL     1     -99.963 -25.595  81.806  1.00  0.00     0.000 C 
ENDROOT
BRANCH   1   2
ATOM      2  C   UNL     1     -98.513 -25.113  81.972  1.00  0.00     0.000 C 
BRANCH   2   3
ATOM      3  C   UNL     1     -97.762 -25.872  83.076  1.00  0.00     0.000 C 
BRANCH   3   4
ATOM      4  C   UNL     1     -96.440 -26.442  82.548  1.00  0.00     0.000 C 
BRANCH   4   5
ATOM      5  C   UNL     1     -96.387 -27.967  82.725  1.00  0.00     0.006 C 
BRANCH   5   6
ATOM      6  C   UNL     1     -97.151 -28.434  83.971  1.00  0.00     0.053 C 
BRANCH   6   7
ATOM      7  C   UNL     1     -96.241 -28.604  85.149  1.00  0.00     0.041 C 
ATOM      8  O   UNL     1     -95.882 -27.603  85.822  1.00  0.00    -0.550 OA
ATOM      9  O   UNL     1     -95.817 -29.874  85.523  1.00  0.00    -0.550 OA
ENDBRANCH   6   7
ENDBRANCH   5   6
ENDBRANCH   4   5
ENDBRANCH   3   4
ENDBRANCH   2   3
ENDBRANCH   1   2
BRANCH   1  10
ATOM     10  C   UNL     1    -100.171 -27.032  82.314  1.00  0.00     0.000 C 
BRANCH  10  11
ATOM     11  C   UNL     1    -100.427 -28.038  81.177  1.00  0.00    -0.000 C 
BRANCH  11  12
ATOM     12  C   UNL     1     -99.322 -29.092  80.974  1.00  0.00    -0.000 C 
BRANCH  12  13
ATOM     13  C   UNL     1     -98.751 -29.094  79.546  1.00  0.00    -0.000 C 
BRANCH  13  14
ATOM     14  C   UNL     1     -98.730 -27.692  78.908  1.00  0.00    -0.000 C 
BRANCH  14  15
ATOM     15  C   UNL     1     -97.372 -26.970  78.963  1.00  0.00    -0.003 C 
ATOM     16  C   UNL     1     -96.185 -27.929  79.041  1.00  0.00     0.004 C 
ENDBRANCH  14  15
ENDBRANCH  13  14
ENDBRANCH  12  13
ENDBRANCH  11  12
ENDBRANCH  10  11
ENDBRANCH   1  10
TORSDOF 12
ENDMDL
MODEL 9
REMARK VINA RESULT:    -3.222     14.585     16.351
REMARK INTER + INTRA:          -6.563
REMARK INTER:                  -4.957
REMARK INTRA:                  -1.606
REMARK UNBOUND:                -1.080
REMARK SMILES CCCCCCCCCCCCCC(=O)[O-]
REMARK SMILES IDX 8 1 9 2 10 3 11 4 12 5 13 6 14 7 15 8 16 9 7 10 6 11 5 12
REMARK SMILES IDX 4 13 3 14 2 15 1 16
REMARK H PARENT
REMARK Flexibility Score: inf
ROOT
ATOM      1  C   UNL     1     -99.051 -28.696  79.466  1.00  0.00     0.000 C 
ENDROOT
BRANCH   1   2
ATOM      2  C   UNL     1     -97.721 -29.330  79.903  1.00  0.00     0.000 C 
BRANCH   2   3
ATOM      3  C   UNL     1     -96.500 -28.551  79.392  1.00  0.00     0.000 C 
BRANCH   3   4
ATOM      4  C   UNL     1     -96.931 -27.273  78.663  1.00  0.00     0.000 C 
BRANCH   4   5
ATOM      5  C   UNL     1     -96.378 -26.024  79.367  1.00  0.00     0.006 C 
BRANCH   5   6
ATOM      6  C   UNL     1     -95.217 -26.356  80.313  1.00  0.00     0.053 C 
BRANCH   6   7
ATOM      7  C   UNL     1     -94.060 -25.424  80.123  1.00  0.00     0.041 C 
ATOM      8  O   UNL     1     -93.139 -25.373  80.980  1.00  0.00    -0.550 OA
ATOM      9  O   UNL     1     -93.983 -24.635  78.981  1.00  0.00    -0.550 OA
ENDBRANCH   6   7
ENDBRANCH   5   6
ENDBRANCH   4   5
ENDBRANCH   3   4
ENDBRANCH   2   3
ENDBRANCH   1   2
BRANCH   1  10
ATOM     10  C   UNL     1     -99.824 -28.073  80.641  1.00  0.00     0.000 C 
BRANCH  10  11
ATOM     11  C   UNL     1     -99.070 -28.182  81.979  1.00  0.00    -0.000 C 
BRANCH  11  12
ATOM     12  C   UNL     1     -98.780 -26.841  82.679  1.00  0.00    -0.000 C 
BRANCH  12  13
ATOM     13  C   UNL     1     -97.337 -26.737  83.202  1.00  0.00    -0.000 C 
BRANCH  13  14
ATOM     14  C   UNL     1     -96.744 -28.102  83.596  1.00  0.00    -0.000 C 
BRANCH  14  15
ATOM     15  C   UNL     1     -96.191 -28.185  85.030  1.00  0.00    -0.003 C 
ATOM     16  C   UNL     1     -95.961 -29.621  85.502  1.00  0.00     0.004 C 
ENDBRANCH  14  15
ENDBRANCH  13  14
ENDBRANCH  12  13
ENDBRANCH  11  12
ENDBRANCH  10  11
ENDBRANCH   1  10
TORSDOF 12
ENDMDL
