MODEL 1
REMARK VINA RESULT:    -5.763      0.000      0.000
REMARK INTER + INTRA:         -20.928
REMARK INTER:                 -15.196
REMARK INTRA:                  -5.732
REMARK UNBOUND:                -5.732
REMARK SMILES CCCCCCCCCCCCCCCCCCCCCCCCCCCCCC(=O)[O-]
REMARK SMILES IDX 16 1 17 2 18 3 19 4 20 5 21 6 22 7 23 8 24 9 25 10 26 11
REMARK SMILES IDX 27 12 28 13 29 14 30 15 31 16 32 17 15 18 14 19 13 20 12 21
REMARK SMILES IDX 11 22 10 23 9 24 8 25 7 26 6 27 5 28 4 29 3 30 2 31 1 32
REMARK H PARENT
REMARK Flexibility Score: inf
ROOT
ATOM      1  C   UNL     1     -14.766  -0.119 -19.677  1.00  0.00     0.000 C 
ENDROOT
BRANCH   1   2
ATOM      2  C   UNL     1     -14.486   1.214 -20.385  1.00  0.00     0.000 C 
BRANCH   2   3
ATOM      3  C   UNL     1     -15.255   2.396 -19.773  1.00  0.00     0.000 C 
BRANCH   3   4
ATOM      4  C   UNL     1     -16.368   2.957 -20.683  1.00  0.00     0.000 C 
BRANCH   4   5
ATOM      5  C   UNL     1     -17.151   4.097 -20.011  1.00  0.00     0.000 C 
BRANCH   5   6
ATOM      6  C   UNL     1     -17.715   5.071 -21.050  1.00  0.00     0.000 C 
BRANCH   6   7
ATOM      7  C   UNL     1     -17.821   4.400 -22.428  1.00  0.00     0.000 C 
BRANCH   7   8
ATOM      8  C   UNL     1     -18.523   5.287 -23.474  1.00  0.00     0.000 C 
BRANCH   8   9
ATOM      9  C   UNL     1     -18.552   4.702 -24.899  1.00  0.00     0.000 C 
BRANCH   9  10
ATOM     10  C   UNL     1     -17.915   5.638 -25.942  1.00  0.00     0.000 C 
BRANCH  10  11
ATOM     11  C   UNL     1     -17.943   7.115 -25.514  1.00  0.00     0.000 C 
BRANCH  11  12
ATOM     12  C   UNL     1     -16.570   7.717 -25.169  1.00  0.00     0.000 C 
BRANCH  12  13
ATOM     13  C   UNL     1     -16.601   8.697 -23.972  1.00  0.00     0.006 C 
BRANCH  13  14
ATOM     14  C   UNL     1     -17.687   9.777 -24.096  1.00  0.00     0.053 C 
BRANCH  14  15
ATOM     15  C   UNL     1     -18.631   9.754 -22.932  1.00  0.00     0.041 C 
ATOM     16  O   UNL     1     -19.229  10.807 -22.579  1.00  0.00    -0.550 OA
ATOM     17  O   UNL     1     -18.819   8.583 -22.211  1.00  0.00    -0.550 OA
ENDBRANCH  14  15
ENDBRANCH  13  14
ENDBRANCH  12  13
ENDBRANCH  11  12
ENDBRANCH  10  11
ENDBRANCH   9  10
ENDBRANCH   8   9
ENDBRANCH   7   8
ENDBRANCH   6   7
ENDBRANCH   5   6
ENDBRANCH   4   5
ENDBRANCH   3   4
ENDBRANCH   2   3
ENDBRANCH   1   2
BRANCH   1  18
ATOM     18  C   UNL     1     -15.140  -1.216 -20.684  1.00  0.00     0.000 C 
BRANCH  18  19
ATOM     19  C   UNL     1     -15.504  -0.653 -22.073  1.00  0.00     0.000 C 
BRANCH  19  20
ATOM     20  C   UNL     1     -17.018  -0.530 -22.326  1.00  0.00     0.000 C 
BRANCH  20  21
ATOM     21  C   UNL     1     -17.387   0.672 -23.211  1.00  0.00     0.000 C 
BRANCH  21  22
ATOM     22  C   UNL     1     -16.413   0.865 -24.383  1.00  0.00     0.000 C 
BRANCH  22  23
ATOM     23  C   UNL     1     -15.800   2.273 -24.413  1.00  0.00     0.000 C 
BRANCH  23  24
ATOM     24  C   UNL     1     -14.338   2.244 -23.943  1.00  0.00    -0.000 C 
BRANCH  24  25
ATOM     25  C   UNL     1     -13.894   3.564 -23.288  1.00  0.00    -0.000 C 
BRANCH  25  26
ATOM     26  C   UNL     1     -14.702   4.813 -23.697  1.00  0.00    -0.000 C 
BRANCH  26  27
ATOM     27  C   UNL     1     -14.659   5.985 -22.697  1.00  0.00    -0.000 C 
BRANCH  27  28
ATOM     28  C   UNL     1     -13.772   5.732 -21.456  1.00  0.00    -0.000 C 
BRANCH  28  29
ATOM     29  C   UNL     1     -13.961   6.768 -20.332  1.00  0.00    -0.000 C 
BRANCH  29  30
ATOM     30  C   UNL     1     -13.087   8.027 -20.459  1.00  0.00    -0.000 C 
BRANCH  30  31
ATOM     31  C   UNL     1     -13.851   9.319 -20.134  1.00  0.00    -0.003 C 
ATOM     32  C   UNL     1     -15.304   9.227 -20.589  1.00  0.00     0.004 C 
ENDBRANCH  30  31
ENDBRANCH  29  30
ENDBRANCH  28  29
ENDBRANCH  27  28
ENDBRANCH  26  27
ENDBRANCH  25  26
ENDBRANCH  24  25
ENDBRANCH  23  24
ENDBRANCH  22  23
ENDBRANCH  21  22
ENDBRANCH  20  21
ENDBRANCH  19  20
ENDBRANCH  18  19
ENDBRANCH   1  18
TORSDOF 28
ENDMDL
MODEL 2
REMARK VINA RESULT:    -5.707      1.869      4.962
REMARK INTER + INTRA:         -20.781
REMARK INTER:                 -14.684
REMARK INTRA:                  -6.097
REMARK UNBOUND:                -5.732
REMARK SMILES CCCCCCCCCCCCCCCCCCCCCCCCCCCCCC(=O)[O-]
REMARK SMILES IDX 16 1 17 2 18 3 19 4 20 5 21 6 22 7 23 8 24 9 25 10 26 11
REMARK SMILES IDX 27 12 28 13 29 14 30 15 31 16 32 17 15 18 14 19 13 20 12 21
REMARK SMILES IDX 11 22 10 23 9 24 8 25 7 26 6 27 5 28 4 29 3 30 2 31 1 32
REMARK H PARENT
REMARK Flexibility Score: inf
ROOT
ATOM      1  C   UNL     1     -14.928   2.730 -19.819  1.00  0.00     0.000 C 
ENDROOT
BRANCH   1   2
ATOM      2  C   UNL     1     -15.189   1.251 -19.499  1.00  0.00     0.000 C 
BRANCH   2   3
ATOM      3  C   UNL     1     -14.265   0.295 -20.271  1.00  0.00     0.000 C 
BRANCH   3   4
ATOM      4  C   UNL     1     -14.888  -1.090 -20.548  1.00  0.00     0.000 C 
BRANCH   4   5
ATOM      5  C   UNL     1     -15.800  -1.082 -21.785  1.00  0.00     0.000 C 
BRANCH   5   6
ATOM      6  C   UNL     1     -15.038  -0.633 -23.035  1.00  0.00     0.000 C 
BRANCH   6   7
ATOM      7  C   UNL     1     -15.815   0.458 -23.787  1.00  0.00     0.000 C 
BRANCH   7   8
ATOM      8  C   UNL     1     -14.897   1.530 -24.407  1.00  0.00     0.000 C 
BRANCH   8   9
ATOM      9  C   UNL     1     -14.136   2.396 -23.385  1.00  0.00     0.000 C 
BRANCH   9  10
ATOM     10  C   UNL     1     -14.328   3.904 -23.621  1.00  0.00     0.000 C 
BRANCH  10  11
ATOM     11  C   UNL     1     -13.503   4.769 -22.653  1.00  0.00     0.000 C 
BRANCH  11  12
ATOM     12  C   UNL     1     -14.295   5.876 -21.935  1.00  0.00     0.000 C 
BRANCH  12  13
ATOM     13  C   UNL     1     -13.510   6.566 -20.794  1.00  0.00     0.006 C 
BRANCH  13  14
ATOM     14  C   UNL     1     -14.330   7.628 -20.045  1.00  0.00     0.053 C 
BRANCH  14  15
ATOM     15  C   UNL     1     -13.673   8.974 -20.091  1.00  0.00     0.041 C 
ATOM     16  O   UNL     1     -14.357  10.006 -20.331  1.00  0.00    -0.550 OA
ATOM     17  O   UNL     1     -12.301   9.086 -19.912  1.00  0.00    -0.550 OA
ENDBRANCH  14  15
ENDBRANCH  13  14
ENDBRANCH  12  13
ENDBRANCH  11  12
ENDBRANCH  10  11
ENDBRANCH   9  10
ENDBRANCH   8   9
ENDBRANCH   7   8
ENDBRANCH   6   7
ENDBRANCH   5   6
ENDBRANCH   4   5
ENDBRANCH   3   4
ENDBRANCH   2   3
ENDBRANCH   1   2
BRANCH   1  18
ATOM     18  C   UNL     1     -16.241   3.480 -20.089  1.00  0.00     0.000 C 
BRANCH  18  19
ATOM     19  C   UNL     1     -17.035   2.886 -21.271  1.00  0.00     0.000 C 
BRANCH  19  20
ATOM     20  C   UNL     1     -17.791   3.932 -22.111  1.00  0.00     0.000 C 
BRANCH  20  21
ATOM     21  C   UNL     1     -17.797   3.609 -23.614  1.00  0.00     0.000 C 
BRANCH  21  22
ATOM     22  C   UNL     1     -18.113   4.838 -24.482  1.00  0.00     0.000 C 
BRANCH  22  23
ATOM     23  C   UNL     1     -17.099   5.032 -25.618  1.00  0.00     0.000 C 
BRANCH  23  24
ATOM     24  C   UNL     1     -16.829   6.525 -25.861  1.00  0.00    -0.000 C 
BRANCH  24  25
ATOM     25  C   UNL     1     -15.834   7.126 -24.853  1.00  0.00    -0.000 C 
BRANCH  25  26
ATOM     26  C   UNL     1     -16.099   8.592 -24.454  1.00  0.00    -0.000 C 
BRANCH  26  27
ATOM     27  C   UNL     1     -16.434   8.822 -22.966  1.00  0.00    -0.000 C 
BRANCH  27  28
ATOM     28  C   UNL     1     -17.298   7.710 -22.328  1.00  0.00    -0.000 C 
BRANCH  28  29
ATOM     29  C   UNL     1     -18.803   7.839 -22.629  1.00  0.00    -0.000 C 
BRANCH  29  30
ATOM     30  C   UNL     1     -19.328   9.283 -22.697  1.00  0.00    -0.000 C 
BRANCH  30  31
ATOM     31  C   UNL     1     -20.178   9.550 -23.947  1.00  0.00    -0.003 C 
ATOM     32  C   UNL     1     -19.796   8.607 -25.084  1.00  0.00     0.004 C 
ENDBRANCH  30  31
ENDBRANCH  29  30
ENDBRANCH  28  29
ENDBRANCH  27  28
ENDBRANCH  26  27
ENDBRANCH  25  26
ENDBRANCH  24  25
ENDBRANCH  23  24
ENDBRANCH  22  23
ENDBRANCH  21  22
ENDBRANCH  20  21
ENDBRANCH  19  20
ENDBRANCH  18  19
ENDBRANCH   1  18
TORSDOF 28
ENDMDL
MODEL 3
REMARK VINA RESULT:    -5.687      1.913      6.317
REMARK INTER + INTRA:         -20.728
REMARK INTER:                 -15.599
REMARK INTRA:                  -5.129
REMARK UNBOUND:                -5.732
REMARK SMILES CCCCCCCCCCCCCCCCCCCCCCCCCCCCCC(=O)[O-]
REMARK SMILES IDX 16 1 17 2 18 3 19 4 20 5 21 6 22 7 23 8 24 9 25 10 26 11
REMARK SMILES IDX 27 12 28 13 29 14 30 15 31 16 32 17 15 18 14 19 13 20 12 21
REMARK SMILES IDX 11 22 10 23 9 24 8 25 7 26 6 27 5 28 4 29 3 30 2 31 1 32
REMARK H PARENT
REMARK Flexibility Score: inf
ROOT
ATOM      1  C   UNL     1     -16.020   8.892 -24.084  1.00  0.00     0.000 C 
ENDROOT
BRANCH   1   2
ATOM      2  C   UNL     1     -17.324   9.285 -24.793  1.00  0.00     0.000 C 
BRANCH   2   3
ATOM      3  C   UNL     1     -18.437   9.707 -23.820  1.00  0.00     0.000 C 
BRANCH   3   4
ATOM      4  C   UNL     1     -19.248   8.527 -23.245  1.00  0.00     0.000 C 
BRANCH   4   5
ATOM      5  C   UNL     1     -19.339   8.574 -21.712  1.00  0.00     0.000 C 
BRANCH   5   6
ATOM      6  C   UNL     1     -18.026   8.124 -21.063  1.00  0.00     0.000 C 
BRANCH   6   7
ATOM      7  C   UNL     1     -17.618   6.730 -21.564  1.00  0.00     0.000 C 
BRANCH   7   8
ATOM      8  C   UNL     1     -17.501   5.695 -20.428  1.00  0.00     0.000 C 
BRANCH   8   9
ATOM      9  C   UNL     1     -16.063   5.237 -20.120  1.00  0.00     0.000 C 
BRANCH   9  10
ATOM     10  C   UNL     1     -15.058   5.655 -21.208  1.00  0.00     0.000 C 
BRANCH  10  11
ATOM     11  C   UNL     1     -13.619   5.779 -20.677  1.00  0.00     0.000 C 
BRANCH  11  12
ATOM     12  C   UNL     1     -13.017   7.192 -20.759  1.00  0.00     0.000 C 
BRANCH  12  13
ATOM     13  C   UNL     1     -14.017   8.319 -20.409  1.00  0.00     0.006 C 
BRANCH  13  14
ATOM     14  C   UNL     1     -13.375   9.493 -19.653  1.00  0.00     0.053 C 
BRANCH  14  15
ATOM     15  C   UNL     1     -14.392  10.514 -19.241  1.00  0.00     0.041 C 
ATOM     16  O   UNL     1     -15.574  10.442 -19.675  1.00  0.00    -0.550 OA
ATOM     17  O   UNL     1     -14.027  11.566 -18.414  1.00  0.00    -0.550 OA
ENDBRANCH  14  15
ENDBRANCH  13  14
ENDBRANCH  12  13
ENDBRANCH  11  12
ENDBRANCH  10  11
ENDBRANCH   9  10
ENDBRANCH   8   9
ENDBRANCH   7   8
ENDBRANCH   6   7
ENDBRANCH   5   6
ENDBRANCH   4   5
ENDBRANCH   3   4
ENDBRANCH   2   3
ENDBRANCH   1   2
BRANCH   1  18
ATOM     18  C   UNL     1     -15.751   7.385 -24.210  1.00  0.00     0.000 C 
BRANCH  18  19
ATOM     19  C   UNL     1     -16.383   6.769 -25.475  1.00  0.00     0.000 C 
BRANCH  19  20
ATOM     20  C   UNL     1     -17.290   5.556 -25.200  1.00  0.00     0.000 C 
BRANCH  20  21
ATOM     21  C   UNL     1     -16.561   4.211 -25.346  1.00  0.00     0.000 C 
BRANCH  21  22
ATOM     22  C   UNL     1     -16.305   3.526 -23.994  1.00  0.00     0.000 C 
BRANCH  22  23
ATOM     23  C   UNL     1     -17.574   3.422 -23.138  1.00  0.00     0.000 C 
BRANCH  23  24
ATOM     24  C   UNL     1     -17.484   2.237 -22.164  1.00  0.00    -0.000 C 
BRANCH  24  25
ATOM     25  C   UNL     1     -18.016   0.925 -22.766  1.00  0.00    -0.000 C 
BRANCH  25  26
ATOM     26  C   UNL     1     -17.135  -0.320 -22.528  1.00  0.00    -0.000 C 
BRANCH  26  27
ATOM     27  C   UNL     1     -15.744  -0.281 -23.192  1.00  0.00    -0.000 C 
BRANCH  27  28
ATOM     28  C   UNL     1     -14.655  -1.077 -22.437  1.00  0.00    -0.000 C 
BRANCH  28  29
ATOM     29  C   UNL     1     -14.048  -0.321 -21.239  1.00  0.00    -0.000 C 
BRANCH  29  30
ATOM     30  C   UNL     1     -13.791   1.175 -21.481  1.00  0.00    -0.000 C 
BRANCH  30  31
ATOM     31  C   UNL     1     -14.471   2.074 -20.439  1.00  0.00    -0.003 C 
ATOM     32  C   UNL     1     -15.189   1.241 -19.380  1.00  0.00     0.004 C 
ENDBRANCH  30  31
ENDBRANCH  29  30
ENDBRANCH  28  29
ENDBRANCH  27  28
ENDBRANCH  26  27
ENDBRANCH  25  26
ENDBRANCH  24  25
ENDBRANCH  23  24
ENDBRANCH  22  23
ENDBRANCH  21  22
ENDBRANCH  20  21
ENDBRANCH  19  20
ENDBRANCH  18  19
ENDBRANCH   1  18
TORSDOF 28
ENDMDL
MODEL 4
REMARK VINA RESULT:    -5.586      2.671      7.197
REMARK INTER + INTRA:         -20.462
REMARK INTER:                 -14.794
REMARK INTRA:                  -5.668
REMARK UNBOUND:                -5.732
REMARK SMILES CCCCCCCCCCCCCCCCCCCCCCCCCCCCCC(=O)[O-]
REMARK SMILES IDX 16 1 17 2 18 3 19 4 20 5 21 6 22 7 23 8 24 9 25 10 26 11
REMARK SMILES IDX 27 12 28 13 29 14 30 15 31 16 32 17 15 18 14 19 13 20 12 21
REMARK SMILES IDX 11 22 10 23 9 24 8 25 7 26 6 27 5 28 4 29 3 30 2 31 1 32
REMARK H PARENT
REMARK Flexibility Score: inf
ROOT
ATOM      1  C   UNL     1     -13.753   4.424 -23.003  1.00  0.00     0.000 C 
ENDROOT
BRANCH   1   2
ATOM      2  C   UNL     1     -14.925   3.715 -23.697  1.00  0.00     0.000 C 
BRANCH   2   3
ATOM      3  C   UNL     1     -15.908   4.689 -24.368  1.00  0.00     0.000 C 
BRANCH   3   4
ATOM      4  C   UNL     1     -17.393   4.350 -24.119  1.00  0.00     0.000 C 
BRANCH   4   5
ATOM      5  C   UNL     1     -17.654   3.902 -22.672  1.00  0.00     0.000 C 
BRANCH   5   6
ATOM      6  C   UNL     1     -17.835   5.106 -21.742  1.00  0.00     0.000 C 
BRANCH   6   7
ATOM      7  C   UNL     1     -17.087   4.891 -20.418  1.00  0.00     0.000 C 
BRANCH   7   8
ATOM      8  C   UNL     1     -16.621   3.435 -20.222  1.00  0.00     0.000 C 
BRANCH   8   9
ATOM      9  C   UNL     1     -15.159   3.284 -19.758  1.00  0.00     0.000 C 
BRANCH   9  10
ATOM     10  C   UNL     1     -14.494   2.002 -20.291  1.00  0.00     0.000 C 
BRANCH  10  11
ATOM     11  C   UNL     1     -15.014   0.729 -19.601  1.00  0.00     0.000 C 
BRANCH  11  12
ATOM     12  C   UNL     1     -14.422  -0.587 -20.136  1.00  0.00     0.000 C 
BRANCH  12  13
ATOM     13  C   UNL     1     -15.295  -1.271 -21.215  1.00  0.00     0.006 C 
BRANCH  13  14
ATOM     14  C   UNL     1     -15.094  -0.688 -22.623  1.00  0.00     0.053 C 
BRANCH  14  15
ATOM     15  C   UNL     1     -16.357  -0.091 -23.164  1.00  0.00     0.041 C 
ATOM     16  O   UNL     1     -16.322   0.650 -24.183  1.00  0.00    -0.550 OA
ATOM     17  O   UNL     1     -17.566  -0.318 -22.521  1.00  0.00    -0.550 OA
ENDBRANCH  14  15
ENDBRANCH  13  14
ENDBRANCH  12  13
ENDBRANCH  11  12
ENDBRANCH  10  11
ENDBRANCH   9  10
ENDBRANCH   8   9
ENDBRANCH   7   8
ENDBRANCH   6   7
ENDBRANCH   5   6
ENDBRANCH   4   5
ENDBRANCH   3   4
ENDBRANCH   2   3
ENDBRANCH   1   2
BRANCH   1  18
ATOM     18  C   UNL     1     -14.205   5.742 -22.358  1.00  0.00     0.000 C 
BRANCH  18  19
ATOM     19  C   UNL     1     -13.336   6.143 -21.148  1.00  0.00     0.000 C 
BRANCH  19  20
ATOM     20  C   UNL     1     -14.067   7.009 -20.106  1.00  0.00     0.000 C 
BRANCH  20  21
ATOM     21  C   UNL     1     -14.533   8.363 -20.664  1.00  0.00     0.000 C 
BRANCH  21  22
ATOM     22  C   UNL     1     -16.053   8.560 -20.550  1.00  0.00     0.000 C 
BRANCH  22  23
ATOM     23  C   UNL     1     -16.736   8.668 -21.921  1.00  0.00     0.000 C 
BRANCH  23  24
ATOM     24  C   UNL     1     -15.703   8.920 -23.029  1.00  0.00    -0.000 C 
BRANCH  24  25
ATOM     25  C   UNL     1     -16.166   8.411 -24.406  1.00  0.00    -0.000 C 
BRANCH  25  26
ATOM     26  C   UNL     1     -17.553   8.906 -24.865  1.00  0.00    -0.000 C 
BRANCH  26  27
ATOM     27  C   UNL     1     -18.626   7.810 -25.025  1.00  0.00    -0.000 C 
BRANCH  27  28
ATOM     28  C   UNL     1     -19.652   7.748 -23.871  1.00  0.00    -0.000 C 
BRANCH  28  29
ATOM     29  C   UNL     1     -20.152   9.129 -23.406  1.00  0.00    -0.000 C 
BRANCH  29  30
ATOM     30  C   UNL     1     -21.173   9.094 -22.256  1.00  0.00    -0.000 C 
BRANCH  30  31
ATOM     31  C   UNL     1     -20.511   8.986 -20.875  1.00  0.00    -0.003 C 
ATOM     32  C   UNL     1     -19.694  10.236 -20.558  1.00  0.00     0.004 C 
ENDBRANCH  30  31
ENDBRANCH  29  30
ENDBRANCH  28  29
ENDBRANCH  27  28
ENDBRANCH  26  27
ENDBRANCH  25  26
ENDBRANCH  24  25
ENDBRANCH  23  24
ENDBRANCH  22  23
ENDBRANCH  21  22
ENDBRANCH  20  21
ENDBRANCH  19  20
ENDBRANCH  18  19
ENDBRANCH   1  18
TORSDOF 28
ENDMDL
MODEL 5
REMARK VINA RESULT:    -5.531      2.186      4.081
REMARK INTER + INTRA:         -20.318
REMARK INTER:                 -15.232
REMARK INTRA:                  -5.086
REMARK UNBOUND:                -5.732
REMARK SMILES CCCCCCCCCCCCCCCCCCCCCCCCCCCCCC(=O)[O-]
REMARK SMILES IDX 16 1 17 2 18 3 19 4 20 5 21 6 22 7 23 8 24 9 25 10 26 11
REMARK SMILES IDX 27 12 28 13 29 14 30 15 31 16 32 17 15 18 14 19 13 20 12 21
REMARK SMILES IDX 11 22 10 23 9 24 8 25 7 26 6 27 5 28 4 29 3 30 2 31 1 32
REMARK H PARENT
REMARK Flexibility Score: inf
ROOT
ATOM      1  C   UNL     1     -16.918   3.343 -19.874  1.00  0.00     0.000 C 
ENDROOT
BRANCH   1   2
ATOM      2  C   UNL     1     -17.015   4.754 -20.473  1.00  0.00     0.000 C 
BRANCH   2   3
ATOM      3  C   UNL     1     -17.781   4.792 -21.807  1.00  0.00     0.000 C 
BRANCH   3   4
ATOM      4  C   UNL     1     -18.173   6.213 -22.263  1.00  0.00     0.000 C 
BRANCH   4   5
ATOM      5  C   UNL     1     -17.947   7.262 -21.162  1.00  0.00     0.000 C 
BRANCH   5   6
ATOM      6  C   UNL     1     -18.820   8.500 -21.388  1.00  0.00     0.000 C 
BRANCH   6   7
ATOM      7  C   UNL     1     -18.045   9.582 -22.157  1.00  0.00     0.000 C 
BRANCH   7   8
ATOM      8  C   UNL     1     -18.403   9.625 -23.655  1.00  0.00     0.000 C 
BRANCH   8   9
ATOM      9  C   UNL     1     -17.192   9.644 -24.606  1.00  0.00     0.000 C 
BRANCH   9  10
ATOM     10  C   UNL     1     -16.095   8.645 -24.197  1.00  0.00     0.000 C 
BRANCH  10  11
ATOM     11  C   UNL     1     -15.939   7.487 -25.197  1.00  0.00     0.000 C 
BRANCH  11  12
ATOM     12  C   UNL     1     -17.183   6.595 -25.358  1.00  0.00     0.000 C 
BRANCH  12  13
ATOM     13  C   UNL     1     -16.907   5.267 -26.102  1.00  0.00     0.006 C 
BRANCH  13  14
ATOM     14  C   UNL     1     -17.661   4.067 -25.508  1.00  0.00     0.053 C 
BRANCH  14  15
ATOM     15  C   UNL     1     -18.339   3.254 -26.569  1.00  0.00     0.041 C 
ATOM     16  O   UNL     1     -19.310   3.735 -27.213  1.00  0.00    -0.550 OA
ATOM     17  O   UNL     1     -17.926   1.952 -26.819  1.00  0.00    -0.550 OA
ENDBRANCH  14  15
ENDBRANCH  13  14
ENDBRANCH  12  13
ENDBRANCH  11  12
ENDBRANCH  10  11
ENDBRANCH   9  10
ENDBRANCH   8   9
ENDBRANCH   7   8
ENDBRANCH   6   7
ENDBRANCH   5   6
ENDBRANCH   4   5
ENDBRANCH   3   4
ENDBRANCH   2   3
ENDBRANCH   1   2
BRANCH   1  18
ATOM     18  C   UNL     1     -15.730   2.569 -20.465  1.00  0.00     0.000 C 
BRANCH  18  19
ATOM     19  C   UNL     1     -14.985   1.724 -19.412  1.00  0.00     0.000 C 
BRANCH  19  20
ATOM     20  C   UNL     1     -14.858   0.233 -19.776  1.00  0.00     0.000 C 
BRANCH  20  21
ATOM     21  C   UNL     1     -14.022  -0.010 -21.043  1.00  0.00     0.000 C 
BRANCH  21  22
ATOM     22  C   UNL     1     -14.669  -1.032 -21.991  1.00  0.00     0.000 C 
BRANCH  22  23
ATOM     23  C   UNL     1     -15.566  -0.370 -23.047  1.00  0.00     0.000 C 
BRANCH  23  24
ATOM     24  C   UNL     1     -14.731   0.469 -24.026  1.00  0.00    -0.000 C 
BRANCH  24  25
ATOM     25  C   UNL     1     -15.121   1.958 -24.022  1.00  0.00    -0.000 C 
BRANCH  25  26
ATOM     26  C   UNL     1     -14.053   2.921 -23.463  1.00  0.00    -0.000 C 
BRANCH  26  27
ATOM     27  C   UNL     1     -14.478   4.401 -23.379  1.00  0.00    -0.000 C 
BRANCH  27  28
ATOM     28  C   UNL     1     -13.788   5.199 -22.249  1.00  0.00    -0.000 C 
BRANCH  28  29
ATOM     29  C   UNL     1     -14.512   6.507 -21.877  1.00  0.00    -0.000 C 
BRANCH  29  30
ATOM     30  C   UNL     1     -13.892   7.278 -20.699  1.00  0.00    -0.000 C 
BRANCH  30  31
ATOM     31  C   UNL     1     -14.455   8.699 -20.555  1.00  0.00    -0.003 C 
ATOM     32  C   UNL     1     -13.568   9.552 -19.653  1.00  0.00     0.004 C 
ENDBRANCH  30  31
ENDBRANCH  29  30
ENDBRANCH  28  29
ENDBRANCH  27  28
ENDBRANCH  26  27
ENDBRANCH  25  26
ENDBRANCH  24  25
ENDBRANCH  23  24
ENDBRANCH  22  23
ENDBRANCH  21  22
ENDBRANCH  20  21
ENDBRANCH  19  20
ENDBRANCH  18  19
ENDBRANCH   1  18
TORSDOF 28
ENDMDL
MODEL 6
REMARK VINA RESULT:    -5.523      2.480      6.731
REMARK INTER + INTRA:         -20.294
REMARK INTER:                 -15.297
REMARK INTRA:                  -4.998
REMARK UNBOUND:                -5.732
REMARK SMILES CCCCCCCCCCCCCCCCCCCCCCCCCCCCCC(=O)[O-]
REMARK SMILES IDX 16 1 17 2 18 3 19 4 20 5 21 6 22 7 23 8 24 9 25 10 26 11
REMARK SMILES IDX 27 12 28 13 29 14 30 15 31 16 32 17 15 18 14 19 13 20 12 21
REMARK SMILES IDX 11 22 10 23 9 24 8 25 7 26 6 27 5 28 4 29 3 30 2 31 1 32
REMARK H PARENT
REMARK Flexibility Score: inf
ROOT
ATOM      1  C   UNL     1     -16.045   5.171 -23.773  1.00  0.00     0.000 C 
ENDROOT
BRANCH   1   2
ATOM      2  C   UNL     1     -14.892   4.158 -23.736  1.00  0.00     0.000 C 
BRANCH   2   3
ATOM      3  C   UNL     1     -13.721   4.609 -22.847  1.00  0.00     0.000 C 
BRANCH   3   4
ATOM      4  C   UNL     1     -14.139   5.522 -21.675  1.00  0.00     0.000 C 
BRANCH   4   5
ATOM      5  C   UNL     1     -14.437   4.726 -20.395  1.00  0.00     0.000 C 
BRANCH   5   6
ATOM      6  C   UNL     1     -15.939   4.472 -20.235  1.00  0.00     0.000 C 
BRANCH   6   7
ATOM      7  C   UNL     1     -16.231   2.968 -20.128  1.00  0.00     0.000 C 
BRANCH   7   8
ATOM      8  C   UNL     1     -15.099   2.185 -19.435  1.00  0.00     0.000 C 
BRANCH   8   9
ATOM      9  C   UNL     1     -14.715   0.862 -20.124  1.00  0.00     0.000 C 
BRANCH   9  10
ATOM     10  C   UNL     1     -14.434   1.031 -21.627  1.00  0.00     0.000 C 
BRANCH  10  11
ATOM     11  C   UNL     1     -15.105  -0.054 -22.486  1.00  0.00     0.000 C 
BRANCH  11  12
ATOM     12  C   UNL     1     -16.544  -0.412 -22.073  1.00  0.00     0.000 C 
BRANCH  12  13
ATOM     13  C   UNL     1     -17.626   0.163 -23.016  1.00  0.00     0.006 C 
BRANCH  13  14
ATOM     14  C   UNL     1     -17.340   1.604 -23.466  1.00  0.00     0.053 C 
BRANCH  14  15
ATOM     15  C   UNL     1     -17.192   1.704 -24.954  1.00  0.00     0.041 C 
ATOM     16  O   UNL     1     -18.172   2.052 -25.667  1.00  0.00    -0.550 OA
ATOM     17  O   UNL     1     -15.987   1.374 -25.558  1.00  0.00    -0.550 OA
ENDBRANCH  14  15
ENDBRANCH  13  14
ENDBRANCH  12  13
ENDBRANCH  11  12
ENDBRANCH  10  11
ENDBRANCH   9  10
ENDBRANCH   8   9
ENDBRANCH   7   8
ENDBRANCH   6   7
ENDBRANCH   5   6
ENDBRANCH   4   5
ENDBRANCH   3   4
ENDBRANCH   2   3
ENDBRANCH   1   2
BRANCH   1  18
ATOM     18  C   UNL     1     -16.407   5.548 -25.217  1.00  0.00     0.000 C 
BRANCH  18  19
ATOM     19  C   UNL     1     -16.874   7.012 -25.353  1.00  0.00     0.000 C 
BRANCH  19  20
ATOM     20  C   UNL     1     -15.898   8.043 -24.757  1.00  0.00     0.000 C 
BRANCH  20  21
ATOM     21  C   UNL     1     -16.563   9.393 -24.443  1.00  0.00     0.000 C 
BRANCH  21  22
ATOM     22  C   UNL     1     -17.813   9.651 -25.299  1.00  0.00     0.000 C 
BRANCH  22  23
ATOM     23  C   UNL     1     -18.882  10.458 -24.550  1.00  0.00     0.000 C 
BRANCH  23  24
ATOM     24  C   UNL     1     -18.987  10.003 -23.086  1.00  0.00    -0.000 C 
BRANCH  24  25
ATOM     25  C   UNL     1     -19.445   8.541 -22.945  1.00  0.00    -0.000 C 
BRANCH  25  26
ATOM     26  C   UNL     1     -18.634   7.685 -21.949  1.00  0.00    -0.000 C 
BRANCH  26  27
ATOM     27  C   UNL     1     -17.866   8.476 -20.871  1.00  0.00    -0.000 C 
BRANCH  27  28
ATOM     28  C   UNL     1     -16.414   7.999 -20.644  1.00  0.00    -0.000 C 
BRANCH  28  29
ATOM     29  C   UNL     1     -15.346   8.999 -21.127  1.00  0.00    -0.000 C 
BRANCH  29  30
ATOM     30  C   UNL     1     -14.909  10.035 -20.078  1.00  0.00    -0.000 C 
BRANCH  30  31
ATOM     31  C   UNL     1     -13.498   9.772 -19.532  1.00  0.00    -0.003 C 
ATOM     32  C   UNL     1     -12.857   8.572 -20.221  1.00  0.00     0.004 C 
ENDBRANCH  30  31
ENDBRANCH  29  30
ENDBRANCH  28  29
ENDBRANCH  27  28
ENDBRANCH  26  27
ENDBRANCH  25  26
ENDBRANCH  24  25
ENDBRANCH  23  24
ENDBRANCH  22  23
ENDBRANCH  21  22
ENDBRANCH  20  21
ENDBRANCH  19  20
ENDBRANCH  18  19
ENDBRANCH   1  18
TORSDOF 28
ENDMDL
MODEL 7
REMARK VINA RESULT:    -5.507      1.262      2.276
REMARK INTER + INTRA:         -20.254
REMARK INTER:                 -14.743
REMARK INTRA:                  -5.511
REMARK UNBOUND:                -5.732
REMARK SMILES CCCCCCCCCCCCCCCCCCCCCCCCCCCCCC(=O)[O-]
REMARK SMILES IDX 16 1 17 2 18 3 19 4 20 5 21 6 22 7 23 8 24 9 25 10 26 11
REMARK SMILES IDX 27 12 28 13 29 14 30 15 31 16 32 17 15 18 14 19 13 20 12 21
REMARK SMILES IDX 11 22 10 23 9 24 8 25 7 26 6 27 5 28 4 29 3 30 2 31 1 32
REMARK H PARENT
REMARK Flexibility Score: inf
ROOT
ATOM      1  C   UNL     1     -14.598   2.215 -20.111  1.00  0.00     0.000 C 
ENDROOT
BRANCH   1   2
ATOM      2  C   UNL     1     -16.099   2.411 -20.365  1.00  0.00     0.000 C 
BRANCH   2   3
ATOM      3  C   UNL     1     -16.621   3.773 -19.876  1.00  0.00     0.000 C 
BRANCH   3   4
ATOM      4  C   UNL     1     -17.400   4.566 -20.946  1.00  0.00     0.000 C 
BRANCH   4   5
ATOM      5  C   UNL     1     -17.454   6.070 -20.632  1.00  0.00     0.000 C 
BRANCH   5   6
ATOM      6  C   UNL     1     -18.218   6.837 -21.715  1.00  0.00     0.000 C 
BRANCH   6   7
ATOM      7  C   UNL     1     -18.192   6.072 -23.048  1.00  0.00     0.000 C 
BRANCH   7   8
ATOM      8  C   UNL     1     -17.223   6.689 -24.075  1.00  0.00     0.000 C 
BRANCH   8   9
ATOM      9  C   UNL     1     -16.565   8.008 -23.628  1.00  0.00     0.000 C 
BRANCH   9  10
ATOM     10  C   UNL     1     -16.505   9.057 -24.753  1.00  0.00     0.000 C 
BRANCH  10  11
ATOM     11  C   UNL     1     -17.628  10.103 -24.655  1.00  0.00     0.000 C 
BRANCH  11  12
ATOM     12  C   UNL     1     -19.055   9.527 -24.677  1.00  0.00     0.000 C 
BRANCH  12  13
ATOM     13  C   UNL     1     -19.790   9.629 -23.320  1.00  0.00     0.006 C 
BRANCH  13  14
ATOM     14  C   UNL     1     -18.971  10.344 -22.234  1.00  0.00     0.053 C 
BRANCH  14  15
ATOM     15  C   UNL     1     -19.847  11.106 -21.287  1.00  0.00     0.041 C 
ATOM     16  O   UNL     1     -20.098  10.643 -20.142  1.00  0.00    -0.550 OA
ATOM     17  O   UNL     1     -20.419  12.308 -21.682  1.00  0.00    -0.550 OA
ENDBRANCH  14  15
ENDBRANCH  13  14
ENDBRANCH  12  13
ENDBRANCH  11  12
ENDBRANCH  10  11
ENDBRANCH   9  10
ENDBRANCH   8   9
ENDBRANCH   7   8
ENDBRANCH   6   7
ENDBRANCH   5   6
ENDBRANCH   4   5
ENDBRANCH   3   4
ENDBRANCH   2   3
ENDBRANCH   1   2
BRANCH   1  18
ATOM     18  C   UNL     1     -14.096   0.904 -20.734  1.00  0.00     0.000 C 
BRANCH  18  19
ATOM     19  C   UNL     1     -15.185  -0.187 -20.789  1.00  0.00     0.000 C 
BRANCH  19  20
ATOM     20  C   UNL     1     -15.074  -1.127 -22.003  1.00  0.00     0.000 C 
BRANCH  20  21
ATOM     21  C   UNL     1     -15.588  -0.496 -23.306  1.00  0.00     0.000 C 
BRANCH  21  22
ATOM     22  C   UNL     1     -16.939   0.215 -23.127  1.00  0.00     0.000 C 
BRANCH  22  23
ATOM     23  C   UNL     1     -16.935   1.640 -23.697  1.00  0.00     0.000 C 
BRANCH  23  24
ATOM     24  C   UNL     1     -15.502   2.104 -24.001  1.00  0.00    -0.000 C 
BRANCH  24  25
ATOM     25  C   UNL     1     -15.326   3.628 -23.879  1.00  0.00    -0.000 C 
BRANCH  25  26
ATOM     26  C   UNL     1     -14.105   4.090 -23.057  1.00  0.00    -0.000 C 
BRANCH  26  27
ATOM     27  C   UNL     1     -14.222   5.497 -22.436  1.00  0.00    -0.000 C 
BRANCH  27  28
ATOM     28  C   UNL     1     -13.613   5.621 -21.020  1.00  0.00    -0.000 C 
BRANCH  28  29
ATOM     29  C   UNL     1     -13.281   7.068 -20.609  1.00  0.00    -0.000 C 
BRANCH  29  30
ATOM     30  C   UNL     1     -14.396   8.091 -20.885  1.00  0.00    -0.000 C 
BRANCH  30  31
ATOM     31  C   UNL     1     -14.607   9.072 -19.723  1.00  0.00    -0.003 C 
ATOM     32  C   UNL     1     -13.331   9.855 -19.426  1.00  0.00     0.004 C 
ENDBRANCH  30  31
ENDBRANCH  29  30
ENDBRANCH  28  29
ENDBRANCH  27  28
ENDBRANCH  26  27
ENDBRANCH  25  26
ENDBRANCH  24  25
ENDBRANCH  23  24
ENDBRANCH  22  23
ENDBRANCH  21  22
ENDBRANCH  20  21
ENDBRANCH  19  20
ENDBRANCH  18  19
ENDBRANCH   1  18
TORSDOF 28
ENDMDL
MODEL 8
REMARK VINA RESULT:    -5.474      4.061      8.083
REMARK INTER + INTRA:         -20.165
REMARK INTER:                 -15.475
REMARK INTRA:                  -4.690
REMARK UNBOUND:                -5.732
REMARK SMILES CCCCCCCCCCCCCCCCCCCCCCCCCCCCCC(=O)[O-]
REMARK SMILES IDX 16 1 17 2 18 3 19 4 20 5 21 6 22 7 23 8 24 9 25 10 26 11
REMARK SMILES IDX 27 12 28 13 29 14 30 15 31 16 32 17 15 18 14 19 13 20 12 21
REMARK SMILES IDX 11 22 10 23 9 24 8 25 7 26 6 27 5 28 4 29 3 30 2 31 1 32
REMARK H PARENT
REMARK Flexibility Score: inf
ROOT
ATOM      1  C   UNL     1     -14.962   4.090 -20.200  1.00  0.00     0.000 C 
ENDROOT
BRANCH   1   2
ATOM      2  C   UNL     1     -16.262   3.275 -20.264  1.00  0.00     0.000 C 
BRANCH   2   3
ATOM      3  C   UNL     1     -17.469   4.099 -20.744  1.00  0.00     0.000 C 
BRANCH   3   4
ATOM      4  C   UNL     1     -18.046   3.634 -22.098  1.00  0.00     0.000 C 
BRANCH   4   5
ATOM      5  C   UNL     1     -17.274   2.440 -22.681  1.00  0.00     0.000 C 
BRANCH   5   6
ATOM      6  C   UNL     1     -18.041   1.129 -22.475  1.00  0.00     0.000 C 
BRANCH   6   7
ATOM      7  C   UNL     1     -17.190  -0.076 -22.905  1.00  0.00     0.000 C 
BRANCH   7   8
ATOM      8  C   UNL     1     -16.024   0.315 -23.834  1.00  0.00     0.000 C 
BRANCH   8   9
ATOM      9  C   UNL     1     -14.622   0.049 -23.254  1.00  0.00     0.000 C 
BRANCH   9  10
ATOM     10  C   UNL     1     -14.141   1.172 -22.317  1.00  0.00     0.000 C 
BRANCH  10  11
ATOM     11  C   UNL     1     -13.620   0.642 -20.969  1.00  0.00     0.000 C 
BRANCH  11  12
ATOM     12  C   UNL     1     -14.662  -0.110 -20.121  1.00  0.00     0.000 C 
BRANCH  12  13
ATOM     13  C   UNL     1     -14.166  -1.476 -19.592  1.00  0.00     0.006 C 
BRANCH  13  14
ATOM     14  C   UNL     1     -13.402  -2.297 -20.643  1.00  0.00     0.053 C 
BRANCH  14  15
ATOM     15  C   UNL     1     -12.761  -3.511 -20.042  1.00  0.00     0.041 C 
ATOM     16  O   UNL     1     -13.005  -3.832 -18.847  1.00  0.00    -0.550 OA
ATOM     17  O   UNL     1     -11.864  -4.266 -20.786  1.00  0.00    -0.550 OA
ENDBRANCH  14  15
ENDBRANCH  13  14
ENDBRANCH  12  13
ENDBRANCH  11  12
ENDBRANCH  10  11
ENDBRANCH   9  10
ENDBRANCH   8   9
ENDBRANCH   7   8
ENDBRANCH   6   7
ENDBRANCH   5   6
ENDBRANCH   4   5
ENDBRANCH   3   4
ENDBRANCH   2   3
ENDBRANCH   1   2
BRANCH   1  18
ATOM     18  C   UNL     1     -14.940   5.185 -21.277  1.00  0.00     0.000 C 
BRANCH  18  19
ATOM     19  C   UNL     1     -13.568   5.881 -21.392  1.00  0.00     0.000 C 
BRANCH  19  20
ATOM     20  C   UNL     1     -13.475   7.220 -20.638  1.00  0.00     0.000 C 
BRANCH  20  21
ATOM     21  C   UNL     1     -14.820   7.679 -20.053  1.00  0.00     0.000 C 
BRANCH  21  22
ATOM     22  C   UNL     1     -15.156   9.135 -20.413  1.00  0.00     0.000 C 
BRANCH  22  23
ATOM     23  C   UNL     1     -16.647   9.336 -20.719  1.00  0.00     0.000 C 
BRANCH  23  24
ATOM     24  C   UNL     1     -17.337   7.990 -20.989  1.00  0.00    -0.000 C 
BRANCH  24  25
ATOM     25  C   UNL     1     -18.785   8.148 -21.486  1.00  0.00    -0.000 C 
BRANCH  25  26
ATOM     26  C   UNL     1     -19.009   9.256 -22.536  1.00  0.00    -0.000 C 
BRANCH  26  27
ATOM     27  C   UNL     1     -18.624   8.883 -23.981  1.00  0.00    -0.000 C 
BRANCH  27  28
ATOM     28  C   UNL     1     -17.354   9.590 -24.506  1.00  0.00    -0.000 C 
BRANCH  28  29
ATOM     29  C   UNL     1     -16.079   8.730 -24.416  1.00  0.00    -0.000 C 
BRANCH  29  30
ATOM     30  C   UNL     1     -16.326   7.232 -24.172  1.00  0.00    -0.000 C 
BRANCH  30  31
ATOM     31  C   UNL     1     -15.705   6.340 -25.257  1.00  0.00    -0.003 C 
ATOM     32  C   UNL     1     -15.827   4.864 -24.892  1.00  0.00     0.004 C 
ENDBRANCH  30  31
ENDBRANCH  29  30
ENDBRANCH  28  29
ENDBRANCH  27  28
ENDBRANCH  26  27
ENDBRANCH  25  26
ENDBRANCH  24  25
ENDBRANCH  23  24
ENDBRANCH  22  23
ENDBRANCH  21  22
ENDBRANCH  20  21
ENDBRANCH  19  20
ENDBRANCH  18  19
ENDBRANCH   1  18
TORSDOF 28
ENDMDL
MODEL 9
REMARK VINA RESULT:    -5.463      1.524      4.926
REMARK INTER + INTRA:         -20.137
REMARK INTER:                 -15.024
REMARK INTRA:                  -5.113
REMARK UNBOUND:                -5.732
REMARK SMILES CCCCCCCCCCCCCCCCCCCCCCCCCCCCCC(=O)[O-]
REMARK SMILES IDX 16 1 17 2 18 3 19 4 20 5 21 6 22 7 23 8 24 9 25 10 26 11
REMARK SMILES IDX 27 12 28 13 29 14 30 15 31 16 32 17 15 18 14 19 13 20 12 21
REMARK SMILES IDX 11 22 10 23 9 24 8 25 7 26 6 27 5 28 4 29 3 30 2 31 1 32
REMARK H PARENT
REMARK Flexibility Score: inf
ROOT
ATOM      1  C   UNL     1     -17.055   1.243 -23.980  1.00  0.00     0.000 C 
ENDROOT
BRANCH   1   2
ATOM      2  C   UNL     1     -17.187   0.229 -22.835  1.00  0.00     0.000 C 
BRANCH   2   3
ATOM      3  C   UNL     1     -15.999  -0.744 -22.750  1.00  0.00     0.000 C 
BRANCH   3   4
ATOM      4  C   UNL     1     -15.454  -0.943 -21.321  1.00  0.00     0.000 C 
BRANCH   4   5
ATOM      5  C   UNL     1     -14.613   0.252 -20.846  1.00  0.00     0.000 C 
BRANCH   5   6
ATOM      6  C   UNL     1     -14.922   0.605 -19.388  1.00  0.00     0.000 C 
BRANCH   6   7
ATOM      7  C   UNL     1     -15.244   2.100 -19.243  1.00  0.00     0.000 C 
BRANCH   7   8
ATOM      8  C   UNL     1     -15.949   2.685 -20.483  1.00  0.00     0.000 C 
BRANCH   8   9
ATOM      9  C   UNL     1     -17.133   3.618 -20.170  1.00  0.00     0.000 C 
BRANCH   9  10
ATOM     10  C   UNL     1     -17.330   4.710 -21.237  1.00  0.00     0.000 C 
BRANCH  10  11
ATOM     11  C   UNL     1     -18.131   4.217 -22.454  1.00  0.00     0.000 C 
BRANCH  11  12
ATOM     12  C   UNL     1     -18.152   5.183 -23.652  1.00  0.00     0.000 C 
BRANCH  12  13
ATOM     13  C   UNL     1     -18.122   4.475 -25.027  1.00  0.00     0.006 C 
BRANCH  13  14
ATOM     14  C   UNL     1     -18.302   5.436 -26.213  1.00  0.00     0.053 C 
BRANCH  14  15
ATOM     15  C   UNL     1     -19.659   6.070 -26.215  1.00  0.00     0.041 C 
ATOM     16  O   UNL     1     -20.695   5.352 -26.262  1.00  0.00    -0.550 OA
ATOM     17  O   UNL     1     -19.782   7.453 -26.208  1.00  0.00    -0.550 OA
ENDBRANCH  14  15
ENDBRANCH  13  14
ENDBRANCH  12  13
ENDBRANCH  11  12
ENDBRANCH  10  11
ENDBRANCH   9  10
ENDBRANCH   8   9
ENDBRANCH   7   8
ENDBRANCH   6   7
ENDBRANCH   5   6
ENDBRANCH   4   5
ENDBRANCH   3   4
ENDBRANCH   2   3
ENDBRANCH   1   2
BRANCH   1  18
ATOM     18  C   UNL     1     -15.653   1.195 -24.606  1.00  0.00     0.000 C 
BRANCH  18  19
ATOM     19  C   UNL     1     -14.617   2.020 -23.816  1.00  0.00     0.000 C 
BRANCH  19  20
ATOM     20  C   UNL     1     -14.835   3.543 -23.891  1.00  0.00     0.000 C 
BRANCH  20  21
ATOM     21  C   UNL     1     -13.764   4.344 -23.134  1.00  0.00     0.000 C 
BRANCH  21  22
ATOM     22  C   UNL     1     -14.336   5.592 -22.442  1.00  0.00     0.000 C 
BRANCH  22  23
ATOM     23  C   UNL     1     -13.840   5.744 -20.998  1.00  0.00     0.000 C 
BRANCH  23  24
ATOM     24  C   UNL     1     -13.837   7.220 -20.572  1.00  0.00    -0.000 C 
BRANCH  24  25
ATOM     25  C   UNL     1     -15.197   7.688 -20.024  1.00  0.00    -0.000 C 
BRANCH  25  26
ATOM     26  C   UNL     1     -15.909   8.775 -20.855  1.00  0.00    -0.000 C 
BRANCH  26  27
ATOM     27  C   UNL     1     -17.447   8.680 -20.888  1.00  0.00    -0.000 C 
BRANCH  27  28
ATOM     28  C   UNL     1     -18.033   8.297 -22.267  1.00  0.00    -0.000 C 
BRANCH  28  29
ATOM     29  C   UNL     1     -18.253   9.498 -23.206  1.00  0.00    -0.000 C 
BRANCH  29  30
ATOM     30  C   UNL     1     -17.419   9.471 -24.497  1.00  0.00    -0.000 C 
BRANCH  30  31
ATOM     31  C   UNL     1     -16.016   8.884 -24.288  1.00  0.00    -0.003 C 
ATOM     32  C   UNL     1     -15.834   7.597 -25.087  1.00  0.00     0.004 C 
ENDBRANCH  30  31
ENDBRANCH  29  30
ENDBRANCH  28  29
ENDBRANCH  27  28
ENDBRANCH  26  27
ENDBRANCH  25  26
ENDBRANCH  24  25
ENDBRANCH  23  24
ENDBRANCH  22  23
ENDBRANCH  21  22
ENDBRANCH  20  21
ENDBRANCH  19  20
ENDBRANCH  18  19
ENDBRANCH   1  18
TORSDOF 28
ENDMDL
