MODEL 1
REMARK VINA RESULT:    -4.721      0.000      0.000
REMARK INTER + INTRA:          -8.309
REMARK INTER:                  -7.480
REMARK INTRA:                  -0.829
REMARK UNBOUND:                -0.829
REMARK SMILES CCCCCCCCCCCC(=O)[O-]
REMARK SMILES IDX 7 1 8 2 9 3 10 4 11 5 12 6 13 7 14 8 6 9 5 10 4 11 3 12 2 13
REMARK SMILES IDX 1 14
REMARK H PARENT
REMARK Flexibility Score: inf
ROOT
ATOM      1  C   UNL     1      11.378 -19.353 -14.956  1.00  0.00     0.000 C 
ENDROOT
BRANCH   1   2
ATOM      2  C   UNL     1      11.277 -19.113 -13.440  1.00  0.00     0.000 C 
BRANCH   2   3
ATOM      3  C   UNL     1      11.588 -17.673 -12.984  1.00  0.00     0.000 C 
BRANCH   3   4
ATOM      4  C   UNL     1      13.087 -17.324 -12.892  1.00  0.00     0.006 C 
BRANCH   4   5
ATOM      5  C   UNL     1      13.585 -16.372 -13.991  1.00  0.00     0.053 C 
BRANCH   5   6
ATOM      6  C   UNL     1      14.718 -16.963 -14.772  1.00  0.00     0.041 C 
ATOM      7  O   UNL     1      14.486 -17.687 -15.775  1.00  0.00    -0.550 OA
ATOM      8  O   UNL     1      16.029 -16.741 -14.370  1.00  0.00    -0.550 OA
ENDBRANCH   5   6
ENDBRANCH   4   5
ENDBRANCH   3   4
ENDBRANCH   2   3
ENDBRANCH   1   2
BRANCH   1   9
ATOM      9  C   UNL     1      11.708 -20.810 -15.310  1.00  0.00     0.000 C 
BRANCH   9  10
ATOM     10  C   UNL     1      13.086 -21.210 -14.769  1.00  0.00    -0.000 C 
BRANCH  10  11
ATOM     11  C   UNL     1      13.048 -22.614 -14.149  1.00  0.00    -0.000 C 
BRANCH  11  12
ATOM     12  C   UNL     1      11.624 -23.063 -13.785  1.00  0.00    -0.000 C 
BRANCH  12  13
ATOM     13  C   UNL     1      11.300 -24.474 -14.298  1.00  0.00    -0.003 C 
ATOM     14  C   UNL     1      12.456 -25.434 -14.033  1.00  0.00     0.004 C 
ENDBRANCH  12  13
ENDBRANCH  11  12
ENDBRANCH  10  11
ENDBRANCH   9  10
ENDBRANCH   1   9
TORSDOF 10
ENDMDL
MODEL 2
REMARK VINA RESULT:    -4.650      1.674      2.394
REMARK INTER + INTRA:          -8.198
REMARK INTER:                  -7.128
REMARK INTRA:                  -1.070
REMARK UNBOUND:                -0.829
REMARK SMILES CCCCCCCCCCCC(=O)[O-]
REMARK SMILES IDX 7 1 8 2 9 3 10 4 11 5 12 6 13 7 14 8 6 9 5 10 4 11 3 12 2 13
REMARK SMILES IDX 1 14
REMARK H PARENT
REMARK Flexibility Score: inf
ROOT
ATOM      1  C   UNL     1      12.669 -19.768 -16.188  1.00  0.00     0.000 C 
ENDROOT
BRANCH   1   2
ATOM      2  C   UNL     1      13.540 -18.535 -16.483  1.00  0.00     0.000 C 
BRANCH   2   3
ATOM      3  C   UNL     1      14.420 -18.060 -15.308  1.00  0.00     0.000 C 
BRANCH   3   4
ATOM      4  C   UNL     1      14.237 -16.581 -14.909  1.00  0.00     0.006 C 
BRANCH   4   5
ATOM      5  C   UNL     1      13.245 -16.353 -13.758  1.00  0.00     0.053 C 
BRANCH   5   6
ATOM      6  C   UNL     1      13.628 -17.122 -12.531  1.00  0.00     0.041 C 
ATOM      7  O   UNL     1      12.839 -17.974 -12.045  1.00  0.00    -0.550 OA
ATOM      8  O   UNL     1      14.843 -16.872 -11.905  1.00  0.00    -0.550 OA
ENDBRANCH   5   6
ENDBRANCH   4   5
ENDBRANCH   3   4
ENDBRANCH   2   3
ENDBRANCH   1   2
BRANCH   1   9
ATOM      9  C   UNL     1      11.558 -19.483 -15.167  1.00  0.00     0.000 C 
BRANCH   9  10
ATOM     10  C   UNL     1      11.509 -20.571 -14.087  1.00  0.00    -0.000 C 
BRANCH  10  11
ATOM     11  C   UNL     1      12.887 -21.222 -13.898  1.00  0.00    -0.000 C 
BRANCH  11  12
ATOM     12  C   UNL     1      12.827 -22.757 -13.932  1.00  0.00    -0.000 C 
BRANCH  12  13
ATOM     13  C   UNL     1      11.391 -23.294 -13.837  1.00  0.00    -0.003 C 
ATOM     14  C   UNL     1      11.343 -24.787 -14.148  1.00  0.00     0.004 C 
ENDBRANCH  12  13
ENDBRANCH  11  12
ENDBRANCH  10  11
ENDBRANCH   9  10
ENDBRANCH   1   9
TORSDOF 10
ENDMDL
MODEL 3
REMARK VINA RESULT:    -4.641      1.233      2.404
REMARK INTER + INTRA:          -8.182
REMARK INTER:                  -7.590
REMARK INTRA:                  -0.592
REMARK UNBOUND:                -0.829
REMARK SMILES CCCCCCCCCCCC(=O)[O-]
REMARK SMILES IDX 7 1 8 2 9 3 10 4 11 5 12 6 13 7 14 8 6 9 5 10 4 11 3 12 2 13
REMARK SMILES IDX 1 14
REMARK H PARENT
REMARK Flexibility Score: inf
ROOT
ATOM      1  C   UNL     1      12.562 -21.372 -14.819  1.00  0.00     0.000 C 
ENDROOT
BRANCH   1   2
ATOM      2  C   UNL     1      11.989 -20.244 -15.694  1.00  0.00     0.000 C 
BRANCH   2   3
ATOM      3  C   UNL     1      11.192 -19.165 -14.931  1.00  0.00     0.000 C 
BRANCH   3   4
ATOM      4  C   UNL     1      11.729 -18.826 -13.526  1.00  0.00     0.006 C 
BRANCH   4   5
ATOM      5  C   UNL     1      12.396 -17.447 -13.418  1.00  0.00     0.053 C 
BRANCH   5   6
ATOM      6  C   UNL     1      13.662 -17.374 -14.215  1.00  0.00     0.041 C 
ATOM      7  O   UNL     1      13.845 -16.433 -15.030  1.00  0.00    -0.550 OA
ATOM      8  O   UNL     1      14.625 -18.366 -14.081  1.00  0.00    -0.550 OA
ENDBRANCH   5   6
ENDBRANCH   4   5
ENDBRANCH   3   4
ENDBRANCH   2   3
ENDBRANCH   1   2
BRANCH   1   9
ATOM      9  C   UNL     1      11.529 -22.461 -14.497  1.00  0.00     0.000 C 
BRANCH   9  10
ATOM     10  C   UNL     1      12.216 -23.751 -14.032  1.00  0.00    -0.000 C 
BRANCH  10  11
ATOM     11  C   UNL     1      11.302 -24.968 -14.240  1.00  0.00    -0.000 C 
BRANCH  11  12
ATOM     12  C   UNL     1      12.079 -26.292 -14.282  1.00  0.00    -0.000 C 
BRANCH  12  13
ATOM     13  C   UNL     1      13.600 -26.087 -14.238  1.00  0.00    -0.003 C 
ATOM     14  C   UNL     1      14.338 -27.398 -14.493  1.00  0.00     0.004 C 
ENDBRANCH  12  13
ENDBRANCH  11  12
ENDBRANCH  10  11
ENDBRANCH   9  10
ENDBRANCH   1   9
TORSDOF 10
ENDMDL
MODEL 4
REMARK VINA RESULT:    -4.622      1.732      2.860
REMARK INTER + INTRA:          -8.153
REMARK INTER:                  -7.473
REMARK INTRA:                  -0.680
REMARK UNBOUND:                -0.829
REMARK SMILES CCCCCCCCCCCC(=O)[O-]
REMARK SMILES IDX 7 1 8 2 9 3 10 4 11 5 12 6 13 7 14 8 6 9 5 10 4 11 3 12 2 13
REMARK SMILES IDX 1 14
REMARK H PARENT
REMARK Flexibility Score: inf
ROOT
ATOM      1  C   UNL     1      12.636 -21.332 -13.849  1.00  0.00     0.000 C 
ENDROOT
BRANCH   1   2
ATOM      2  C   UNL     1      11.360 -20.772 -14.501  1.00  0.00     0.000 C 
BRANCH   2   3
ATOM      3  C   UNL     1      11.582 -19.581 -15.456  1.00  0.00     0.000 C 
BRANCH   3   4
ATOM      4  C   UNL     1      12.566 -19.844 -16.613  1.00  0.00     0.006 C 
BRANCH   4   5
ATOM      5  C   UNL     1      13.541 -18.690 -16.892  1.00  0.00     0.053 C 
BRANCH   5   6
ATOM      6  C   UNL     1      14.125 -18.135 -15.629  1.00  0.00     0.041 C 
ATOM      7  O   UNL     1      14.922 -18.825 -14.942  1.00  0.00    -0.550 OA
ATOM      8  O   UNL     1      13.761 -16.866 -15.195  1.00  0.00    -0.550 OA
ENDBRANCH   5   6
ENDBRANCH   4   5
ENDBRANCH   3   4
ENDBRANCH   2   3
ENDBRANCH   1   2
BRANCH   1   9
ATOM      9  C   UNL     1      12.704 -22.865 -13.892  1.00  0.00     0.000 C 
BRANCH   9  10
ATOM     10  C   UNL     1      11.305 -23.476 -14.037  1.00  0.00    -0.000 C 
BRANCH  10  11
ATOM     11  C   UNL     1      11.376 -25.008 -14.098  1.00  0.00    -0.000 C 
BRANCH  11  12
ATOM     12  C   UNL     1      12.819 -25.536 -14.079  1.00  0.00    -0.000 C 
BRANCH  12  13
ATOM     13  C   UNL     1      12.906 -27.033 -14.410  1.00  0.00    -0.003 C 
ATOM     14  C   UNL     1      14.293 -27.400 -14.929  1.00  0.00     0.004 C 
ENDBRANCH  12  13
ENDBRANCH  11  12
ENDBRANCH  10  11
ENDBRANCH   9  10
ENDBRANCH   1   9
TORSDOF 10
ENDMDL
MODEL 5
REMARK VINA RESULT:    -4.522      2.402      5.327
REMARK INTER + INTRA:          -7.994
REMARK INTER:                  -6.656
REMARK INTRA:                  -1.338
REMARK UNBOUND:                -0.829
REMARK SMILES CCCCCCCCCCCC(=O)[O-]
REMARK SMILES IDX 7 1 8 2 9 3 10 4 11 5 12 6 13 7 14 8 6 9 5 10 4 11 3 12 2 13
REMARK SMILES IDX 1 14
REMARK H PARENT
REMARK Flexibility Score: inf
ROOT
ATOM      1  C   UNL     1      14.033 -18.557 -15.348  1.00  0.00     0.000 C 
ENDROOT
BRANCH   1   2
ATOM      2  C   UNL     1      12.897 -19.057 -16.256  1.00  0.00     0.000 C 
BRANCH   2   3
ATOM      3  C   UNL     1      11.666 -19.617 -15.515  1.00  0.00     0.000 C 
BRANCH   3   4
ATOM      4  C   UNL     1      11.693 -21.136 -15.253  1.00  0.00     0.006 C 
BRANCH   4   5
ATOM      5  C   UNL     1      12.214 -21.531 -13.863  1.00  0.00     0.053 C 
BRANCH   5   6
ATOM      6  C   UNL     1      13.404 -22.435 -13.948  1.00  0.00     0.041 C 
ATOM      7  O   UNL     1      14.544 -21.962 -14.195  1.00  0.00    -0.550 OA
ATOM      8  O   UNL     1      13.248 -23.806 -13.786  1.00  0.00    -0.550 OA
ENDBRANCH   5   6
ENDBRANCH   4   5
ENDBRANCH   3   4
ENDBRANCH   2   3
ENDBRANCH   1   2
BRANCH   1   9
ATOM      9  C   UNL     1      14.098 -17.025 -15.260  1.00  0.00     0.000 C 
BRANCH   9  10
ATOM     10  C   UNL     1      13.575 -16.529 -13.906  1.00  0.00    -0.000 C 
BRANCH  10  11
ATOM     11  C   UNL     1      14.202 -17.319 -12.749  1.00  0.00    -0.000 C 
BRANCH  11  12
ATOM     12  C   UNL     1      13.151 -17.993 -11.854  1.00  0.00    -0.000 C 
BRANCH  12  13
ATOM     13  C   UNL     1      11.718 -17.791 -12.368  1.00  0.00    -0.003 C 
ATOM     14  C   UNL     1      10.758 -18.786 -11.723  1.00  0.00     0.004 C 
ENDBRANCH  12  13
ENDBRANCH  11  12
ENDBRANCH  10  11
ENDBRANCH   9  10
ENDBRANCH   1   9
TORSDOF 10
ENDMDL
MODEL 6
REMARK VINA RESULT:    -4.516      1.129      2.053
REMARK INTER + INTRA:          -7.984
REMARK INTER:                  -6.931
REMARK INTRA:                  -1.053
REMARK UNBOUND:                -0.829
REMARK SMILES CCCCCCCCCCCC(=O)[O-]
REMARK SMILES IDX 7 1 8 2 9 3 10 4 11 5 12 6 13 7 14 8 6 9 5 10 4 11 3 12 2 13
REMARK SMILES IDX 1 14
REMARK H PARENT
REMARK Flexibility Score: inf
ROOT
ATOM      1  C   UNL     1      11.596 -19.099 -12.323  1.00  0.00     0.000 C 
ENDROOT
BRANCH   1   2
ATOM      2  C   UNL     1      12.815 -18.524 -11.581  1.00  0.00     0.000 C 
BRANCH   2   3
ATOM      3  C   UNL     1      13.430 -17.259 -12.215  1.00  0.00     0.000 C 
BRANCH   3   4
ATOM      4  C   UNL     1      14.916 -17.379 -12.608  1.00  0.00     0.006 C 
BRANCH   4   5
ATOM      5  C   UNL     1      15.179 -18.272 -13.830  1.00  0.00     0.053 C 
BRANCH   5   6
ATOM      6  C   UNL     1      14.678 -17.647 -15.096  1.00  0.00     0.041 C 
ATOM      7  O   UNL     1      14.315 -18.371 -16.059  1.00  0.00    -0.550 OA
ATOM      8  O   UNL     1      14.644 -16.264 -15.222  1.00  0.00    -0.550 OA
ENDBRANCH   5   6
ENDBRANCH   4   5
ENDBRANCH   3   4
ENDBRANCH   2   3
ENDBRANCH   1   2
BRANCH   1   9
ATOM      9  C   UNL     1      11.359 -18.433 -13.686  1.00  0.00     0.000 C 
BRANCH   9  10
ATOM     10  C   UNL     1      11.150 -19.484 -14.783  1.00  0.00    -0.000 C 
BRANCH  10  11
ATOM     11  C   UNL     1      12.176 -20.620 -14.660  1.00  0.00    -0.000 C 
BRANCH  11  12
ATOM     12  C   UNL     1      11.567 -22.002 -14.947  1.00  0.00    -0.000 C 
BRANCH  12  13
ATOM     13  C   UNL     1      11.692 -22.962 -13.755  1.00  0.00    -0.003 C 
ATOM     14  C   UNL     1      11.231 -24.367 -14.131  1.00  0.00     0.004 C 
ENDBRANCH  12  13
ENDBRANCH  11  12
ENDBRANCH  10  11
ENDBRANCH   9  10
ENDBRANCH   1   9
TORSDOF 10
ENDMDL
MODEL 7
REMARK VINA RESULT:    -4.466      2.475      3.288
REMARK INTER + INTRA:          -7.906
REMARK INTER:                  -7.195
REMARK INTRA:                  -0.711
REMARK UNBOUND:                -0.829
REMARK SMILES CCCCCCCCCCCC(=O)[O-]
REMARK SMILES IDX 7 1 8 2 9 3 10 4 11 5 12 6 13 7 14 8 6 9 5 10 4 11 3 12 2 13
REMARK SMILES IDX 1 14
REMARK H PARENT
REMARK Flexibility Score: inf
ROOT
ATOM      1  C   UNL     1      12.303 -20.767 -15.107  1.00  0.00     0.000 C 
ENDROOT
BRANCH   1   2
ATOM      2  C   UNL     1      11.507 -19.468 -15.322  1.00  0.00     0.000 C 
BRANCH   2   3
ATOM      3  C   UNL     1      11.266 -18.631 -14.049  1.00  0.00     0.000 C 
BRANCH   3   4
ATOM      4  C   UNL     1      11.606 -19.342 -12.724  1.00  0.00     0.006 C 
BRANCH   4   5
ATOM      5  C   UNL     1      10.837 -18.812 -11.504  1.00  0.00     0.053 C 
BRANCH   5   6
ATOM      6  C   UNL     1      11.688 -17.925 -10.649  1.00  0.00     0.041 C 
ATOM      7  O   UNL     1      11.316 -17.620  -9.486  1.00  0.00    -0.550 OA
ATOM      8  O   UNL     1      12.876 -17.408 -11.150  1.00  0.00    -0.550 OA
ENDBRANCH   5   6
ENDBRANCH   4   5
ENDBRANCH   3   4
ENDBRANCH   2   3
ENDBRANCH   1   2
BRANCH   1   9
ATOM      9  C   UNL     1      11.425 -22.024 -15.184  1.00  0.00     0.000 C 
BRANCH   9  10
ATOM     10  C   UNL     1      11.679 -22.948 -13.987  1.00  0.00    -0.000 C 
BRANCH  10  11
ATOM     11  C   UNL     1      13.184 -23.157 -13.762  1.00  0.00    -0.000 C 
BRANCH  11  12
ATOM     12  C   UNL     1      13.590 -24.638 -13.805  1.00  0.00    -0.000 C 
BRANCH  12  13
ATOM     13  C   UNL     1      12.394 -25.573 -14.041  1.00  0.00    -0.003 C 
ATOM     14  C   UNL     1      12.860 -26.983 -14.388  1.00  0.00     0.004 C 
ENDBRANCH  12  13
ENDBRANCH  11  12
ENDBRANCH  10  11
ENDBRANCH   9  10
ENDBRANCH   1   9
TORSDOF 10
ENDMDL
MODEL 8
REMARK VINA RESULT:    -4.441      3.367      5.555
REMARK INTER + INTRA:          -7.867
REMARK INTER:                  -6.714
REMARK INTRA:                  -1.153
REMARK UNBOUND:                -0.829
REMARK SMILES CCCCCCCCCCCC(=O)[O-]
REMARK SMILES IDX 7 1 8 2 9 3 10 4 11 5 12 6 13 7 14 8 6 9 5 10 4 11 3 12 2 13
REMARK SMILES IDX 1 14
REMARK H PARENT
REMARK Flexibility Score: inf
ROOT
ATOM      1  C   UNL     1      11.954 -20.453 -14.459  1.00  0.00     0.000 C 
ENDROOT
BRANCH   1   2
ATOM      2  C   UNL     1      11.731 -19.945 -13.024  1.00  0.00     0.000 C 
BRANCH   2   3
ATOM      3  C   UNL     1      10.900 -18.651 -12.910  1.00  0.00     0.000 C 
BRANCH   3   4
ATOM      4  C   UNL     1      10.801 -18.058 -11.490  1.00  0.00     0.006 C 
BRANCH   4   5
ATOM      5  C   UNL     1      10.524 -19.093 -10.389  1.00  0.00     0.053 C 
BRANCH   5   6
ATOM      6  C   UNL     1      11.195 -18.730  -9.100  1.00  0.00     0.041 C 
ATOM      7  O   UNL     1      10.507 -18.406  -8.097  1.00  0.00    -0.550 OA
ATOM      8  O   UNL     1      12.581 -18.720  -9.017  1.00  0.00    -0.550 OA
ENDBRANCH   5   6
ENDBRANCH   4   5
ENDBRANCH   3   4
ENDBRANCH   2   3
ENDBRANCH   1   2
BRANCH   1   9
ATOM      9  C   UNL     1      11.719 -19.367 -15.519  1.00  0.00     0.000 C 
BRANCH   9  10
ATOM     10  C   UNL     1      13.025 -19.010 -16.240  1.00  0.00    -0.000 C 
BRANCH  10  11
ATOM     11  C   UNL     1      14.082 -18.504 -15.248  1.00  0.00    -0.000 C 
BRANCH  11  12
ATOM     12  C   UNL     1      14.188 -16.971 -15.227  1.00  0.00    -0.000 C 
BRANCH  12  13
ATOM     13  C   UNL     1      13.527 -16.349 -13.988  1.00  0.00    -0.003 C 
ATOM     14  C   UNL     1      14.150 -16.888 -12.704  1.00  0.00     0.004 C 
ENDBRANCH  12  13
ENDBRANCH  11  12
ENDBRANCH  10  11
ENDBRANCH   9  10
ENDBRANCH   1   9
TORSDOF 10
ENDMDL
MODEL 9
REMARK VINA RESULT:    -4.421      3.908      7.339
REMARK INTER + INTRA:          -7.834
REMARK INTER:                  -7.230
REMARK INTRA:                  -0.604
REMARK UNBOUND:                -0.829
REMARK SMILES CCCCCCCCCCCC(=O)[O-]
REMARK SMILES IDX 7 1 8 2 9 3 10 4 11 5 12 6 13 7 14 8 6 9 5 10 4 11 3 12 2 13
REMARK SMILES IDX 1 14
REMARK H PARENT
REMARK Flexibility Score: inf
ROOT
ATOM      1  C   UNL     1      12.701 -22.654 -13.792  1.00  0.00     0.000 C 
ENDROOT
BRANCH   1   2
ATOM      2  C   UNL     1      11.350 -23.319 -14.109  1.00  0.00     0.000 C 
BRANCH   2   3
ATOM      3  C   UNL     1      11.362 -24.861 -14.100  1.00  0.00     0.000 C 
BRANCH   3   4
ATOM      4  C   UNL     1      12.755 -25.504 -13.940  1.00  0.00     0.006 C 
BRANCH   4   5
ATOM      5  C   UNL     1      12.859 -26.934 -14.492  1.00  0.00     0.053 C 
BRANCH   5   6
ATOM      6  C   UNL     1      14.284 -27.359 -14.676  1.00  0.00     0.041 C 
ATOM      7  O   UNL     1      15.163 -27.007 -13.846  1.00  0.00    -0.550 OA
ATOM      8  O   UNL     1      14.646 -28.116 -15.783  1.00  0.00    -0.550 OA
ENDBRANCH   5   6
ENDBRANCH   4   5
ENDBRANCH   3   4
ENDBRANCH   2   3
ENDBRANCH   1   2
BRANCH   1   9
ATOM      9  C   UNL     1      12.690 -21.137 -14.025  1.00  0.00     0.000 C 
BRANCH   9  10
ATOM     10  C   UNL     1      11.514 -20.726 -14.920  1.00  0.00    -0.000 C 
BRANCH  10  11
ATOM     11  C   UNL     1      11.258 -19.214 -14.834  1.00  0.00    -0.000 C 
BRANCH  11  12
ATOM     12  C   UNL     1      11.391 -18.672 -13.402  1.00  0.00    -0.000 C 
BRANCH  12  13
ATOM     13  C   UNL     1      12.193 -17.364 -13.337  1.00  0.00    -0.003 C 
ATOM     14  C   UNL     1      13.592 -17.548 -13.918  1.00  0.00     0.004 C 
ENDBRANCH  12  13
ENDBRANCH  11  12
ENDBRANCH  10  11
ENDBRANCH   9  10
ENDBRANCH   1   9
TORSDOF 10
ENDMDL
