MODEL 1
REMARK VINA RESULT:    -6.808      0.000      0.000
REMARK INTER + INTRA:         -10.362
REMARK INTER:                  -9.394
REMARK INTRA:                  -0.968
REMARK UNBOUND:                -0.968
REMARK SMILES CC[C@H](CC[C@H](C)[C@H]1CC[C@H]2[C@@H]3CC=C4C[C@H](O)CC[C@@]4(C)[C@@H]3CC[C@@]12C)C(C)C
REMARK SMILES IDX 5 1 4 2 3 3 2 4 1 5 28 6 29 7 30 8 6 9 7 10 8 11 9 12 26 13
REMARK SMILES IDX 10 14 11 15 25 16 27 17 12 18 24 19 23 20 13 21 21 22 14 23
REMARK SMILES IDX 15 24 20 25 22 26 16 27 19 28 17 29 18 30
REMARK H PARENT 18 31
REMARK Flexibility Score: inf
ROOT
ATOM      1  C   UNL     1     176.143 176.539 187.846  1.00  0.00     0.004 C 
ENDROOT
BRANCH   1   2
ATOM      2  C   UNL     1     177.001 175.313 187.484  1.00  0.00     0.004 C 
BRANCH   2   3
ATOM      3  C   UNL     1     177.622 174.610 188.728  1.00  0.00    -0.009 C 
BRANCH   3   4
ATOM      4  C   UNL     1     176.715 173.447 189.214  1.00  0.00     0.000 C 
ATOM      5  C   UNL     1     176.031 173.694 190.562  1.00  0.00     0.004 C 
ENDBRANCH   3   4
BRANCH   3   6
ATOM      6  C   UNL     1     179.126 174.160 188.592  1.00  0.00    -0.014 C 
ATOM      7  C   UNL     1     179.264 172.636 188.438  1.00  0.00     0.007 C 
ATOM      8  C   UNL     1     180.062 174.665 189.708  1.00  0.00     0.007 C 
ENDBRANCH   3   6
ENDBRANCH   2   3
ENDBRANCH   1   2
BRANCH   1   9
ATOM      9  C   UNL     1     174.815 176.583 187.039  1.00  0.00    -0.011 C 
ATOM     10  C   UNL     1     175.088 176.017 185.628  1.00  0.00     0.008 C 
BRANCH   9  11
ATOM     11  C   UNL     1     174.223 178.038 186.966  1.00  0.00    -0.002 C 
ATOM     12  C   UNL     1     174.076 178.537 185.526  1.00  0.00     0.005 C 
ATOM     13  C   UNL     1     172.819 178.338 187.641  1.00  0.00    -0.026 C 
ATOM     14  C   UNL     1     173.091 179.677 185.591  1.00  0.00     0.005 C 
ATOM     15  C   UNL     1     172.040 179.252 186.623  1.00  0.00    -0.001 C 
ATOM     16  C   UNL     1     172.000 177.055 187.976  1.00  0.00     0.007 C 
ATOM     17  C   UNL     1     173.051 179.160 188.947  1.00  0.00     0.012 C 
ATOM     18  C   UNL     1     170.801 178.572 185.937  1.00  0.00     0.000 C 
ATOM     19  C   UNL     1     170.527 177.371 188.236  1.00  0.00     0.005 C 
ATOM     20  C   UNL     1     169.823 177.884 186.954  1.00  0.00     0.003 C 
ATOM     21  C   UNL     1     170.079 179.548 184.963  1.00  0.00     0.031 C 
ATOM     22  C   UNL     1     168.483 178.666 187.235  1.00  0.00    -0.008 C 
ATOM     23  C   UNL     1     168.597 179.332 184.837  1.00  0.00    -0.027 C 
ATOM     24  C   UNL     1     167.830 178.987 185.888  1.00  0.00    -0.065 C 
ATOM     25  C   UNL     1     167.543 177.746 188.080  1.00  0.00     0.014 C 
ATOM     26  C   UNL     1     168.720 179.999 187.991  1.00  0.00     0.016 C 
ATOM     27  C   UNL     1     166.331 179.186 185.775  1.00  0.00     0.063 C 
ATOM     28  C   UNL     1     166.071 178.172 188.064  1.00  0.00     0.033 C 
ATOM     29  C   UNL     1     165.531 178.187 186.633  1.00  0.00     0.118 C 
BRANCH  29  30
ATOM     30  O   UNL     1     164.156 178.492 186.678  1.00  0.00    -0.393 OA
ATOM     31  H   UNL     1     163.936 179.201 186.020  1.00  0.00     0.210 HD
ENDBRANCH  29  30
ENDBRANCH   9  11
ENDBRANCH   1   9
TORSDOF 7
ENDMDL
MODEL 2
REMARK VINA RESULT:    -6.782      5.241     11.149
REMARK INTER + INTRA:         -10.328
REMARK INTER:                  -8.423
REMARK INTRA:                  -1.905
REMARK UNBOUND:                -0.968
REMARK SMILES CC[C@H](CC[C@H](C)[C@H]1CC[C@H]2[C@@H]3CC=C4C[C@H](O)CC[C@@]4(C)[C@@H]3CC[C@@]12C)C(C)C
REMARK SMILES IDX 5 1 4 2 3 3 2 4 1 5 28 6 29 7 30 8 6 9 7 10 8 11 9 12 26 13
REMARK SMILES IDX 10 14 11 15 25 16 27 17 12 18 24 19 23 20 13 21 21 22 14 23
REMARK SMILES IDX 15 24 20 25 22 26 16 27 19 28 17 29 18 30
REMARK H PARENT 18 31
REMARK Flexibility Score: inf
ROOT
ATOM      1  C   UNL     1     176.530 176.285 188.471  1.00  0.00     0.004 C 
ENDROOT
BRANCH   1   2
ATOM      2  C   UNL     1     175.847 176.559 187.118  1.00  0.00     0.004 C 
BRANCH   2   3
ATOM      3  C   UNL     1     174.312 176.301 187.142  1.00  0.00    -0.009 C 
BRANCH   3   4
ATOM      4  C   UNL     1     173.528 177.611 186.852  1.00  0.00     0.000 C 
ATOM      5  C   UNL     1     174.001 178.826 187.654  1.00  0.00     0.004 C 
ENDBRANCH   3   4
BRANCH   3   6
ATOM      6  C   UNL     1     173.794 175.103 186.258  1.00  0.00    -0.014 C 
ATOM      7  C   UNL     1     173.478 173.856 187.100  1.00  0.00     0.007 C 
ATOM      8  C   UNL     1     174.705 174.726 185.073  1.00  0.00     0.007 C 
ENDBRANCH   3   6
ENDBRANCH   2   3
ENDBRANCH   1   2
BRANCH   1   9
ATOM      9  C   UNL     1     176.738 174.766 188.725  1.00  0.00    -0.011 C 
ATOM     10  C   UNL     1     176.738 174.527 190.252  1.00  0.00     0.008 C 
BRANCH   9  11
ATOM     11  C   UNL     1     178.064 174.238 188.064  1.00  0.00    -0.002 C 
ATOM     12  C   UNL     1     179.119 173.852 189.103  1.00  0.00     0.005 C 
ATOM     13  C   UNL     1     177.997 172.998 187.077  1.00  0.00    -0.026 C 
ATOM     14  C   UNL     1     180.088 172.949 188.380  1.00  0.00     0.005 C 
ATOM     15  C   UNL     1     179.227 172.088 187.448  1.00  0.00    -0.001 C 
ATOM     16  C   UNL     1     176.663 172.196 187.169  1.00  0.00     0.007 C 
ATOM     17  C   UNL     1     178.196 173.505 185.615  1.00  0.00     0.012 C 
ATOM     18  C   UNL     1     178.856 170.714 188.113  1.00  0.00     0.000 C 
ATOM     19  C   UNL     1     176.785 170.813 186.531  1.00  0.00     0.005 C 
ATOM     20  C   UNL     1     177.766 169.909 187.320  1.00  0.00     0.003 C 
ATOM     21  C   UNL     1     180.125 169.870 188.430  1.00  0.00     0.031 C 
ATOM     22  C   UNL     1     178.305 168.682 186.490  1.00  0.00    -0.008 C 
ATOM     23  C   UNL     1     179.928 168.382 188.357  1.00  0.00    -0.027 C 
ATOM     24  C   UNL     1     179.143 167.807 187.427  1.00  0.00    -0.065 C 
ATOM     25  C   UNL     1     177.080 167.872 185.954  1.00  0.00     0.014 C 
ATOM     26  C   UNL     1     179.200 169.115 185.300  1.00  0.00     0.016 C 
ATOM     27  C   UNL     1     179.315 166.323 187.164  1.00  0.00     0.063 C 
ATOM     28  C   UNL     1     177.417 166.443 185.513  1.00  0.00     0.033 C 
ATOM     29  C   UNL     1     178.017 165.650 186.675  1.00  0.00     0.118 C 
BRANCH  29  30
ATOM     30  O   UNL     1     178.223 164.322 186.250  1.00  0.00    -0.393 OA
ATOM     31  H   UNL     1     177.759 164.159 185.388  1.00  0.00     0.210 HD
ENDBRANCH  29  30
ENDBRANCH   9  11
ENDBRANCH   1   9
TORSDOF 7
ENDMDL
MODEL 3
REMARK VINA RESULT:    -6.588      6.421     11.117
REMARK INTER + INTRA:         -10.059
REMARK INTER:                  -9.096
REMARK INTRA:                  -0.963
REMARK UNBOUND:                -0.968
REMARK SMILES CC[C@H](CC[C@H](C)[C@H]1CC[C@H]2[C@@H]3CC=C4C[C@H](O)CC[C@@]4(C)[C@@H]3CC[C@@]12C)C(C)C
REMARK SMILES IDX 5 1 4 2 3 3 2 4 1 5 28 6 29 7 30 8 6 9 7 10 8 11 9 12 26 13
REMARK SMILES IDX 10 14 11 15 25 16 27 17 12 18 24 19 23 20 13 21 21 22 14 23
REMARK SMILES IDX 15 24 20 25 22 26 16 27 19 28 17 29 18 30
REMARK H PARENT 18 31
REMARK Flexibility Score: inf
ROOT
ATOM      1  C   UNL     1     178.391 165.288 187.230  1.00  0.00     0.004 C 
ENDROOT
BRANCH   1   2
ATOM      2  C   UNL     1     177.226 164.291 187.092  1.00  0.00     0.004 C 
BRANCH   2   3
ATOM      3  C   UNL     1     176.849 163.598 188.435  1.00  0.00    -0.009 C 
BRANCH   3   4
ATOM      4  C   UNL     1     175.556 164.219 189.033  1.00  0.00     0.000 C 
ATOM      5  C   UNL     1     175.635 164.536 190.529  1.00  0.00     0.004 C 
ENDBRANCH   3   4
BRANCH   3   6
ATOM      6  C   UNL     1     176.783 162.024 188.410  1.00  0.00    -0.014 C 
ATOM      7  C   UNL     1     175.339 161.505 188.315  1.00  0.00     0.007 C 
ATOM      8  C   UNL     1     177.523 161.321 189.566  1.00  0.00     0.007 C 
ENDBRANCH   3   6
ENDBRANCH   2   3
ENDBRANCH   1   2
BRANCH   1   9
ATOM      9  C   UNL     1     177.900 166.762 187.278  1.00  0.00    -0.011 C 
ATOM     10  C   UNL     1     176.793 166.937 186.214  1.00  0.00     0.008 C 
BRANCH   9  11
ATOM     11  C   UNL     1     179.077 167.779 187.050  1.00  0.00    -0.002 C 
ATOM     12  C   UNL     1     179.352 168.030 185.566  1.00  0.00     0.005 C 
ATOM     13  C   UNL     1     178.986 169.225 187.694  1.00  0.00    -0.026 C 
ATOM     14  C   UNL     1     180.123 169.325 185.511  1.00  0.00     0.005 C 
ATOM     15  C   UNL     1     179.497 170.221 186.586  1.00  0.00    -0.001 C 
ATOM     16  C   UNL     1     177.552 169.610 188.169  1.00  0.00     0.007 C 
ATOM     17  C   UNL     1     179.969 169.304 188.902  1.00  0.00     0.012 C 
ATOM     18  C   UNL     1     178.393 171.161 185.982  1.00  0.00     0.000 C 
ATOM     19  C   UNL     1     177.411 171.114 188.398  1.00  0.00     0.005 C 
ATOM     20  C   UNL     1     177.540 171.904 187.070  1.00  0.00     0.003 C 
ATOM     21  C   UNL     1     178.984 172.123 184.911  1.00  0.00     0.031 C 
ATOM     22  C   UNL     1     177.883 173.430 187.270  1.00  0.00    -0.008 C 
ATOM     23  C   UNL     1     178.299 173.458 184.814  1.00  0.00    -0.027 C 
ATOM     24  C   UNL     1     177.841 174.109 185.899  1.00  0.00    -0.065 C 
ATOM     25  C   UNL     1     176.806 174.059 188.212  1.00  0.00     0.014 C 
ATOM     26  C   UNL     1     179.293 173.648 187.877  1.00  0.00     0.016 C 
ATOM     27  C   UNL     1     177.542 175.591 185.770  1.00  0.00     0.063 C 
ATOM     28  C   UNL     1     176.741 175.589 188.156  1.00  0.00     0.033 C 
ATOM     29  C   UNL     1     176.436 176.062 186.734  1.00  0.00     0.118 C 
BRANCH  29  30
ATOM     30  O   UNL     1     176.293 177.464 186.751  1.00  0.00    -0.393 OA
ATOM     31  H   UNL     1     177.123 177.900 186.425  1.00  0.00     0.210 HD
ENDBRANCH  29  30
ENDBRANCH   9  11
ENDBRANCH   1   9
TORSDOF 7
ENDMDL
MODEL 4
REMARK VINA RESULT:    -6.586     15.002     18.432
REMARK INTER + INTRA:         -10.056
REMARK INTER:                  -7.951
REMARK INTRA:                  -2.106
REMARK UNBOUND:                -0.968
REMARK SMILES CC[C@H](CC[C@H](C)[C@H]1CC[C@H]2[C@@H]3CC=C4C[C@H](O)CC[C@@]4(C)[C@@H]3CC[C@@]12C)C(C)C
REMARK SMILES IDX 5 1 4 2 3 3 2 4 1 5 28 6 29 7 30 8 6 9 7 10 8 11 9 12 26 13
REMARK SMILES IDX 10 14 11 15 25 16 27 17 12 18 24 19 23 20 13 21 21 22 14 23
REMARK SMILES IDX 15 24 20 25 22 26 16 27 19 28 17 29 18 30
REMARK H PARENT 18 31
REMARK Flexibility Score: inf
ROOT
ATOM      1  C   UNL     1     164.809 160.266 189.027  1.00  0.00     0.004 C 
ENDROOT
BRANCH   1   2
ATOM      2  C   UNL     1     164.350 160.079 187.569  1.00  0.00     0.004 C 
BRANCH   2   3
ATOM      3  C   UNL     1     163.200 161.046 187.158  1.00  0.00    -0.009 C 
BRANCH   3   4
ATOM      4  C   UNL     1     162.822 161.986 188.336  1.00  0.00     0.000 C 
ATOM      5  C   UNL     1     161.321 162.072 188.626  1.00  0.00     0.004 C 
ENDBRANCH   3   4
BRANCH   3   6
ATOM      6  C   UNL     1     163.412 161.847 185.817  1.00  0.00    -0.014 C 
ATOM      7  C   UNL     1     164.047 160.979 184.718  1.00  0.00     0.007 C 
ATOM      8  C   UNL     1     164.190 163.170 185.963  1.00  0.00     0.007 C 
ENDBRANCH   3   6
ENDBRANCH   2   3
ENDBRANCH   1   2
BRANCH   1   9
ATOM      9  C   UNL     1     166.329 160.574 189.127  1.00  0.00    -0.011 C 
ATOM     10  C   UNL     1     166.603 161.208 190.510  1.00  0.00     0.008 C 
BRANCH   9  11
ATOM     11  C   UNL     1     166.814 161.513 187.962  1.00  0.00    -0.002 C 
ATOM     12  C   UNL     1     167.125 162.931 188.447  1.00  0.00     0.005 C 
ATOM     13  C   UNL     1     168.081 161.092 187.106  1.00  0.00    -0.026 C 
ATOM     14  C   UNL     1     168.002 163.539 187.381  1.00  0.00     0.005 C 
ATOM     15  C   UNL     1     168.926 162.407 186.915  1.00  0.00    -0.001 C 
ATOM     16  C   UNL     1     168.939 159.971 187.767  1.00  0.00     0.007 C 
ATOM     17  C   UNL     1     167.605 160.617 185.699  1.00  0.00     0.012 C 
ATOM     18  C   UNL     1     170.297 162.430 187.682  1.00  0.00     0.000 C 
ATOM     19  C   UNL     1     170.332 159.878 187.146  1.00  0.00     0.005 C 
ATOM     20  C   UNL     1     171.170 161.148 187.439  1.00  0.00     0.003 C 
ATOM     21  C   UNL     1     171.074 163.753 187.425  1.00  0.00     0.031 C 
ATOM     22  C   UNL     1     172.394 161.341 186.464  1.00  0.00    -0.008 C 
ATOM     23  C   UNL     1     172.572 163.622 187.450  1.00  0.00    -0.027 C 
ATOM     24  C   UNL     1     173.205 162.544 186.952  1.00  0.00    -0.065 C 
ATOM     25  C   UNL     1     173.272 160.048 186.511  1.00  0.00     0.014 C 
ATOM     26  C   UNL     1     171.953 161.614 185.002  1.00  0.00     0.016 C 
ATOM     27  C   UNL     1     174.686 162.662 186.648  1.00  0.00     0.063 C 
ATOM     28  C   UNL     1     174.695 160.237 185.975  1.00  0.00     0.033 C 
ATOM     29  C   UNL     1     175.429 161.318 186.769  1.00  0.00     0.118 C 
BRANCH  29  30
ATOM     30  O   UNL     1     176.757 161.389 186.303  1.00  0.00    -0.393 OA
ATOM     31  H   UNL     1     176.773 161.582 185.330  1.00  0.00     0.210 HD
ENDBRANCH  29  30
ENDBRANCH   9  11
ENDBRANCH   1   9
TORSDOF 7
ENDMDL
MODEL 5
REMARK VINA RESULT:    -6.522      3.254      9.605
REMARK INTER + INTRA:          -9.968
REMARK INTER:                  -8.574
REMARK INTRA:                  -1.394
REMARK UNBOUND:                -0.968
REMARK SMILES CC[C@H](CC[C@H](C)[C@H]1CC[C@H]2[C@@H]3CC=C4C[C@H](O)CC[C@@]4(C)[C@@H]3CC[C@@]12C)C(C)C
REMARK SMILES IDX 5 1 4 2 3 3 2 4 1 5 28 6 29 7 30 8 6 9 7 10 8 11 9 12 26 13
REMARK SMILES IDX 10 14 11 15 25 16 27 17 12 18 24 19 23 20 13 21 21 22 14 23
REMARK SMILES IDX 15 24 20 25 22 26 16 27 19 28 17 29 18 30
REMARK H PARENT 18 31
REMARK Flexibility Score: inf
ROOT
ATOM      1  C   UNL     1     165.972 176.984 188.364  1.00  0.00     0.004 C 
ENDROOT
BRANCH   1   2
ATOM      2  C   UNL     1     164.966 177.968 187.740  1.00  0.00     0.004 C 
BRANCH   2   3
ATOM      3  C   UNL     1     164.203 177.375 186.518  1.00  0.00    -0.009 C 
BRANCH   3   4
ATOM      4  C   UNL     1     164.977 176.170 185.917  1.00  0.00     0.000 C 
ATOM      5  C   UNL     1     165.468 176.380 184.483  1.00  0.00     0.004 C 
ENDBRANCH   3   4
BRANCH   3   6
ATOM      6  C   UNL     1     162.681 177.037 186.747  1.00  0.00    -0.014 C 
ATOM      7  C   UNL     1     161.909 176.916 185.423  1.00  0.00     0.007 C 
ATOM      8  C   UNL     1     161.939 177.987 187.708  1.00  0.00     0.007 C 
ENDBRANCH   3   6
ENDBRANCH   2   3
ENDBRANCH   1   2
BRANCH   1   9
ATOM      9  C   UNL     1     167.178 177.714 189.017  1.00  0.00    -0.011 C 
ATOM     10  C   UNL     1     166.637 178.654 190.117  1.00  0.00     0.008 C 
BRANCH   9  11
ATOM     11  C   UNL     1     168.027 178.506 187.956  1.00  0.00    -0.002 C 
ATOM     12  C   UNL     1     168.692 179.749 188.551  1.00  0.00     0.005 C 
ATOM     13  C   UNL     1     169.192 177.758 187.182  1.00  0.00    -0.026 C 
ATOM     14  C   UNL     1     169.807 180.107 187.600  1.00  0.00     0.005 C 
ATOM     15  C   UNL     1     170.399 178.768 187.142  1.00  0.00    -0.001 C 
ATOM     16  C   UNL     1     169.616 176.410 187.840  1.00  0.00     0.007 C 
ATOM     17  C   UNL     1     168.735 177.495 185.713  1.00  0.00     0.012 C 
ATOM     18  C   UNL     1     171.636 178.355 188.018  1.00  0.00     0.000 C 
ATOM     19  C   UNL     1     170.973 175.928 187.330  1.00  0.00     0.005 C 
ATOM     20  C   UNL     1     172.115 176.881 187.769  1.00  0.00     0.003 C 
ATOM     21  C   UNL     1     172.788 179.396 187.908  1.00  0.00     0.031 C 
ATOM     22  C   UNL     1     173.429 176.735 186.910  1.00  0.00    -0.008 C 
ATOM     23  C   UNL     1     174.171 178.824 188.047  1.00  0.00    -0.027 C 
ATOM     24  C   UNL     1     174.506 177.625 187.537  1.00  0.00    -0.065 C 
ATOM     25  C   UNL     1     173.881 175.239 186.950  1.00  0.00     0.014 C 
ATOM     26  C   UNL     1     173.230 177.178 185.437  1.00  0.00     0.016 C 
ATOM     27  C   UNL     1     175.979 177.308 187.362  1.00  0.00     0.063 C 
ATOM     28  C   UNL     1     175.341 175.015 186.544  1.00  0.00     0.033 C 
ATOM     29  C   UNL     1     176.280 175.800 187.460  1.00  0.00     0.118 C 
BRANCH  29  30
ATOM     30  O   UNL     1     177.610 175.490 187.110  1.00  0.00    -0.393 OA
ATOM     31  H   UNL     1     177.925 174.696 187.615  1.00  0.00     0.210 HD
ENDBRANCH  29  30
ENDBRANCH   9  11
ENDBRANCH   1   9
TORSDOF 7
ENDMDL
MODEL 6
REMARK VINA RESULT:    -6.509     16.759     19.178
REMARK INTER + INTRA:          -9.951
REMARK INTER:                  -7.798
REMARK INTRA:                  -2.152
REMARK UNBOUND:                -0.968
REMARK SMILES CC[C@H](CC[C@H](C)[C@H]1CC[C@H]2[C@@H]3CC=C4C[C@H](O)CC[C@@]4(C)[C@@H]3CC[C@@]12C)C(C)C
REMARK SMILES IDX 5 1 4 2 3 3 2 4 1 5 28 6 29 7 30 8 6 9 7 10 8 11 9 12 26 13
REMARK SMILES IDX 10 14 11 15 25 16 27 17 12 18 24 19 23 20 13 21 21 22 14 23
REMARK SMILES IDX 15 24 20 25 22 26 16 27 19 28 17 29 18 30
REMARK H PARENT 18 31
REMARK Flexibility Score: inf
ROOT
ATOM      1  C   UNL     1     163.589 163.263 188.428  1.00  0.00     0.004 C 
ENDROOT
BRANCH   1   2
ATOM      2  C   UNL     1     162.257 163.932 188.811  1.00  0.00     0.004 C 
BRANCH   2   3
ATOM      3  C   UNL     1     161.287 164.107 187.605  1.00  0.00    -0.009 C 
BRANCH   3   4
ATOM      4  C   UNL     1     159.937 163.388 187.874  1.00  0.00     0.000 C 
ATOM      5  C   UNL     1     159.938 162.466 189.096  1.00  0.00     0.004 C 
ENDBRANCH   3   4
BRANCH   3   6
ATOM      6  C   UNL     1     161.073 165.582 187.094  1.00  0.00    -0.014 C 
ATOM      7  C   UNL     1     160.728 165.633 185.597  1.00  0.00     0.007 C 
ATOM      8  C   UNL     1     162.228 166.555 187.405  1.00  0.00     0.007 C 
ENDBRANCH   3   6
ENDBRANCH   2   3
ENDBRANCH   1   2
BRANCH   1   9
ATOM      9  C   UNL     1     163.425 162.265 187.247  1.00  0.00    -0.011 C 
ATOM     10  C   UNL     1     163.551 160.830 187.807  1.00  0.00     0.008 C 
BRANCH   9  11
ATOM     11  C   UNL     1     164.477 162.529 186.108  1.00  0.00    -0.002 C 
ATOM     12  C   UNL     1     165.360 161.308 185.836  1.00  0.00     0.005 C 
ATOM     13  C   UNL     1     163.969 162.986 184.677  1.00  0.00    -0.026 C 
ATOM     14  C   UNL     1     165.946 161.531 184.464  1.00  0.00     0.005 C 
ATOM     15  C   UNL     1     164.823 162.167 183.637  1.00  0.00    -0.001 C 
ATOM     16  C   UNL     1     162.444 162.754 184.450  1.00  0.00     0.007 C 
ATOM     17  C   UNL     1     164.297 164.499 184.484  1.00  0.00     0.012 C 
ATOM     18  C   UNL     1     164.021 161.086 182.828  1.00  0.00     0.000 C 
ATOM     19  C   UNL     1     162.073 162.815 182.969  1.00  0.00     0.005 C 
ATOM     20  C   UNL     1     162.704 161.641 182.177  1.00  0.00     0.003 C 
ATOM     21  C   UNL     1     164.932 160.338 181.812  1.00  0.00     0.031 C 
ATOM     22  C   UNL     1     162.774 161.890 180.621  1.00  0.00    -0.008 C 
ATOM     23  C   UNL     1     164.238 159.875 180.562  1.00  0.00    -0.027 C 
ATOM     24  C   UNL     1     163.283 160.607 179.959  1.00  0.00    -0.065 C 
ATOM     25  C   UNL     1     161.335 162.221 180.110  1.00  0.00     0.014 C 
ATOM     26  C   UNL     1     163.736 163.046 180.246  1.00  0.00     0.016 C 
ATOM     27  C   UNL     1     162.933 160.280 178.520  1.00  0.00     0.063 C 
ATOM     28  C   UNL     1     161.154 162.059 178.596  1.00  0.00     0.033 C 
ATOM     29  C   UNL     1     161.474 160.627 178.168  1.00  0.00     0.118 C 
BRANCH  29  30
ATOM     30  O   UNL     1     161.205 160.502 176.790  1.00  0.00    -0.393 OA
ATOM     31  H   UNL     1     160.229 160.565 176.621  1.00  0.00     0.210 HD
ENDBRANCH  29  30
ENDBRANCH   9  11
ENDBRANCH   1   9
TORSDOF 7
ENDMDL
MODEL 7
REMARK VINA RESULT:    -6.449      8.892     13.627
REMARK INTER + INTRA:          -9.867
REMARK INTER:                  -7.917
REMARK INTRA:                  -1.950
REMARK UNBOUND:                -0.968
REMARK SMILES CC[C@H](CC[C@H](C)[C@H]1CC[C@H]2[C@@H]3CC=C4C[C@H](O)CC[C@@]4(C)[C@@H]3CC[C@@]12C)C(C)C
REMARK SMILES IDX 5 1 4 2 3 3 2 4 1 5 28 6 29 7 30 8 6 9 7 10 8 11 9 12 26 13
REMARK SMILES IDX 10 14 11 15 25 16 27 17 12 18 24 19 23 20 13 21 21 22 14 23
REMARK SMILES IDX 15 24 20 25 22 26 16 27 19 28 17 29 18 30
REMARK H PARENT 18 31
REMARK Flexibility Score: inf
ROOT
ATOM      1  C   UNL     1     176.961 162.173 188.978  1.00  0.00     0.004 C 
ENDROOT
BRANCH   1   2
ATOM      2  C   UNL     1     176.725 161.735 187.522  1.00  0.00     0.004 C 
BRANCH   2   3
ATOM      3  C   UNL     1     175.453 160.853 187.344  1.00  0.00    -0.009 C 
BRANCH   3   4
ATOM      4  C   UNL     1     174.479 161.043 188.539  1.00  0.00     0.000 C 
ATOM      5  C   UNL     1     173.045 160.580 188.271  1.00  0.00     0.004 C 
ENDBRANCH   3   4
BRANCH   3   6
ATOM      6  C   UNL     1     174.710 160.976 185.960  1.00  0.00    -0.014 C 
ATOM      7  C   UNL     1     175.241 159.969 184.926  1.00  0.00     0.007 C 
ATOM      8  C   UNL     1     174.688 162.394 185.355  1.00  0.00     0.007 C 
ENDBRANCH   3   6
ENDBRANCH   2   3
ENDBRANCH   1   2
BRANCH   1   9
ATOM      9  C   UNL     1     177.091 163.717 189.112  1.00  0.00    -0.011 C 
ATOM     10  C   UNL     1     176.536 164.131 190.493  1.00  0.00     0.008 C 
BRANCH   9  11
ATOM     11  C   UNL     1     176.347 164.469 187.948  1.00  0.00    -0.002 C 
ATOM     12  C   UNL     1     175.091 165.197 188.434  1.00  0.00     0.005 C 
ATOM     13  C   UNL     1     177.136 165.550 187.097  1.00  0.00    -0.026 C 
ATOM     14  C   UNL     1     174.781 166.222 187.371  1.00  0.00     0.005 C 
ATOM     15  C   UNL     1     176.142 166.757 186.909  1.00  0.00    -0.001 C 
ATOM     16  C   UNL     1     178.465 166.023 187.762  1.00  0.00     0.007 C 
ATOM     17  C   UNL     1     177.445 164.957 185.688  1.00  0.00     0.012 C 
ATOM     18  C   UNL     1     176.538 168.067 187.680  1.00  0.00     0.000 C 
ATOM     19  C   UNL     1     178.980 167.322 187.145  1.00  0.00     0.005 C 
ATOM     20  C   UNL     1     178.026 168.508 187.441  1.00  0.00     0.003 C 
ATOM     21  C   UNL     1     175.516 169.212 187.426  1.00  0.00     0.031 C 
ATOM     22  C   UNL     1     178.217 169.735 186.470  1.00  0.00    -0.008 C 
ATOM     23  C   UNL     1     176.098 170.597 187.457  1.00  0.00    -0.027 C 
ATOM     24  C   UNL     1     177.319 170.873 186.962  1.00  0.00    -0.065 C 
ATOM     25  C   UNL     1     179.716 170.176 186.522  1.00  0.00     0.014 C 
ATOM     26  C   UNL     1     177.825 169.403 185.007  1.00  0.00     0.016 C 
ATOM     27  C   UNL     1     177.659 172.321 186.663  1.00  0.00     0.063 C 
ATOM     28  C   UNL     1     179.972 171.590 185.991  1.00  0.00     0.033 C 
ATOM     29  C   UNL     1     179.166 172.617 186.787  1.00  0.00     0.118 C 
BRANCH  29  30
ATOM     30  O   UNL     1     179.504 173.905 186.326  1.00  0.00    -0.393 OA
ATOM     31  H   UNL     1     180.405 174.165 186.653  1.00  0.00     0.210 HD
ENDBRANCH  29  30
ENDBRANCH   9  11
ENDBRANCH   1   9
TORSDOF 7
ENDMDL
MODEL 8
REMARK VINA RESULT:    -6.376     12.711     15.977
REMARK INTER + INTRA:          -9.767
REMARK INTER:                  -7.628
REMARK INTRA:                  -2.139
REMARK UNBOUND:                -0.968
REMARK SMILES CC[C@H](CC[C@H](C)[C@H]1CC[C@H]2[C@@H]3CC=C4C[C@H](O)CC[C@@]4(C)[C@@H]3CC[C@@]12C)C(C)C
REMARK SMILES IDX 5 1 4 2 3 3 2 4 1 5 28 6 29 7 30 8 6 9 7 10 8 11 9 12 26 13
REMARK SMILES IDX 10 14 11 15 25 16 27 17 12 18 24 19 23 20 13 21 21 22 14 23
REMARK SMILES IDX 15 24 20 25 22 26 16 27 19 28 17 29 18 30
REMARK H PARENT 18 31
REMARK Flexibility Score: inf
ROOT
ATOM      1  C   UNL     1     163.561 162.802 186.561  1.00  0.00     0.004 C 
ENDROOT
BRANCH   1   2
ATOM      2  C   UNL     1     162.601 161.627 186.823  1.00  0.00     0.004 C 
BRANCH   2   3
ATOM      3  C   UNL     1     161.596 161.383 185.659  1.00  0.00    -0.009 C 
BRANCH   3   4
ATOM      4  C   UNL     1     160.131 161.531 186.153  1.00  0.00     0.000 C 
ATOM      5  C   UNL     1     159.943 161.323 187.658  1.00  0.00     0.004 C 
ENDBRANCH   3   4
BRANCH   3   6
ATOM      6  C   UNL     1     161.852 162.203 184.337  1.00  0.00    -0.014 C 
ATOM      7  C   UNL     1     160.555 162.794 183.761  1.00  0.00     0.007 C 
ATOM      8  C   UNL     1     162.623 161.446 183.238  1.00  0.00     0.007 C 
ENDBRANCH   3   6
ENDBRANCH   2   3
ENDBRANCH   1   2
BRANCH   1   9
ATOM      9  C   UNL     1     163.224 164.041 187.438  1.00  0.00    -0.011 C 
ATOM     10  C   UNL     1     163.043 163.565 188.897  1.00  0.00     0.008 C 
BRANCH   9  11
ATOM     11  C   UNL     1     161.944 164.793 186.920  1.00  0.00    -0.002 C 
ATOM     12  C   UNL     1     160.831 164.841 187.970  1.00  0.00     0.005 C 
ATOM     13  C   UNL     1     162.079 166.288 186.408  1.00  0.00    -0.026 C 
ATOM     14  C   UNL     1     159.914 165.959 187.537  1.00  0.00     0.005 C 
ATOM     15  C   UNL     1     160.836 167.057 186.993  1.00  0.00    -0.001 C 
ATOM     16  C   UNL     1     163.411 166.978 186.833  1.00  0.00     0.007 C 
ATOM     17  C   UNL     1     161.964 166.302 184.852  1.00  0.00     0.012 C 
ATOM     18  C   UNL     1     161.176 168.122 188.097  1.00  0.00     0.000 C 
ATOM     19  C   UNL     1     163.338 168.497 186.687  1.00  0.00     0.005 C 
ATOM     20  C   UNL     1     162.318 169.115 187.677  1.00  0.00     0.003 C 
ATOM     21  C   UNL     1     159.897 168.846 188.607  1.00  0.00     0.031 C 
ATOM     22  C   UNL     1     161.839 170.562 187.276  1.00  0.00    -0.008 C 
ATOM     23  C   UNL     1     160.109 170.269 189.045  1.00  0.00    -0.027 C 
ATOM     24  C   UNL     1     160.953 171.098 188.404  1.00  0.00    -0.065 C 
ATOM     25  C   UNL     1     163.100 171.470 187.108  1.00  0.00     0.014 C 
ATOM     26  C   UNL     1     161.013 170.573 185.963  1.00  0.00     0.016 C 
ATOM     27  C   UNL     1     160.808 172.589 188.641  1.00  0.00     0.063 C 
ATOM     28  C   UNL     1     162.800 172.973 187.150  1.00  0.00     0.033 C 
ATOM     29  C   UNL     1     162.138 173.351 188.476  1.00  0.00     0.118 C 
BRANCH  29  30
ATOM     30  O   UNL     1     161.968 174.749 188.507  1.00  0.00    -0.393 OA
ATOM     31  H   UNL     1     162.093 175.093 189.430  1.00  0.00     0.210 HD
ENDBRANCH  29  30
ENDBRANCH   9  11
ENDBRANCH   1   9
TORSDOF 7
ENDMDL
