MODEL 1
REMARK VINA RESULT:    -6.185      0.000      0.000
REMARK INTER + INTRA:          -7.716
REMARK INTER:                  -7.451
REMARK INTRA:                  -0.265
REMARK UNBOUND:                -0.265
REMARK SMILES O=c1c(O)c(-c2ccc(O)c(O)c2)oc2cc(O)cc(O)c12
REMARK SMILES IDX 5 1 3 2 2 3 1 4 22 5 20 6 19 7 17 8 16 9 15 10 14 11 6 12
REMARK SMILES IDX 7 13 8 14 9 15 13 16 11 17 10 18 12 20 4 22 21 24 18 26
REMARK H PARENT 10 19 12 21 4 23 21 25 18 27
REMARK Flexibility Score: inf
ROOT
ATOM      1  C   UNL     1       8.067  25.518  11.788  1.00  0.00     0.180 A 
ATOM      2  C   UNL     1       6.715  25.879  11.946  1.00  0.00     0.208 A 
ATOM      3  C   UNL     1       6.367  26.774  12.970  1.00  0.00     0.238 A 
ATOM      4  O   UNL     1       5.158  27.096  13.128  1.00  0.00    -0.285 OA
ATOM      5  C   UNL     1       7.374  27.306  13.802  1.00  0.00     0.111 A 
ATOM      6  C   UNL     1       7.107  28.216  14.854  1.00  0.00     0.134 A 
ATOM      7  C   UNL     1       8.165  28.709  15.633  1.00  0.00     0.093 A 
ATOM      8  C   UNL     1       9.480  28.311  15.382  1.00  0.00     0.123 A 
ATOM      9  C   UNL     1       9.748  27.411  14.345  1.00  0.00     0.094 A 
ATOM     10  C   UNL     1       8.709  26.908  13.558  1.00  0.00     0.146 A 
ATOM     11  O   UNL     1       8.991  26.052  12.583  1.00  0.00    -0.452 OA
ENDROOT
BRANCH   1  12
ATOM     12  C   UNL     1       8.511  24.566  10.746  1.00  0.00     0.025 A 
ATOM     13  C   UNL     1       8.255  23.188  10.855  1.00  0.00     0.016 A 
ATOM     14  C   UNL     1       8.705  22.305   9.870  1.00  0.00     0.051 A 
ATOM     15  C   UNL     1       9.425  22.779   8.770  1.00  0.00     0.157 A 
ATOM     16  C   UNL     1       9.254  25.036   9.650  1.00  0.00     0.062 A 
ATOM     17  C   UNL     1       9.705  24.152   8.660  1.00  0.00     0.158 A 
BRANCH  15  18
ATOM     18  O   UNL     1       9.859  21.875   7.802  1.00  0.00    -0.504 OA
ATOM     19  H   UNL     1      10.227  20.962   8.043  1.00  0.00     0.293 HD
ENDBRANCH  15  18
BRANCH  17  20
ATOM     20  O   UNL     1      10.430  24.631   7.569  1.00  0.00    -0.504 OA
ATOM     21  H   UNL     1      10.028  25.291   6.914  1.00  0.00     0.293 HD
ENDBRANCH  17  20
ENDBRANCH   1  12
BRANCH   2  22
ATOM     22  O   UNL     1       5.744  25.376  11.076  1.00  0.00    -0.502 OA
ATOM     23  H   UNL     1       4.827  25.089  11.395  1.00  0.00     0.293 HD
ENDBRANCH   2  22
BRANCH   6  24
ATOM     24  O   UNL     1       5.804  28.635  15.130  1.00  0.00    -0.507 OA
ATOM     25  H   UNL     1       5.615  29.446  15.707  1.00  0.00     0.293 HD
ENDBRANCH   6  24
BRANCH   8  26
ATOM     26  O   UNL     1      10.512  28.815  16.169  1.00  0.00    -0.508 OA
ATOM     27  H   UNL     1      11.143  29.528  15.821  1.00  0.00     0.293 HD
ENDBRANCH   8  26
TORSDOF 6
ENDMDL
MODEL 2
REMARK VINA RESULT:    -6.080      1.556      6.850
REMARK INTER + INTRA:          -7.590
REMARK INTER:                  -7.342
REMARK INTRA:                  -0.247
REMARK UNBOUND:                -0.265
REMARK SMILES O=c1c(O)c(-c2ccc(O)c(O)c2)oc2cc(O)cc(O)c12
REMARK SMILES IDX 5 1 3 2 2 3 1 4 22 5 20 6 19 7 17 8 16 9 15 10 14 11 6 12
REMARK SMILES IDX 7 13 8 14 9 15 13 16 11 17 10 18 12 20 4 22 21 24 18 26
REMARK H PARENT 10 19 12 21 4 23 21 25 18 27
REMARK Flexibility Score: inf
ROOT
ATOM      1  C   UNL     1       8.431  25.979  12.996  1.00  0.00     0.180 A 
ATOM      2  C   UNL     1       7.697  24.789  13.169  1.00  0.00     0.208 A 
ATOM      3  C   UNL     1       7.748  23.809  12.166  1.00  0.00     0.238 A 
ATOM      4  O   UNL     1       7.086  22.744  12.304  1.00  0.00    -0.285 OA
ATOM      5  C   UNL     1       8.546  24.023  11.022  1.00  0.00     0.111 A 
ATOM      6  C   UNL     1       8.655  23.083   9.968  1.00  0.00     0.134 A 
ATOM      7  C   UNL     1       9.477  23.366   8.867  1.00  0.00     0.093 A 
ATOM      8  C   UNL     1      10.189  24.566   8.799  1.00  0.00     0.123 A 
ATOM      9  C   UNL     1      10.083  25.498   9.837  1.00  0.00     0.094 A 
ATOM     10  C   UNL     1       9.269  25.236  10.942  1.00  0.00     0.146 A 
ATOM     11  O   UNL     1       9.183  26.139  11.911  1.00  0.00    -0.452 OA
ENDROOT
BRANCH   1  12
ATOM     12  C   UNL     1       8.412  27.068  13.999  1.00  0.00     0.025 A 
ATOM     13  C   UNL     1       9.502  27.291  14.858  1.00  0.00     0.016 A 
ATOM     14  C   UNL     1       9.452  28.311  15.812  1.00  0.00     0.051 A 
ATOM     15  C   UNL     1       8.314  29.113  15.932  1.00  0.00     0.157 A 
ATOM     16  C   UNL     1       7.262  27.862  14.135  1.00  0.00     0.062 A 
ATOM     17  C   UNL     1       7.211  28.887  15.092  1.00  0.00     0.158 A 
BRANCH  15  18
ATOM     18  O   UNL     1       8.294  30.124  16.892  1.00  0.00    -0.504 OA
ATOM     19  H   UNL     1       7.436  30.427  17.337  1.00  0.00     0.293 HD
ENDBRANCH  15  18
BRANCH  17  20
ATOM     20  O   UNL     1       6.068  29.678  15.210  1.00  0.00    -0.504 OA
ATOM     21  H   UNL     1       5.140  29.272  15.216  1.00  0.00     0.293 HD
ENDBRANCH  17  20
ENDBRANCH   1  12
BRANCH   2  22
ATOM     22  O   UNL     1       6.954  24.581  14.334  1.00  0.00    -0.502 OA
ATOM     23  H   UNL     1       7.254  23.943  15.061  1.00  0.00     0.293 HD
ENDBRANCH   2  22
BRANCH   6  24
ATOM     24  O   UNL     1       7.958  21.875  10.007  1.00  0.00    -0.507 OA
ATOM     25  H   UNL     1       7.273  21.677  10.728  1.00  0.00     0.293 HD
ENDBRANCH   6  24
BRANCH   8  26
ATOM     26  O   UNL     1      10.999  24.821   7.695  1.00  0.00    -0.508 OA
ATOM     27  H   UNL     1      11.171  25.766   7.372  1.00  0.00     0.293 HD
ENDBRANCH   8  26
TORSDOF 6
ENDMDL
MODEL 3
REMARK VINA RESULT:    -6.049      3.752      6.904
REMARK INTER + INTRA:          -7.553
REMARK INTER:                  -7.342
REMARK INTRA:                  -0.210
REMARK UNBOUND:                -0.265
REMARK SMILES O=c1c(O)c(-c2ccc(O)c(O)c2)oc2cc(O)cc(O)c12
REMARK SMILES IDX 5 1 3 2 2 3 1 4 22 5 20 6 19 7 17 8 16 9 15 10 14 11 6 12
REMARK SMILES IDX 7 13 8 14 9 15 13 16 11 17 10 18 12 20 4 22 21 24 18 26
REMARK H PARENT 10 19 12 21 4 23 21 25 18 27
REMARK Flexibility Score: inf
ROOT
ATOM      1  C   UNL     1       7.467  26.690  14.499  1.00  0.00     0.180 A 
ATOM      2  C   UNL     1       7.286  25.492  15.216  1.00  0.00     0.208 A 
ATOM      3  C   UNL     1       6.345  24.560  14.752  1.00  0.00     0.238 A 
ATOM      4  O   UNL     1       6.166  23.488  15.392  1.00  0.00    -0.285 OA
ATOM      5  C   UNL     1       5.618  24.830  13.573  1.00  0.00     0.111 A 
ATOM      6  C   UNL     1       4.655  23.941  13.037  1.00  0.00     0.134 A 
ATOM      7  C   UNL     1       3.980  24.279  11.854  1.00  0.00     0.093 A 
ATOM      8  C   UNL     1       4.249  25.482  11.199  1.00  0.00     0.123 A 
ATOM      9  C   UNL     1       5.199  26.364  11.725  1.00  0.00     0.094 A 
ATOM     10  C   UNL     1       5.881  26.048  12.903  1.00  0.00     0.146 A 
ATOM     11  O   UNL     1       6.774  26.904  13.383  1.00  0.00    -0.452 OA
ENDROOT
BRANCH   1  12
ATOM     12  C   UNL     1       8.425  27.732  14.934  1.00  0.00     0.025 A 
ATOM     13  C   UNL     1       9.814  27.518  14.880  1.00  0.00     0.016 A 
ATOM     14  C   UNL     1      10.698  28.506  15.319  1.00  0.00     0.051 A 
ATOM     15  C   UNL     1      10.214  29.714  15.828  1.00  0.00     0.157 A 
ATOM     16  C   UNL     1       7.941  28.938  15.466  1.00  0.00     0.062 A 
ATOM     17  C   UNL     1       8.828  29.932  15.906  1.00  0.00     0.158 A 
BRANCH  15  18
ATOM     18  O   UNL     1      11.120  30.683  16.257  1.00  0.00    -0.504 OA
ATOM     19  H   UNL     1      11.581  30.629  17.157  1.00  0.00     0.293 HD
ENDBRANCH  15  18
BRANCH  17  20
ATOM     20  O   UNL     1       8.336  31.132  16.420  1.00  0.00    -0.504 OA
ATOM     21  H   UNL     1       7.559  31.151  17.069  1.00  0.00     0.293 HD
ENDBRANCH  17  20
ENDBRANCH   1  12
BRANCH   2  22
ATOM     22  O   UNL     1       8.054  25.226  16.352  1.00  0.00    -0.502 OA
ATOM     23  H   UNL     1       7.953  24.373  16.888  1.00  0.00     0.293 HD
ENDBRANCH   2  22
BRANCH   6  24
ATOM     24  O   UNL     1       4.365  22.730  13.667  1.00  0.00    -0.507 OA
ATOM     25  H   UNL     1       4.365  21.852  13.161  1.00  0.00     0.293 HD
ENDBRANCH   6  24
BRANCH   8  26
ATOM     26  O   UNL     1       3.566  25.792  10.025  1.00  0.00    -0.508 OA
ATOM     27  H   UNL     1       3.136  25.072   9.457  1.00  0.00     0.293 HD
ENDBRANCH   8  26
TORSDOF 6
ENDMDL
MODEL 4
REMARK VINA RESULT:    -5.790     20.719     22.102
REMARK INTER + INTRA:          -7.240
REMARK INTER:                  -6.957
REMARK INTRA:                  -0.283
REMARK UNBOUND:                -0.265
REMARK SMILES O=c1c(O)c(-c2ccc(O)c(O)c2)oc2cc(O)cc(O)c12
REMARK SMILES IDX 5 1 3 2 2 3 1 4 22 5 20 6 19 7 17 8 16 9 15 10 14 11 6 12
REMARK SMILES IDX 7 13 8 14 9 15 13 16 11 17 10 18 12 20 4 22 21 24 18 26
REMARK H PARENT 10 19 12 21 4 23 21 25 18 27
REMARK Flexibility Score: inf
ROOT
ATOM      1  C   UNL     1      -3.893  38.943  -0.097  1.00  0.00     0.180 A 
ATOM      2  C   UNL     1      -3.402  39.072   1.216  1.00  0.00     0.208 A 
ATOM      3  C   UNL     1      -2.218  39.795   1.430  1.00  0.00     0.238 A 
ATOM      4  O   UNL     1      -1.762  39.908   2.601  1.00  0.00    -0.285 OA
ATOM      5  C   UNL     1      -1.558  40.391   0.335  1.00  0.00     0.111 A 
ATOM      6  C   UNL     1      -0.362  41.139   0.466  1.00  0.00     0.134 A 
ATOM      7  C   UNL     1       0.229  41.709  -0.671  1.00  0.00     0.093 A 
ATOM      8  C   UNL     1      -0.349  41.547  -1.932  1.00  0.00     0.123 A 
ATOM      9  C   UNL     1      -1.529  40.809  -2.067  1.00  0.00     0.094 A 
ATOM     10  C   UNL     1      -2.134  40.232  -0.947  1.00  0.00     0.146 A 
ATOM     11  O   UNL     1      -3.251  39.532  -1.103  1.00  0.00    -0.452 OA
ENDROOT
BRANCH   1  12
ATOM     12  C   UNL     1      -5.123  38.181  -0.407  1.00  0.00     0.025 A 
ATOM     13  C   UNL     1      -6.399  38.720  -0.167  1.00  0.00     0.016 A 
ATOM     14  C   UNL     1      -7.546  37.972  -0.445  1.00  0.00     0.051 A 
ATOM     15  C   UNL     1      -7.439  36.675  -0.953  1.00  0.00     0.157 A 
ATOM     16  C   UNL     1      -5.019  36.869  -0.898  1.00  0.00     0.062 A 
ATOM     17  C   UNL     1      -6.169  36.118  -1.179  1.00  0.00     0.158 A 
BRANCH  15  18
ATOM     18  O   UNL     1      -8.601  35.954  -1.223  1.00  0.00    -0.504 OA
ATOM     19  H   UNL     1      -9.155  35.530  -0.488  1.00  0.00     0.293 HD
ENDBRANCH  15  18
BRANCH  17  20
ATOM     20  O   UNL     1      -6.054  34.821  -1.679  1.00  0.00    -0.504 OA
ATOM     21  H   UNL     1      -5.203  34.497  -2.122  1.00  0.00     0.293 HD
ENDBRANCH  17  20
ENDBRANCH   1  12
BRANCH   2  22
ATOM     22  O   UNL     1      -4.101  38.514   2.290  1.00  0.00    -0.502 OA
ATOM     23  H   UNL     1      -3.749  37.723   2.813  1.00  0.00     0.293 HD
ENDBRANCH   2  22
BRANCH   6  24
ATOM     24  O   UNL     1       0.240  41.320   1.712  1.00  0.00    -0.507 OA
ATOM     25  H   UNL     1      -0.024  40.764   2.518  1.00  0.00     0.293 HD
ENDBRANCH   6  24
BRANCH   8  26
ATOM     26  O   UNL     1       0.258  42.125  -3.045  1.00  0.00    -0.508 OA
ATOM     27  H   UNL     1      -0.247  42.756  -3.655  1.00  0.00     0.293 HD
ENDBRANCH   8  26
TORSDOF 6
ENDMDL
MODEL 5
REMARK VINA RESULT:    -5.786      3.998      6.690
REMARK INTER + INTRA:          -7.236
REMARK INTER:                  -7.057
REMARK INTRA:                  -0.179
REMARK UNBOUND:                -0.265
REMARK SMILES O=c1c(O)c(-c2ccc(O)c(O)c2)oc2cc(O)cc(O)c12
REMARK SMILES IDX 5 1 3 2 2 3 1 4 22 5 20 6 19 7 17 8 16 9 15 10 14 11 6 12
REMARK SMILES IDX 7 13 8 14 9 15 13 16 11 17 10 18 12 20 4 22 21 24 18 26
REMARK H PARENT 10 19 12 21 4 23 21 25 18 27
REMARK Flexibility Score: inf
ROOT
ATOM      1  C   UNL     1       7.004  27.065  14.218  1.00  0.00     0.180 A 
ATOM      2  C   UNL     1       6.282  27.412  13.060  1.00  0.00     0.208 A 
ATOM      3  C   UNL     1       5.283  26.542  12.598  1.00  0.00     0.238 A 
ATOM      4  O   UNL     1       4.637  26.836  11.555  1.00  0.00    -0.285 OA
ATOM      5  C   UNL     1       5.009  25.355  13.309  1.00  0.00     0.111 A 
ATOM      6  C   UNL     1       4.016  24.426  12.912  1.00  0.00     0.134 A 
ATOM      7  C   UNL     1       3.797  23.272  13.678  1.00  0.00     0.093 A 
ATOM      8  C   UNL     1       4.548  23.028  14.830  1.00  0.00     0.123 A 
ATOM      9  C   UNL     1       5.531  23.941  15.226  1.00  0.00     0.094 A 
ATOM     10  C   UNL     1       5.766  25.097  14.476  1.00  0.00     0.146 A 
ATOM     11  O   UNL     1       6.707  25.945  14.871  1.00  0.00    -0.452 OA
ENDROOT
BRANCH   1  12
ATOM     12  C   UNL     1       8.086  27.921  14.757  1.00  0.00     0.025 A 
ATOM     13  C   UNL     1       9.421  27.481  14.786  1.00  0.00     0.016 A 
ATOM     14  C   UNL     1      10.421  28.297  15.322  1.00  0.00     0.051 A 
ATOM     15  C   UNL     1      10.105  29.553  15.846  1.00  0.00     0.157 A 
ATOM     16  C   UNL     1       7.768  29.175  15.304  1.00  0.00     0.062 A 
ATOM     17  C   UNL     1       8.772  29.995  15.840  1.00  0.00     0.158 A 
BRANCH  15  18
ATOM     18  O   UNL     1      11.125  30.345  16.371  1.00  0.00    -0.504 OA
ATOM     19  H   UNL     1      10.943  31.086  17.038  1.00  0.00     0.293 HD
ENDBRANCH  15  18
BRANCH  17  20
ATOM     20  O   UNL     1       8.447  31.244  16.369  1.00  0.00    -0.504 OA
ATOM     21  H   UNL     1       8.440  32.078  15.793  1.00  0.00     0.293 HD
ENDBRANCH  17  20
ENDBRANCH   1  12
BRANCH   2  22
ATOM     22  O   UNL     1       6.539  28.618  12.403  1.00  0.00    -0.502 OA
ATOM     23  H   UNL     1       6.732  28.664  11.410  1.00  0.00     0.293 HD
ENDBRANCH   2  22
BRANCH   6  24
ATOM     24  O   UNL     1       3.247  24.642  11.767  1.00  0.00    -0.507 OA
ATOM     25  H   UNL     1       2.868  23.873  11.226  1.00  0.00     0.293 HD
ENDBRANCH   6  24
BRANCH   8  26
ATOM     26  O   UNL     1       4.309  21.875  15.573  1.00  0.00    -0.508 OA
ATOM     27  H   UNL     1       4.985  21.528  16.244  1.00  0.00     0.293 HD
ENDBRANCH   8  26
TORSDOF 6
ENDMDL
MODEL 6
REMARK VINA RESULT:    -5.777      1.955      6.931
REMARK INTER + INTRA:          -7.225
REMARK INTER:                  -7.219
REMARK INTRA:                  -0.005
REMARK UNBOUND:                -0.265
REMARK SMILES O=c1c(O)c(-c2ccc(O)c(O)c2)oc2cc(O)cc(O)c12
REMARK SMILES IDX 5 1 3 2 2 3 1 4 22 5 20 6 19 7 17 8 16 9 15 10 14 11 6 12
REMARK SMILES IDX 7 13 8 14 9 15 13 16 11 17 10 18 12 20 4 22 21 24 18 26
REMARK H PARENT 10 19 12 21 4 23 21 25 18 27
REMARK Flexibility Score: inf
ROOT
ATOM      1  C   UNL     1       7.240  26.324  13.946  1.00  0.00     0.180 A 
ATOM      2  C   UNL     1       6.202  25.504  14.429  1.00  0.00     0.208 A 
ATOM      3  C   UNL     1       5.909  24.311  13.751  1.00  0.00     0.238 A 
ATOM      4  O   UNL     1       4.974  23.574  14.168  1.00  0.00    -0.285 OA
ATOM      5  C   UNL     1       6.668  23.948  12.619  1.00  0.00     0.111 A 
ATOM      6  C   UNL     1       6.438  22.761  11.881  1.00  0.00     0.134 A 
ATOM      7  C   UNL     1       7.243  22.466  10.770  1.00  0.00     0.093 A 
ATOM      8  C   UNL     1       8.269  23.331  10.384  1.00  0.00     0.123 A 
ATOM      9  C   UNL     1       8.498  24.506  11.108  1.00  0.00     0.094 A 
ATOM     10  C   UNL     1       7.708  24.819  12.217  1.00  0.00     0.146 A 
ATOM     11  O   UNL     1       7.944  25.942  12.884  1.00  0.00    -0.452 OA
ENDROOT
BRANCH   1  12
ATOM     12  C   UNL     1       7.597  27.607  14.594  1.00  0.00     0.025 A 
ATOM     13  C   UNL     1       8.913  27.876  15.010  1.00  0.00     0.016 A 
ATOM     14  C   UNL     1       9.221  29.084  15.640  1.00  0.00     0.051 A 
ATOM     15  C   UNL     1       8.223  30.034  15.877  1.00  0.00     0.157 A 
ATOM     16  C   UNL     1       6.593  28.554  14.851  1.00  0.00     0.062 A 
ATOM     17  C   UNL     1       6.901  29.768  15.483  1.00  0.00     0.158 A 
BRANCH  15  18
ATOM     18  O   UNL     1       8.560  31.231  16.506  1.00  0.00    -0.504 OA
ATOM     19  H   UNL     1       8.796  31.275  17.490  1.00  0.00     0.293 HD
ENDBRANCH  15  18
BRANCH  17  20
ATOM     20  O   UNL     1       5.898  30.708  15.722  1.00  0.00    -0.504 OA
ATOM     21  H   UNL     1       4.935  30.429  15.872  1.00  0.00     0.293 HD
ENDBRANCH  17  20
ENDBRANCH   1  12
BRANCH   2  22
ATOM     22  O   UNL     1       5.499  25.862  15.583  1.00  0.00    -0.502 OA
ATOM     23  H   UNL     1       4.544  26.196  15.553  1.00  0.00     0.293 HD
ENDBRANCH   2  22
BRANCH   6  24
ATOM     24  O   UNL     1       5.422  21.875  12.243  1.00  0.00    -0.507 OA
ATOM     25  H   UNL     1       5.388  20.928  11.885  1.00  0.00     0.293 HD
ENDBRANCH   6  24
BRANCH   8  26
ATOM     26  O   UNL     1       9.054  23.014   9.278  1.00  0.00    -0.508 OA
ATOM     27  H   UNL     1       9.373  23.727   8.633  1.00  0.00     0.293 HD
ENDBRANCH   8  26
TORSDOF 6
ENDMDL
MODEL 7
REMARK VINA RESULT:    -5.578      2.537      7.156
REMARK INTER + INTRA:          -6.985
REMARK INTER:                  -6.969
REMARK INTRA:                  -0.016
REMARK UNBOUND:                -0.265
REMARK SMILES O=c1c(O)c(-c2ccc(O)c(O)c2)oc2cc(O)cc(O)c12
REMARK SMILES IDX 5 1 3 2 2 3 1 4 22 5 20 6 19 7 17 8 16 9 15 10 14 11 6 12
REMARK SMILES IDX 7 13 8 14 9 15 13 16 11 17 10 18 12 20 4 22 21 24 18 26
REMARK H PARENT 10 19 12 21 4 23 21 25 18 27
REMARK Flexibility Score: inf
ROOT
ATOM      1  C   UNL     1       7.171  26.035  13.683  1.00  0.00     0.180 A 
ATOM      2  C   UNL     1       7.967  25.537  12.634  1.00  0.00     0.208 A 
ATOM      3  C   UNL     1       7.583  24.346  11.998  1.00  0.00     0.238 A 
ATOM      4  O   UNL     1       8.295  23.884  11.064  1.00  0.00    -0.285 OA
ATOM      5  C   UNL     1       6.405  23.687  12.405  1.00  0.00     0.111 A 
ATOM      6  C   UNL     1       5.946  22.485  11.814  1.00  0.00     0.134 A 
ATOM      7  C   UNL     1       4.758  21.894  12.269  1.00  0.00     0.093 A 
ATOM      8  C   UNL     1       4.021  22.481  13.300  1.00  0.00     0.123 A 
ATOM      9  C   UNL     1       4.470  23.668  13.889  1.00  0.00     0.094 A 
ATOM     10  C   UNL     1       5.652  24.271  13.451  1.00  0.00     0.146 A 
ATOM     11  O   UNL     1       6.058  25.395  14.030  1.00  0.00    -0.452 OA
ENDROOT
BRANCH   1  12
ATOM     12  C   UNL     1       7.519  27.274  14.416  1.00  0.00     0.025 A 
ATOM     13  C   UNL     1       8.810  27.481  14.932  1.00  0.00     0.016 A 
ATOM     14  C   UNL     1       9.109  28.647  15.641  1.00  0.00     0.051 A 
ATOM     15  C   UNL     1       8.125  29.616  15.856  1.00  0.00     0.157 A 
ATOM     16  C   UNL     1       6.528  28.240  14.651  1.00  0.00     0.062 A 
ATOM     17  C   UNL     1       6.826  29.412  15.361  1.00  0.00     0.158 A 
BRANCH  15  18
ATOM     18  O   UNL     1       8.453  30.771  16.564  1.00  0.00    -0.504 OA
ATOM     19  H   UNL     1       8.790  31.609  16.105  1.00  0.00     0.293 HD
ENDBRANCH  15  18
BRANCH  17  20
ATOM     20  O   UNL     1       5.837  30.372  15.578  1.00  0.00    -0.504 OA
ATOM     21  H   UNL     1       5.725  30.824  16.477  1.00  0.00     0.293 HD
ENDBRANCH  17  20
ENDBRANCH   1  12
BRANCH   2  22
ATOM     22  O   UNL     1       9.103  26.235  12.216  1.00  0.00    -0.502 OA
ATOM     23  H   UNL     1       9.996  25.781  12.073  1.00  0.00     0.293 HD
ENDBRANCH   2  22
BRANCH   6  24
ATOM     24  O   UNL     1       6.659  21.875  10.780  1.00  0.00    -0.507 OA
ATOM     25  H   UNL     1       6.196  21.514   9.954  1.00  0.00     0.293 HD
ENDBRANCH   6  24
BRANCH   8  26
ATOM     26  O   UNL     1       2.844  21.875  13.733  1.00  0.00    -0.508 OA
ATOM     27  H   UNL     1       2.614  20.922  13.478  1.00  0.00     0.293 HD
ENDBRANCH   8  26
TORSDOF 6
ENDMDL
MODEL 8
REMARK VINA RESULT:    -5.456      3.484      4.514
REMARK INTER + INTRA:          -6.838
REMARK INTER:                  -6.672
REMARK INTRA:                  -0.167
REMARK UNBOUND:                -0.265
REMARK SMILES O=c1c(O)c(-c2ccc(O)c(O)c2)oc2cc(O)cc(O)c12
REMARK SMILES IDX 5 1 3 2 2 3 1 4 22 5 20 6 19 7 17 8 16 9 15 10 14 11 6 12
REMARK SMILES IDX 7 13 8 14 9 15 13 16 11 17 10 18 12 20 4 22 21 24 18 26
REMARK H PARENT 10 19 12 21 4 23 21 25 18 27
REMARK Flexibility Score: inf
ROOT
ATOM      1  C   UNL     1       6.746  26.010  14.008  1.00  0.00     0.180 A 
ATOM      2  C   UNL     1       8.102  25.676  14.189  1.00  0.00     0.208 A 
ATOM      3  C   UNL     1       8.967  26.632  14.744  1.00  0.00     0.238 A 
ATOM      4  O   UNL     1      10.186  26.348  14.901  1.00  0.00    -0.285 OA
ATOM      5  C   UNL     1       8.462  27.892  15.127  1.00  0.00     0.111 A 
ATOM      6  C   UNL     1       9.266  28.908  15.697  1.00  0.00     0.134 A 
ATOM      7  C   UNL     1       8.686  30.133  16.059  1.00  0.00     0.093 A 
ATOM      8  C   UNL     1       7.322  30.361  15.865  1.00  0.00     0.123 A 
ATOM      9  C   UNL     1       6.523  29.361  15.300  1.00  0.00     0.094 A 
ATOM     10  C   UNL     1       7.081  28.134  14.931  1.00  0.00     0.146 A 
ATOM     11  O   UNL     1       6.302  27.203  14.394  1.00  0.00    -0.452 OA
ENDROOT
BRANCH   1  12
ATOM     12  C   UNL     1       5.775  25.065  13.411  1.00  0.00     0.025 A 
ATOM     13  C   UNL     1       5.443  23.857  14.048  1.00  0.00     0.016 A 
ATOM     14  C   UNL     1       4.542  22.969  13.453  1.00  0.00     0.051 A 
ATOM     15  C   UNL     1       3.969  23.267  12.214  1.00  0.00     0.157 A 
ATOM     16  C   UNL     1       5.214  25.352  12.156  1.00  0.00     0.062 A 
ATOM     17  C   UNL     1       4.308  24.462  11.559  1.00  0.00     0.158 A 
BRANCH  15  18
ATOM     18  O   UNL     1       3.072  22.363  11.647  1.00  0.00    -0.504 OA
ATOM     19  H   UNL     1       3.275  21.871  10.785  1.00  0.00     0.293 HD
ENDBRANCH  15  18
BRANCH  17  20
ATOM     20  O   UNL     1       3.747  24.763  10.318  1.00  0.00    -0.504 OA
ATOM     21  H   UNL     1       3.725  24.083   9.567  1.00  0.00     0.293 HD
ENDBRANCH  17  20
ENDBRANCH   1  12
BRANCH   2  22
ATOM     22  O   UNL     1       8.567  24.404  13.848  1.00  0.00    -0.502 OA
ATOM     23  H   UNL     1       8.631  24.089  12.888  1.00  0.00     0.293 HD
ENDBRANCH   2  22
BRANCH   6  24
ATOM     24  O   UNL     1      10.632  28.711  15.906  1.00  0.00    -0.507 OA
ATOM     25  H   UNL     1      10.991  28.349  16.782  1.00  0.00     0.293 HD
ENDBRANCH   6  24
BRANCH   8  26
ATOM     26  O   UNL     1       6.771  31.585  16.235  1.00  0.00    -0.508 OA
ATOM     27  H   UNL     1       6.124  31.662  17.011  1.00  0.00     0.293 HD
ENDBRANCH   8  26
TORSDOF 6
ENDMDL
MODEL 9
REMARK VINA RESULT:    -5.402     21.327     21.921
REMARK INTER + INTRA:          -6.773
REMARK INTER:                  -7.081
REMARK INTRA:                   0.309
REMARK UNBOUND:                -0.265
REMARK SMILES O=c1c(O)c(-c2ccc(O)c(O)c2)oc2cc(O)cc(O)c12
REMARK SMILES IDX 5 1 3 2 2 3 1 4 22 5 20 6 19 7 17 8 16 9 15 10 14 11 6 12
REMARK SMILES IDX 7 13 8 14 9 15 13 16 11 17 10 18 12 20 4 22 21 24 18 26
REMARK H PARENT 10 19 12 21 4 23 21 25 18 27
REMARK Flexibility Score: inf
ROOT
ATOM      1  C   UNL     1      -3.653  39.789   0.350  1.00  0.00     0.180 A 
ATOM      2  C   UNL     1      -4.460  38.697  -0.022  1.00  0.00     0.208 A 
ATOM      3  C   UNL     1      -5.386  38.191   0.903  1.00  0.00     0.238 A 
ATOM      4  O   UNL     1      -6.107  37.206   0.584  1.00  0.00    -0.285 OA
ATOM      5  C   UNL     1      -5.504  38.795   2.172  1.00  0.00     0.111 A 
ATOM      6  C   UNL     1      -6.415  38.348   3.160  1.00  0.00     0.134 A 
ATOM      7  C   UNL     1      -6.479  39.008   4.396  1.00  0.00     0.093 A 
ATOM      8  C   UNL     1      -5.653  40.103   4.663  1.00  0.00     0.123 A 
ATOM      9  C   UNL     1      -4.751  40.547   3.691  1.00  0.00     0.094 A 
ATOM     10  C   UNL     1      -4.670  39.903   2.454  1.00  0.00     0.146 A 
ATOM     11  O   UNL     1      -3.802  40.342   1.551  1.00  0.00    -0.452 OA
ENDROOT
BRANCH   1  12
ATOM     12  C   UNL     1      -2.639  40.366  -0.562  1.00  0.00     0.025 A 
ATOM     13  C   UNL     1      -2.771  40.269  -1.958  1.00  0.00     0.016 A 
ATOM     14  C   UNL     1      -1.789  40.801  -2.799  1.00  0.00     0.051 A 
ATOM     15  C   UNL     1      -0.660  41.425  -2.261  1.00  0.00     0.157 A 
ATOM     16  C   UNL     1      -1.493  40.975  -0.025  1.00  0.00     0.062 A 
ATOM     17  C   UNL     1      -0.508  41.511  -0.867  1.00  0.00     0.158 A 
BRANCH  15  18
ATOM     18  O   UNL     1       0.302  41.948  -3.124  1.00  0.00    -0.504 OA
ATOM     19  H   UNL     1       0.950  42.671  -2.835  1.00  0.00     0.293 HD
ENDBRANCH  15  18
BRANCH  17  20
ATOM     20  O   UNL     1       0.620  42.125  -0.324  1.00  0.00    -0.504 OA
ATOM     21  H   UNL     1       1.066  41.769   0.514  1.00  0.00     0.293 HD
ENDBRANCH  17  20
ENDBRANCH   1  12
BRANCH   2  22
ATOM     22  O   UNL     1      -4.358  38.148  -1.304  1.00  0.00    -0.502 OA
ATOM     23  H   UNL     1      -4.513  38.695  -2.141  1.00  0.00     0.293 HD
ENDBRANCH   2  22
BRANCH   6  24
ATOM     24  O   UNL     1      -7.255  37.259   2.924  1.00  0.00    -0.507 OA
ATOM     25  H   UNL     1      -6.891  36.359   2.633  1.00  0.00     0.293 HD
ENDBRANCH   6  24
BRANCH   8  26
ATOM     26  O   UNL     1      -5.738  40.741   5.898  1.00  0.00    -0.508 OA
ATOM     27  H   UNL     1      -5.714  41.751   5.975  1.00  0.00     0.293 HD
ENDBRANCH   8  26
TORSDOF 6
ENDMDL
