MODEL 1
REMARK VINA RESULT:    -3.171      0.000      0.000
REMARK INTER + INTRA:         -14.142
REMARK INTER:                  -8.361
REMARK INTRA:                  -5.781
REMARK UNBOUND:                -5.781
REMARK SMILES CCCCCCCCCCCCCCCCCCCCCCCCCCCCCC(=O)[O-]
REMARK SMILES IDX 16 1 17 2 18 3 19 4 20 5 21 6 22 7 23 8 24 9 25 10 26 11
REMARK SMILES IDX 27 12 28 13 29 14 30 15 31 16 32 17 15 18 14 19 13 20 12 21
REMARK SMILES IDX 11 22 10 23 9 24 8 25 7 26 6 27 5 28 4 29 3 30 2 31 1 32
REMARK H PARENT
REMARK Flexibility Score: inf
ROOT
ATOM      1  C   UNL     1      27.860  42.428   3.778  1.00  0.00     0.000 C 
ENDROOT
BRANCH   1   2
ATOM      2  C   UNL     1      28.695  43.485   4.522  1.00  0.00     0.000 C 
BRANCH   2   3
ATOM      3  C   UNL     1      29.216  42.979   5.879  1.00  0.00     0.000 C 
BRANCH   3   4
ATOM      4  C   UNL     1      29.595  44.132   6.824  1.00  0.00     0.000 C 
BRANCH   4   5
ATOM      5  C   UNL     1      29.039  45.485   6.347  1.00  0.00     0.000 C 
BRANCH   5   6
ATOM      6  C   UNL     1      27.782  45.917   7.125  1.00  0.00     0.000 C 
BRANCH   6   7
ATOM      7  C   UNL     1      26.514  46.097   6.263  1.00  0.00     0.000 C 
BRANCH   7   8
ATOM      8  C   UNL     1      25.542  44.899   6.265  1.00  0.00     0.000 C 
BRANCH   8   9
ATOM      9  C   UNL     1      25.924  43.754   7.220  1.00  0.00     0.000 C 
BRANCH   9  10
ATOM     10  C   UNL     1      24.986  43.649   8.433  1.00  0.00     0.000 C 
BRANCH  10  11
ATOM     11  C   UNL     1      25.654  44.222   9.690  1.00  0.00     0.000 C 
BRANCH  11  12
ATOM     12  C   UNL     1      27.097  43.709   9.828  1.00  0.00     0.000 C 
BRANCH  12  13
ATOM     13  C   UNL     1      27.195  42.423  10.670  1.00  0.00     0.006 C 
BRANCH  13  14
ATOM     14  C   UNL     1      27.599  41.172   9.873  1.00  0.00     0.053 C 
BRANCH  14  15
ATOM     15  C   UNL     1      26.591  40.072   9.999  1.00  0.00     0.041 C 
ATOM     16  O   UNL     1      26.944  38.933  10.400  1.00  0.00    -0.550 OA
ATOM     17  O   UNL     1      25.254  40.316   9.707  1.00  0.00    -0.550 OA
ENDBRANCH  14  15
ENDBRANCH  13  14
ENDBRANCH  12  13
ENDBRANCH  11  12
ENDBRANCH  10  11
ENDBRANCH   9  10
ENDBRANCH   8   9
ENDBRANCH   7   8
ENDBRANCH   6   7
ENDBRANCH   5   6
ENDBRANCH   4   5
ENDBRANCH   3   4
ENDBRANCH   2   3
ENDBRANCH   1   2
BRANCH   1  18
ATOM     18  C   UNL     1      26.350  42.751   3.704  1.00  0.00     0.000 C 
BRANCH  18  19
ATOM     19  C   UNL     1      25.518  41.682   2.968  1.00  0.00     0.000 C 
BRANCH  19  20
ATOM     20  C   UNL     1      24.192  41.302   3.655  1.00  0.00     0.000 C 
BRANCH  20  21
ATOM     21  C   UNL     1      24.253  41.224   5.194  1.00  0.00     0.000 C 
BRANCH  21  22
ATOM     22  C   UNL     1      23.880  39.838   5.740  1.00  0.00     0.000 C 
BRANCH  22  23
ATOM     23  C   UNL     1      25.050  39.229   6.527  1.00  0.00     0.000 C 
BRANCH  23  24
ATOM     24  C   UNL     1      26.371  39.984   6.299  1.00  0.00    -0.000 C 
BRANCH  24  25
ATOM     25  C   UNL     1      27.303  39.259   5.314  1.00  0.00    -0.000 C 
BRANCH  25  26
ATOM     26  C   UNL     1      26.625  38.060   4.631  1.00  0.00    -0.000 C 
BRANCH  26  27
ATOM     27  C   UNL     1      26.617  38.170   3.099  1.00  0.00    -0.000 C 
BRANCH  27  28
ATOM     28  C   UNL     1      27.948  38.731   2.584  1.00  0.00    -0.000 C 
BRANCH  28  29
ATOM     29  C   UNL     1      27.743  39.536   1.290  1.00  0.00    -0.000 C 
BRANCH  29  30
ATOM     30  C   UNL     1      26.570  39.012   0.446  1.00  0.00    -0.000 C 
BRANCH  30  31
ATOM     31  C   UNL     1      26.837  39.119  -1.062  1.00  0.00    -0.003 C 
ATOM     32  C   UNL     1      25.913  40.147  -1.710  1.00  0.00     0.004 C 
ENDBRANCH  30  31
ENDBRANCH  29  30
ENDBRANCH  28  29
ENDBRANCH  27  28
ENDBRANCH  26  27
ENDBRANCH  25  26
ENDBRANCH  24  25
ENDBRANCH  23  24
ENDBRANCH  22  23
ENDBRANCH  21  22
ENDBRANCH  20  21
ENDBRANCH  19  20
ENDBRANCH  18  19
ENDBRANCH   1  18
TORSDOF 28
ENDMDL
MODEL 2
REMARK VINA RESULT:    -3.121      1.828      4.805
REMARK INTER + INTRA:         -14.011
REMARK INTER:                  -8.544
REMARK INTRA:                  -5.467
REMARK UNBOUND:                -5.781
REMARK SMILES CCCCCCCCCCCCCCCCCCCCCCCCCCCCCC(=O)[O-]
REMARK SMILES IDX 16 1 17 2 18 3 19 4 20 5 21 6 22 7 23 8 24 9 25 10 26 11
REMARK SMILES IDX 27 12 28 13 29 14 30 15 31 16 32 17 15 18 14 19 13 20 12 21
REMARK SMILES IDX 11 22 10 23 9 24 8 25 7 26 6 27 5 28 4 29 3 30 2 31 1 32
REMARK H PARENT
REMARK Flexibility Score: inf
ROOT
ATOM      1  C   UNL     1      29.142  38.877   1.888  1.00  0.00     0.000 C 
ENDROOT
BRANCH   1   2
ATOM      2  C   UNL     1      28.031  39.221   2.895  1.00  0.00     0.000 C 
BRANCH   2   3
ATOM      3  C   UNL     1      27.645  40.711   2.864  1.00  0.00     0.000 C 
BRANCH   3   4
ATOM      4  C   UNL     1      28.399  41.529   3.925  1.00  0.00     0.000 C 
BRANCH   4   5
ATOM      5  C   UNL     1      27.447  42.227   4.911  1.00  0.00     0.000 C 
BRANCH   5   6
ATOM      6  C   UNL     1      26.913  43.567   4.374  1.00  0.00     0.000 C 
BRANCH   6   7
ATOM      7  C   UNL     1      26.786  44.687   5.429  1.00  0.00     0.000 C 
BRANCH   7   8
ATOM      8  C   UNL     1      25.342  45.087   5.794  1.00  0.00     0.000 C 
BRANCH   8   9
ATOM      9  C   UNL     1      24.382  43.907   6.034  1.00  0.00     0.000 C 
BRANCH   9  10
ATOM     10  C   UNL     1      24.030  43.716   7.517  1.00  0.00     0.000 C 
BRANCH  10  11
ATOM     11  C   UNL     1      25.215  43.119   8.287  1.00  0.00     0.000 C 
BRANCH  11  12
ATOM     12  C   UNL     1      25.589  43.998   9.491  1.00  0.00     0.000 C 
BRANCH  12  13
ATOM     13  C   UNL     1      26.818  44.887   9.222  1.00  0.00     0.006 C 
BRANCH  13  14
ATOM     14  C   UNL     1      28.141  44.116   9.083  1.00  0.00     0.053 C 
BRANCH  14  15
ATOM     15  C   UNL     1      28.546  43.455  10.365  1.00  0.00     0.041 C 
ATOM     16  O   UNL     1      28.854  44.152  11.366  1.00  0.00    -0.550 OA
ATOM     17  O   UNL     1      28.549  42.069  10.463  1.00  0.00    -0.550 OA
ENDBRANCH  14  15
ENDBRANCH  13  14
ENDBRANCH  12  13
ENDBRANCH  11  12
ENDBRANCH  10  11
ENDBRANCH   9  10
ENDBRANCH   8   9
ENDBRANCH   7   8
ENDBRANCH   6   7
ENDBRANCH   5   6
ENDBRANCH   4   5
ENDBRANCH   3   4
ENDBRANCH   2   3
ENDBRANCH   1   2
BRANCH   1  18
ATOM     18  C   UNL     1      28.636  38.198   0.594  1.00  0.00     0.000 C 
BRANCH  18  19
ATOM     19  C   UNL     1      28.226  39.191  -0.512  1.00  0.00     0.000 C 
BRANCH  19  20
ATOM     20  C   UNL     1      27.152  38.672  -1.488  1.00  0.00     0.000 C 
BRANCH  20  21
ATOM     21  C   UNL     1      25.811  39.432  -1.446  1.00  0.00     0.000 C 
BRANCH  21  22
ATOM     22  C   UNL     1      25.467  39.966  -0.048  1.00  0.00     0.000 C 
BRANCH  22  23
ATOM     23  C   UNL     1      24.866  38.856   0.828  1.00  0.00     0.000 C 
BRANCH  23  24
ATOM     24  C   UNL     1      23.899  39.403   1.891  1.00  0.00    -0.000 C 
BRANCH  24  25
ATOM     25  C   UNL     1      24.203  40.863   2.270  1.00  0.00    -0.000 C 
BRANCH  25  26
ATOM     26  C   UNL     1      24.092  41.117   3.782  1.00  0.00    -0.000 C 
BRANCH  26  27
ATOM     27  C   UNL     1      24.483  39.893   4.624  1.00  0.00    -0.000 C 
BRANCH  27  28
ATOM     28  C   UNL     1      24.263  40.163   6.118  1.00  0.00    -0.000 C 
BRANCH  28  29
ATOM     29  C   UNL     1      25.530  39.844   6.928  1.00  0.00    -0.000 C 
BRANCH  29  30
ATOM     30  C   UNL     1      26.088  38.444   6.627  1.00  0.00    -0.000 C 
BRANCH  30  31
ATOM     31  C   UNL     1      27.616  38.439   6.476  1.00  0.00    -0.003 C 
ATOM     32  C   UNL     1      28.247  39.588   7.258  1.00  0.00     0.004 C 
ENDBRANCH  30  31
ENDBRANCH  29  30
ENDBRANCH  28  29
ENDBRANCH  27  28
ENDBRANCH  26  27
ENDBRANCH  25  26
ENDBRANCH  24  25
ENDBRANCH  23  24
ENDBRANCH  22  23
ENDBRANCH  21  22
ENDBRANCH  20  21
ENDBRANCH  19  20
ENDBRANCH  18  19
ENDBRANCH   1  18
TORSDOF 28
ENDMDL
MODEL 3
REMARK VINA RESULT:    -3.102      3.104      5.552
REMARK INTER + INTRA:         -13.960
REMARK INTER:                  -9.020
REMARK INTRA:                  -4.940
REMARK UNBOUND:                -5.781
REMARK SMILES CCCCCCCCCCCCCCCCCCCCCCCCCCCCCC(=O)[O-]
REMARK SMILES IDX 16 1 17 2 18 3 19 4 20 5 21 6 22 7 23 8 24 9 25 10 26 11
REMARK SMILES IDX 27 12 28 13 29 14 30 15 31 16 32 17 15 18 14 19 13 20 12 21
REMARK SMILES IDX 11 22 10 23 9 24 8 25 7 26 6 27 5 28 4 29 3 30 2 31 1 32
REMARK H PARENT
REMARK Flexibility Score: inf
ROOT
ATOM      1  C   UNL     1      25.055  42.338   4.858  1.00  0.00     0.000 C 
ENDROOT
BRANCH   1   2
ATOM      2  C   UNL     1      24.505  42.876   6.191  1.00  0.00     0.000 C 
BRANCH   2   3
ATOM      3  C   UNL     1      24.680  44.400   6.330  1.00  0.00     0.000 C 
BRANCH   3   4
ATOM      4  C   UNL     1      25.743  44.954   5.368  1.00  0.00     0.000 C 
BRANCH   4   5
ATOM      5  C   UNL     1      26.175  46.384   5.734  1.00  0.00     0.000 C 
BRANCH   5   6
ATOM      6  C   UNL     1      27.553  46.432   6.418  1.00  0.00     0.000 C 
BRANCH   6   7
ATOM      7  C   UNL     1      27.541  46.114   7.928  1.00  0.00     0.000 C 
BRANCH   7   8
ATOM      8  C   UNL     1      28.575  45.067   8.390  1.00  0.00     0.000 C 
BRANCH   8   9
ATOM      9  C   UNL     1      27.988  43.688   8.747  1.00  0.00     0.000 C 
BRANCH   9  10
ATOM     10  C   UNL     1      27.860  42.761   7.529  1.00  0.00     0.000 C 
BRANCH  10  11
ATOM     11  C   UNL     1      29.088  42.884   6.618  1.00  0.00     0.000 C 
BRANCH  11  12
ATOM     12  C   UNL     1      28.686  42.788   5.138  1.00  0.00     0.000 C 
BRANCH  12  13
ATOM     13  C   UNL     1      29.537  43.694   4.229  1.00  0.00     0.006 C 
BRANCH  13  14
ATOM     14  C   UNL     1      30.626  44.491   4.966  1.00  0.00     0.053 C 
BRANCH  14  15
ATOM     15  C   UNL     1      31.498  45.262   4.023  1.00  0.00     0.041 C 
ATOM     16  O   UNL     1      32.128  46.273   4.427  1.00  0.00    -0.550 OA
ATOM     17  O   UNL     1      31.641  44.841   2.706  1.00  0.00    -0.550 OA
ENDBRANCH  14  15
ENDBRANCH  13  14
ENDBRANCH  12  13
ENDBRANCH  11  12
ENDBRANCH  10  11
ENDBRANCH   9  10
ENDBRANCH   8   9
ENDBRANCH   7   8
ENDBRANCH   6   7
ENDBRANCH   5   6
ENDBRANCH   4   5
ENDBRANCH   3   4
ENDBRANCH   2   3
ENDBRANCH   1   2
BRANCH   1  18
ATOM     18  C   UNL     1      24.157  41.275   4.186  1.00  0.00     0.000 C 
BRANCH  18  19
ATOM     19  C   UNL     1      24.407  41.112   2.673  1.00  0.00     0.000 C 
BRANCH  19  20
ATOM     20  C   UNL     1      24.237  39.678   2.136  1.00  0.00     0.000 C 
BRANCH  20  21
ATOM     21  C   UNL     1      24.079  39.570   0.605  1.00  0.00     0.000 C 
BRANCH  21  22
ATOM     22  C   UNL     1      25.389  39.205  -0.109  1.00  0.00     0.000 C 
BRANCH  22  23
ATOM     23  C   UNL     1      25.514  39.963  -1.440  1.00  0.00     0.000 C 
BRANCH  23  24
ATOM     24  C   UNL     1      26.948  39.944  -1.996  1.00  0.00    -0.000 C 
BRANCH  24  25
ATOM     25  C   UNL     1      27.689  38.634  -1.673  1.00  0.00    -0.000 C 
BRANCH  25  26
ATOM     26  C   UNL     1      29.052  38.874  -1.004  1.00  0.00    -0.000 C 
BRANCH  26  27
ATOM     27  C   UNL     1      29.303  37.946   0.194  1.00  0.00    -0.000 C 
BRANCH  27  28
ATOM     28  C   UNL     1      29.265  38.730   1.511  1.00  0.00    -0.000 C 
BRANCH  28  29
ATOM     29  C   UNL     1      27.867  38.670   2.148  1.00  0.00    -0.000 C 
BRANCH  29  30
ATOM     30  C   UNL     1      27.756  39.534   3.414  1.00  0.00    -0.000 C 
BRANCH  30  31
ATOM     31  C   UNL     1      26.997  38.825   4.546  1.00  0.00    -0.003 C 
ATOM     32  C   UNL     1      27.208  39.540   5.878  1.00  0.00     0.004 C 
ENDBRANCH  30  31
ENDBRANCH  29  30
ENDBRANCH  28  29
ENDBRANCH  27  28
ENDBRANCH  26  27
ENDBRANCH  25  26
ENDBRANCH  24  25
ENDBRANCH  23  24
ENDBRANCH  22  23
ENDBRANCH  21  22
ENDBRANCH  20  21
ENDBRANCH  19  20
ENDBRANCH  18  19
ENDBRANCH   1  18
TORSDOF 28
ENDMDL
MODEL 4
REMARK VINA RESULT:    -3.099      3.028      4.576
REMARK INTER + INTRA:         -13.954
REMARK INTER:                  -8.264
REMARK INTRA:                  -5.690
REMARK UNBOUND:                -5.781
REMARK SMILES CCCCCCCCCCCCCCCCCCCCCCCCCCCCCC(=O)[O-]
REMARK SMILES IDX 16 1 17 2 18 3 19 4 20 5 21 6 22 7 23 8 24 9 25 10 26 11
REMARK SMILES IDX 27 12 28 13 29 14 30 15 31 16 32 17 15 18 14 19 13 20 12 21
REMARK SMILES IDX 11 22 10 23 9 24 8 25 7 26 6 27 5 28 4 29 3 30 2 31 1 32
REMARK H PARENT
REMARK Flexibility Score: inf
ROOT
ATOM      1  C   UNL     1      28.678  40.836   5.389  1.00  0.00     0.000 C 
ENDROOT
BRANCH   1   2
ATOM      2  C   UNL     1      27.459  40.816   6.328  1.00  0.00     0.000 C 
BRANCH   2   3
ATOM      3  C   UNL     1      27.720  41.556   7.652  1.00  0.00     0.000 C 
BRANCH   3   4
ATOM      4  C   UNL     1      26.423  41.830   8.431  1.00  0.00     0.000 C 
BRANCH   4   5
ATOM      5  C   UNL     1      25.275  42.287   7.514  1.00  0.00     0.000 C 
BRANCH   5   6
ATOM      6  C   UNL     1      24.956  43.786   7.664  1.00  0.00     0.000 C 
BRANCH   6   7
ATOM      7  C   UNL     1      24.883  44.571   6.338  1.00  0.00     0.000 C 
BRANCH   7   8
ATOM      8  C   UNL     1      26.096  45.476   6.040  1.00  0.00     0.000 C 
BRANCH   8   9
ATOM      9  C   UNL     1      27.239  45.390   7.069  1.00  0.00     0.000 C 
BRANCH   9  10
ATOM     10  C   UNL     1      28.628  45.536   6.431  1.00  0.00     0.000 C 
BRANCH  10  11
ATOM     11  C   UNL     1      29.609  44.514   7.019  1.00  0.00     0.000 C 
BRANCH  11  12
ATOM     12  C   UNL     1      30.733  44.192   6.021  1.00  0.00     0.000 C 
BRANCH  12  13
ATOM     13  C   UNL     1      31.788  45.309   5.930  1.00  0.00     0.006 C 
BRANCH  13  14
ATOM     14  C   UNL     1      31.888  45.979   4.549  1.00  0.00     0.053 C 
BRANCH  14  15
ATOM     15  C   UNL     1      32.096  44.980   3.452  1.00  0.00     0.041 C 
ATOM     16  O   UNL     1      33.204  44.396   3.330  1.00  0.00    -0.550 OA
ATOM     17  O   UNL     1      31.054  44.669   2.587  1.00  0.00    -0.550 OA
ENDBRANCH  14  15
ENDBRANCH  13  14
ENDBRANCH  12  13
ENDBRANCH  11  12
ENDBRANCH  10  11
ENDBRANCH   9  10
ENDBRANCH   8   9
ENDBRANCH   7   8
ENDBRANCH   6   7
ENDBRANCH   5   6
ENDBRANCH   4   5
ENDBRANCH   3   4
ENDBRANCH   2   3
ENDBRANCH   1   2
BRANCH   1  18
ATOM     18  C   UNL     1      28.382  41.393   3.978  1.00  0.00     0.000 C 
BRANCH  18  19
ATOM     19  C   UNL     1      27.920  42.863   3.971  1.00  0.00     0.000 C 
BRANCH  19  20
ATOM     20  C   UNL     1      26.470  43.088   3.499  1.00  0.00     0.000 C 
BRANCH  20  21
ATOM     21  C   UNL     1      25.664  41.801   3.233  1.00  0.00     0.000 C 
BRANCH  21  22
ATOM     22  C   UNL     1      24.365  41.726   4.049  1.00  0.00     0.000 C 
BRANCH  22  23
ATOM     23  C   UNL     1      24.153  40.310   4.608  1.00  0.00     0.000 C 
BRANCH  23  24
ATOM     24  C   UNL     1      24.429  39.217   3.562  1.00  0.00    -0.000 C 
BRANCH  24  25
ATOM     25  C   UNL     1      25.157  38.000   4.159  1.00  0.00    -0.000 C 
BRANCH  25  26
ATOM     26  C   UNL     1      26.656  37.982   3.818  1.00  0.00    -0.000 C 
BRANCH  26  27
ATOM     27  C   UNL     1      26.926  37.726   2.327  1.00  0.00    -0.000 C 
BRANCH  27  28
ATOM     28  C   UNL     1      28.116  38.561   1.836  1.00  0.00    -0.000 C 
BRANCH  28  29
ATOM     29  C   UNL     1      27.799  39.233   0.490  1.00  0.00    -0.000 C 
BRANCH  29  30
ATOM     30  C   UNL     1      26.329  39.668   0.377  1.00  0.00    -0.000 C 
BRANCH  30  31
ATOM     31  C   UNL     1      25.702  39.280  -0.970  1.00  0.00    -0.003 C 
ATOM     32  C   UNL     1      25.915  40.377  -2.009  1.00  0.00     0.004 C 
ENDBRANCH  30  31
ENDBRANCH  29  30
ENDBRANCH  28  29
ENDBRANCH  27  28
ENDBRANCH  26  27
ENDBRANCH  25  26
ENDBRANCH  24  25
ENDBRANCH  23  24
ENDBRANCH  22  23
ENDBRANCH  21  22
ENDBRANCH  20  21
ENDBRANCH  19  20
ENDBRANCH  18  19
ENDBRANCH   1  18
TORSDOF 28
ENDMDL
MODEL 5
REMARK VINA RESULT:    -3.021      1.931      7.178
REMARK INTER + INTRA:         -13.748
REMARK INTER:                  -8.201
REMARK INTRA:                  -5.547
REMARK UNBOUND:                -5.781
REMARK SMILES CCCCCCCCCCCCCCCCCCCCCCCCCCCCCC(=O)[O-]
REMARK SMILES IDX 16 1 17 2 18 3 19 4 20 5 21 6 22 7 23 8 24 9 25 10 26 11
REMARK SMILES IDX 27 12 28 13 29 14 30 15 31 16 32 17 15 18 14 19 13 20 12 21
REMARK SMILES IDX 11 22 10 23 9 24 8 25 7 26 6 27 5 28 4 29 3 30 2 31 1 32
REMARK H PARENT
REMARK Flexibility Score: inf
ROOT
ATOM      1  C   UNL     1      24.627  41.361   3.263  1.00  0.00     0.000 C 
ENDROOT
BRANCH   1   2
ATOM      2  C   UNL     1      23.892  40.739   2.063  1.00  0.00     0.000 C 
BRANCH   2   3
ATOM      3  C   UNL     1      24.208  39.242   1.887  1.00  0.00     0.000 C 
BRANCH   3   4
ATOM      4  C   UNL     1      24.568  38.890   0.435  1.00  0.00     0.000 C 
BRANCH   4   5
ATOM      5  C   UNL     1      25.392  39.995  -0.248  1.00  0.00     0.000 C 
BRANCH   5   6
ATOM      6  C   UNL     1      25.855  39.602  -1.663  1.00  0.00     0.000 C 
BRANCH   6   7
ATOM      7  C   UNL     1      27.383  39.634  -1.880  1.00  0.00     0.000 C 
BRANCH   7   8
ATOM      8  C   UNL     1      28.085  38.261  -1.828  1.00  0.00     0.000 C 
BRANCH   8   9
ATOM      9  C   UNL     1      29.004  38.047  -0.611  1.00  0.00     0.000 C 
BRANCH   9  10
ATOM     10  C   UNL     1      28.229  37.931   0.710  1.00  0.00     0.000 C 
BRANCH  10  11
ATOM     11  C   UNL     1      28.633  39.049   1.680  1.00  0.00     0.000 C 
BRANCH  11  12
ATOM     12  C   UNL     1      27.625  39.167   2.834  1.00  0.00     0.000 C 
BRANCH  12  13
ATOM     13  C   UNL     1      27.715  37.993   3.826  1.00  0.00     0.006 C 
BRANCH  13  14
ATOM     14  C   UNL     1      26.362  37.347   4.170  1.00  0.00     0.053 C 
BRANCH  14  15
ATOM     15  C   UNL     1      26.364  36.725   5.532  1.00  0.00     0.041 C 
ATOM     16  O   UNL     1      26.114  35.499   5.667  1.00  0.00    -0.550 OA
ATOM     17  O   UNL     1      26.675  37.492   6.648  1.00  0.00    -0.550 OA
ENDBRANCH  14  15
ENDBRANCH  13  14
ENDBRANCH  12  13
ENDBRANCH  11  12
ENDBRANCH  10  11
ENDBRANCH   9  10
ENDBRANCH   8   9
ENDBRANCH   7   8
ENDBRANCH   6   7
ENDBRANCH   5   6
ENDBRANCH   4   5
ENDBRANCH   3   4
ENDBRANCH   2   3
ENDBRANCH   1   2
BRANCH   1  18
ATOM     18  C   UNL     1      23.884  41.205   4.610  1.00  0.00     0.000 C 
BRANCH  18  19
ATOM     19  C   UNL     1      24.692  40.449   5.684  1.00  0.00     0.000 C 
BRANCH  19  20
ATOM     20  C   UNL     1      26.181  40.836   5.772  1.00  0.00     0.000 C 
BRANCH  20  21
ATOM     21  C   UNL     1      26.643  41.343   7.153  1.00  0.00     0.000 C 
BRANCH  21  22
ATOM     22  C   UNL     1      25.474  41.672   8.094  1.00  0.00     0.000 C 
BRANCH  22  23
ATOM     23  C   UNL     1      25.316  43.192   8.257  1.00  0.00     0.000 C 
BRANCH  23  24
ATOM     24  C   UNL     1      24.118  43.748   7.469  1.00  0.00    -0.000 C 
BRANCH  24  25
ATOM     25  C   UNL     1      24.520  44.282   6.082  1.00  0.00    -0.000 C 
BRANCH  25  26
ATOM     26  C   UNL     1      25.797  45.137   6.125  1.00  0.00    -0.000 C 
BRANCH  26  27
ATOM     27  C   UNL     1      26.954  44.524   5.322  1.00  0.00    -0.000 C 
BRANCH  27  28
ATOM     28  C   UNL     1      28.247  44.513   6.146  1.00  0.00    -0.000 C 
BRANCH  28  29
ATOM     29  C   UNL     1      29.453  44.123   5.275  1.00  0.00    -0.000 C 
BRANCH  29  30
ATOM     30  C   UNL     1      29.051  43.288   4.049  1.00  0.00    -0.000 C 
BRANCH  30  31
ATOM     31  C   UNL     1      29.303  41.786   4.251  1.00  0.00    -0.003 C 
ATOM     32  C   UNL     1      30.764  41.436   3.982  1.00  0.00     0.004 C 
ENDBRANCH  30  31
ENDBRANCH  29  30
ENDBRANCH  28  29
ENDBRANCH  27  28
ENDBRANCH  26  27
ENDBRANCH  25  26
ENDBRANCH  24  25
ENDBRANCH  23  24
ENDBRANCH  22  23
ENDBRANCH  21  22
ENDBRANCH  20  21
ENDBRANCH  19  20
ENDBRANCH  18  19
ENDBRANCH   1  18
TORSDOF 28
ENDMDL
MODEL 6
REMARK VINA RESULT:    -2.997      1.626      7.365
REMARK INTER + INTRA:         -13.684
REMARK INTER:                  -7.872
REMARK INTRA:                  -5.812
REMARK UNBOUND:                -5.781
REMARK SMILES CCCCCCCCCCCCCCCCCCCCCCCCCCCCCC(=O)[O-]
REMARK SMILES IDX 16 1 17 2 18 3 19 4 20 5 21 6 22 7 23 8 24 9 25 10 26 11
REMARK SMILES IDX 27 12 28 13 29 14 30 15 31 16 32 17 15 18 14 19 13 20 12 21
REMARK SMILES IDX 11 22 10 23 9 24 8 25 7 26 6 27 5 28 4 29 3 30 2 31 1 32
REMARK H PARENT
REMARK Flexibility Score: inf
ROOT
ATOM      1  C   UNL     1      24.583  39.904   3.345  1.00  0.00     0.000 C 
ENDROOT
BRANCH   1   2
ATOM      2  C   UNL     1      24.096  39.019   2.185  1.00  0.00     0.000 C 
BRANCH   2   3
ATOM      3  C   UNL     1      23.897  39.811   0.880  1.00  0.00     0.000 C 
BRANCH   3   4
ATOM      4  C   UNL     1      24.775  39.277  -0.264  1.00  0.00     0.000 C 
BRANCH   4   5
ATOM      5  C   UNL     1      26.253  39.669  -0.100  1.00  0.00     0.000 C 
BRANCH   5   6
ATOM      6  C   UNL     1      27.153  38.465   0.231  1.00  0.00     0.000 C 
BRANCH   6   7
ATOM      7  C   UNL     1      27.727  38.457   1.664  1.00  0.00     0.000 C 
BRANCH   7   8
ATOM      8  C   UNL     1      28.304  39.802   2.150  1.00  0.00     0.000 C 
BRANCH   8   9
ATOM      9  C   UNL     1      28.323  39.986   3.679  1.00  0.00     0.000 C 
BRANCH   9  10
ATOM     10  C   UNL     1      29.307  41.073   4.137  1.00  0.00     0.000 C 
BRANCH  10  11
ATOM     11  C   UNL     1      28.909  41.625   5.512  1.00  0.00     0.000 C 
BRANCH  11  12
ATOM     12  C   UNL     1      28.201  40.552   6.353  1.00  0.00     0.000 C 
BRANCH  12  13
ATOM     13  C   UNL     1      26.925  41.075   7.037  1.00  0.00     0.006 C 
BRANCH  13  14
ATOM     14  C   UNL     1      25.783  40.048   7.122  1.00  0.00     0.053 C 
BRANCH  14  15
ATOM     15  C   UNL     1      24.657  40.527   7.986  1.00  0.00     0.041 C 
ATOM     16  O   UNL     1      23.878  41.424   7.569  1.00  0.00    -0.550 OA
ATOM     17  O   UNL     1      24.447  39.959   9.236  1.00  0.00    -0.550 OA
ENDBRANCH  14  15
ENDBRANCH  13  14
ENDBRANCH  12  13
ENDBRANCH  11  12
ENDBRANCH  10  11
ENDBRANCH   9  10
ENDBRANCH   8   9
ENDBRANCH   7   8
ENDBRANCH   6   7
ENDBRANCH   5   6
ENDBRANCH   4   5
ENDBRANCH   3   4
ENDBRANCH   2   3
ENDBRANCH   1   2
BRANCH   1  18
ATOM     18  C   UNL     1      25.029  41.321   2.917  1.00  0.00     0.000 C 
BRANCH  18  19
ATOM     19  C   UNL     1      25.265  42.285   4.097  1.00  0.00     0.000 C 
BRANCH  19  20
ATOM     20  C   UNL     1      26.298  43.398   3.833  1.00  0.00     0.000 C 
BRANCH  20  21
ATOM     21  C   UNL     1      26.325  44.524   4.885  1.00  0.00     0.000 C 
BRANCH  21  22
ATOM     22  C   UNL     1      25.403  44.250   6.082  1.00  0.00     0.000 C 
BRANCH  22  23
ATOM     23  C   UNL     1      26.107  44.593   7.404  1.00  0.00     0.000 C 
BRANCH  23  24
ATOM     24  C   UNL     1      27.609  44.868   7.217  1.00  0.00    -0.000 C 
BRANCH  24  25
ATOM     25  C   UNL     1      28.473  44.176   8.286  1.00  0.00    -0.000 C 
BRANCH  25  26
ATOM     26  C   UNL     1      29.096  45.171   9.278  1.00  0.00    -0.000 C 
BRANCH  26  27
ATOM     27  C   UNL     1      28.665  44.916  10.731  1.00  0.00    -0.000 C 
BRANCH  27  28
ATOM     28  C   UNL     1      27.137  44.958  10.864  1.00  0.00    -0.000 C 
BRANCH  28  29
ATOM     29  C   UNL     1      26.612  43.704  11.582  1.00  0.00    -0.000 C 
BRANCH  29  30
ATOM     30  C   UNL     1      27.685  42.613  11.728  1.00  0.00    -0.000 C 
BRANCH  30  31
ATOM     31  C   UNL     1      27.498  41.465  10.725  1.00  0.00    -0.003 C 
ATOM     32  C   UNL     1      28.842  40.987  10.183  1.00  0.00     0.004 C 
ENDBRANCH  30  31
ENDBRANCH  29  30
ENDBRANCH  28  29
ENDBRANCH  27  28
ENDBRANCH  26  27
ENDBRANCH  25  26
ENDBRANCH  24  25
ENDBRANCH  23  24
ENDBRANCH  22  23
ENDBRANCH  21  22
ENDBRANCH  20  21
ENDBRANCH  19  20
ENDBRANCH  18  19
ENDBRANCH   1  18
TORSDOF 28
ENDMDL
MODEL 7
REMARK VINA RESULT:    -2.982      2.181      4.067
REMARK INTER + INTRA:         -13.643
REMARK INTER:                  -7.557
REMARK INTRA:                  -6.086
REMARK UNBOUND:                -5.781
REMARK SMILES CCCCCCCCCCCCCCCCCCCCCCCCCCCCCC(=O)[O-]
REMARK SMILES IDX 16 1 17 2 18 3 19 4 20 5 21 6 22 7 23 8 24 9 25 10 26 11
REMARK SMILES IDX 27 12 28 13 29 14 30 15 31 16 32 17 15 18 14 19 13 20 12 21
REMARK SMILES IDX 11 22 10 23 9 24 8 25 7 26 6 27 5 28 4 29 3 30 2 31 1 32
REMARK H PARENT
REMARK Flexibility Score: inf
ROOT
ATOM      1  C   UNL     1      28.340  40.591   7.242  1.00  0.00     0.000 C 
ENDROOT
BRANCH   1   2
ATOM      2  C   UNL     1      27.500  40.720   8.525  1.00  0.00     0.000 C 
BRANCH   2   3
ATOM      3  C   UNL     1      26.101  41.306   8.259  1.00  0.00     0.000 C 
BRANCH   3   4
ATOM      4  C   UNL     1      25.712  42.375   9.293  1.00  0.00     0.000 C 
BRANCH   4   5
ATOM      5  C   UNL     1      25.263  43.691   8.633  1.00  0.00     0.000 C 
BRANCH   5   6
ATOM      6  C   UNL     1      25.084  43.560   7.110  1.00  0.00     0.000 C 
BRANCH   6   7
ATOM      7  C   UNL     1      25.746  44.679   6.279  1.00  0.00     0.000 C 
BRANCH   7   8
ATOM      8  C   UNL     1      26.778  45.540   7.036  1.00  0.00     0.000 C 
BRANCH   8   9
ATOM      9  C   UNL     1      28.203  45.508   6.453  1.00  0.00     0.000 C 
BRANCH   9  10
ATOM     10  C   UNL     1      29.276  45.222   7.514  1.00  0.00     0.000 C 
BRANCH  10  11
ATOM     11  C   UNL     1      28.848  44.064   8.425  1.00  0.00     0.000 C 
BRANCH  11  12
ATOM     12  C   UNL     1      28.980  44.451   9.906  1.00  0.00     0.000 C 
BRANCH  12  13
ATOM     13  C   UNL     1      28.573  45.911  10.180  1.00  0.00     0.006 C 
BRANCH  13  14
ATOM     14  C   UNL     1      27.142  46.081  10.718  1.00  0.00     0.053 C 
BRANCH  14  15
ATOM     15  C   UNL     1      26.953  45.408  12.042  1.00  0.00     0.041 C 
ATOM     16  O   UNL     1      27.599  45.801  13.049  1.00  0.00    -0.550 OA
ATOM     17  O   UNL     1      26.039  44.370  12.172  1.00  0.00    -0.550 OA
ENDBRANCH  14  15
ENDBRANCH  13  14
ENDBRANCH  12  13
ENDBRANCH  11  12
ENDBRANCH  10  11
ENDBRANCH   9  10
ENDBRANCH   8   9
ENDBRANCH   7   8
ENDBRANCH   6   7
ENDBRANCH   5   6
ENDBRANCH   4   5
ENDBRANCH   3   4
ENDBRANCH   2   3
ENDBRANCH   1   2
BRANCH   1  18
ATOM     18  C   UNL     1      27.600  41.020   5.954  1.00  0.00     0.000 C 
BRANCH  18  19
ATOM     19  C   UNL     1      28.377  42.038   5.097  1.00  0.00     0.000 C 
BRANCH  19  20
ATOM     20  C   UNL     1      27.567  42.680   3.954  1.00  0.00     0.000 C 
BRANCH  20  21
ATOM     21  C   UNL     1      26.523  41.756   3.296  1.00  0.00     0.000 C 
BRANCH  21  22
ATOM     22  C   UNL     1      25.083  42.075   3.726  1.00  0.00     0.000 C 
BRANCH  22  23
ATOM     23  C   UNL     1      24.195  40.825   3.629  1.00  0.00     0.000 C 
BRANCH  23  24
ATOM     24  C   UNL     1      25.005  39.546   3.358  1.00  0.00    -0.000 C 
BRANCH  24  25
ATOM     25  C   UNL     1      24.345  38.643   2.301  1.00  0.00    -0.000 C 
BRANCH  25  26
ATOM     26  C   UNL     1      24.045  39.388   0.991  1.00  0.00    -0.000 C 
BRANCH  26  27
ATOM     27  C   UNL     1      25.308  39.945   0.317  1.00  0.00    -0.000 C 
BRANCH  27  28
ATOM     28  C   UNL     1      26.294  38.817  -0.015  1.00  0.00    -0.000 C 
BRANCH  28  29
ATOM     29  C   UNL     1      27.721  39.188   0.419  1.00  0.00    -0.000 C 
BRANCH  29  30
ATOM     30  C   UNL     1      28.069  38.663   1.821  1.00  0.00    -0.000 C 
BRANCH  30  31
ATOM     31  C   UNL     1      29.245  39.418   2.457  1.00  0.00    -0.003 C 
ATOM     32  C   UNL     1      29.645  38.786   3.788  1.00  0.00     0.004 C 
ENDBRANCH  30  31
ENDBRANCH  29  30
ENDBRANCH  28  29
ENDBRANCH  27  28
ENDBRANCH  26  27
ENDBRANCH  25  26
ENDBRANCH  24  25
ENDBRANCH  23  24
ENDBRANCH  22  23
ENDBRANCH  21  22
ENDBRANCH  20  21
ENDBRANCH  19  20
ENDBRANCH  18  19
ENDBRANCH   1  18
TORSDOF 28
ENDMDL
MODEL 8
REMARK VINA RESULT:    -2.954      2.274      7.171
REMARK INTER + INTRA:         -13.570
REMARK INTER:                  -8.545
REMARK INTRA:                  -5.025
REMARK UNBOUND:                -5.781
REMARK SMILES CCCCCCCCCCCCCCCCCCCCCCCCCCCCCC(=O)[O-]
REMARK SMILES IDX 16 1 17 2 18 3 19 4 20 5 21 6 22 7 23 8 24 9 25 10 26 11
REMARK SMILES IDX 27 12 28 13 29 14 30 15 31 16 32 17 15 18 14 19 13 20 12 21
REMARK SMILES IDX 11 22 10 23 9 24 8 25 7 26 6 27 5 28 4 29 3 30 2 31 1 32
REMARK H PARENT
REMARK Flexibility Score: inf
ROOT
ATOM      1  C   UNL     1      24.060  39.973   0.947  1.00  0.00     0.000 C 
ENDROOT
BRANCH   1   2
ATOM      2  C   UNL     1      24.585  39.248  -0.305  1.00  0.00     0.000 C 
BRANCH   2   3
ATOM      3  C   UNL     1      25.750  39.997  -0.977  1.00  0.00     0.000 C 
BRANCH   3   4
ATOM      4  C   UNL     1      26.899  39.053  -1.369  1.00  0.00     0.000 C 
BRANCH   4   5
ATOM      5  C   UNL     1      27.384  38.199  -0.185  1.00  0.00     0.000 C 
BRANCH   5   6
ATOM      6  C   UNL     1      28.457  38.910   0.661  1.00  0.00     0.000 C 
BRANCH   6   7
ATOM      7  C   UNL     1      27.921  39.640   1.910  1.00  0.00     0.000 C 
BRANCH   7   8
ATOM      8  C   UNL     1      28.879  39.667   3.119  1.00  0.00     0.000 C 
BRANCH   8   9
ATOM      9  C   UNL     1      28.590  40.772   4.153  1.00  0.00     0.000 C 
BRANCH   9  10
ATOM     10  C   UNL     1      27.974  40.228   5.451  1.00  0.00     0.000 C 
BRANCH  10  11
ATOM     11  C   UNL     1      28.648  40.854   6.678  1.00  0.00     0.000 C 
BRANCH  11  12
ATOM     12  C   UNL     1      29.005  42.326   6.419  1.00  0.00     0.000 C 
BRANCH  12  13
ATOM     13  C   UNL     1      28.516  43.265   7.537  1.00  0.00     0.006 C 
BRANCH  13  14
ATOM     14  C   UNL     1      29.469  44.431   7.851  1.00  0.00     0.053 C 
BRANCH  14  15
ATOM     15  C   UNL     1      28.799  45.508   8.646  1.00  0.00     0.041 C 
ATOM     16  O   UNL     1      27.684  45.964   8.281  1.00  0.00    -0.550 OA
ATOM     17  O   UNL     1      29.390  45.985   9.810  1.00  0.00    -0.550 OA
ENDBRANCH  14  15
ENDBRANCH  13  14
ENDBRANCH  12  13
ENDBRANCH  11  12
ENDBRANCH  10  11
ENDBRANCH   9  10
ENDBRANCH   8   9
ENDBRANCH   7   8
ENDBRANCH   6   7
ENDBRANCH   5   6
ENDBRANCH   4   5
ENDBRANCH   3   4
ENDBRANCH   2   3
ENDBRANCH   1   2
BRANCH   1  18
ATOM     18  C   UNL     1      24.237  39.178   2.260  1.00  0.00     0.000 C 
BRANCH  18  19
ATOM     19  C   UNL     1      24.635  40.048   3.469  1.00  0.00     0.000 C 
BRANCH  19  20
ATOM     20  C   UNL     1      25.120  41.468   3.118  1.00  0.00     0.000 C 
BRANCH  20  21
ATOM     21  C   UNL     1      25.155  42.456   4.301  1.00  0.00     0.000 C 
BRANCH  21  22
ATOM     22  C   UNL     1      26.251  43.523   4.161  1.00  0.00     0.000 C 
BRANCH  22  23
ATOM     23  C   UNL     1      26.211  44.505   5.342  1.00  0.00     0.000 C 
BRANCH  23  24
ATOM     24  C   UNL     1      24.872  44.463   6.098  1.00  0.00    -0.000 C 
BRANCH  24  25
ATOM     25  C   UNL     1      25.003  43.836   7.497  1.00  0.00    -0.000 C 
BRANCH  25  26
ATOM     26  C   UNL     1      24.278  42.486   7.611  1.00  0.00    -0.000 C 
BRANCH  26  27
ATOM     27  C   UNL     1      25.239  41.308   7.835  1.00  0.00    -0.000 C 
BRANCH  27  28
ATOM     28  C   UNL     1      25.302  40.929   9.320  1.00  0.00    -0.000 C 
BRANCH  28  29
ATOM     29  C   UNL     1      26.659  41.314   9.930  1.00  0.00    -0.000 C 
BRANCH  29  30
ATOM     30  C   UNL     1      26.619  42.667  10.659  1.00  0.00    -0.000 C 
BRANCH  30  31
ATOM     31  C   UNL     1      27.960  43.023  11.314  1.00  0.00    -0.003 C 
ATOM     32  C   UNL     1      28.670  41.772  11.826  1.00  0.00     0.004 C 
ENDBRANCH  30  31
ENDBRANCH  29  30
ENDBRANCH  28  29
ENDBRANCH  27  28
ENDBRANCH  26  27
ENDBRANCH  25  26
ENDBRANCH  24  25
ENDBRANCH  23  24
ENDBRANCH  22  23
ENDBRANCH  21  22
ENDBRANCH  20  21
ENDBRANCH  19  20
ENDBRANCH  18  19
ENDBRANCH   1  18
TORSDOF 28
ENDMDL
MODEL 9
REMARK VINA RESULT:    -2.929      2.555      5.309
REMARK INTER + INTRA:         -13.505
REMARK INTER:                  -7.185
REMARK INTRA:                  -6.320
REMARK UNBOUND:                -5.781
REMARK SMILES CCCCCCCCCCCCCCCCCCCCCCCCCCCCCC(=O)[O-]
REMARK SMILES IDX 16 1 17 2 18 3 19 4 20 5 21 6 22 7 23 8 24 9 25 10 26 11
REMARK SMILES IDX 27 12 28 13 29 14 30 15 31 16 32 17 15 18 14 19 13 20 12 21
REMARK SMILES IDX 11 22 10 23 9 24 8 25 7 26 6 27 5 28 4 29 3 30 2 31 1 32
REMARK H PARENT
REMARK Flexibility Score: inf
ROOT
ATOM      1  C   UNL     1      27.948  40.091   3.996  1.00  0.00     0.000 C 
ENDROOT
BRANCH   1   2
ATOM      2  C   UNL     1      27.952  41.546   3.497  1.00  0.00     0.000 C 
BRANCH   2   3
ATOM      3  C   UNL     1      27.144  42.487   4.409  1.00  0.00     0.000 C 
BRANCH   3   4
ATOM      4  C   UNL     1      26.942  41.901   5.816  1.00  0.00     0.000 C 
BRANCH   4   5
ATOM      5  C   UNL     1      25.622  42.362   6.459  1.00  0.00     0.000 C 
BRANCH   5   6
ATOM      6  C   UNL     1      24.897  43.431   5.621  1.00  0.00     0.000 C 
BRANCH   6   7
ATOM      7  C   UNL     1      24.898  44.848   6.233  1.00  0.00     0.000 C 
BRANCH   7   8
ATOM      8  C   UNL     1      25.722  45.898   5.461  1.00  0.00     0.000 C 
BRANCH   8   9
ATOM      9  C   UNL     1      26.879  46.530   6.257  1.00  0.00     0.000 C 
BRANCH   9  10
ATOM     10  C   UNL     1      27.273  45.706   7.492  1.00  0.00     0.000 C 
BRANCH  10  11
ATOM     11  C   UNL     1      28.621  45.007   7.274  1.00  0.00     0.000 C 
BRANCH  11  12
ATOM     12  C   UNL     1      28.794  43.831   8.247  1.00  0.00     0.000 C 
BRANCH  12  13
ATOM     13  C   UNL     1      29.846  42.811   7.769  1.00  0.00     0.006 C 
BRANCH  13  14
ATOM     14  C   UNL     1      30.396  43.080   6.359  1.00  0.00     0.053 C 
BRANCH  14  15
ATOM     15  C   UNL     1      31.805  43.586   6.391  1.00  0.00     0.041 C 
ATOM     16  O   UNL     1      32.359  43.846   7.490  1.00  0.00    -0.550 OA
ATOM     17  O   UNL     1      32.518  43.739   5.207  1.00  0.00    -0.550 OA
ENDBRANCH  14  15
ENDBRANCH  13  14
ENDBRANCH  12  13
ENDBRANCH  11  12
ENDBRANCH  10  11
ENDBRANCH   9  10
ENDBRANCH   8   9
ENDBRANCH   7   8
ENDBRANCH   6   7
ENDBRANCH   5   6
ENDBRANCH   4   5
ENDBRANCH   3   4
ENDBRANCH   2   3
ENDBRANCH   1   2
BRANCH   1  18
ATOM     18  C   UNL     1      27.961  39.034   2.868  1.00  0.00     0.000 C 
BRANCH  18  19
ATOM     19  C   UNL     1      27.614  39.602   1.477  1.00  0.00     0.000 C 
BRANCH  19  20
ATOM     20  C   UNL     1      26.375  38.975   0.808  1.00  0.00     0.000 C 
BRANCH  20  21
ATOM     21  C   UNL     1      25.248  39.970   0.463  1.00  0.00     0.000 C 
BRANCH  21  22
ATOM     22  C   UNL     1      24.067  39.904   1.444  1.00  0.00     0.000 C 
BRANCH  22  23
ATOM     23  C   UNL     1      24.294  40.846   2.636  1.00  0.00     0.000 C 
BRANCH  23  24
ATOM     24  C   UNL     1      24.245  40.111   3.986  1.00  0.00    -0.000 C 
BRANCH  24  25
ATOM     25  C   UNL     1      24.237  38.580   3.824  1.00  0.00    -0.000 C 
BRANCH  25  26
ATOM     26  C   UNL     1      25.031  37.864   4.928  1.00  0.00    -0.000 C 
BRANCH  26  27
ATOM     27  C   UNL     1      25.143  38.694   6.217  1.00  0.00    -0.000 C 
BRANCH  27  28
ATOM     28  C   UNL     1      26.459  38.396   6.946  1.00  0.00    -0.000 C 
BRANCH  28  29
ATOM     29  C   UNL     1      26.278  38.490   8.470  1.00  0.00    -0.000 C 
BRANCH  29  30
ATOM     30  C   UNL     1      25.086  39.374   8.871  1.00  0.00    -0.000 C 
BRANCH  30  31
ATOM     31  C   UNL     1      25.524  40.685   9.538  1.00  0.00    -0.003 C 
ATOM     32  C   UNL     1      26.993  40.627   9.948  1.00  0.00     0.004 C 
ENDBRANCH  30  31
ENDBRANCH  29  30
ENDBRANCH  28  29
ENDBRANCH  27  28
ENDBRANCH  26  27
ENDBRANCH  25  26
ENDBRANCH  24  25
ENDBRANCH  23  24
ENDBRANCH  22  23
ENDBRANCH  21  22
ENDBRANCH  20  21
ENDBRANCH  19  20
ENDBRANCH  18  19
ENDBRANCH   1  18
TORSDOF 28
ENDMDL
