MODEL 1
REMARK VINA RESULT:    -3.601      0.000      0.000
REMARK INTER + INTRA:          -6.575
REMARK INTER:                  -5.705
REMARK INTRA:                  -0.870
REMARK UNBOUND:                -0.870
REMARK SMILES CCCCCCCCCCCC(=O)[O-]
REMARK SMILES IDX 7 1 8 2 9 3 10 4 11 5 12 6 13 7 14 8 6 9 5 10 4 11 3 12 2 13
REMARK SMILES IDX 1 14
REMARK H PARENT
REMARK Flexibility Score: inf
ROOT
ATOM      1  C   UNL     1      68.768  -2.304  10.286  1.00  0.00     0.000 C 
ENDROOT
BRANCH   1   2
ATOM      2  C   UNL     1      69.966  -2.466   9.336  1.00  0.00     0.000 C 
BRANCH   2   3
ATOM      3  C   UNL     1      69.640  -2.042   7.893  1.00  0.00     0.000 C 
BRANCH   3   4
ATOM      4  C   UNL     1      69.913  -3.160   6.874  1.00  0.00     0.006 C 
BRANCH   4   5
ATOM      5  C   UNL     1      69.738  -4.561   7.474  1.00  0.00     0.053 C 
BRANCH   5   6
ATOM      6  C   UNL     1      69.290  -5.527   6.424  1.00  0.00     0.041 C 
ATOM      7  O   UNL     1      69.157  -6.747   6.701  1.00  0.00    -0.550 OA
ATOM      8  O   UNL     1      69.067  -5.087   5.125  1.00  0.00    -0.550 OA
ENDBRANCH   5   6
ENDBRANCH   4   5
ENDBRANCH   3   4
ENDBRANCH   2   3
ENDBRANCH   1   2
BRANCH   1   9
ATOM      9  C   UNL     1      69.178  -1.759  11.666  1.00  0.00     0.000 C 
BRANCH   9  10
ATOM     10  C   UNL     1      69.475  -0.251  11.637  1.00  0.00    -0.000 C 
BRANCH  10  11
ATOM     11  C   UNL     1      68.206   0.607  11.782  1.00  0.00    -0.000 C 
BRANCH  11  12
ATOM     12  C   UNL     1      67.761   1.229  10.449  1.00  0.00    -0.000 C 
BRANCH  12  13
ATOM     13  C   UNL     1      66.652   0.417   9.761  1.00  0.00    -0.003 C 
ATOM     14  C   UNL     1      66.832   0.415   8.246  1.00  0.00     0.004 C 
ENDBRANCH  12  13
ENDBRANCH  11  12
ENDBRANCH  10  11
ENDBRANCH   9  10
ENDBRANCH   1   9
TORSDOF 10
ENDMDL
MODEL 2
REMARK VINA RESULT:    -3.551     13.283     15.039
REMARK INTER + INTRA:          -6.497
REMARK INTER:                  -5.553
REMARK INTRA:                  -0.944
REMARK UNBOUND:                -0.870
REMARK SMILES CCCCCCCCCCCC(=O)[O-]
REMARK SMILES IDX 7 1 8 2 9 3 10 4 11 5 12 6 13 7 14 8 6 9 5 10 4 11 3 12 2 13
REMARK SMILES IDX 1 14
REMARK H PARENT
REMARK Flexibility Score: inf
ROOT
ATOM      1  C   UNL     1      66.201 -14.652  11.144  1.00  0.00     0.000 C 
ENDROOT
BRANCH   1   2
ATOM      2  C   UNL     1      65.676 -14.166  12.504  1.00  0.00     0.000 C 
BRANCH   2   3
ATOM      3  C   UNL     1      65.943 -15.172  13.638  1.00  0.00     0.000 C 
BRANCH   3   4
ATOM      4  C   UNL     1      67.223 -14.847  14.426  1.00  0.00     0.006 C 
BRANCH   4   5
ATOM      5  C   UNL     1      68.289 -15.943  14.298  1.00  0.00     0.053 C 
BRANCH   5   6
ATOM      6  C   UNL     1      68.876 -16.259  15.636  1.00  0.00     0.041 C 
ATOM      7  O   UNL     1      70.124 -16.306  15.785  1.00  0.00    -0.550 OA
ATOM      8  O   UNL     1      68.043 -16.553  16.709  1.00  0.00    -0.550 OA
ENDBRANCH   5   6
ENDBRANCH   4   5
ENDBRANCH   3   4
ENDBRANCH   2   3
ENDBRANCH   1   2
BRANCH   1   9
ATOM      9  C   UNL     1      65.813 -16.113  10.850  1.00  0.00     0.000 C 
BRANCH   9  10
ATOM     10  C   UNL     1      67.026 -17.056  10.854  1.00  0.00    -0.000 C 
BRANCH  10  11
ATOM     11  C   UNL     1      68.335 -16.342  10.471  1.00  0.00    -0.000 C 
BRANCH  11  12
ATOM     12  C   UNL     1      68.553 -16.286   8.951  1.00  0.00    -0.000 C 
BRANCH  12  13
ATOM     13  C   UNL     1      69.826 -15.517   8.565  1.00  0.00    -0.003 C 
ATOM     14  C   UNL     1      70.078 -14.357   9.524  1.00  0.00     0.004 C 
ENDBRANCH  12  13
ENDBRANCH  11  12
ENDBRANCH  10  11
ENDBRANCH   9  10
ENDBRANCH   1   9
TORSDOF 10
ENDMDL
MODEL 3
REMARK VINA RESULT:    -3.513     18.109     20.111
REMARK INTER + INTRA:          -6.437
REMARK INTER:                  -5.870
REMARK INTRA:                  -0.567
REMARK UNBOUND:                -0.870
REMARK SMILES CCCCCCCCCCCC(=O)[O-]
REMARK SMILES IDX 7 1 8 2 9 3 10 4 11 5 12 6 13 7 14 8 6 9 5 10 4 11 3 12 2 13
REMARK SMILES IDX 1 14
REMARK H PARENT
REMARK Flexibility Score: inf
ROOT
ATOM      1  C   UNL     1      55.036   0.211  22.113  1.00  0.00     0.000 C 
ENDROOT
BRANCH   1   2
ATOM      2  C   UNL     1      53.993   1.320  22.327  1.00  0.00     0.000 C 
BRANCH   2   3
ATOM      3  C   UNL     1      52.951   1.379  21.195  1.00  0.00     0.000 C 
BRANCH   3   4
ATOM      4  C   UNL     1      52.725   0.012  20.529  1.00  0.00     0.006 C 
BRANCH   4   5
ATOM      5  C   UNL     1      51.238  -0.301  20.316  1.00  0.00     0.053 C 
BRANCH   5   6
ATOM      6  C   UNL     1      50.786  -1.360  21.270  1.00  0.00     0.041 C 
ATOM      7  O   UNL     1      50.059  -2.306  20.869  1.00  0.00    -0.550 OA
ATOM      8  O   UNL     1      51.126  -1.277  22.615  1.00  0.00    -0.550 OA
ENDBRANCH   5   6
ENDBRANCH   4   5
ENDBRANCH   3   4
ENDBRANCH   2   3
ENDBRANCH   1   2
BRANCH   1   9
ATOM      9  C   UNL     1      56.475   0.756  22.064  1.00  0.00     0.000 C 
BRANCH   9  10
ATOM     10  C   UNL     1      57.433  -0.179  21.310  1.00  0.00    -0.000 C 
BRANCH  10  11
ATOM     11  C   UNL     1      57.501  -1.586  21.931  1.00  0.00    -0.000 C 
BRANCH  11  12
ATOM     12  C   UNL     1      58.811  -1.830  22.695  1.00  0.00    -0.000 C 
BRANCH  12  13
ATOM     13  C   UNL     1      58.574  -2.223  24.162  1.00  0.00    -0.003 C 
ATOM     14  C   UNL     1      59.489  -1.436  25.096  1.00  0.00     0.004 C 
ENDBRANCH  12  13
ENDBRANCH  11  12
ENDBRANCH  10  11
ENDBRANCH   9  10
ENDBRANCH   1   9
TORSDOF 10
ENDMDL
MODEL 4
REMARK VINA RESULT:    -3.492     16.868     18.442
REMARK INTER + INTRA:          -6.402
REMARK INTER:                  -5.738
REMARK INTRA:                  -0.664
REMARK UNBOUND:                -0.870
REMARK SMILES CCCCCCCCCCCC(=O)[O-]
REMARK SMILES IDX 7 1 8 2 9 3 10 4 11 5 12 6 13 7 14 8 6 9 5 10 4 11 3 12 2 13
REMARK SMILES IDX 1 14
REMARK H PARENT
REMARK Flexibility Score: inf
ROOT
ATOM      1  C   UNL     1      56.284 -14.740   9.336  1.00  0.00     0.000 C 
ENDROOT
BRANCH   1   2
ATOM      2  C   UNL     1      57.762 -14.488   9.000  1.00  0.00     0.000 C 
BRANCH   2   3
ATOM      3  C   UNL     1      57.994 -14.229   7.501  1.00  0.00     0.000 C 
BRANCH   3   4
ATOM      4  C   UNL     1      58.417 -15.497   6.741  1.00  0.00     0.006 C 
BRANCH   4   5
ATOM      5  C   UNL     1      57.791 -15.583   5.343  1.00  0.00     0.053 C 
BRANCH   5   6
ATOM      6  C   UNL     1      56.303 -15.695   5.443  1.00  0.00     0.041 C 
ATOM      7  O   UNL     1      55.565 -14.849   4.875  1.00  0.00    -0.550 OA
ATOM      8  O   UNL     1      55.732 -16.706   6.207  1.00  0.00    -0.550 OA
ENDBRANCH   5   6
ENDBRANCH   4   5
ENDBRANCH   3   4
ENDBRANCH   2   3
ENDBRANCH   1   2
BRANCH   1   9
ATOM      9  C   UNL     1      56.045 -16.136   9.938  1.00  0.00     0.000 C 
BRANCH   9  10
ATOM     10  C   UNL     1      55.628 -16.077  11.416  1.00  0.00    -0.000 C 
BRANCH  10  11
ATOM     11  C   UNL     1      56.547 -16.911  12.326  1.00  0.00    -0.000 C 
BRANCH  11  12
ATOM     12  C   UNL     1      56.460 -16.486  13.800  1.00  0.00    -0.000 C 
BRANCH  12  13
ATOM     13  C   UNL     1      57.834 -16.452  14.487  1.00  0.00    -0.003 C 
ATOM     14  C   UNL     1      58.962 -16.449  13.458  1.00  0.00     0.004 C 
ENDBRANCH  12  13
ENDBRANCH  11  12
ENDBRANCH  10  11
ENDBRANCH   9  10
ENDBRANCH   1   9
TORSDOF 10
ENDMDL
MODEL 5
REMARK VINA RESULT:    -3.456     16.871     18.865
REMARK INTER + INTRA:          -6.346
REMARK INTER:                  -5.313
REMARK INTRA:                  -1.034
REMARK UNBOUND:                -0.870
REMARK SMILES CCCCCCCCCCCC(=O)[O-]
REMARK SMILES IDX 7 1 8 2 9 3 10 4 11 5 12 6 13 7 14 8 6 9 5 10 4 11 3 12 2 13
REMARK SMILES IDX 1 14
REMARK H PARENT
REMARK Flexibility Score: inf
ROOT
ATOM      1  C   UNL     1      56.572 -14.346   9.331  1.00  0.00     0.000 C 
ENDROOT
BRANCH   1   2
ATOM      2  C   UNL     1      56.407 -15.818   9.742  1.00  0.00     0.000 C 
BRANCH   2   3
ATOM      3  C   UNL     1      55.773 -15.976  11.135  1.00  0.00     0.000 C 
BRANCH   3   4
ATOM      4  C   UNL     1      56.462 -17.063  11.977  1.00  0.00     0.006 C 
BRANCH   4   5
ATOM      5  C   UNL     1      57.988 -16.905  12.007  1.00  0.00     0.053 C 
BRANCH   5   6
ATOM      6  C   UNL     1      58.446 -16.511  13.375  1.00  0.00     0.041 C 
ATOM      7  O   UNL     1      59.667 -16.310  13.601  1.00  0.00    -0.550 OA
ATOM      8  O   UNL     1      57.528 -16.415  14.414  1.00  0.00    -0.550 OA
ENDBRANCH   5   6
ENDBRANCH   4   5
ENDBRANCH   3   4
ENDBRANCH   2   3
ENDBRANCH   1   2
BRANCH   1   9
ATOM      9  C   UNL     1      57.718 -14.139   8.324  1.00  0.00     0.000 C 
BRANCH   9  10
ATOM     10  C   UNL     1      58.000 -15.397   7.487  1.00  0.00    -0.000 C 
BRANCH  10  11
ATOM     11  C   UNL     1      57.765 -15.173   5.982  1.00  0.00    -0.000 C 
BRANCH  11  12
ATOM     12  C   UNL     1      56.283 -15.290   5.593  1.00  0.00    -0.000 C 
BRANCH  12  13
ATOM     13  C   UNL     1      55.613 -16.537   6.191  1.00  0.00    -0.003 C 
ATOM     14  C   UNL     1      54.223 -16.209   6.729  1.00  0.00     0.004 C 
ENDBRANCH  12  13
ENDBRANCH  11  12
ENDBRANCH  10  11
ENDBRANCH   9  10
ENDBRANCH   1   9
TORSDOF 10
ENDMDL
MODEL 6
REMARK VINA RESULT:    -3.405      2.956      6.019
REMARK INTER + INTRA:          -6.266
REMARK INTER:                  -5.422
REMARK INTRA:                  -0.843
REMARK UNBOUND:                -0.870
REMARK SMILES CCCCCCCCCCCC(=O)[O-]
REMARK SMILES IDX 7 1 8 2 9 3 10 4 11 5 12 6 13 7 14 8 6 9 5 10 4 11 3 12 2 13
REMARK SMILES IDX 1 14
REMARK H PARENT
REMARK Flexibility Score: inf
ROOT
ATOM      1  C   UNL     1      69.899  -2.150  10.495  1.00  0.00     0.000 C 
ENDROOT
BRANCH   1   2
ATOM      2  C   UNL     1      69.020  -1.649  11.653  1.00  0.00     0.000 C 
BRANCH   2   3
ATOM      3  C   UNL     1      69.263  -0.165  11.982  1.00  0.00     0.000 C 
BRANCH   3   4
ATOM      4  C   UNL     1      68.075   0.728  11.590  1.00  0.00     0.006 C 
BRANCH   4   5
ATOM      5  C   UNL     1      68.213   1.306  10.175  1.00  0.00     0.053 C 
BRANCH   5   6
ATOM      6  C   UNL     1      66.995   0.999   9.364  1.00  0.00     0.041 C 
ATOM      7  O   UNL     1      66.494  -0.155   9.385  1.00  0.00    -0.550 OA
ATOM      8  O   UNL     1      66.440   1.975   8.545  1.00  0.00    -0.550 OA
ENDBRANCH   5   6
ENDBRANCH   4   5
ENDBRANCH   3   4
ENDBRANCH   2   3
ENDBRANCH   1   2
BRANCH   1   9
ATOM      9  C   UNL     1      69.075  -2.537   9.254  1.00  0.00     0.000 C 
BRANCH   9  10
ATOM     10  C   UNL     1      69.669  -1.972   7.954  1.00  0.00    -0.000 C 
BRANCH  10  11
ATOM     11  C   UNL     1      69.870  -3.052   6.875  1.00  0.00    -0.000 C 
BRANCH  11  12
ATOM     12  C   UNL     1      70.090  -4.450   7.474  1.00  0.00    -0.000 C 
BRANCH  12  13
ATOM     13  C   UNL     1      69.058  -5.474   6.976  1.00  0.00    -0.003 C 
ATOM     14  C   UNL     1      69.329  -5.865   5.526  1.00  0.00     0.004 C 
ENDBRANCH  12  13
ENDBRANCH  11  12
ENDBRANCH  10  11
ENDBRANCH   9  10
ENDBRANCH   1   9
TORSDOF 10
ENDMDL
MODEL 7
REMARK VINA RESULT:    -3.371     17.971     19.767
REMARK INTER + INTRA:          -6.212
REMARK INTER:                  -5.649
REMARK INTRA:                  -0.563
REMARK UNBOUND:                -0.870
REMARK SMILES CCCCCCCCCCCC(=O)[O-]
REMARK SMILES IDX 7 1 8 2 9 3 10 4 11 5 12 6 13 7 14 8 6 9 5 10 4 11 3 12 2 13
REMARK SMILES IDX 1 14
REMARK H PARENT
REMARK Flexibility Score: inf
ROOT
ATOM      1  C   UNL     1      56.613   0.926  22.051  1.00  0.00     0.000 C 
ENDROOT
BRANCH   1   2
ATOM      2  C   UNL     1      55.340   0.247  22.580  1.00  0.00     0.000 C 
BRANCH   2   3
ATOM      3  C   UNL     1      54.053   0.891  22.033  1.00  0.00     0.000 C 
BRANCH   3   4
ATOM      4  C   UNL     1      52.971  -0.147  21.696  1.00  0.00     0.006 C 
BRANCH   4   5
ATOM      5  C   UNL     1      52.507  -0.062  20.236  1.00  0.00     0.053 C 
BRANCH   5   6
ATOM      6  C   UNL     1      51.014  -0.086  20.160  1.00  0.00     0.041 C 
ATOM      7  O   UNL     1      50.363   0.991  20.138  1.00  0.00    -0.550 OA
ATOM      8  O   UNL     1      50.337  -1.300  20.165  1.00  0.00    -0.550 OA
ENDBRANCH   5   6
ENDBRANCH   4   5
ENDBRANCH   3   4
ENDBRANCH   2   3
ENDBRANCH   1   2
BRANCH   1   9
ATOM      9  C   UNL     1      57.476  -0.022  21.199  1.00  0.00     0.000 C 
BRANCH   9  10
ATOM     10  C   UNL     1      57.438  -1.472  21.708  1.00  0.00    -0.000 C 
BRANCH  10  11
ATOM     11  C   UNL     1      58.610  -1.802  22.649  1.00  0.00    -0.000 C 
BRANCH  11  12
ATOM     12  C   UNL     1      58.224  -1.692  24.132  1.00  0.00    -0.000 C 
BRANCH  12  13
ATOM     13  C   UNL     1      59.364  -2.114  25.071  1.00  0.00    -0.003 C 
ATOM     14  C   UNL     1      60.606  -1.255  24.848  1.00  0.00     0.004 C 
ENDBRANCH  12  13
ENDBRANCH  11  12
ENDBRANCH  10  11
ENDBRANCH   9  10
ENDBRANCH   1   9
TORSDOF 10
ENDMDL
MODEL 8
REMARK VINA RESULT:    -3.367     13.079     14.535
REMARK INTER + INTRA:          -6.205
REMARK INTER:                  -5.448
REMARK INTRA:                  -0.758
REMARK UNBOUND:                -0.870
REMARK SMILES CCCCCCCCCCCC(=O)[O-]
REMARK SMILES IDX 7 1 8 2 9 3 10 4 11 5 12 6 13 7 14 8 6 9 5 10 4 11 3 12 2 13
REMARK SMILES IDX 1 14
REMARK H PARENT
REMARK Flexibility Score: inf
ROOT
ATOM      1  C   UNL     1      65.640 -14.539  12.525  1.00  0.00     0.000 C 
ENDROOT
BRANCH   1   2
ATOM      2  C   UNL     1      65.728 -14.474  10.992  1.00  0.00     0.000 C 
BRANCH   2   3
ATOM      3  C   UNL     1      67.134 -14.808  10.464  1.00  0.00     0.000 C 
BRANCH   3   4
ATOM      4  C   UNL     1      67.287 -16.291  10.089  1.00  0.00     0.006 C 
BRANCH   4   5
ATOM      5  C   UNL     1      68.742 -16.678   9.792  1.00  0.00     0.053 C 
BRANCH   5   6
ATOM      6  C   UNL     1      69.189 -16.076   8.498  1.00  0.00     0.041 C 
ATOM      7  O   UNL     1      68.754 -16.526   7.407  1.00  0.00    -0.550 OA
ATOM      8  O   UNL     1      70.125 -15.049   8.495  1.00  0.00    -0.550 OA
ENDBRANCH   5   6
ENDBRANCH   4   5
ENDBRANCH   3   4
ENDBRANCH   2   3
ENDBRANCH   1   2
BRANCH   1   9
ATOM      9  C   UNL     1      64.947 -15.821  13.023  1.00  0.00     0.000 C 
BRANCH   9  10
ATOM     10  C   UNL     1      65.792 -16.584  14.055  1.00  0.00    -0.000 C 
BRANCH  10  11
ATOM     11  C   UNL     1      67.304 -16.377  13.854  1.00  0.00    -0.000 C 
BRANCH  11  12
ATOM     12  C   UNL     1      67.904 -15.393  14.871  1.00  0.00    -0.000 C 
BRANCH  12  13
ATOM     13  C   UNL     1      68.983 -16.041  15.752  1.00  0.00    -0.003 C 
ATOM     14  C   UNL     1      68.384 -17.119  16.651  1.00  0.00     0.004 C 
ENDBRANCH  12  13
ENDBRANCH  11  12
ENDBRANCH  10  11
ENDBRANCH   9  10
ENDBRANCH   1   9
TORSDOF 10
ENDMDL
MODEL 9
REMARK VINA RESULT:    -3.300      3.789      4.897
REMARK INTER + INTRA:          -6.098
REMARK INTER:                  -4.688
REMARK INTRA:                  -1.411
REMARK UNBOUND:                -0.870
REMARK SMILES CCCCCCCCCCCC(=O)[O-]
REMARK SMILES IDX 7 1 8 2 9 3 10 4 11 5 12 6 13 7 14 8 6 9 5 10 4 11 3 12 2 13
REMARK SMILES IDX 1 14
REMARK H PARENT
REMARK Flexibility Score: inf
ROOT
ATOM      1  C   UNL     1      69.280  -2.423   9.126  1.00  0.00     0.000 C 
ENDROOT
BRANCH   1   2
ATOM      2  C   UNL     1      69.834  -1.162   8.445  1.00  0.00     0.000 C 
BRANCH   2   3
ATOM      3  C   UNL     1      69.020  -0.750   7.205  1.00  0.00     0.000 C 
BRANCH   3   4
ATOM      4  C   UNL     1      68.424   0.661   7.333  1.00  0.00     0.006 C 
BRANCH   4   5
ATOM      5  C   UNL     1      67.103   0.675   8.115  1.00  0.00     0.053 C 
BRANCH   5   6
ATOM      6  C   UNL     1      66.438   2.008   7.992  1.00  0.00     0.041 C 
ATOM      7  O   UNL     1      66.426   2.803   8.968  1.00  0.00    -0.550 OA
ATOM      8  O   UNL     1      65.785   2.354   6.815  1.00  0.00    -0.550 OA
ENDBRANCH   5   6
ENDBRANCH   4   5
ENDBRANCH   3   4
ENDBRANCH   2   3
ENDBRANCH   1   2
BRANCH   1   9
ATOM      9  C   UNL     1      68.476  -2.102  10.399  1.00  0.00     0.000 C 
BRANCH   9  10
ATOM     10  C   UNL     1      69.371  -1.962  11.640  1.00  0.00    -0.000 C 
BRANCH  10  11
ATOM     11  C   UNL     1      69.610  -0.494  12.037  1.00  0.00    -0.000 C 
BRANCH  11  12
ATOM     12  C   UNL     1      68.330   0.353  11.959  1.00  0.00    -0.000 C 
BRANCH  12  13
ATOM     13  C   UNL     1      68.597   1.780  11.455  1.00  0.00    -0.003 C 
ATOM     14  C   UNL     1      69.868   1.836  10.612  1.00  0.00     0.004 C 
ENDBRANCH  12  13
ENDBRANCH  11  12
ENDBRANCH  10  11
ENDBRANCH   9  10
ENDBRANCH   1   9
TORSDOF 10
ENDMDL
