MODEL 1
REMARK VINA RESULT:    -6.073      0.000      0.000
REMARK INTER + INTRA:          -6.034
REMARK INTER:                  -6.605
REMARK INTRA:                   0.571
REMARK UNBOUND:                 0.571
REMARK SMILES CC1(C)CC[C@@]2(C(=O)[O-])CC[C@]3(C)C(=CC[C@H]4[C@]5(C)CC[C@@H](O)C(C)(C)[C@H]5CC[C@@]43C)[C@@H]2C1
REMARK SMILES IDX 6 1 5 2 10 3 32 4 4 5 11 6 14 7 33 8 2 9 12 10 15 11 1 12
REMARK SMILES IDX 3 13 13 14 30 15 16 16 17 17 29 18 31 19 18 20 28 21 27 22
REMARK SMILES IDX 20 23 19 24 24 25 21 26 22 27 25 28 26 29 7 30 8 31 9 32
REMARK SMILES IDX 23 33
REMARK H PARENT 23 34
REMARK Flexibility Score: inf
ROOT
ATOM      1  C   UNL     1      -1.843  23.462  31.276  1.00  0.00     0.017 C 
ATOM      2  C   UNL     1      -1.011  22.574  30.277  1.00  0.00     0.014 C 
ATOM      3  C   UNL     1      -2.088  22.689  32.604  1.00  0.00     0.014 C 
ATOM      4  C   UNL     1      -0.989  24.706  31.652  1.00  0.00     0.028 C 
ATOM      5  C   UNL     1       0.144  23.305  29.540  1.00  0.00     0.007 C 
ATOM      6  C   UNL     1      -2.767  23.496  33.756  1.00  0.00     0.013 C 
ATOM      7  C   UNL     1      -1.372  25.433  32.955  1.00  0.00    -0.064 C 
ATOM      8  C   UNL     1      -0.660  25.613  30.445  1.00  0.00     0.015 C 
ATOM      9  C   UNL     1      -0.128  24.804  29.200  1.00  0.00    -0.035 C 
ATOM     10  C   UNL     1      -2.682  25.077  33.714  1.00  0.00    -0.006 C 
ATOM     11  C   UNL     1      -0.332  26.060  33.567  1.00  0.00    -0.027 C 
ATOM     12  C   UNL     1       1.203  25.434  28.729  1.00  0.00     0.011 C 
ATOM     13  C   UNL     1      -1.117  24.887  28.015  1.00  0.00     0.011 C 
ATOM     14  C   UNL     1      -3.921  25.607  32.916  1.00  0.00     0.017 C 
ATOM     15  C   UNL     1      -2.715  25.750  35.198  1.00  0.00    -0.020 C 
ATOM     16  C   UNL     1      -0.270  26.413  35.022  1.00  0.00     0.032 C 
ATOM     17  C   UNL     1      -1.285  25.596  35.851  1.00  0.00     0.006 C 
ATOM     18  C   UNL     1      -3.816  25.075  36.090  1.00  0.00     0.008 C 
ATOM     19  C   UNL     1      -3.076  27.277  35.090  1.00  0.00     0.012 C 
ATOM     20  C   UNL     1      -1.155  25.780  37.437  1.00  0.00    -0.025 C 
ATOM     21  C   UNL     1      -3.692  25.391  37.580  1.00  0.00     0.005 C 
ATOM     22  C   UNL     1      -2.306  24.939  38.103  1.00  0.00     0.003 C 
ATOM     23  C   UNL     1       0.209  25.162  37.894  1.00  0.00     0.010 C 
ATOM     24  C   UNL     1      -1.167  27.286  37.873  1.00  0.00     0.012 C 
ATOM     25  C   UNL     1      -2.214  24.724  39.667  1.00  0.00    -0.006 C 
ATOM     26  C   UNL     1       0.348  24.988  39.415  1.00  0.00     0.033 C 
ATOM     27  C   UNL     1      -0.798  24.161  40.015  1.00  0.00     0.120 C 
ATOM     28  C   UNL     1      -2.525  26.007  40.481  1.00  0.00     0.014 C 
ATOM     29  C   UNL     1      -3.245  23.645  40.109  1.00  0.00     0.014 C 
ENDROOT
BRANCH   1  30
ATOM     30  C   UNL     1      -3.181  23.740  30.596  1.00  0.00     0.048 C 
ATOM     31  O   UNL     1      -4.016  22.803  30.463  1.00  0.00    -0.550 OA
ATOM     32  O   UNL     1      -3.503  24.983  30.068  1.00  0.00    -0.550 OA
ENDBRANCH   1  30
BRANCH  27  33
ATOM     33  O   UNL     1      -0.632  24.082  41.410  1.00  0.00    -0.393 OA
ATOM     34  H   UNL     1      -1.212  24.782  41.810  1.00  0.00     0.210 HD
ENDBRANCH  27  33
TORSDOF 2
ENDMDL
MODEL 2
REMARK VINA RESULT:    -5.718      2.947      4.732
REMARK INTER + INTRA:          -5.648
REMARK INTER:                  -6.228
REMARK INTRA:                   0.580
REMARK UNBOUND:                 0.571
REMARK SMILES CC1(C)CC[C@@]2(C(=O)[O-])CC[C@]3(C)C(=CC[C@H]4[C@]5(C)CC[C@@H](O)C(C)(C)[C@H]5CC[C@@]43C)[C@@H]2C1
REMARK SMILES IDX 6 1 5 2 10 3 32 4 4 5 11 6 14 7 33 8 2 9 12 10 15 11 1 12
REMARK SMILES IDX 3 13 13 14 30 15 16 16 17 17 29 18 31 19 18 20 28 21 27 22
REMARK SMILES IDX 20 23 19 24 24 25 21 26 22 27 25 28 26 29 7 30 8 31 9 32
REMARK SMILES IDX 23 33
REMARK H PARENT 23 34
REMARK Flexibility Score: inf
ROOT
ATOM      1  C   UNL     1       1.870  27.177  30.947  1.00  0.00     0.017 C 
ATOM      2  C   UNL     1       1.521  27.932  29.610  1.00  0.00     0.014 C 
ATOM      3  C   UNL     1       1.106  27.819  32.141  1.00  0.00     0.014 C 
ATOM      4  C   UNL     1       1.346  25.717  30.835  1.00  0.00     0.028 C 
ATOM      5  C   UNL     1       1.232  27.020  28.386  1.00  0.00     0.007 C 
ATOM      6  C   UNL     1       1.228  27.084  33.513  1.00  0.00     0.013 C 
ATOM      7  C   UNL     1       1.130  24.963  32.160  1.00  0.00    -0.064 C 
ATOM      8  C   UNL     1       2.014  24.910  29.700  1.00  0.00     0.015 C 
ATOM      9  C   UNL     1       2.059  25.697  28.335  1.00  0.00    -0.035 C 
ATOM     10  C   UNL     1       1.633  25.552  33.508  1.00  0.00    -0.006 C 
ATOM     11  C   UNL     1       0.155  24.016  32.108  1.00  0.00    -0.027 C 
ATOM     12  C   UNL     1       1.457  24.804  27.225  1.00  0.00     0.011 C 
ATOM     13  C   UNL     1       3.514  26.020  27.921  1.00  0.00     0.011 C 
ATOM     14  C   UNL     1       3.195  25.466  33.578  1.00  0.00     0.017 C 
ATOM     15  C   UNL     1       1.028  24.736  34.781  1.00  0.00    -0.020 C 
ATOM     16  C   UNL     1      -0.600  23.484  33.287  1.00  0.00     0.032 C 
ATOM     17  C   UNL     1      -0.497  24.430  34.504  1.00  0.00     0.006 C 
ATOM     18  C   UNL     1       1.203  25.561  36.106  1.00  0.00     0.008 C 
ATOM     19  C   UNL     1       1.803  23.381  34.972  1.00  0.00     0.012 C 
ATOM     20  C   UNL     1      -1.426  24.028  35.745  1.00  0.00    -0.025 C 
ATOM     21  C   UNL     1       0.370  25.045  37.278  1.00  0.00     0.005 C 
ATOM     22  C   UNL     1      -1.133  25.052  36.903  1.00  0.00     0.003 C 
ATOM     23  C   UNL     1      -2.921  24.207  35.321  1.00  0.00     0.010 C 
ATOM     24  C   UNL     1      -1.230  22.535  36.186  1.00  0.00     0.012 C 
ATOM     25  C   UNL     1      -2.133  25.044  38.128  1.00  0.00    -0.006 C 
ATOM     26  C   UNL     1      -3.923  24.152  36.485  1.00  0.00     0.033 C 
ATOM     27  C   UNL     1      -3.593  25.171  37.586  1.00  0.00     0.120 C 
ATOM     28  C   UNL     1      -1.976  23.797  39.037  1.00  0.00     0.014 C 
ATOM     29  C   UNL     1      -1.876  26.292  39.022  1.00  0.00     0.014 C 
ENDROOT
BRANCH   1  30
ATOM     30  C   UNL     1       3.372  27.343  31.157  1.00  0.00     0.048 C 
ATOM     31  O   UNL     1       3.827  28.460  31.527  1.00  0.00    -0.550 OA
ATOM     32  O   UNL     1       4.276  26.319  30.909  1.00  0.00    -0.550 OA
ENDBRANCH   1  30
BRANCH  27  33
ATOM     33  O   UNL     1      -4.518  25.032  38.637  1.00  0.00    -0.393 OA
ATOM     34  H   UNL     1      -5.313  25.577  38.397  1.00  0.00     0.210 HD
ENDBRANCH  27  33
TORSDOF 2
ENDMDL
MODEL 3
REMARK VINA RESULT:    -5.663      2.304      3.259
REMARK INTER + INTRA:          -5.588
REMARK INTER:                  -6.159
REMARK INTRA:                   0.571
REMARK UNBOUND:                 0.571
REMARK SMILES CC1(C)CC[C@@]2(C(=O)[O-])CC[C@]3(C)C(=CC[C@H]4[C@]5(C)CC[C@@H](O)C(C)(C)[C@H]5CC[C@@]43C)[C@@H]2C1
REMARK SMILES IDX 6 1 5 2 10 3 32 4 4 5 11 6 14 7 33 8 2 9 12 10 15 11 1 12
REMARK SMILES IDX 3 13 13 14 30 15 16 16 17 17 29 18 31 19 18 20 28 21 27 22
REMARK SMILES IDX 20 23 19 24 24 25 21 26 22 27 25 28 26 29 7 30 8 31 9 32
REMARK SMILES IDX 23 33
REMARK H PARENT 23 34
REMARK Flexibility Score: inf
ROOT
ATOM      1  C   UNL     1       0.571  24.477  32.907  1.00  0.00     0.017 C 
ATOM      2  C   UNL     1       1.412  23.561  31.942  1.00  0.00     0.014 C 
ATOM      3  C   UNL     1      -0.556  23.647  33.589  1.00  0.00     0.014 C 
ATOM      4  C   UNL     1       1.501  24.964  34.054  1.00  0.00     0.028 C 
ATOM      5  C   UNL     1       2.953  23.742  32.027  1.00  0.00     0.007 C 
ATOM      6  C   UNL     1      -1.380  24.381  34.693  1.00  0.00     0.013 C 
ATOM      7  C   UNL     1       0.809  25.442  35.343  1.00  0.00    -0.064 C 
ATOM      8  C   UNL     1       2.681  25.831  33.561  1.00  0.00     0.015 C 
ATOM      9  C   UNL     1       3.435  25.195  32.331  1.00  0.00    -0.035 C 
ATOM     10  C   UNL     1      -0.733  25.644  35.396  1.00  0.00    -0.006 C 
ATOM     11  C   UNL     1       1.551  25.270  36.470  1.00  0.00    -0.027 C 
ATOM     12  C   UNL     1       4.947  25.138  32.649  1.00  0.00     0.011 C 
ATOM     13  C   UNL     1       3.268  26.063  31.062  1.00  0.00     0.011 C 
ATOM     14  C   UNL     1      -1.133  26.914  34.571  1.00  0.00     0.017 C 
ATOM     15  C   UNL     1      -1.257  25.853  36.925  1.00  0.00    -0.020 C 
ATOM     16  C   UNL     1       1.004  25.174  37.861  1.00  0.00     0.032 C 
ATOM     17  C   UNL     1      -0.501  24.828  37.860  1.00  0.00     0.006 C 
ATOM     18  C   UNL     1      -2.812  25.651  37.012  1.00  0.00     0.008 C 
ATOM     19  C   UNL     1      -0.950  27.318  37.405  1.00  0.00     0.012 C 
ATOM     20  C   UNL     1      -1.120  24.525  39.306  1.00  0.00    -0.025 C 
ATOM     21  C   UNL     1      -3.341  25.485  38.435  1.00  0.00     0.005 C 
ATOM     22  C   UNL     1      -2.661  24.270  39.114  1.00  0.00     0.003 C 
ATOM     23  C   UNL     1      -0.484  23.202  39.847  1.00  0.00     0.010 C 
ATOM     24  C   UNL     1      -0.814  25.662  40.343  1.00  0.00     0.012 C 
ATOM     25  C   UNL     1      -3.439  23.665  40.350  1.00  0.00    -0.006 C 
ATOM     26  C   UNL     1      -1.189  22.617  41.082  1.00  0.00     0.033 C 
ATOM     27  C   UNL     1      -2.687  22.386  40.841  1.00  0.00     0.120 C 
ATOM     28  C   UNL     1      -3.636  24.682  41.505  1.00  0.00     0.014 C 
ATOM     29  C   UNL     1      -4.858  23.207  39.903  1.00  0.00     0.014 C 
ENDROOT
BRANCH   1  30
ATOM     30  C   UNL     1      -0.055  25.562  32.036  1.00  0.00     0.048 C 
ATOM     31  O   UNL     1      -0.946  25.249  31.199  1.00  0.00    -0.550 OA
ATOM     32  O   UNL     1       0.353  26.888  32.091  1.00  0.00    -0.550 OA
ENDBRANCH   1  30
BRANCH  27  33
ATOM     33  O   UNL     1      -3.276  21.897  42.023  1.00  0.00    -0.393 OA
ATOM     34  H   UNL     1      -4.259  21.971  41.909  1.00  0.00     0.210 HD
ENDBRANCH  27  33
TORSDOF 2
ENDMDL
MODEL 4
REMARK VINA RESULT:    -5.587      5.279      6.963
REMARK INTER + INTRA:          -5.506
REMARK INTER:                  -6.079
REMARK INTRA:                   0.573
REMARK UNBOUND:                 0.571
REMARK SMILES CC1(C)CC[C@@]2(C(=O)[O-])CC[C@]3(C)C(=CC[C@H]4[C@]5(C)CC[C@@H](O)C(C)(C)[C@H]5CC[C@@]43C)[C@@H]2C1
REMARK SMILES IDX 6 1 5 2 10 3 32 4 4 5 11 6 14 7 33 8 2 9 12 10 15 11 1 12
REMARK SMILES IDX 3 13 13 14 30 15 16 16 17 17 29 18 31 19 18 20 28 21 27 22
REMARK SMILES IDX 20 23 19 24 24 25 21 26 22 27 25 28 26 29 7 30 8 31 9 32
REMARK SMILES IDX 23 33
REMARK H PARENT 23 34
REMARK Flexibility Score: inf
ROOT
ATOM      1  C   UNL     1       6.356  24.600  34.045  1.00  0.00     0.017 C 
ATOM      2  C   UNL     1       7.744  25.299  33.792  1.00  0.00     0.014 C 
ATOM      3  C   UNL     1       5.596  25.317  35.198  1.00  0.00     0.014 C 
ATOM      4  C   UNL     1       5.479  24.779  32.773  1.00  0.00     0.028 C 
ATOM      5  C   UNL     1       8.109  25.535  32.301  1.00  0.00     0.007 C 
ATOM      6  C   UNL     1       4.135  24.835  35.465  1.00  0.00     0.013 C 
ATOM      7  C   UNL     1       3.959  24.625  32.961  1.00  0.00    -0.064 C 
ATOM      8  C   UNL     1       6.075  24.107  31.516  1.00  0.00     0.015 C 
ATOM      9  C   UNL     1       7.603  24.439  31.312  1.00  0.00    -0.035 C 
ATOM     10  C   UNL     1       3.368  24.089  34.297  1.00  0.00    -0.006 C 
ATOM     11  C   UNL     1       3.214  25.350  32.084  1.00  0.00    -0.027 C 
ATOM     12  C   UNL     1       7.809  24.965  29.872  1.00  0.00     0.011 C 
ATOM     13  C   UNL     1       8.477  23.172  31.464  1.00  0.00     0.011 C 
ATOM     14  C   UNL     1       3.658  22.556  34.431  1.00  0.00     0.017 C 
ATOM     15  C   UNL     1       1.754  24.303  34.365  1.00  0.00    -0.020 C 
ATOM     16  C   UNL     1       1.799  25.787  32.305  1.00  0.00     0.032 C 
ATOM     17  C   UNL     1       1.413  25.738  33.800  1.00  0.00     0.006 C 
ATOM     18  C   UNL     1       1.234  24.141  35.837  1.00  0.00     0.008 C 
ATOM     19  C   UNL     1       1.029  23.214  33.493  1.00  0.00     0.012 C 
ATOM     20  C   UNL     1      -0.022  26.363  34.141  1.00  0.00    -0.025 C 
ATOM     21  C   UNL     1      -0.187  24.657  36.058  1.00  0.00     0.005 C 
ATOM     22  C   UNL     1      -0.269  26.158  35.681  1.00  0.00     0.003 C 
ATOM     23  C   UNL     1       0.036  27.904  33.872  1.00  0.00     0.010 C 
ATOM     24  C   UNL     1      -1.168  25.765  33.253  1.00  0.00     0.012 C 
ATOM     25  C   UNL     1      -1.484  26.946  36.317  1.00  0.00    -0.006 C 
ATOM     26  C   UNL     1      -1.159  28.692  34.433  1.00  0.00     0.033 C 
ATOM     27  C   UNL     1      -1.355  28.457  35.938  1.00  0.00     0.120 C 
ATOM     28  C   UNL     1      -2.866  26.377  35.903  1.00  0.00     0.014 C 
ATOM     29  C   UNL     1      -1.406  26.865  37.869  1.00  0.00     0.014 C 
ENDROOT
BRANCH   1  30
ATOM     30  C   UNL     1       6.666  23.163  34.458  1.00  0.00     0.048 C 
ATOM     31  O   UNL     1       7.192  22.940  35.582  1.00  0.00    -0.550 OA
ATOM     32  O   UNL     1       6.434  22.082  33.618  1.00  0.00    -0.550 OA
ENDBRANCH   1  30
BRANCH  27  33
ATOM     33  O   UNL     1      -2.490  29.168  36.373  1.00  0.00    -0.393 OA
ATOM     34  H   UNL     1      -2.494  30.033  35.885  1.00  0.00     0.210 HD
ENDBRANCH  27  33
TORSDOF 2
ENDMDL
MODEL 5
REMARK VINA RESULT:    -5.584      3.353      7.217
REMARK INTER + INTRA:          -5.503
REMARK INTER:                  -6.070
REMARK INTRA:                   0.567
REMARK UNBOUND:                 0.571
REMARK SMILES CC1(C)CC[C@@]2(C(=O)[O-])CC[C@]3(C)C(=CC[C@H]4[C@]5(C)CC[C@@H](O)C(C)(C)[C@H]5CC[C@@]43C)[C@@H]2C1
REMARK SMILES IDX 6 1 5 2 10 3 32 4 4 5 11 6 14 7 33 8 2 9 12 10 15 11 1 12
REMARK SMILES IDX 3 13 13 14 30 15 16 16 17 17 29 18 31 19 18 20 28 21 27 22
REMARK SMILES IDX 20 23 19 24 24 25 21 26 22 27 25 28 26 29 7 30 8 31 9 32
REMARK SMILES IDX 23 33
REMARK H PARENT 23 34
REMARK Flexibility Score: inf
ROOT
ATOM      1  C   UNL     1      -5.684  24.581  32.778  1.00  0.00     0.017 C 
ATOM      2  C   UNL     1      -7.080  25.247  33.076  1.00  0.00     0.014 C 
ATOM      3  C   UNL     1      -4.979  25.315  31.602  1.00  0.00     0.014 C 
ATOM      4  C   UNL     1      -4.771  24.782  34.022  1.00  0.00     0.028 C 
ATOM      5  C   UNL     1      -7.402  25.476  34.578  1.00  0.00     0.007 C 
ATOM      6  C   UNL     1      -3.515  24.869  31.289  1.00  0.00     0.013 C 
ATOM      7  C   UNL     1      -3.255  24.665  33.785  1.00  0.00    -0.064 C 
ATOM      8  C   UNL     1      -5.311  24.097  35.297  1.00  0.00     0.015 C 
ATOM      9  C   UNL     1      -6.838  24.392  35.550  1.00  0.00    -0.035 C 
ATOM     10  C   UNL     1      -2.694  24.142  32.431  1.00  0.00    -0.006 C 
ATOM     11  C   UNL     1      -2.500  25.407  34.638  1.00  0.00    -0.027 C 
ATOM     12  C   UNL     1      -7.011  24.915  36.996  1.00  0.00     0.011 C 
ATOM     13  C   UNL     1      -7.687  23.105  35.426  1.00  0.00     0.011 C 
ATOM     14  C   UNL     1      -2.951  22.602  32.307  1.00  0.00     0.017 C 
ATOM     15  C   UNL     1      -1.089  24.394  32.312  1.00  0.00    -0.020 C 
ATOM     16  C   UNL     1      -1.102  25.878  34.373  1.00  0.00     0.032 C 
ATOM     17  C   UNL     1      -0.764  25.837  32.866  1.00  0.00     0.006 C 
ATOM     18  C   UNL     1      -0.612  24.244  30.823  1.00  0.00     0.008 C 
ATOM     19  C   UNL     1      -0.310  23.323  33.160  1.00  0.00     0.012 C 
ATOM     20  C   UNL     1       0.644  26.497  32.479  1.00  0.00    -0.025 C 
ATOM     21  C   UNL     1       0.789  24.794  30.558  1.00  0.00     0.005 C 
ATOM     22  C   UNL     1       0.847  26.296  30.931  1.00  0.00     0.003 C 
ATOM     23  C   UNL     1       0.558  28.036  32.750  1.00  0.00     0.010 C 
ATOM     24  C   UNL     1       1.832  25.927  33.330  1.00  0.00     0.012 C 
ATOM     25  C   UNL     1       2.021  27.113  30.258  1.00  0.00    -0.006 C 
ATOM     26  C   UNL     1       1.715  28.851  32.151  1.00  0.00     0.033 C 
ATOM     27  C   UNL     1       1.869  28.621  30.641  1.00  0.00     0.120 C 
ATOM     28  C   UNL     1       3.429  26.577  30.627  1.00  0.00     0.014 C 
ATOM     29  C   UNL     1       1.896  27.029  28.709  1.00  0.00     0.014 C 
ENDROOT
BRANCH   1  30
ATOM     30  C   UNL     1      -5.972  23.137  32.376  1.00  0.00     0.048 C 
ATOM     31  O   UNL     1      -6.527  22.901  31.268  1.00  0.00    -0.550 OA
ATOM     32  O   UNL     1      -5.690  22.063  33.209  1.00  0.00    -0.550 OA
ENDBRANCH   1  30
BRANCH  27  33
ATOM     33  O   UNL     1       2.972  29.358  30.170  1.00  0.00    -0.393 OA
ATOM     34  H   UNL     1       3.630  28.702  29.819  1.00  0.00     0.210 HD
ENDBRANCH  27  33
TORSDOF 2
ENDMDL
MODEL 6
REMARK VINA RESULT:    -5.573      3.492      4.595
REMARK INTER + INTRA:          -5.491
REMARK INTER:                  -6.059
REMARK INTRA:                   0.569
REMARK UNBOUND:                 0.571
REMARK SMILES CC1(C)CC[C@@]2(C(=O)[O-])CC[C@]3(C)C(=CC[C@H]4[C@]5(C)CC[C@@H](O)C(C)(C)[C@H]5CC[C@@]43C)[C@@H]2C1
REMARK SMILES IDX 6 1 5 2 10 3 32 4 4 5 11 6 14 7 33 8 2 9 12 10 15 11 1 12
REMARK SMILES IDX 3 13 13 14 30 15 16 16 17 17 29 18 31 19 18 20 28 21 27 22
REMARK SMILES IDX 20 23 19 24 24 25 21 26 22 27 25 28 26 29 7 30 8 31 9 32
REMARK SMILES IDX 23 33
REMARK H PARENT 23 34
REMARK Flexibility Score: inf
ROOT
ATOM      1  C   UNL     1       3.573  24.367  34.449  1.00  0.00     0.017 C 
ATOM      2  C   UNL     1       4.998  25.037  34.399  1.00  0.00     0.014 C 
ATOM      3  C   UNL     1       3.230  23.941  35.906  1.00  0.00     0.014 C 
ATOM      4  C   UNL     1       2.516  25.436  34.051  1.00  0.00     0.028 C 
ATOM      5  C   UNL     1       5.095  26.331  33.546  1.00  0.00     0.007 C 
ATOM      6  C   UNL     1       1.785  23.401  36.144  1.00  0.00     0.013 C 
ATOM      7  C   UNL     1       1.067  25.167  34.498  1.00  0.00    -0.064 C 
ATOM      8  C   UNL     1       2.691  25.966  32.610  1.00  0.00     0.015 C 
ATOM      9  C   UNL     1       4.181  26.363  32.282  1.00  0.00    -0.035 C 
ATOM     10  C   UNL     1       0.658  23.793  35.102  1.00  0.00    -0.006 C 
ATOM     11  C   UNL     1       0.331  26.291  34.703  1.00  0.00    -0.027 C 
ATOM     12  C   UNL     1       4.199  27.804  31.719  1.00  0.00     0.011 C 
ATOM     13  C   UNL     1       4.780  25.441  31.195  1.00  0.00     0.011 C 
ATOM     14  C   UNL     1       0.639  22.701  33.979  1.00  0.00     0.017 C 
ATOM     15  C   UNL     1      -0.827  23.852  35.770  1.00  0.00    -0.020 C 
ATOM     16  C   UNL     1      -0.886  26.383  35.571  1.00  0.00     0.032 C 
ATOM     17  C   UNL     1      -0.964  25.207  36.570  1.00  0.00     0.006 C 
ATOM     18  C   UNL     1      -1.062  22.617  36.712  1.00  0.00     0.008 C 
ATOM     19  C   UNL     1      -1.926  23.796  34.648  1.00  0.00     0.012 C 
ATOM     20  C   UNL     1      -2.135  25.328  37.657  1.00  0.00    -0.025 C 
ATOM     21  C   UNL     1      -2.267  22.760  37.639  1.00  0.00     0.005 C 
ATOM     22  C   UNL     1      -2.105  24.018  38.528  1.00  0.00     0.003 C 
ATOM     23  C   UNL     1      -1.809  26.533  38.600  1.00  0.00     0.010 C 
ATOM     24  C   UNL     1      -3.537  25.596  37.006  1.00  0.00     0.012 C 
ATOM     25  C   UNL     1      -2.972  24.026  39.851  1.00  0.00    -0.006 C 
ATOM     26  C   UNL     1      -2.672  26.596  39.871  1.00  0.00     0.033 C 
ATOM     27  C   UNL     1      -2.606  25.296  40.684  1.00  0.00     0.120 C 
ATOM     28  C   UNL     1      -4.497  23.948  39.582  1.00  0.00     0.014 C 
ATOM     29  C   UNL     1      -2.602  22.793  40.726  1.00  0.00     0.014 C 
ENDROOT
BRANCH   1  30
ATOM     30  C   UNL     1       3.649  23.126  33.562  1.00  0.00     0.048 C 
ATOM     31  O   UNL     1       4.314  22.126  33.950  1.00  0.00    -0.550 OA
ATOM     32  O   UNL     1       3.051  23.069  32.311  1.00  0.00    -0.550 OA
ENDBRANCH   1  30
BRANCH  27  33
ATOM     33  O   UNL     1      -3.453  25.407  41.803  1.00  0.00    -0.393 OA
ATOM     34  H   UNL     1      -2.872  25.408  42.608  1.00  0.00     0.210 HD
ENDBRANCH  27  33
TORSDOF 2
ENDMDL
MODEL 7
REMARK VINA RESULT:    -5.546      2.410      8.254
REMARK INTER + INTRA:          -5.462
REMARK INTER:                  -6.031
REMARK INTRA:                   0.569
REMARK UNBOUND:                 0.571
REMARK SMILES CC1(C)CC[C@@]2(C(=O)[O-])CC[C@]3(C)C(=CC[C@H]4[C@]5(C)CC[C@@H](O)C(C)(C)[C@H]5CC[C@@]43C)[C@@H]2C1
REMARK SMILES IDX 6 1 5 2 10 3 32 4 4 5 11 6 14 7 33 8 2 9 12 10 15 11 1 12
REMARK SMILES IDX 3 13 13 14 30 15 16 16 17 17 29 18 31 19 18 20 28 21 27 22
REMARK SMILES IDX 20 23 19 24 24 25 21 26 22 27 25 28 26 29 7 30 8 31 9 32
REMARK SMILES IDX 23 33
REMARK H PARENT 23 34
REMARK Flexibility Score: inf
ROOT
ATOM      1  C   UNL     1      -1.061  24.874  39.384  1.00  0.00     0.017 C 
ATOM      2  C   UNL     1      -0.809  23.856  40.559  1.00  0.00     0.014 C 
ATOM      3  C   UNL     1       0.263  25.140  38.612  1.00  0.00     0.014 C 
ATOM      4  C   UNL     1      -2.030  24.213  38.363  1.00  0.00     0.028 C 
ATOM      5  C   UNL     1      -1.876  22.737  40.710  1.00  0.00     0.007 C 
ATOM      6  C   UNL     1       0.145  26.011  37.321  1.00  0.00     0.013 C 
ATOM      7  C   UNL     1      -2.026  24.794  36.938  1.00  0.00    -0.064 C 
ATOM      8  C   UNL     1      -3.420  23.890  38.956  1.00  0.00     0.015 C 
ATOM      9  C   UNL     1      -3.335  23.157  40.349  1.00  0.00    -0.035 C 
ATOM     10  C   UNL     1      -1.268  26.114  36.614  1.00  0.00    -0.006 C 
ATOM     11  C   UNL     1      -2.354  23.897  35.970  1.00  0.00    -0.027 C 
ATOM     12  C   UNL     1      -4.198  21.875  40.291  1.00  0.00     0.011 C 
ATOM     13  C   UNL     1      -3.906  24.040  41.483  1.00  0.00     0.011 C 
ATOM     14  C   UNL     1      -2.031  27.333  37.235  1.00  0.00     0.017 C 
ATOM     15  C   UNL     1      -1.154  26.359  35.007  1.00  0.00    -0.020 C 
ATOM     16  C   UNL     1      -1.978  24.006  34.524  1.00  0.00     0.032 C 
ATOM     17  C   UNL     1      -0.802  24.985  34.313  1.00  0.00     0.006 C 
ATOM     18  C   UNL     1      -0.066  27.445  34.687  1.00  0.00     0.008 C 
ATOM     19  C   UNL     1      -2.522  26.891  34.444  1.00  0.00     0.012 C 
ATOM     20  C   UNL     1      -0.219  25.019  32.821  1.00  0.00    -0.025 C 
ATOM     21  C   UNL     1       0.355  27.493  33.219  1.00  0.00     0.005 C 
ATOM     22  C   UNL     1       0.910  26.114  32.782  1.00  0.00     0.003 C 
ATOM     23  C   UNL     1       0.452  23.636  32.523  1.00  0.00     0.010 C 
ATOM     24  C   UNL     1      -1.334  25.252  31.743  1.00  0.00     0.012 C 
ATOM     25  C   UNL     1       1.835  26.135  31.500  1.00  0.00    -0.006 C 
ATOM     26  C   UNL     1       1.317  23.611  31.252  1.00  0.00     0.033 C 
ATOM     27  C   UNL     1       2.402  24.698  31.265  1.00  0.00     0.120 C 
ATOM     28  C   UNL     1       1.114  26.670  30.235  1.00  0.00     0.014 C 
ATOM     29  C   UNL     1       3.058  27.064  31.752  1.00  0.00     0.014 C 
ENDROOT
BRANCH   1  30
ATOM     30  C   UNL     1      -1.540  26.170  40.032  1.00  0.00     0.048 C 
ATOM     31  O   UNL     1      -0.746  26.834  40.753  1.00  0.00    -0.550 OA
ATOM     32  O   UNL     1      -2.843  26.630  39.899  1.00  0.00    -0.550 OA
ENDBRANCH   1  30
BRANCH  27  33
ATOM     33  O   UNL     1       3.121  24.648  30.057  1.00  0.00    -0.393 OA
ATOM     34  H   UNL     1       2.461  24.485  29.333  1.00  0.00     0.210 HD
ENDBRANCH  27  33
TORSDOF 2
ENDMDL
MODEL 8
REMARK VINA RESULT:    -5.507      2.705      8.255
REMARK INTER + INTRA:          -5.419
REMARK INTER:                  -6.021
REMARK INTRA:                   0.602
REMARK UNBOUND:                 0.571
REMARK SMILES CC1(C)CC[C@@]2(C(=O)[O-])CC[C@]3(C)C(=CC[C@H]4[C@]5(C)CC[C@@H](O)C(C)(C)[C@H]5CC[C@@]43C)[C@@H]2C1
REMARK SMILES IDX 6 1 5 2 10 3 32 4 4 5 11 6 14 7 33 8 2 9 12 10 15 11 1 12
REMARK SMILES IDX 3 13 13 14 30 15 16 16 17 17 29 18 31 19 18 20 28 21 27 22
REMARK SMILES IDX 20 23 19 24 24 25 21 26 22 27 25 28 26 29 7 30 8 31 9 32
REMARK SMILES IDX 23 33
REMARK H PARENT 23 34
REMARK Flexibility Score: inf
ROOT
ATOM      1  C   UNL     1      -1.441  26.806  35.732  1.00  0.00     0.017 C 
ATOM      2  C   UNL     1      -1.126  27.456  37.131  1.00  0.00     0.014 C 
ATOM      3  C   UNL     1      -0.636  27.526  34.612  1.00  0.00     0.014 C 
ATOM      4  C   UNL     1      -0.935  25.335  35.751  1.00  0.00     0.028 C 
ATOM      5  C   UNL     1      -0.884  26.453  38.292  1.00  0.00     0.007 C 
ATOM      6  C   UNL     1      -0.723  26.894  33.186  1.00  0.00     0.013 C 
ATOM      7  C   UNL     1      -0.686  24.678  34.381  1.00  0.00    -0.064 C 
ATOM      8  C   UNL     1      -1.646  24.455  36.803  1.00  0.00     0.015 C 
ATOM      9  C   UNL     1      -1.725  25.140  38.221  1.00  0.00    -0.035 C 
ATOM     10  C   UNL     1      -1.142  25.372  33.066  1.00  0.00    -0.006 C 
ATOM     11  C   UNL     1       0.278  23.719  34.392  1.00  0.00    -0.027 C 
ATOM     12  C   UNL     1      -1.165  24.160  39.279  1.00  0.00     0.011 C 
ATOM     13  C   UNL     1      -3.188  25.449  38.614  1.00  0.00     0.011 C 
ATOM     14  C   UNL     1      -2.703  25.309  32.944  1.00  0.00     0.017 C 
ATOM     15  C   UNL     1      -0.506  24.644  31.754  1.00  0.00    -0.020 C 
ATOM     16  C   UNL     1       1.063  23.267  33.199  1.00  0.00     0.032 C 
ATOM     17  C   UNL     1       1.006  24.301  32.054  1.00  0.00     0.006 C 
ATOM     18  C   UNL     1      -0.633  25.567  30.490  1.00  0.00     0.008 C 
ATOM     19  C   UNL     1      -1.289  23.317  31.441  1.00  0.00     0.012 C 
ATOM     20  C   UNL     1       1.968  23.980  30.814  1.00  0.00    -0.025 C 
ATOM     21  C   UNL     1       0.230  25.129  29.308  1.00  0.00     0.005 C 
ATOM     22  C   UNL     1       1.721  25.090  29.727  1.00  0.00     0.003 C 
ATOM     23  C   UNL     1       3.452  24.111  31.295  1.00  0.00     0.010 C 
ATOM     24  C   UNL     1       1.772  22.527  30.258  1.00  0.00     0.012 C 
ATOM     25  C   UNL     1       2.757  25.161  28.535  1.00  0.00    -0.006 C 
ATOM     26  C   UNL     1       4.488  24.130  30.160  1.00  0.00     0.033 C 
ATOM     27  C   UNL     1       4.202  25.230  29.128  1.00  0.00     0.120 C 
ATOM     28  C   UNL     1       2.617  23.986  27.532  1.00  0.00     0.014 C 
ATOM     29  C   UNL     1       2.540  26.475  27.729  1.00  0.00     0.014 C 
ENDROOT
BRANCH   1  30
ATOM     30  C   UNL     1      -2.935  27.005  35.490  1.00  0.00     0.048 C 
ATOM     31  O   UNL     1      -3.357  28.129  35.102  1.00  0.00    -0.550 OA
ATOM     32  O   UNL     1      -3.867  26.004  35.729  1.00  0.00    -0.550 OA
ENDBRANCH   1  30
BRANCH  27  33
ATOM     33  O   UNL     1       5.157  25.159  28.098  1.00  0.00    -0.393 OA
ATOM     34  H   UNL     1       6.032  24.967  28.526  1.00  0.00     0.210 HD
ENDBRANCH  27  33
TORSDOF 2
ENDMDL
MODEL 9
REMARK VINA RESULT:    -5.452      2.463      3.427
REMARK INTER + INTRA:          -5.359
REMARK INTER:                  -5.926
REMARK INTRA:                   0.567
REMARK UNBOUND:                 0.571
REMARK SMILES CC1(C)CC[C@@]2(C(=O)[O-])CC[C@]3(C)C(=CC[C@H]4[C@]5(C)CC[C@@H](O)C(C)(C)[C@H]5CC[C@@]43C)[C@@H]2C1
REMARK SMILES IDX 6 1 5 2 10 3 32 4 4 5 11 6 14 7 33 8 2 9 12 10 15 11 1 12
REMARK SMILES IDX 3 13 13 14 30 15 16 16 17 17 29 18 31 19 18 20 28 21 27 22
REMARK SMILES IDX 20 23 19 24 24 25 21 26 22 27 25 28 26 29 7 30 8 31 9 32
REMARK SMILES IDX 23 33
REMARK H PARENT 23 34
REMARK Flexibility Score: inf
ROOT
ATOM      1  C   UNL     1       2.364  25.053  31.870  1.00  0.00     0.017 C 
ATOM      2  C   UNL     1       3.655  25.834  31.421  1.00  0.00     0.014 C 
ATOM      3  C   UNL     1       2.537  24.520  33.322  1.00  0.00     0.014 C 
ATOM      4  C   UNL     1       1.177  26.056  31.918  1.00  0.00     0.028 C 
ATOM      5  C   UNL     1       3.398  27.179  30.686  1.00  0.00     0.007 C 
ATOM      6  C   UNL     1       1.280  23.855  33.967  1.00  0.00     0.013 C 
ATOM      7  C   UNL     1      -0.031  25.649  32.782  1.00  0.00    -0.064 C 
ATOM      8  C   UNL     1       0.844  26.679  30.544  1.00  0.00     0.015 C 
ATOM      9  C   UNL     1       2.121  27.211  29.788  1.00  0.00    -0.035 C 
ATOM     10  C   UNL     1      -0.144  24.215  33.375  1.00  0.00    -0.006 C 
ATOM     11  C   UNL     1      -0.722  26.699  33.301  1.00  0.00    -0.027 C 
ATOM     12  C   UNL     1       1.875  28.678  29.365  1.00  0.00     0.011 C 
ATOM     13  C   UNL     1       2.386  26.401  28.497  1.00  0.00     0.011 C 
ATOM     14  C   UNL     1      -0.466  23.191  32.234  1.00  0.00     0.017 C 
ATOM     15  C   UNL     1      -1.332  24.119  34.486  1.00  0.00    -0.020 C 
ATOM     16  C   UNL     1      -1.594  26.645  34.518  1.00  0.00     0.032 C 
ATOM     17  C   UNL     1      -1.277  25.412  35.393  1.00  0.00     0.006 C 
ATOM     18  C   UNL     1      -1.178  22.819  35.353  1.00  0.00     0.008 C 
ATOM     19  C   UNL     1      -2.731  24.041  33.774  1.00  0.00     0.012 C 
ATOM     20  C   UNL     1      -2.037  25.378  36.803  1.00  0.00    -0.025 C 
ATOM     21  C   UNL     1      -2.023  22.813  36.626  1.00  0.00     0.005 C 
ATOM     22  C   UNL     1      -1.651  24.028  37.512  1.00  0.00     0.003 C 
ATOM     23  C   UNL     1      -1.490  26.550  37.685  1.00  0.00     0.010 C 
ATOM     24  C   UNL     1      -3.586  25.572  36.658  1.00  0.00     0.012 C 
ATOM     25  C   UNL     1      -2.040  23.892  39.039  1.00  0.00    -0.006 C 
ATOM     26  C   UNL     1      -1.895  26.473  39.165  1.00  0.00     0.033 C 
ATOM     27  C   UNL     1      -1.496  25.138  39.810  1.00  0.00     0.120 C 
ATOM     28  C   UNL     1      -3.564  23.710  39.268  1.00  0.00     0.014 C 
ATOM     29  C   UNL     1      -1.338  22.645  39.649  1.00  0.00     0.014 C 
ENDROOT
BRANCH   1  30
ATOM     30  C   UNL     1       2.217  23.874  30.911  1.00  0.00     0.048 C 
ATOM     31  O   UNL     1       3.038  22.918  30.972  1.00  0.00    -0.550 OA
ATOM     32  O   UNL     1       1.235  23.832  29.930  1.00  0.00    -0.550 OA
ENDBRANCH   1  30
BRANCH  27  33
ATOM     33  O   UNL     1      -1.938  25.118  41.145  1.00  0.00    -0.393 OA
ATOM     34  H   UNL     1      -1.837  24.185  41.470  1.00  0.00     0.210 HD
ENDBRANCH  27  33
TORSDOF 2
ENDMDL
