MODEL 1
REMARK VINA RESULT:    -5.262      0.000      0.000
REMARK INTER + INTRA:          -5.788
REMARK INTER:                  -5.724
REMARK INTRA:                  -0.064
REMARK UNBOUND:                -0.064
REMARK SMILES COc1cc2ccc(=O)oc2cc1O
REMARK SMILES IDX 3 1 13 2 12 3 11 4 5 5 4 6 6 7 7 8 8 9 9 10 10 11 2 12 1 13
REMARK SMILES IDX 14 14
REMARK H PARENT 14 15
REMARK Flexibility Score: inf
ROOT
ATOM      1  C   UNL     1      19.848  18.888   7.570  1.00  0.00     0.161 A 
ATOM      2  C   UNL     1      19.110  18.999   8.764  1.00  0.00     0.161 A 
ATOM      3  C   UNL     1      19.751  18.893  10.003  1.00  0.00     0.098 A 
ATOM      4  C   UNL     1      21.129  18.676  10.070  1.00  0.00     0.142 A 
ATOM      5  C   UNL     1      21.878  18.563   8.881  1.00  0.00     0.022 A 
ATOM      6  C   UNL     1      21.240  18.669   7.637  1.00  0.00     0.062 A 
ATOM      7  C   UNL     1      23.256  18.346   8.979  1.00  0.00     0.019 A 
ATOM      8  C   UNL     1      23.846  18.248  10.240  1.00  0.00     0.094 A 
ATOM      9  C   UNL     1      23.039  18.371  11.376  1.00  0.00     0.336 A 
ATOM     10  O   UNL     1      23.552  18.284  12.522  1.00  0.00    -0.246 OA
ATOM     11  O   UNL     1      21.730  18.577  11.253  1.00  0.00    -0.423 OA
ENDROOT
BRANCH   1  12
ATOM     12  O   UNL     1      19.173  19.000   6.344  1.00  0.00    -0.493 OA
ATOM     13  C   UNL     1      18.719  17.896   5.567  1.00  0.00     0.278 C 
ENDBRANCH   1  12
BRANCH   2  14
ATOM     14  O   UNL     1      17.732  19.217   8.739  1.00  0.00    -0.504 OA
ATOM     15  H   UNL     1      17.245  19.691   9.489  1.00  0.00     0.293 HD
ENDBRANCH   2  14
TORSDOF 2
ENDMDL
MODEL 2
REMARK VINA RESULT:    -4.945      1.529      5.402
REMARK INTER + INTRA:          -5.443
REMARK INTER:                  -5.477
REMARK INTRA:                   0.034
REMARK UNBOUND:                -0.064
REMARK SMILES COc1cc2ccc(=O)oc2cc1O
REMARK SMILES IDX 3 1 13 2 12 3 11 4 5 5 4 6 6 7 7 8 8 9 9 10 10 11 2 12 1 13
REMARK SMILES IDX 14 14
REMARK H PARENT 14 15
REMARK Flexibility Score: inf
ROOT
ATOM      1  C   UNL     1      22.199  18.245  10.498  1.00  0.00     0.161 A 
ATOM      2  C   UNL     1      23.205  18.365   9.519  1.00  0.00     0.161 A 
ATOM      3  C   UNL     1      22.865  18.586   8.180  1.00  0.00     0.098 A 
ATOM      4  C   UNL     1      21.525  18.689   7.799  1.00  0.00     0.142 A 
ATOM      5  C   UNL     1      20.509  18.571   8.770  1.00  0.00     0.022 A 
ATOM      6  C   UNL     1      20.845  18.349  10.113  1.00  0.00     0.062 A 
ATOM      7  C   UNL     1      19.177  18.679   8.358  1.00  0.00     0.019 A 
ATOM      8  C   UNL     1      18.893  18.899   7.010  1.00  0.00     0.094 A 
ATOM      9  C   UNL     1      19.952  19.007   6.103  1.00  0.00     0.336 A 
ATOM     10  O   UNL     1      19.717  19.205   4.883  1.00  0.00    -0.246 OA
ATOM     11  O   UNL     1      21.211  18.900   6.522  1.00  0.00    -0.423 OA
ENDROOT
BRANCH   1  12
ATOM     12  O   UNL     1      22.575  18.024  11.832  1.00  0.00    -0.493 OA
ATOM     13  C   UNL     1      23.105  19.022  12.699  1.00  0.00     0.278 C 
ENDBRANCH   1  12
BRANCH   2  14
ATOM     14  O   UNL     1      24.554  18.267   9.861  1.00  0.00    -0.504 OA
ATOM     15  H   UNL     1      24.886  18.429  10.804  1.00  0.00     0.293 HD
ENDBRANCH   2  14
TORSDOF 2
ENDMDL
MODEL 3
REMARK VINA RESULT:    -4.918      2.458      4.833
REMARK INTER + INTRA:          -5.413
REMARK INTER:                  -5.363
REMARK INTRA:                  -0.051
REMARK UNBOUND:                -0.064
REMARK SMILES COc1cc2ccc(=O)oc2cc1O
REMARK SMILES IDX 3 1 13 2 12 3 11 4 5 5 4 6 6 7 7 8 8 9 9 10 10 11 2 12 1 13
REMARK SMILES IDX 14 14
REMARK H PARENT 14 15
REMARK Flexibility Score: inf
ROOT
ATOM      1  C   UNL     1      21.500  16.523  11.133  1.00  0.00     0.161 A 
ATOM      2  C   UNL     1      22.877  16.819  11.171  1.00  0.00     0.161 A 
ATOM      3  C   UNL     1      23.446  17.652  10.202  1.00  0.00     0.098 A 
ATOM      4  C   UNL     1      22.657  18.199   9.187  1.00  0.00     0.142 A 
ATOM      5  C   UNL     1      21.278  17.909   9.140  1.00  0.00     0.022 A 
ATOM      6  C   UNL     1      20.703  17.075  10.109  1.00  0.00     0.062 A 
ATOM      7  C   UNL     1      20.513  18.471   8.113  1.00  0.00     0.019 A 
ATOM      8  C   UNL     1      21.131  19.296   7.172  1.00  0.00     0.094 A 
ATOM      9  C   UNL     1      22.504  19.539   7.282  1.00  0.00     0.336 A 
ATOM     10  O   UNL     1      23.080  20.279   6.443  1.00  0.00    -0.246 OA
ATOM     11  O   UNL     1      23.207  18.991   8.270  1.00  0.00    -0.423 OA
ENDROOT
BRANCH   1  12
ATOM     12  O   UNL     1      20.961  15.683  12.121  1.00  0.00    -0.493 OA
ATOM     13  C   UNL     1      20.085  14.591  11.864  1.00  0.00     0.278 C 
ENDBRANCH   1  12
BRANCH   2  14
ATOM     14  O   UNL     1      23.698  16.292  12.168  1.00  0.00    -0.504 OA
ATOM     15  H   UNL     1      23.324  15.890  13.019  1.00  0.00     0.293 HD
ENDBRANCH   2  14
TORSDOF 2
ENDMDL
MODEL 4
REMARK VINA RESULT:    -4.876      1.757      4.674
REMARK INTER + INTRA:          -5.368
REMARK INTER:                  -5.318
REMARK INTRA:                  -0.050
REMARK UNBOUND:                -0.064
REMARK SMILES COc1cc2ccc(=O)oc2cc1O
REMARK SMILES IDX 3 1 13 2 12 3 11 4 5 5 4 6 6 7 7 8 8 9 9 10 10 11 2 12 1 13
REMARK SMILES IDX 14 14
REMARK H PARENT 14 15
REMARK Flexibility Score: inf
ROOT
ATOM      1  C   UNL     1      21.840  18.564  10.404  1.00  0.00     0.161 A 
ATOM      2  C   UNL     1      20.646  19.148   9.938  1.00  0.00     0.161 A 
ATOM      3  C   UNL     1      20.399  19.251   8.565  1.00  0.00     0.098 A 
ATOM      4  C   UNL     1      21.333  18.776   7.641  1.00  0.00     0.142 A 
ATOM      5  C   UNL     1      22.533  18.190   8.096  1.00  0.00     0.022 A 
ATOM      6  C   UNL     1      22.784  18.084   9.472  1.00  0.00     0.062 A 
ATOM      7  C   UNL     1      23.449  17.723   7.148  1.00  0.00     0.019 A 
ATOM      8  C   UNL     1      23.153  17.851   5.791  1.00  0.00     0.094 A 
ATOM      9  C   UNL     1      21.944  18.443   5.413  1.00  0.00     0.336 A 
ATOM     10  O   UNL     1      21.659  18.567   4.194  1.00  0.00    -0.246 OA
ATOM     11  O   UNL     1      21.090  18.878   6.337  1.00  0.00    -0.423 OA
ENDROOT
BRANCH   1  12
ATOM     12  O   UNL     1      22.056  18.476  11.789  1.00  0.00    -0.493 OA
ATOM     13  C   UNL     1      23.272  18.826  12.442  1.00  0.00     0.278 C 
ENDBRANCH   1  12
BRANCH   2  14
ATOM     14  O   UNL     1      19.689  19.633  10.830  1.00  0.00    -0.504 OA
ATOM     15  H   UNL     1      19.377  19.099  11.631  1.00  0.00     0.293 HD
ENDBRANCH   2  14
TORSDOF 2
ENDMDL
MODEL 5
REMARK VINA RESULT:    -4.778      1.432      4.993
REMARK INTER + INTRA:          -5.262
REMARK INTER:                  -5.204
REMARK INTRA:                  -0.057
REMARK UNBOUND:                -0.064
REMARK SMILES COc1cc2ccc(=O)oc2cc1O
REMARK SMILES IDX 3 1 13 2 12 3 11 4 5 5 4 6 6 7 7 8 8 9 9 10 10 11 2 12 1 13
REMARK SMILES IDX 14 14
REMARK H PARENT 14 15
REMARK Flexibility Score: inf
ROOT
ATOM      1  C   UNL     1      22.513  17.742  10.575  1.00  0.00     0.161 A 
ATOM      2  C   UNL     1      21.308  17.068  10.854  1.00  0.00     0.161 A 
ATOM      3  C   UNL     1      20.228  17.157   9.969  1.00  0.00     0.098 A 
ATOM      4  C   UNL     1      20.333  17.914   8.800  1.00  0.00     0.142 A 
ATOM      5  C   UNL     1      21.534  18.593   8.511  1.00  0.00     0.022 A 
ATOM      6  C   UNL     1      22.619  18.507   9.395  1.00  0.00     0.062 A 
ATOM      7  C   UNL     1      21.610  19.344   7.333  1.00  0.00     0.019 A 
ATOM      8  C   UNL     1      20.503  19.399   6.485  1.00  0.00     0.094 A 
ATOM      9  C   UNL     1      19.344  18.699   6.836  1.00  0.00     0.336 A 
ATOM     10  O   UNL     1      18.336  18.736   6.085  1.00  0.00    -0.246 OA
ATOM     11  O   UNL     1      19.300  17.992   7.963  1.00  0.00    -0.423 OA
ENDROOT
BRANCH   1  12
ATOM     12  O   UNL     1      23.577  17.631  11.485  1.00  0.00    -0.493 OA
ATOM     13  C   UNL     1      23.820  18.534  12.559  1.00  0.00     0.278 C 
ENDBRANCH   1  12
BRANCH   2  14
ATOM     14  O   UNL     1      21.166  16.301  12.011  1.00  0.00    -0.504 OA
ATOM     15  H   UNL     1      21.554  15.370  12.094  1.00  0.00     0.293 HD
ENDBRANCH   2  14
TORSDOF 2
ENDMDL
MODEL 6
REMARK VINA RESULT:    -4.691      1.575      2.739
REMARK INTER + INTRA:          -5.166
REMARK INTER:                  -5.104
REMARK INTRA:                  -0.062
REMARK UNBOUND:                -0.064
REMARK SMILES COc1cc2ccc(=O)oc2cc1O
REMARK SMILES IDX 3 1 13 2 12 3 11 4 5 5 4 6 6 7 7 8 8 9 9 10 10 11 2 12 1 13
REMARK SMILES IDX 14 14
REMARK H PARENT 14 15
REMARK Flexibility Score: inf
ROOT
ATOM      1  C   UNL     1      20.937  19.054   6.579  1.00  0.00     0.161 A 
ATOM      2  C   UNL     1      22.285  18.784   6.271  1.00  0.00     0.161 A 
ATOM      3  C   UNL     1      23.195  18.480   7.290  1.00  0.00     0.098 A 
ATOM      4  C   UNL     1      22.777  18.440   8.622  1.00  0.00     0.142 A 
ATOM      5  C   UNL     1      21.430  18.708   8.942  1.00  0.00     0.022 A 
ATOM      6  C   UNL     1      20.515  19.014   7.925  1.00  0.00     0.062 A 
ATOM      7  C   UNL     1      21.041  18.661  10.284  1.00  0.00     0.019 A 
ATOM      8  C   UNL     1      21.988  18.352  11.261  1.00  0.00     0.094 A 
ATOM      9  C   UNL     1      23.306  18.096  10.870  1.00  0.00     0.336 A 
ATOM     10  O   UNL     1      24.176  17.816  11.735  1.00  0.00    -0.246 OA
ATOM     11  O   UNL     1      23.649  18.148   9.585  1.00  0.00    -0.423 OA
ENDROOT
BRANCH   1  12
ATOM     12  O   UNL     1      20.051  19.357   5.533  1.00  0.00    -0.493 OA
ATOM     13  C   UNL     1      18.992  18.509   5.100  1.00  0.00     0.278 C 
ENDBRANCH   1  12
BRANCH   2  14
ATOM     14  O   UNL     1      22.740  18.815   4.953  1.00  0.00    -0.504 OA
ATOM     15  H   UNL     1      23.166  18.010   4.510  1.00  0.00     0.293 HD
ENDBRANCH   2  14
TORSDOF 2
ENDMDL
MODEL 7
REMARK VINA RESULT:    -4.683      3.316      5.228
REMARK INTER + INTRA:          -5.158
REMARK INTER:                  -5.098
REMARK INTRA:                  -0.061
REMARK UNBOUND:                -0.064
REMARK SMILES COc1cc2ccc(=O)oc2cc1O
REMARK SMILES IDX 3 1 13 2 12 3 11 4 5 5 4 6 6 7 7 8 8 9 9 10 10 11 2 12 1 13
REMARK SMILES IDX 14 14
REMARK H PARENT 14 15
REMARK Flexibility Score: inf
ROOT
ATOM      1  C   UNL     1      22.471  17.601  10.578  1.00  0.00     0.161 A 
ATOM      2  C   UNL     1      22.060  16.281  10.848  1.00  0.00     0.161 A 
ATOM      3  C   UNL     1      22.252  15.273   9.897  1.00  0.00     0.098 A 
ATOM      4  C   UNL     1      22.853  15.564   8.671  1.00  0.00     0.142 A 
ATOM      5  C   UNL     1      23.269  16.882   8.389  1.00  0.00     0.022 A 
ATOM      6  C   UNL     1      23.078  17.895   9.339  1.00  0.00     0.062 A 
ATOM      7  C   UNL     1      23.868  17.143   7.153  1.00  0.00     0.019 A 
ATOM      8  C   UNL     1      24.036  16.101   6.240  1.00  0.00     0.094 A 
ATOM      9  C   UNL     1      23.600  14.818   6.588  1.00  0.00     0.336 A 
ATOM     10  O   UNL     1      23.742  13.866   5.779  1.00  0.00    -0.246 OA
ATOM     11  O   UNL     1      23.033  14.598   7.772  1.00  0.00    -0.423 OA
ENDROOT
BRANCH   1  12
ATOM     12  O   UNL     1      22.263  18.588  11.555  1.00  0.00    -0.493 OA
ATOM     13  C   UNL     1      23.224  18.974  12.532  1.00  0.00     0.278 C 
ENDBRANCH   1  12
BRANCH   2  14
ATOM     14  O   UNL     1      21.456  15.951  12.062  1.00  0.00    -0.504 OA
ATOM     15  H   UNL     1      21.647  15.081  12.542  1.00  0.00     0.293 HD
ENDBRANCH   2  14
TORSDOF 2
ENDMDL
MODEL 8
REMARK VINA RESULT:    -4.656      3.457      4.805
REMARK INTER + INTRA:          -5.129
REMARK INTER:                  -5.073
REMARK INTRA:                  -0.055
REMARK UNBOUND:                -0.064
REMARK SMILES COc1cc2ccc(=O)oc2cc1O
REMARK SMILES IDX 3 1 13 2 12 3 11 4 5 5 4 6 6 7 7 8 8 9 9 10 10 11 2 12 1 13
REMARK SMILES IDX 14 14
REMARK H PARENT 14 15
REMARK Flexibility Score: inf
ROOT
ATOM      1  C   UNL     1      23.148  17.608   9.554  1.00  0.00     0.161 A 
ATOM      2  C   UNL     1      23.598  17.822  10.871  1.00  0.00     0.161 A 
ATOM      3  C   UNL     1      23.635  16.764  11.786  1.00  0.00     0.098 A 
ATOM      4  C   UNL     1      23.226  15.484  11.403  1.00  0.00     0.142 A 
ATOM      5  C   UNL     1      22.772  15.258  10.087  1.00  0.00     0.022 A 
ATOM      6  C   UNL     1      22.734  16.316   9.167  1.00  0.00     0.062 A 
ATOM      7  C   UNL     1      22.370  13.967   9.732  1.00  0.00     0.019 A 
ATOM      8  C   UNL     1      22.426  12.947  10.683  1.00  0.00     0.094 A 
ATOM      9  C   UNL     1      22.887  13.245  11.970  1.00  0.00     0.336 A 
ATOM     10  O   UNL     1      22.945  12.340  12.842  1.00  0.00    -0.246 OA
ATOM     11  O   UNL     1      23.264  14.483  12.280  1.00  0.00    -0.423 OA
ENDROOT
BRANCH   1  12
ATOM     12  O   UNL     1      23.124  18.692   8.662  1.00  0.00    -0.493 OA
ATOM     13  C   UNL     1      21.970  19.131   7.953  1.00  0.00     0.278 C 
ENDBRANCH   1  12
BRANCH   2  14
ATOM     14  O   UNL     1      24.015  19.085  11.291  1.00  0.00    -0.504 OA
ATOM     15  H   UNL     1      24.131  19.858  10.646  1.00  0.00     0.293 HD
ENDBRANCH   2  14
TORSDOF 2
ENDMDL
MODEL 9
REMARK VINA RESULT:    -4.594      1.387      1.414
REMARK INTER + INTRA:          -5.062
REMARK INTER:                  -5.011
REMARK INTRA:                  -0.051
REMARK UNBOUND:                -0.064
REMARK SMILES COc1cc2ccc(=O)oc2cc1O
REMARK SMILES IDX 3 1 13 2 12 3 11 4 5 5 4 6 6 7 7 8 8 9 9 10 10 11 2 12 1 13
REMARK SMILES IDX 14 14
REMARK H PARENT 14 15
REMARK Flexibility Score: inf
ROOT
ATOM      1  C   UNL     1      19.654  17.447   8.546  1.00  0.00     0.161 A 
ATOM      2  C   UNL     1      19.332  18.621   9.255  1.00  0.00     0.161 A 
ATOM      3  C   UNL     1      20.167  19.076  10.282  1.00  0.00     0.098 A 
ATOM      4  C   UNL     1      21.328  18.373  10.614  1.00  0.00     0.142 A 
ATOM      5  C   UNL     1      21.659  17.196   9.910  1.00  0.00     0.022 A 
ATOM      6  C   UNL     1      20.825  16.736   8.881  1.00  0.00     0.062 A 
ATOM      7  C   UNL     1      22.827  16.514  10.265  1.00  0.00     0.019 A 
ATOM      8  C   UNL     1      23.624  17.011  11.296  1.00  0.00     0.094 A 
ATOM      9  C   UNL     1      23.233  18.184  11.949  1.00  0.00     0.336 A 
ATOM     10  O   UNL     1      23.938  18.649  12.882  1.00  0.00    -0.246 OA
ATOM     11  O   UNL     1      22.116  18.814  11.591  1.00  0.00    -0.423 OA
ENDROOT
BRANCH   1  12
ATOM     12  O   UNL     1      18.794  17.019   7.522  1.00  0.00    -0.493 OA
ATOM     13  C   UNL     1      18.906  17.407   6.156  1.00  0.00     0.278 C 
ENDBRANCH   1  12
BRANCH   2  14
ATOM     14  O   UNL     1      18.183  19.351   8.953  1.00  0.00    -0.504 OA
ATOM     15  H   UNL     1      17.699  19.909   9.645  1.00  0.00     0.293 HD
ENDBRANCH   2  14
TORSDOF 2
ENDMDL
