MODEL 1
REMARK VINA RESULT:    -2.662      0.000      0.000
REMARK INTER + INTRA:          -8.781
REMARK INTER:                  -7.019
REMARK INTRA:                  -1.763
REMARK UNBOUND:                -1.763
REMARK SMILES CCCCCCCCCCCCCCCCCCCCCCCCCCCCCC(=O)[O-]
REMARK SMILES IDX 16 1 17 2 18 3 19 4 20 5 21 6 22 7 23 8 24 9 25 10 26 11
REMARK SMILES IDX 27 12 28 13 29 14 30 15 31 16 32 17 15 18 14 19 13 20 12 21
REMARK SMILES IDX 11 22 10 23 9 24 8 25 7 26 6 27 5 28 4 29 3 30 2 31 1 32
REMARK H PARENT
REMARK Flexibility Score: inf
ROOT
ATOM      1  C   UNL     1      -1.829  15.829  -3.605  1.00  0.00     0.000 C 
ENDROOT
BRANCH   1   2
ATOM      2  C   UNL     1      -1.590  16.169  -5.086  1.00  0.00     0.000 C 
BRANCH   2   3
ATOM      3  C   UNL     1      -2.614  15.474  -6.009  1.00  0.00     0.000 C 
BRANCH   3   4
ATOM      4  C   UNL     1      -3.378  14.311  -5.341  1.00  0.00     0.000 C 
BRANCH   4   5
ATOM      5  C   UNL     1      -2.971  12.898  -5.803  1.00  0.00     0.000 C 
BRANCH   5   6
ATOM      6  C   UNL     1      -2.944  11.839  -4.679  1.00  0.00     0.000 C 
BRANCH   6   7
ATOM      7  C   UNL     1      -1.539  11.300  -4.352  1.00  0.00     0.000 C 
BRANCH   7   8
ATOM      8  C   UNL     1      -0.535  12.389  -3.920  1.00  0.00     0.000 C 
BRANCH   8   9
ATOM      9  C   UNL     1       0.918  11.883  -3.949  1.00  0.00     0.000 C 
BRANCH   9  10
ATOM     10  C   UNL     1       1.234  10.910  -2.801  1.00  0.00     0.000 C 
BRANCH  10  11
ATOM     11  C   UNL     1       2.413   9.977  -3.125  1.00  0.00     0.000 C 
BRANCH  11  12
ATOM     12  C   UNL     1       3.369   9.780  -1.938  1.00  0.00     0.000 C 
BRANCH  12  13
ATOM     13  C   UNL     1       3.320   8.391  -1.270  1.00  0.00     0.006 C 
BRANCH  13  14
ATOM     14  C   UNL     1       3.007   8.429   0.237  1.00  0.00     0.053 C 
BRANCH  14  15
ATOM     15  C   UNL     1       1.582   8.061   0.533  1.00  0.00     0.041 C 
ATOM     16  O   UNL     1       1.294   6.889   0.890  1.00  0.00    -0.550 OA
ATOM     17  O   UNL     1       0.569   8.996   0.364  1.00  0.00    -0.550 OA
ENDBRANCH  14  15
ENDBRANCH  13  14
ENDBRANCH  12  13
ENDBRANCH  11  12
ENDBRANCH  10  11
ENDBRANCH   9  10
ENDBRANCH   8   9
ENDBRANCH   7   8
ENDBRANCH   6   7
ENDBRANCH   5   6
ENDBRANCH   4   5
ENDBRANCH   3   4
ENDBRANCH   2   3
ENDBRANCH   1   2
BRANCH   1  18
ATOM     18  C   UNL     1      -0.569  15.967  -2.730  1.00  0.00     0.000 C 
BRANCH  18  19
ATOM     19  C   UNL     1      -0.819  16.201  -1.224  1.00  0.00     0.000 C 
BRANCH  19  20
ATOM     20  C   UNL     1       0.361  15.840  -0.294  1.00  0.00     0.000 C 
BRANCH  20  21
ATOM     21  C   UNL     1       0.698  16.923   0.746  1.00  0.00     0.000 C 
BRANCH  21  22
ATOM     22  C   UNL     1       1.712  16.452   1.802  1.00  0.00     0.000 C 
BRANCH  22  23
ATOM     23  C   UNL     1       1.759  17.370   3.046  1.00  0.00     0.000 C 
BRANCH  23  24
ATOM     24  C   UNL     1       1.648  16.610   4.380  1.00  0.00    -0.000 C 
BRANCH  24  25
ATOM     25  C   UNL     1       0.663  17.231   5.387  1.00  0.00    -0.000 C 
BRANCH  25  26
ATOM     26  C   UNL     1      -0.131  16.183   6.203  1.00  0.00    -0.000 C 
BRANCH  26  27
ATOM     27  C   UNL     1      -1.601  16.587   6.403  1.00  0.00    -0.000 C 
BRANCH  27  28
ATOM     28  C   UNL     1      -2.455  15.449   6.981  1.00  0.00    -0.000 C 
BRANCH  28  29
ATOM     29  C   UNL     1      -3.901  15.883   7.268  1.00  0.00    -0.000 C 
BRANCH  29  30
ATOM     30  C   UNL     1      -3.959  16.821   8.484  1.00  0.00    -0.000 C 
BRANCH  30  31
ATOM     31  C   UNL     1      -4.636  16.169   9.700  1.00  0.00    -0.003 C 
ATOM     32  C   UNL     1      -5.321  14.847   9.356  1.00  0.00     0.004 C 
ENDBRANCH  30  31
ENDBRANCH  29  30
ENDBRANCH  28  29
ENDBRANCH  27  28
ENDBRANCH  26  27
ENDBRANCH  25  26
ENDBRANCH  24  25
ENDBRANCH  23  24
ENDBRANCH  22  23
ENDBRANCH  21  22
ENDBRANCH  20  21
ENDBRANCH  19  20
ENDBRANCH  18  19
ENDBRANCH   1  18
TORSDOF 28
ENDMDL
MODEL 2
REMARK VINA RESULT:    -2.394      3.344     10.435
REMARK INTER + INTRA:          -8.075
REMARK INTER:                  -6.353
REMARK INTRA:                  -1.721
REMARK UNBOUND:                -1.763
REMARK SMILES CCCCCCCCCCCCCCCCCCCCCCCCCCCCCC(=O)[O-]
REMARK SMILES IDX 16 1 17 2 18 3 19 4 20 5 21 6 22 7 23 8 24 9 25 10 26 11
REMARK SMILES IDX 27 12 28 13 29 14 30 15 31 16 32 17 15 18 14 19 13 20 12 21
REMARK SMILES IDX 11 22 10 23 9 24 8 25 7 26 6 27 5 28 4 29 3 30 2 31 1 32
REMARK H PARENT
REMARK Flexibility Score: inf
ROOT
ATOM      1  C   UNL     1      -0.688  16.644  -3.670  1.00  0.00     0.000 C 
ENDROOT
BRANCH   1   2
ATOM      2  C   UNL     1      -0.405  15.621  -2.557  1.00  0.00     0.000 C 
BRANCH   2   3
ATOM      3  C   UNL     1      -0.676  16.208  -1.154  1.00  0.00     0.000 C 
BRANCH   3   4
ATOM      4  C   UNL     1       0.445  15.940  -0.130  1.00  0.00     0.000 C 
BRANCH   4   5
ATOM      5  C   UNL     1       0.584  16.988   0.992  1.00  0.00     0.000 C 
BRANCH   5   6
ATOM      6  C   UNL     1       1.945  16.970   1.722  1.00  0.00     0.000 C 
BRANCH   6   7
ATOM      7  C   UNL     1       1.880  16.456   3.171  1.00  0.00     0.000 C 
BRANCH   7   8
ATOM      8  C   UNL     1       1.500  17.538   4.204  1.00  0.00     0.000 C 
BRANCH   8   9
ATOM      9  C   UNL     1       1.046  16.928   5.542  1.00  0.00     0.000 C 
BRANCH   9  10
ATOM     10  C   UNL     1      -0.481  16.960   5.725  1.00  0.00     0.000 C 
BRANCH  10  11
ATOM     11  C   UNL     1      -0.992  15.817   6.618  1.00  0.00     0.000 C 
BRANCH  11  12
ATOM     12  C   UNL     1      -2.525  15.706   6.633  1.00  0.00     0.000 C 
BRANCH  12  13
ATOM     13  C   UNL     1      -3.239  16.532   7.721  1.00  0.00     0.006 C 
BRANCH  13  14
ATOM     14  C   UNL     1      -4.690  16.095   7.992  1.00  0.00     0.053 C 
BRANCH  14  15
ATOM     15  C   UNL     1      -4.884  15.597   9.395  1.00  0.00     0.041 C 
ATOM     16  O   UNL     1      -4.365  16.214  10.362  1.00  0.00    -0.550 OA
ATOM     17  O   UNL     1      -5.592  14.425   9.628  1.00  0.00    -0.550 OA
ENDBRANCH  14  15
ENDBRANCH  13  14
ENDBRANCH  12  13
ENDBRANCH  11  12
ENDBRANCH  10  11
ENDBRANCH   9  10
ENDBRANCH   8   9
ENDBRANCH   7   8
ENDBRANCH   6   7
ENDBRANCH   5   6
ENDBRANCH   4   5
ENDBRANCH   3   4
ENDBRANCH   2   3
ENDBRANCH   1   2
BRANCH   1  18
ATOM     18  C   UNL     1      -1.369  16.033  -4.909  1.00  0.00     0.000 C 
BRANCH  18  19
ATOM     19  C   UNL     1      -2.418  14.936  -4.628  1.00  0.00     0.000 C 
BRANCH  19  20
ATOM     20  C   UNL     1      -3.044  14.281  -5.880  1.00  0.00     0.000 C 
BRANCH  20  21
ATOM     21  C   UNL     1      -3.011  12.743  -5.870  1.00  0.00     0.000 C 
BRANCH  21  22
ATOM     22  C   UNL     1      -2.825  12.153  -4.461  1.00  0.00     0.000 C 
BRANCH  22  23
ATOM     23  C   UNL     1      -1.496  11.377  -4.303  1.00  0.00     0.000 C 
BRANCH  23  24
ATOM     24  C   UNL     1      -0.298  12.271  -3.934  1.00  0.00    -0.000 C 
BRANCH  24  25
ATOM     25  C   UNL     1       0.562  11.737  -2.775  1.00  0.00    -0.000 C 
BRANCH  25  26
ATOM     26  C   UNL     1       1.613  10.691  -3.215  1.00  0.00    -0.000 C 
BRANCH  26  27
ATOM     27  C   UNL     1       2.073   9.796  -2.052  1.00  0.00    -0.000 C 
BRANCH  27  28
ATOM     28  C   UNL     1       1.044   9.728  -0.913  1.00  0.00    -0.000 C 
BRANCH  28  29
ATOM     29  C   UNL     1       1.255   8.511   0.000  1.00  0.00    -0.000 C 
BRANCH  29  30
ATOM     30  C   UNL     1       2.464   7.682  -0.461  1.00  0.00    -0.000 C 
BRANCH  30  31
ATOM     31  C   UNL     1       3.472   7.427   0.670  1.00  0.00    -0.003 C 
ATOM     32  C   UNL     1       2.899   6.550   1.784  1.00  0.00     0.004 C 
ENDBRANCH  30  31
ENDBRANCH  29  30
ENDBRANCH  28  29
ENDBRANCH  27  28
ENDBRANCH  26  27
ENDBRANCH  25  26
ENDBRANCH  24  25
ENDBRANCH  23  24
ENDBRANCH  22  23
ENDBRANCH  21  22
ENDBRANCH  20  21
ENDBRANCH  19  20
ENDBRANCH  18  19
ENDBRANCH   1  18
TORSDOF 28
ENDMDL
MODEL 3
REMARK VINA RESULT:    -2.351      4.567      8.419
REMARK INTER + INTRA:          -7.963
REMARK INTER:                  -5.014
REMARK INTRA:                  -2.949
REMARK UNBOUND:                -1.763
REMARK SMILES CCCCCCCCCCCCCCCCCCCCCCCCCCCCCC(=O)[O-]
REMARK SMILES IDX 16 1 17 2 18 3 19 4 20 5 21 6 22 7 23 8 24 9 25 10 26 11
REMARK SMILES IDX 27 12 28 13 29 14 30 15 31 16 32 17 15 18 14 19 13 20 12 21
REMARK SMILES IDX 11 22 10 23 9 24 8 25 7 26 6 27 5 28 4 29 3 30 2 31 1 32
REMARK H PARENT
REMARK Flexibility Score: inf
ROOT
ATOM      1  C   UNL     1       3.793   9.873  -3.035  1.00  0.00     0.000 C 
ENDROOT
BRANCH   1   2
ATOM      2  C   UNL     1       4.042   8.418  -3.466  1.00  0.00     0.000 C 
BRANCH   2   3
ATOM      3  C   UNL     1       3.949   7.441  -2.274  1.00  0.00     0.000 C 
BRANCH   3   4
ATOM      4  C   UNL     1       3.857   8.131  -0.898  1.00  0.00     0.000 C 
BRANCH   4   5
ATOM      5  C   UNL     1       2.587   7.818  -0.082  1.00  0.00     0.000 C 
BRANCH   5   6
ATOM      6  C   UNL     1       1.833   9.063   0.436  1.00  0.00     0.000 C 
BRANCH   6   7
ATOM      7  C   UNL     1       0.626   9.474  -0.426  1.00  0.00     0.000 C 
BRANCH   7   8
ATOM      8  C   UNL     1       0.931  10.599  -1.437  1.00  0.00     0.000 C 
BRANCH   8   9
ATOM      9  C   UNL     1      -0.091  10.640  -2.587  1.00  0.00     0.000 C 
BRANCH   9  10
ATOM     10  C   UNL     1       0.427  11.401  -3.819  1.00  0.00     0.000 C 
BRANCH  10  11
ATOM     11  C   UNL     1       0.536  12.915  -3.574  1.00  0.00     0.000 C 
BRANCH  11  12
ATOM     12  C   UNL     1       0.498  13.738  -4.872  1.00  0.00     0.000 C 
BRANCH  12  13
ATOM     13  C   UNL     1      -0.886  13.853  -5.543  1.00  0.00     0.006 C 
BRANCH  13  14
ATOM     14  C   UNL     1      -1.998  13.061  -4.831  1.00  0.00     0.053 C 
BRANCH  14  15
ATOM     15  C   UNL     1      -3.315  13.778  -4.855  1.00  0.00     0.041 C 
ATOM     16  O   UNL     1      -3.912  14.040  -3.778  1.00  0.00    -0.550 OA
ATOM     17  O   UNL     1      -3.908  14.110  -6.067  1.00  0.00    -0.550 OA
ENDBRANCH  14  15
ENDBRANCH  13  14
ENDBRANCH  12  13
ENDBRANCH  11  12
ENDBRANCH  10  11
ENDBRANCH   9  10
ENDBRANCH   8   9
ENDBRANCH   7   8
ENDBRANCH   6   7
ENDBRANCH   5   6
ENDBRANCH   4   5
ENDBRANCH   3   4
ENDBRANCH   2   3
ENDBRANCH   1   2
BRANCH   1  18
ATOM     18  C   UNL     1       3.472  10.817  -4.209  1.00  0.00     0.000 C 
BRANCH  18  19
ATOM     19  C   UNL     1       4.063  12.240  -4.109  1.00  0.00     0.000 C 
BRANCH  19  20
ATOM     20  C   UNL     1       4.017  13.069  -5.412  1.00  0.00     0.000 C 
BRANCH  20  21
ATOM     21  C   UNL     1       4.125  14.589  -5.196  1.00  0.00     0.000 C 
BRANCH  21  22
ATOM     22  C   UNL     1       3.123  15.392  -6.044  1.00  0.00     0.000 C 
BRANCH  22  23
ATOM     23  C   UNL     1       2.540  16.612  -5.294  1.00  0.00     0.000 C 
BRANCH  23  24
ATOM     24  C   UNL     1       1.514  17.412  -6.117  1.00  0.00    -0.000 C 
BRANCH  24  25
ATOM     25  C   UNL     1       0.133  17.552  -5.453  1.00  0.00    -0.000 C 
BRANCH  25  26
ATOM     26  C   UNL     1       0.190  17.572  -3.907  1.00  0.00    -0.000 C 
BRANCH  26  27
ATOM     27  C   UNL     1      -0.929  16.731  -3.268  1.00  0.00    -0.000 C 
BRANCH  27  28
ATOM     28  C   UNL     1      -0.396  15.711  -2.251  1.00  0.00    -0.000 C 
BRANCH  28  29
ATOM     29  C   UNL     1      -0.625  16.153  -0.797  1.00  0.00    -0.000 C 
BRANCH  29  30
ATOM     30  C   UNL     1       0.666  16.022   0.026  1.00  0.00    -0.000 C 
BRANCH  30  31
ATOM     31  C   UNL     1       0.767  17.076   1.138  1.00  0.00    -0.003 C 
ATOM     32  C   UNL     1       2.050  16.946   1.959  1.00  0.00     0.004 C 
ENDBRANCH  30  31
ENDBRANCH  29  30
ENDBRANCH  28  29
ENDBRANCH  27  28
ENDBRANCH  26  27
ENDBRANCH  25  26
ENDBRANCH  24  25
ENDBRANCH  23  24
ENDBRANCH  22  23
ENDBRANCH  21  22
ENDBRANCH  20  21
ENDBRANCH  19  20
ENDBRANCH  18  19
ENDBRANCH   1  18
TORSDOF 28
ENDMDL
MODEL 4
REMARK VINA RESULT:    -2.218      1.006      1.812
REMARK INTER + INTRA:          -7.610
REMARK INTER:                  -5.784
REMARK INTRA:                  -1.826
REMARK UNBOUND:                -1.763
REMARK SMILES CCCCCCCCCCCCCCCCCCCCCCCCCCCCCC(=O)[O-]
REMARK SMILES IDX 16 1 17 2 18 3 19 4 20 5 21 6 22 7 23 8 24 9 25 10 26 11
REMARK SMILES IDX 27 12 28 13 29 14 30 15 31 16 32 17 15 18 14 19 13 20 12 21
REMARK SMILES IDX 11 22 10 23 9 24 8 25 7 26 6 27 5 28 4 29 3 30 2 31 1 32
REMARK H PARENT
REMARK Flexibility Score: inf
ROOT
ATOM      1  C   UNL     1       0.050  15.664  -3.105  1.00  0.00     0.000 C 
ENDROOT
BRANCH   1   2
ATOM      2  C   UNL     1       0.719  16.443  -4.250  1.00  0.00     0.000 C 
BRANCH   2   3
ATOM      3  C   UNL     1      -0.197  16.546  -5.489  1.00  0.00     0.000 C 
BRANCH   3   4
ATOM      4  C   UNL     1      -1.101  15.316  -5.710  1.00  0.00     0.000 C 
BRANCH   4   5
ATOM      5  C   UNL     1      -2.615  15.572  -5.573  1.00  0.00     0.000 C 
BRANCH   5   6
ATOM      6  C   UNL     1      -3.479  14.293  -5.508  1.00  0.00     0.000 C 
BRANCH   6   7
ATOM      7  C   UNL     1      -2.701  12.991  -5.775  1.00  0.00     0.000 C 
BRANCH   7   8
ATOM      8  C   UNL     1      -2.872  11.923  -4.675  1.00  0.00     0.000 C 
BRANCH   8   9
ATOM      9  C   UNL     1      -1.548  11.207  -4.351  1.00  0.00     0.000 C 
BRANCH   9  10
ATOM     10  C   UNL     1      -0.436  12.176  -3.917  1.00  0.00     0.000 C 
BRANCH  10  11
ATOM     11  C   UNL     1       0.833  11.446  -3.446  1.00  0.00     0.000 C 
BRANCH  11  12
ATOM     12  C   UNL     1       0.676  10.801  -2.060  1.00  0.00     0.000 C 
BRANCH  12  13
ATOM     13  C   UNL     1       1.820   9.860  -1.633  1.00  0.00     0.006 C 
BRANCH  13  14
ATOM     14  C   UNL     1       1.762   9.430  -0.156  1.00  0.00     0.053 C 
BRANCH  14  15
ATOM     15  C   UNL     1       2.076   7.974   0.028  1.00  0.00     0.041 C 
ATOM     16  O   UNL     1       1.454   7.296   0.887  1.00  0.00    -0.550 OA
ATOM     17  O   UNL     1       3.092   7.380  -0.711  1.00  0.00    -0.550 OA
ENDBRANCH  14  15
ENDBRANCH  13  14
ENDBRANCH  12  13
ENDBRANCH  11  12
ENDBRANCH  10  11
ENDBRANCH   9  10
ENDBRANCH   8   9
ENDBRANCH   7   8
ENDBRANCH   6   7
ENDBRANCH   5   6
ENDBRANCH   4   5
ENDBRANCH   3   4
ENDBRANCH   2   3
ENDBRANCH   1   2
BRANCH   1  18
ATOM     18  C   UNL     1      -0.683  16.565  -2.093  1.00  0.00     0.000 C 
BRANCH  18  19
ATOM     19  C   UNL     1      -0.665  16.083  -0.627  1.00  0.00     0.000 C 
BRANCH  19  20
ATOM     20  C   UNL     1       0.685  16.247   0.107  1.00  0.00     0.000 C 
BRANCH  20  21
ATOM     21  C   UNL     1       0.675  17.320   1.210  1.00  0.00     0.000 C 
BRANCH  21  22
ATOM     22  C   UNL     1       1.930  17.282   2.100  1.00  0.00     0.000 C 
BRANCH  22  23
ATOM     23  C   UNL     1       1.725  16.464   3.396  1.00  0.00     0.000 C 
BRANCH  23  24
ATOM     24  C   UNL     1       1.488  17.333   4.645  1.00  0.00    -0.000 C 
BRANCH  24  25
ATOM     25  C   UNL     1       0.714  16.629   5.774  1.00  0.00    -0.000 C 
BRANCH  25  26
ATOM     26  C   UNL     1      -0.820  16.797   5.671  1.00  0.00    -0.000 C 
BRANCH  26  27
ATOM     27  C   UNL     1      -1.577  15.888   6.654  1.00  0.00    -0.000 C 
BRANCH  27  28
ATOM     28  C   UNL     1      -2.421  16.679   7.664  1.00  0.00    -0.000 C 
BRANCH  28  29
ATOM     29  C   UNL     1      -3.833  16.099   7.836  1.00  0.00    -0.000 C 
BRANCH  29  30
ATOM     30  C   UNL     1      -4.467  16.578   9.150  1.00  0.00    -0.000 C 
BRANCH  30  31
ATOM     31  C   UNL     1      -5.475  15.570   9.723  1.00  0.00    -0.003 C 
ATOM     32  C   UNL     1      -5.230  14.145   9.227  1.00  0.00     0.004 C 
ENDBRANCH  30  31
ENDBRANCH  29  30
ENDBRANCH  28  29
ENDBRANCH  27  28
ENDBRANCH  26  27
ENDBRANCH  25  26
ENDBRANCH  24  25
ENDBRANCH  23  24
ENDBRANCH  22  23
ENDBRANCH  21  22
ENDBRANCH  20  21
ENDBRANCH  19  20
ENDBRANCH  18  19
ENDBRANCH   1  18
TORSDOF 28
ENDMDL
MODEL 5
REMARK VINA RESULT:    -1.818      1.533      2.408
REMARK INTER + INTRA:          -6.557
REMARK INTER:                  -4.826
REMARK INTRA:                  -1.731
REMARK UNBOUND:                -1.763
REMARK SMILES CCCCCCCCCCCCCCCCCCCCCCCCCCCCCC(=O)[O-]
REMARK SMILES IDX 16 1 17 2 18 3 19 4 20 5 21 6 22 7 23 8 24 9 25 10 26 11
REMARK SMILES IDX 27 12 28 13 29 14 30 15 31 16 32 17 15 18 14 19 13 20 12 21
REMARK SMILES IDX 11 22 10 23 9 24 8 25 7 26 6 27 5 28 4 29 3 30 2 31 1 32
REMARK H PARENT
REMARK Flexibility Score: inf
ROOT
ATOM      1  C   UNL     1      -1.822  15.606  -1.876  1.00  0.00     0.000 C 
ENDROOT
BRANCH   1   2
ATOM      2  C   UNL     1      -1.916  15.900  -3.383  1.00  0.00     0.000 C 
BRANCH   2   3
ATOM      3  C   UNL     1      -0.697  16.702  -3.889  1.00  0.00     0.000 C 
BRANCH   3   4
ATOM      4  C   UNL     1      -0.483  16.631  -5.415  1.00  0.00     0.000 C 
BRANCH   4   5
ATOM      5  C   UNL     1       0.946  16.944  -5.901  1.00  0.00     0.000 C 
BRANCH   5   6
ATOM      6  C   UNL     1       1.946  15.779  -5.746  1.00  0.00     0.000 C 
BRANCH   6   7
ATOM      7  C   UNL     1       1.320  14.382  -5.909  1.00  0.00     0.000 C 
BRANCH   7   8
ATOM      8  C   UNL     1       1.571  13.439  -4.713  1.00  0.00     0.000 C 
BRANCH   8   9
ATOM      9  C   UNL     1       0.261  13.000  -4.035  1.00  0.00     0.000 C 
BRANCH   9  10
ATOM     10  C   UNL     1       0.317  11.557  -3.507  1.00  0.00     0.000 C 
BRANCH  10  11
ATOM     11  C   UNL     1       1.755  11.021  -3.404  1.00  0.00     0.000 C 
BRANCH  11  12
ATOM     12  C   UNL     1       1.999  10.196  -2.130  1.00  0.00     0.000 C 
BRANCH  12  13
ATOM     13  C   UNL     1       0.737   9.843  -1.318  1.00  0.00     0.006 C 
BRANCH  13  14
ATOM     14  C   UNL     1       1.025   9.397   0.128  1.00  0.00     0.053 C 
BRANCH  14  15
ATOM     15  C   UNL     1       1.603   8.013   0.195  1.00  0.00     0.041 C 
ATOM     16  O   UNL     1       1.565   7.364   1.272  1.00  0.00    -0.550 OA
ATOM     17  O   UNL     1       2.229   7.464  -0.917  1.00  0.00    -0.550 OA
ENDBRANCH  14  15
ENDBRANCH  13  14
ENDBRANCH  12  13
ENDBRANCH  11  12
ENDBRANCH  10  11
ENDBRANCH   9  10
ENDBRANCH   8   9
ENDBRANCH   7   8
ENDBRANCH   6   7
ENDBRANCH   5   6
ENDBRANCH   4   5
ENDBRANCH   3   4
ENDBRANCH   2   3
ENDBRANCH   1   2
BRANCH   1  18
ATOM     18  C   UNL     1      -0.380  15.603  -1.337  1.00  0.00     0.000 C 
BRANCH  18  19
ATOM     19  C   UNL     1      -0.102  16.555  -0.154  1.00  0.00     0.000 C 
BRANCH  19  20
ATOM     20  C   UNL     1       1.179  16.250   0.655  1.00  0.00     0.000 C 
BRANCH  20  21
ATOM     21  C   UNL     1       1.485  17.275   1.761  1.00  0.00     0.000 C 
BRANCH  21  22
ATOM     22  C   UNL     1       1.882  16.622   3.096  1.00  0.00     0.000 C 
BRANCH  22  23
ATOM     23  C   UNL     1       1.644  17.546   4.313  1.00  0.00     0.000 C 
BRANCH  23  24
ATOM     24  C   UNL     1       1.064  16.817   5.539  1.00  0.00    -0.000 C 
BRANCH  24  25
ATOM     25  C   UNL     1      -0.461  16.947   5.696  1.00  0.00    -0.000 C 
BRANCH  25  26
ATOM     26  C   UNL     1      -1.079  15.885   6.636  1.00  0.00    -0.000 C 
BRANCH  26  27
ATOM     27  C   UNL     1      -2.599  16.053   6.791  1.00  0.00    -0.000 C 
BRANCH  27  28
ATOM     28  C   UNL     1      -2.980  16.922   7.999  1.00  0.00    -0.000 C 
BRANCH  28  29
ATOM     29  C   UNL     1      -4.471  16.817   8.356  1.00  0.00    -0.000 C 
BRANCH  29  30
ATOM     30  C   UNL     1      -4.662  16.114   9.709  1.00  0.00    -0.000 C 
BRANCH  30  31
ATOM     31  C   UNL     1      -5.400  14.773   9.578  1.00  0.00    -0.003 C 
ATOM     32  C   UNL     1      -5.332  14.197   8.164  1.00  0.00     0.004 C 
ENDBRANCH  30  31
ENDBRANCH  29  30
ENDBRANCH  28  29
ENDBRANCH  27  28
ENDBRANCH  26  27
ENDBRANCH  25  26
ENDBRANCH  24  25
ENDBRANCH  23  24
ENDBRANCH  22  23
ENDBRANCH  21  22
ENDBRANCH  20  21
ENDBRANCH  19  20
ENDBRANCH  18  19
ENDBRANCH   1  18
TORSDOF 28
ENDMDL
MODEL 6
REMARK VINA RESULT:    -1.530      2.961     10.533
REMARK INTER + INTRA:          -5.796
REMARK INTER:                  -4.673
REMARK INTRA:                  -1.123
REMARK UNBOUND:                -1.763
REMARK SMILES CCCCCCCCCCCCCCCCCCCCCCCCCCCCCC(=O)[O-]
REMARK SMILES IDX 16 1 17 2 18 3 19 4 20 5 21 6 22 7 23 8 24 9 25 10 26 11
REMARK SMILES IDX 27 12 28 13 29 14 30 15 31 16 32 17 15 18 14 19 13 20 12 21
REMARK SMILES IDX 11 22 10 23 9 24 8 25 7 26 6 27 5 28 4 29 3 30 2 31 1 32
REMARK H PARENT
REMARK Flexibility Score: inf
ROOT
ATOM      1  C   UNL     1      -1.772  15.847  -1.796  1.00  0.00     0.000 C 
ENDROOT
BRANCH   1   2
ATOM      2  C   UNL     1      -0.248  15.886  -1.589  1.00  0.00     0.000 C 
BRANCH   2   3
ATOM      3  C   UNL     1       0.130  16.465  -0.208  1.00  0.00     0.000 C 
BRANCH   3   4
ATOM      4  C   UNL     1       1.113  15.589   0.596  1.00  0.00     0.000 C 
BRANCH   4   5
ATOM      5  C   UNL     1       2.222  16.352   1.346  1.00  0.00     0.000 C 
BRANCH   5   6
ATOM      6  C   UNL     1       1.717  17.260   2.488  1.00  0.00     0.000 C 
BRANCH   6   7
ATOM      7  C   UNL     1       1.853  16.645   3.893  1.00  0.00     0.000 C 
BRANCH   7   8
ATOM      8  C   UNL     1       1.219  17.496   5.013  1.00  0.00     0.000 C 
BRANCH   8   9
ATOM      9  C   UNL     1       0.503  16.630   6.065  1.00  0.00     0.000 C 
BRANCH   9  10
ATOM     10  C   UNL     1      -1.027  16.651   5.914  1.00  0.00     0.000 C 
BRANCH  10  11
ATOM     11  C   UNL     1      -1.733  15.734   6.926  1.00  0.00     0.000 C 
BRANCH  11  12
ATOM     12  C   UNL     1      -3.222  16.070   7.105  1.00  0.00     0.000 C 
BRANCH  12  13
ATOM     13  C   UNL     1      -3.592  16.753   8.437  1.00  0.00     0.006 C 
BRANCH  13  14
ATOM     14  C   UNL     1      -4.926  16.275   9.039  1.00  0.00     0.053 C 
BRANCH  14  15
ATOM     15  C   UNL     1      -5.173  14.815   8.795  1.00  0.00     0.041 C 
ATOM     16  O   UNL     1      -5.285  14.021   9.765  1.00  0.00    -0.550 OA
ATOM     17  O   UNL     1      -5.226  14.324   7.496  1.00  0.00    -0.550 OA
ENDBRANCH  14  15
ENDBRANCH  13  14
ENDBRANCH  12  13
ENDBRANCH  11  12
ENDBRANCH  10  11
ENDBRANCH   9  10
ENDBRANCH   8   9
ENDBRANCH   7   8
ENDBRANCH   6   7
ENDBRANCH   5   6
ENDBRANCH   4   5
ENDBRANCH   3   4
ENDBRANCH   2   3
ENDBRANCH   1   2
BRANCH   1  18
ATOM     18  C   UNL     1      -2.192  15.846  -3.278  1.00  0.00     0.000 C 
BRANCH  18  19
ATOM     19  C   UNL     1      -1.064  16.109  -4.298  1.00  0.00     0.000 C 
BRANCH  19  20
ATOM     20  C   UNL     1      -1.340  15.611  -5.734  1.00  0.00     0.000 C 
BRANCH  20  21
ATOM     21  C   UNL     1      -2.831  15.566  -6.110  1.00  0.00     0.000 C 
BRANCH  21  22
ATOM     22  C   UNL     1      -3.445  14.162  -5.978  1.00  0.00     0.000 C 
BRANCH  22  23
ATOM     23  C   UNL     1      -2.381  13.052  -5.808  1.00  0.00     0.000 C 
BRANCH  23  24
ATOM     24  C   UNL     1      -2.833  11.897  -4.896  1.00  0.00    -0.000 C 
BRANCH  24  25
ATOM     25  C   UNL     1      -1.756  11.400  -3.915  1.00  0.00    -0.000 C 
BRANCH  25  26
ATOM     26  C   UNL     1      -0.439  12.208  -3.982  1.00  0.00    -0.000 C 
BRANCH  26  27
ATOM     27  C   UNL     1       0.777  11.385  -3.523  1.00  0.00    -0.000 C 
BRANCH  27  28
ATOM     28  C   UNL     1       0.759  11.092  -2.014  1.00  0.00    -0.000 C 
BRANCH  28  29
ATOM     29  C   UNL     1       1.727   9.966  -1.621  1.00  0.00    -0.000 C 
BRANCH  29  30
ATOM     30  C   UNL     1       1.109   9.064  -0.542  1.00  0.00    -0.000 C 
BRANCH  30  31
ATOM     31  C   UNL     1       2.167   8.430   0.374  1.00  0.00    -0.003 C 
ATOM     32  C   UNL     1       1.674   7.147   1.045  1.00  0.00     0.004 C 
ENDBRANCH  30  31
ENDBRANCH  29  30
ENDBRANCH  28  29
ENDBRANCH  27  28
ENDBRANCH  26  27
ENDBRANCH  25  26
ENDBRANCH  24  25
ENDBRANCH  23  24
ENDBRANCH  22  23
ENDBRANCH  21  22
ENDBRANCH  20  21
ENDBRANCH  19  20
ENDBRANCH  18  19
ENDBRANCH   1  18
TORSDOF 28
ENDMDL
MODEL 7
REMARK VINA RESULT:    -1.419      3.595     10.238
REMARK INTER + INTRA:          -5.503
REMARK INTER:                  -3.565
REMARK INTRA:                  -1.938
REMARK UNBOUND:                -1.763
REMARK SMILES CCCCCCCCCCCCCCCCCCCCCCCCCCCCCC(=O)[O-]
REMARK SMILES IDX 16 1 17 2 18 3 19 4 20 5 21 6 22 7 23 8 24 9 25 10 26 11
REMARK SMILES IDX 27 12 28 13 29 14 30 15 31 16 32 17 15 18 14 19 13 20 12 21
REMARK SMILES IDX 11 22 10 23 9 24 8 25 7 26 6 27 5 28 4 29 3 30 2 31 1 32
REMARK H PARENT
REMARK Flexibility Score: inf
ROOT
ATOM      1  C   UNL     1      -1.876  16.021  -3.381  1.00  0.00     0.000 C 
ENDROOT
BRANCH   1   2
ATOM      2  C   UNL     1      -0.577  15.937  -2.562  1.00  0.00     0.000 C 
BRANCH   2   3
ATOM      3  C   UNL     1      -0.828  16.182  -1.058  1.00  0.00     0.000 C 
BRANCH   3   4
ATOM      4  C   UNL     1       0.409  15.955  -0.165  1.00  0.00     0.000 C 
BRANCH   4   5
ATOM      5  C   UNL     1       0.580  16.951   0.999  1.00  0.00     0.000 C 
BRANCH   5   6
ATOM      6  C   UNL     1       1.894  16.789   1.794  1.00  0.00     0.000 C 
BRANCH   6   7
ATOM      7  C   UNL     1       1.924  17.556   3.128  1.00  0.00     0.000 C 
BRANCH   7   8
ATOM      8  C   UNL     1       1.756  16.659   4.372  1.00  0.00     0.000 C 
BRANCH   8   9
ATOM      9  C   UNL     1       0.830  17.293   5.425  1.00  0.00     0.000 C 
BRANCH   9  10
ATOM     10  C   UNL     1      -0.093  16.266   6.103  1.00  0.00     0.000 C 
BRANCH  10  11
ATOM     11  C   UNL     1      -1.581  16.625   5.960  1.00  0.00     0.000 C 
BRANCH  11  12
ATOM     12  C   UNL     1      -2.515  15.586   6.602  1.00  0.00     0.000 C 
BRANCH  12  13
ATOM     13  C   UNL     1      -3.481  16.134   7.671  1.00  0.00     0.006 C 
BRANCH  13  14
ATOM     14  C   UNL     1      -4.771  15.309   7.834  1.00  0.00     0.053 C 
BRANCH  14  15
ATOM     15  C   UNL     1      -5.126  15.083   9.274  1.00  0.00     0.041 C 
ATOM     16  O   UNL     1      -5.509  13.947   9.660  1.00  0.00    -0.550 OA
ATOM     17  O   UNL     1      -5.086  16.137  10.177  1.00  0.00    -0.550 OA
ENDBRANCH  14  15
ENDBRANCH  13  14
ENDBRANCH  12  13
ENDBRANCH  11  12
ENDBRANCH  10  11
ENDBRANCH   9  10
ENDBRANCH   8   9
ENDBRANCH   7   8
ENDBRANCH   6   7
ENDBRANCH   5   6
ENDBRANCH   4   5
ENDBRANCH   3   4
ENDBRANCH   2   3
ENDBRANCH   1   2
BRANCH   1  18
ATOM     18  C   UNL     1      -1.642  16.102  -4.901  1.00  0.00     0.000 C 
BRANCH  18  19
ATOM     19  C   UNL     1      -2.194  17.362  -5.600  1.00  0.00     0.000 C 
BRANCH  19  20
ATOM     20  C   UNL     1      -1.157  18.473  -5.882  1.00  0.00     0.000 C 
BRANCH  20  21
ATOM     21  C   UNL     1       0.036  18.481  -4.910  1.00  0.00     0.000 C 
BRANCH  21  22
ATOM     22  C   UNL     1       1.374  18.154  -5.596  1.00  0.00     0.000 C 
BRANCH  22  23
ATOM     23  C   UNL     1       2.166  17.039  -4.872  1.00  0.00     0.000 C 
BRANCH  23  24
ATOM     24  C   UNL     1       2.445  15.808  -5.753  1.00  0.00    -0.000 C 
BRANCH  24  25
ATOM     25  C   UNL     1       2.263  14.457  -5.037  1.00  0.00    -0.000 C 
BRANCH  25  26
ATOM     26  C   UNL     1       0.915  13.767  -5.352  1.00  0.00    -0.000 C 
BRANCH  26  27
ATOM     27  C   UNL     1       0.285  13.117  -4.109  1.00  0.00    -0.000 C 
BRANCH  27  28
ATOM     28  C   UNL     1       0.827  11.704  -3.840  1.00  0.00    -0.000 C 
BRANCH  28  29
ATOM     29  C   UNL     1       0.874  11.366  -2.342  1.00  0.00    -0.000 C 
BRANCH  29  30
ATOM     30  C   UNL     1       1.524   9.994  -2.110  1.00  0.00    -0.000 C 
BRANCH  30  31
ATOM     31  C   UNL     1       1.850   9.737  -0.631  1.00  0.00    -0.003 C 
ATOM     32  C   UNL     1       0.692   9.083   0.124  1.00  0.00     0.004 C 
ENDBRANCH  30  31
ENDBRANCH  29  30
ENDBRANCH  28  29
ENDBRANCH  27  28
ENDBRANCH  26  27
ENDBRANCH  25  26
ENDBRANCH  24  25
ENDBRANCH  23  24
ENDBRANCH  22  23
ENDBRANCH  21  22
ENDBRANCH  20  21
ENDBRANCH  19  20
ENDBRANCH  18  19
ENDBRANCH   1  18
TORSDOF 28
ENDMDL
MODEL 8
REMARK VINA RESULT:    -1.014      4.166     10.436
REMARK INTER + INTRA:          -4.435
REMARK INTER:                  -2.155
REMARK INTRA:                  -2.280
REMARK UNBOUND:                -1.763
REMARK SMILES CCCCCCCCCCCCCCCCCCCCCCCCCCCCCC(=O)[O-]
REMARK SMILES IDX 16 1 17 2 18 3 19 4 20 5 21 6 22 7 23 8 24 9 25 10 26 11
REMARK SMILES IDX 27 12 28 13 29 14 30 15 31 16 32 17 15 18 14 19 13 20 12 21
REMARK SMILES IDX 11 22 10 23 9 24 8 25 7 26 6 27 5 28 4 29 3 30 2 31 1 32
REMARK H PARENT
REMARK Flexibility Score: inf
ROOT
ATOM      1  C   UNL     1      -2.500  15.877  -3.284  1.00  0.00     0.000 C 
ENDROOT
BRANCH   1   2
ATOM      2  C   UNL     1      -1.610  15.298  -2.171  1.00  0.00     0.000 C 
BRANCH   2   3
ATOM      3  C   UNL     1      -0.640  16.356  -1.601  1.00  0.00     0.000 C 
BRANCH   3   4
ATOM      4  C   UNL     1       0.342  15.808  -0.545  1.00  0.00     0.000 C 
BRANCH   4   5
ATOM      5  C   UNL     1       0.439  16.625   0.759  1.00  0.00     0.000 C 
BRANCH   5   6
ATOM      6  C   UNL     1       1.843  16.644   1.401  1.00  0.00     0.000 C 
BRANCH   6   7
ATOM      7  C   UNL     1       1.917  17.406   2.737  1.00  0.00     0.000 C 
BRANCH   7   8
ATOM      8  C   UNL     1       1.668  16.523   3.977  1.00  0.00     0.000 C 
BRANCH   8   9
ATOM      9  C   UNL     1       0.895  17.272   5.077  1.00  0.00     0.000 C 
BRANCH   9  10
ATOM     10  C   UNL     1       0.157  16.324   6.038  1.00  0.00     0.000 C 
BRANCH  10  11
ATOM     11  C   UNL     1      -1.329  16.686   6.199  1.00  0.00     0.000 C 
BRANCH  11  12
ATOM     12  C   UNL     1      -2.153  15.568   6.857  1.00  0.00     0.000 C 
BRANCH  12  13
ATOM     13  C   UNL     1      -3.656  15.564   6.515  1.00  0.00     0.006 C 
BRANCH  13  14
ATOM     14  C   UNL     1      -4.542  14.899   7.586  1.00  0.00     0.053 C 
BRANCH  14  15
ATOM     15  C   UNL     1      -4.707  15.758   8.805  1.00  0.00     0.041 C 
ATOM     16  O   UNL     1      -5.232  15.284   9.846  1.00  0.00    -0.550 OA
ATOM     17  O   UNL     1      -4.330  17.095   8.773  1.00  0.00    -0.550 OA
ENDBRANCH  14  15
ENDBRANCH  13  14
ENDBRANCH  12  13
ENDBRANCH  11  12
ENDBRANCH  10  11
ENDBRANCH   9  10
ENDBRANCH   8   9
ENDBRANCH   7   8
ENDBRANCH   6   7
ENDBRANCH   5   6
ENDBRANCH   4   5
ENDBRANCH   3   4
ENDBRANCH   2   3
ENDBRANCH   1   2
BRANCH   1  18
ATOM     18  C   UNL     1      -3.098  14.806  -4.215  1.00  0.00     0.000 C 
BRANCH  18  19
ATOM     19  C   UNL     1      -3.037  15.119  -5.726  1.00  0.00     0.000 C 
BRANCH  19  20
ATOM     20  C   UNL     1      -2.148  16.321  -6.118  1.00  0.00     0.000 C 
BRANCH  20  21
ATOM     21  C   UNL     1      -2.859  17.683  -6.039  1.00  0.00     0.000 C 
BRANCH  21  22
ATOM     22  C   UNL     1      -1.889  18.875  -6.099  1.00  0.00     0.000 C 
BRANCH  22  23
ATOM     23  C   UNL     1      -0.405  18.451  -5.996  1.00  0.00     0.000 C 
BRANCH  23  24
ATOM     24  C   UNL     1       0.008  17.982  -4.589  1.00  0.00    -0.000 C 
BRANCH  24  25
ATOM     25  C   UNL     1       1.444  17.435  -4.495  1.00  0.00    -0.000 C 
BRANCH  25  26
ATOM     26  C   UNL     1       1.948  16.793  -5.809  1.00  0.00    -0.000 C 
BRANCH  26  27
ATOM     27  C   UNL     1       1.950  15.256  -5.747  1.00  0.00    -0.000 C 
BRANCH  27  28
ATOM     28  C   UNL     1       1.035  14.705  -4.643  1.00  0.00    -0.000 C 
BRANCH  28  29
ATOM     29  C   UNL     1      -0.031  13.742  -5.187  1.00  0.00    -0.000 C 
BRANCH  29  30
ATOM     30  C   UNL     1      -0.314  12.614  -4.182  1.00  0.00    -0.000 C 
BRANCH  30  31
ATOM     31  C   UNL     1      -1.440  11.678  -4.647  1.00  0.00    -0.003 C 
ATOM     32  C   UNL     1      -2.489  11.433  -3.562  1.00  0.00     0.004 C 
ENDBRANCH  30  31
ENDBRANCH  29  30
ENDBRANCH  28  29
ENDBRANCH  27  28
ENDBRANCH  26  27
ENDBRANCH  25  26
ENDBRANCH  24  25
ENDBRANCH  23  24
ENDBRANCH  22  23
ENDBRANCH  21  22
ENDBRANCH  20  21
ENDBRANCH  19  20
ENDBRANCH  18  19
ENDBRANCH   1  18
TORSDOF 28
ENDMDL
