MODEL 1
REMARK VINA RESULT:    -2.624      0.000      0.000
REMARK INTER + INTRA:          -9.523
REMARK INTER:                  -5.691
REMARK INTRA:                  -3.832
REMARK UNBOUND:                -3.832
REMARK SMILES CCCCCCCCCCCCCCCCCCCCCC(=O)[O-]
REMARK SMILES IDX 12 1 11 2 10 3 9 4 8 5 7 6 6 7 5 8 4 9 3 10 2 11 1 12 13 13
REMARK SMILES IDX 14 14 15 15 16 16 17 17 18 18 19 19 20 20 21 21 22 22 23 23
REMARK SMILES IDX 24 24
REMARK H PARENT
REMARK Flexibility Score: inf
ROOT
ATOM      1  C   UNL     1       1.939  21.052   8.550  1.00  0.00     0.000 C 
ENDROOT
BRANCH   1   2
ATOM      2  C   UNL     1       1.464  20.473   9.899  1.00  0.00     0.000 C 
BRANCH   2   3
ATOM      3  C   UNL     1       2.297  19.297  10.445  1.00  0.00     0.000 C 
BRANCH   3   4
ATOM      4  C   UNL     1       2.147  19.115  11.965  1.00  0.00    -0.000 C 
BRANCH   4   5
ATOM      5  C   UNL     1       2.880  17.868  12.485  1.00  0.00    -0.000 C 
BRANCH   5   6
ATOM      6  C   UNL     1       4.053  17.444  11.589  1.00  0.00    -0.000 C 
BRANCH   6   7
ATOM      7  C   UNL     1       5.389  17.918  12.181  1.00  0.00    -0.000 C 
BRANCH   7   8
ATOM      8  C   UNL     1       6.120  18.919  11.272  1.00  0.00    -0.000 C 
BRANCH   8   9
ATOM      9  C   UNL     1       5.754  20.378  11.583  1.00  0.00    -0.000 C 
BRANCH   9  10
ATOM     10  C   UNL     1       5.371  21.131  10.304  1.00  0.00    -0.000 C 
BRANCH  10  11
ATOM     11  C   UNL     1       4.637  22.437  10.631  1.00  0.00    -0.003 C 
ATOM     12  C   UNL     1       4.003  22.379  12.018  1.00  0.00     0.004 C 
ENDBRANCH  10  11
ENDBRANCH   9  10
ENDBRANCH   8   9
ENDBRANCH   7   8
ENDBRANCH   6   7
ENDBRANCH   5   6
ENDBRANCH   4   5
ENDBRANCH   3   4
ENDBRANCH   2   3
ENDBRANCH   1   2
BRANCH   1  13
ATOM     13  C   UNL     1       0.894  21.028   7.421  1.00  0.00     0.000 C 
BRANCH  13  14
ATOM     14  C   UNL     1       1.231  20.016   6.315  1.00  0.00     0.000 C 
BRANCH  14  15
ATOM     15  C   UNL     1       2.586  20.342   5.670  1.00  0.00     0.000 C 
BRANCH  15  16
ATOM     16  C   UNL     1       3.585  19.180   5.788  1.00  0.00     0.000 C 
BRANCH  16  17
ATOM     17  C   UNL     1       4.717  19.481   6.786  1.00  0.00     0.000 C 
BRANCH  17  18
ATOM     18  C   UNL     1       4.881  18.384   7.850  1.00  0.00     0.000 C 
BRANCH  18  19
ATOM     19  C   UNL     1       3.784  17.311   7.777  1.00  0.00     0.000 C 
BRANCH  19  20
ATOM     20  C   UNL     1       4.372  15.909   7.975  1.00  0.00     0.006 C 
BRANCH  20  21
ATOM     21  C   UNL     1       4.725  15.264   6.631  1.00  0.00     0.053 C 
BRANCH  21  22
ATOM     22  C   UNL     1       4.689  13.773   6.737  1.00  0.00     0.041 C 
ATOM     23  O   UNL     1       3.670  13.136   6.358  1.00  0.00    -0.550 OA
ATOM     24  O   UNL     1       5.796  13.081   7.213  1.00  0.00    -0.550 OA
ENDBRANCH  21  22
ENDBRANCH  20  21
ENDBRANCH  19  20
ENDBRANCH  18  19
ENDBRANCH  17  18
ENDBRANCH  16  17
ENDBRANCH  15  16
ENDBRANCH  14  15
ENDBRANCH  13  14
ENDBRANCH   1  13
TORSDOF 20
ENDMDL
MODEL 2
REMARK VINA RESULT:    -2.608      1.573      2.895
REMARK INTER + INTRA:          -9.489
REMARK INTER:                  -6.878
REMARK INTRA:                  -2.611
REMARK UNBOUND:                -3.832
REMARK SMILES CCCCCCCCCCCCCCCCCCCCCC(=O)[O-]
REMARK SMILES IDX 12 1 11 2 10 3 9 4 8 5 7 6 6 7 5 8 4 9 3 10 2 11 1 12 13 13
REMARK SMILES IDX 14 14 15 15 16 16 17 17 18 18 19 19 20 20 21 21 22 22 23 23
REMARK SMILES IDX 24 24
REMARK H PARENT
REMARK Flexibility Score: inf
ROOT
ATOM      1  C   UNL     1      -0.177  21.443   7.668  1.00  0.00     0.000 C 
ENDROOT
BRANCH   1   2
ATOM      2  C   UNL     1       0.980  22.340   8.158  1.00  0.00     0.000 C 
BRANCH   2   3
ATOM      3  C   UNL     1       1.664  21.884   9.461  1.00  0.00     0.000 C 
BRANCH   3   4
ATOM      4  C   UNL     1       0.919  20.731  10.154  1.00  0.00    -0.000 C 
BRANCH   4   5
ATOM      5  C   UNL     1       1.867  19.625  10.643  1.00  0.00    -0.000 C 
BRANCH   5   6
ATOM      6  C   UNL     1       3.295  19.772  10.095  1.00  0.00    -0.000 C 
BRANCH   6   7
ATOM      7  C   UNL     1       4.259  18.827  10.827  1.00  0.00    -0.000 C 
BRANCH   7   8
ATOM      8  C   UNL     1       3.639  17.451  11.115  1.00  0.00    -0.000 C 
BRANCH   8   9
ATOM      9  C   UNL     1       3.976  16.931  12.520  1.00  0.00    -0.000 C 
BRANCH   9  10
ATOM     10  C   UNL     1       3.293  17.784  13.597  1.00  0.00    -0.000 C 
BRANCH  10  11
ATOM     11  C   UNL     1       1.879  17.270  13.893  1.00  0.00    -0.003 C 
ATOM     12  C   UNL     1       0.864  18.409  13.876  1.00  0.00     0.004 C 
ENDBRANCH  10  11
ENDBRANCH   9  10
ENDBRANCH   8   9
ENDBRANCH   7   8
ENDBRANCH   6   7
ENDBRANCH   5   6
ENDBRANCH   4   5
ENDBRANCH   3   4
ENDBRANCH   2   3
ENDBRANCH   1   2
BRANCH   1  13
ATOM     13  C   UNL     1       0.181  20.474   6.527  1.00  0.00     0.000 C 
BRANCH  13  14
ATOM     14  C   UNL     1       1.082  21.115   5.459  1.00  0.00     0.000 C 
BRANCH  14  15
ATOM     15  C   UNL     1       2.433  20.389   5.377  1.00  0.00     0.000 C 
BRANCH  15  16
ATOM     16  C   UNL     1       2.619  19.368   6.510  1.00  0.00     0.000 C 
BRANCH  16  17
ATOM     17  C   UNL     1       3.938  18.585   6.381  1.00  0.00     0.000 C 
BRANCH  17  18
ATOM     18  C   UNL     1       4.062  17.452   7.413  1.00  0.00     0.000 C 
BRANCH  18  19
ATOM     19  C   UNL     1       4.391  16.095   6.773  1.00  0.00     0.000 C 
BRANCH  19  20
ATOM     20  C   UNL     1       3.939  14.939   7.673  1.00  0.00     0.006 C 
BRANCH  20  21
ATOM     21  C   UNL     1       4.949  13.788   7.641  1.00  0.00     0.053 C 
BRANCH  21  22
ATOM     22  C   UNL     1       4.366  12.594   6.957  1.00  0.00     0.041 C 
ATOM     23  O   UNL     1       4.578  11.438   7.411  1.00  0.00    -0.550 OA
ATOM     24  O   UNL     1       3.550  12.757   5.844  1.00  0.00    -0.550 OA
ENDBRANCH  21  22
ENDBRANCH  20  21
ENDBRANCH  19  20
ENDBRANCH  18  19
ENDBRANCH  17  18
ENDBRANCH  16  17
ENDBRANCH  15  16
ENDBRANCH  14  15
ENDBRANCH  13  14
ENDBRANCH   1  13
TORSDOF 20
ENDMDL
MODEL 3
REMARK VINA RESULT:    -2.551      1.688      5.166
REMARK INTER + INTRA:          -9.365
REMARK INTER:                  -6.147
REMARK INTRA:                  -3.218
REMARK UNBOUND:                -3.832
REMARK SMILES CCCCCCCCCCCCCCCCCCCCCC(=O)[O-]
REMARK SMILES IDX 12 1 11 2 10 3 9 4 8 5 7 6 6 7 5 8 4 9 3 10 2 11 1 12 13 13
REMARK SMILES IDX 14 14 15 15 16 16 17 17 18 18 19 19 20 20 21 21 22 22 23 23
REMARK SMILES IDX 24 24
REMARK H PARENT
REMARK Flexibility Score: inf
ROOT
ATOM      1  C   UNL     1       4.015  22.293   8.265  1.00  0.00     0.000 C 
ENDROOT
BRANCH   1   2
ATOM      2  C   UNL     1       2.627  22.921   8.513  1.00  0.00     0.000 C 
BRANCH   2   3
ATOM      3  C   UNL     1       1.595  22.712   7.389  1.00  0.00     0.000 C 
BRANCH   3   4
ATOM      4  C   UNL     1       0.692  21.490   7.629  1.00  0.00    -0.000 C 
BRANCH   4   5
ATOM      5  C   UNL     1       1.041  20.308   6.709  1.00  0.00    -0.000 C 
BRANCH   5   6
ATOM      6  C   UNL     1       1.697  20.747   5.391  1.00  0.00    -0.000 C 
BRANCH   6   7
ATOM      7  C   UNL     1       3.100  20.139   5.252  1.00  0.00    -0.000 C 
BRANCH   7   8
ATOM      8  C   UNL     1       3.367  19.020   6.272  1.00  0.00    -0.000 C 
BRANCH   8   9
ATOM      9  C   UNL     1       4.822  18.529   6.245  1.00  0.00    -0.000 C 
BRANCH   9  10
ATOM     10  C   UNL     1       5.022  17.467   5.157  1.00  0.00    -0.000 C 
BRANCH  10  11
ATOM     11  C   UNL     1       5.805  18.037   3.968  1.00  0.00    -0.003 C 
ATOM     12  C   UNL     1       5.896  17.022   2.831  1.00  0.00     0.004 C 
ENDBRANCH  10  11
ENDBRANCH   9  10
ENDBRANCH   8   9
ENDBRANCH   7   8
ENDBRANCH   6   7
ENDBRANCH   5   6
ENDBRANCH   4   5
ENDBRANCH   3   4
ENDBRANCH   2   3
ENDBRANCH   1   2
BRANCH   1  13
ATOM     13  C   UNL     1       4.287  20.982   9.024  1.00  0.00     0.000 C 
BRANCH  13  14
ATOM     14  C   UNL     1       3.454  20.851  10.308  1.00  0.00     0.000 C 
BRANCH  14  15
ATOM     15  C   UNL     1       2.466  19.679  10.202  1.00  0.00     0.000 C 
BRANCH  15  16
ATOM     16  C   UNL     1       2.627  18.673  11.352  1.00  0.00     0.000 C 
BRANCH  16  17
ATOM     17  C   UNL     1       4.028  18.039  11.383  1.00  0.00     0.000 C 
BRANCH  17  18
ATOM     18  C   UNL     1       4.111  16.736  10.571  1.00  0.00     0.000 C 
BRANCH  18  19
ATOM     19  C   UNL     1       5.182  16.783   9.471  1.00  0.00     0.000 C 
BRANCH  19  20
ATOM     20  C   UNL     1       5.332  15.418   8.789  1.00  0.00     0.006 C 
BRANCH  20  21
ATOM     21  C   UNL     1       4.133  15.122   7.882  1.00  0.00     0.053 C 
BRANCH  21  22
ATOM     22  C   UNL     1       4.497  14.110   6.843  1.00  0.00     0.041 C 
ATOM     23  O   UNL     1       3.645  13.269   6.453  1.00  0.00    -0.550 OA
ATOM     24  O   UNL     1       5.764  14.122   6.272  1.00  0.00    -0.550 OA
ENDBRANCH  21  22
ENDBRANCH  20  21
ENDBRANCH  19  20
ENDBRANCH  18  19
ENDBRANCH  17  18
ENDBRANCH  16  17
ENDBRANCH  15  16
ENDBRANCH  14  15
ENDBRANCH  13  14
ENDBRANCH   1  13
TORSDOF 20
ENDMDL
MODEL 4
REMARK VINA RESULT:    -2.542      1.754      5.007
REMARK INTER + INTRA:          -9.347
REMARK INTER:                  -6.391
REMARK INTRA:                  -2.957
REMARK UNBOUND:                -3.832
REMARK SMILES CCCCCCCCCCCCCCCCCCCCCC(=O)[O-]
REMARK SMILES IDX 12 1 11 2 10 3 9 4 8 5 7 6 6 7 5 8 4 9 3 10 2 11 1 12 13 13
REMARK SMILES IDX 14 14 15 15 16 16 17 17 18 18 19 19 20 20 21 21 22 22 23 23
REMARK SMILES IDX 24 24
REMARK H PARENT
REMARK Flexibility Score: inf
ROOT
ATOM      1  C   UNL     1       1.977  21.655   9.422  1.00  0.00     0.000 C 
ENDROOT
BRANCH   1   2
ATOM      2  C   UNL     1       1.471  21.978   8.000  1.00  0.00     0.000 C 
BRANCH   2   3
ATOM      3  C   UNL     1       0.446  20.984   7.421  1.00  0.00     0.000 C 
BRANCH   3   4
ATOM      4  C   UNL     1       1.060  20.034   6.379  1.00  0.00    -0.000 C 
BRANCH   4   5
ATOM      5  C   UNL     1       1.971  20.764   5.379  1.00  0.00    -0.000 C 
BRANCH   5   6
ATOM      6  C   UNL     1       3.386  20.168   5.310  1.00  0.00    -0.000 C 
BRANCH   6   7
ATOM      7  C   UNL     1       3.504  18.941   6.226  1.00  0.00    -0.000 C 
BRANCH   7   8
ATOM      8  C   UNL     1       4.604  19.095   7.289  1.00  0.00    -0.000 C 
BRANCH   8   9
ATOM      9  C   UNL     1       5.678  18.002   7.192  1.00  0.00    -0.000 C 
BRANCH   9  10
ATOM     10  C   UNL     1       6.272  17.941   5.779  1.00  0.00    -0.000 C 
BRANCH  10  11
ATOM     11  C   UNL     1       6.427  16.490   5.307  1.00  0.00    -0.003 C 
ATOM     12  C   UNL     1       5.140  15.979   4.667  1.00  0.00     0.004 C 
ENDBRANCH  10  11
ENDBRANCH   9  10
ENDBRANCH   8   9
ENDBRANCH   7   8
ENDBRANCH   6   7
ENDBRANCH   5   6
ENDBRANCH   4   5
ENDBRANCH   3   4
ENDBRANCH   2   3
ENDBRANCH   1   2
BRANCH   1  13
ATOM     13  C   UNL     1       1.529  20.294   9.984  1.00  0.00     0.000 C 
BRANCH  13  14
ATOM     14  C   UNL     1       2.705  19.344  10.258  1.00  0.00     0.000 C 
BRANCH  14  15
ATOM     15  C   UNL     1       2.533  18.636  11.610  1.00  0.00     0.000 C 
BRANCH  15  16
ATOM     16  C   UNL     1       3.613  17.570  11.855  1.00  0.00     0.000 C 
BRANCH  16  17
ATOM     17  C   UNL     1       4.239  17.062  10.544  1.00  0.00     0.000 C 
BRANCH  17  18
ATOM     18  C   UNL     1       4.250  15.528  10.444  1.00  0.00     0.000 C 
BRANCH  18  19
ATOM     19  C   UNL     1       5.321  15.000   9.478  1.00  0.00     0.000 C 
BRANCH  19  20
ATOM     20  C   UNL     1       4.699  14.581   8.141  1.00  0.00     0.006 C 
BRANCH  20  21
ATOM     21  C   UNL     1       5.557  13.522   7.442  1.00  0.00     0.053 C 
BRANCH  21  22
ATOM     22  C   UNL     1       4.711  12.652   6.568  1.00  0.00     0.041 C 
ATOM     23  O   UNL     1       3.620  13.085   6.110  1.00  0.00    -0.550 OA
ATOM     24  O   UNL     1       5.146  11.379   6.223  1.00  0.00    -0.550 OA
ENDBRANCH  21  22
ENDBRANCH  20  21
ENDBRANCH  19  20
ENDBRANCH  18  19
ENDBRANCH  17  18
ENDBRANCH  16  17
ENDBRANCH  15  16
ENDBRANCH  14  15
ENDBRANCH  13  14
ENDBRANCH   1  13
TORSDOF 20
ENDMDL
MODEL 5
REMARK VINA RESULT:    -2.540      1.852      5.315
REMARK INTER + INTRA:          -9.343
REMARK INTER:                  -6.384
REMARK INTRA:                  -2.959
REMARK UNBOUND:                -3.832
REMARK SMILES CCCCCCCCCCCCCCCCCCCCCC(=O)[O-]
REMARK SMILES IDX 12 1 11 2 10 3 9 4 8 5 7 6 6 7 5 8 4 9 3 10 2 11 1 12 13 13
REMARK SMILES IDX 14 14 15 15 16 16 17 17 18 18 19 19 20 20 21 21 22 22 23 23
REMARK SMILES IDX 24 24
REMARK H PARENT
REMARK Flexibility Score: inf
ROOT
ATOM      1  C   UNL     1       0.835  20.887   7.647  1.00  0.00     0.000 C 
ENDROOT
BRANCH   1   2
ATOM      2  C   UNL     1       1.241  20.319   6.271  1.00  0.00     0.000 C 
BRANCH   2   3
ATOM      3  C   UNL     1       2.488  19.415   6.270  1.00  0.00     0.000 C 
BRANCH   3   4
ATOM      4  C   UNL     1       3.613  19.951   5.368  1.00  0.00    -0.000 C 
BRANCH   4   5
ATOM      5  C   UNL     1       4.939  20.134   6.124  1.00  0.00    -0.000 C 
BRANCH   5   6
ATOM      6  C   UNL     1       5.310  18.917   6.986  1.00  0.00    -0.000 C 
BRANCH   6   7
ATOM      7  C   UNL     1       6.475  18.138   6.356  1.00  0.00    -0.000 C 
BRANCH   7   8
ATOM      8  C   UNL     1       7.149  18.904   5.207  1.00  0.00    -0.000 C 
BRANCH   8   9
ATOM      9  C   UNL     1       7.262  18.068   3.923  1.00  0.00    -0.000 C 
BRANCH   9  10
ATOM     10  C   UNL     1       5.888  17.885   3.267  1.00  0.00    -0.000 C 
BRANCH  10  11
ATOM     11  C   UNL     1       5.696  16.443   2.783  1.00  0.00    -0.003 C 
ATOM     12  C   UNL     1       5.124  15.563   3.891  1.00  0.00     0.004 C 
ENDBRANCH  10  11
ENDBRANCH   9  10
ENDBRANCH   8   9
ENDBRANCH   7   8
ENDBRANCH   6   7
ENDBRANCH   5   6
ENDBRANCH   4   5
ENDBRANCH   3   4
ENDBRANCH   2   3
ENDBRANCH   1   2
BRANCH   1  13
ATOM     13  C   UNL     1       1.996  21.114   8.632  1.00  0.00     0.000 C 
BRANCH  13  14
ATOM     14  C   UNL     1       1.833  20.325   9.940  1.00  0.00     0.000 C 
BRANCH  14  15
ATOM     15  C   UNL     1       2.819  19.148   9.995  1.00  0.00     0.000 C 
BRANCH  15  16
ATOM     16  C   UNL     1       2.894  18.512  11.392  1.00  0.00     0.000 C 
BRANCH  16  17
ATOM     17  C   UNL     1       3.872  17.326  11.442  1.00  0.00     0.000 C 
BRANCH  17  18
ATOM     18  C   UNL     1       4.563  17.066  10.094  1.00  0.00     0.000 C 
BRANCH  18  19
ATOM     19  C   UNL     1       4.363  15.630   9.586  1.00  0.00     0.000 C 
BRANCH  19  20
ATOM     20  C   UNL     1       4.111  15.611   8.074  1.00  0.00     0.006 C 
BRANCH  20  21
ATOM     21  C   UNL     1       5.139  14.731   7.355  1.00  0.00     0.053 C 
BRANCH  21  22
ATOM     22  C   UNL     1       4.553  13.394   7.032  1.00  0.00     0.041 C 
ATOM     23  O   UNL     1       3.584  13.304   6.232  1.00  0.00    -0.550 OA
ATOM     24  O   UNL     1       5.103  12.241   7.580  1.00  0.00    -0.550 OA
ENDBRANCH  21  22
ENDBRANCH  20  21
ENDBRANCH  19  20
ENDBRANCH  18  19
ENDBRANCH  17  18
ENDBRANCH  16  17
ENDBRANCH  15  16
ENDBRANCH  14  15
ENDBRANCH  13  14
ENDBRANCH   1  13
TORSDOF 20
ENDMDL
MODEL 6
REMARK VINA RESULT:    -2.538      3.367      5.686
REMARK INTER + INTRA:          -9.338
REMARK INTER:                  -5.650
REMARK INTRA:                  -3.688
REMARK UNBOUND:                -3.832
REMARK SMILES CCCCCCCCCCCCCCCCCCCCCC(=O)[O-]
REMARK SMILES IDX 12 1 11 2 10 3 9 4 8 5 7 6 6 7 5 8 4 9 3 10 2 11 1 12 13 13
REMARK SMILES IDX 14 14 15 15 16 16 17 17 18 18 19 19 20 20 21 21 22 22 23 23
REMARK SMILES IDX 24 24
REMARK H PARENT
REMARK Flexibility Score: inf
ROOT
ATOM      1  C   UNL     1       4.028  21.594   9.848  1.00  0.00     0.000 C 
ENDROOT
BRANCH   1   2
ATOM      2  C   UNL     1       2.513  21.499   9.571  1.00  0.00     0.000 C 
BRANCH   2   3
ATOM      3  C   UNL     1       1.869  20.133   9.876  1.00  0.00     0.000 C 
BRANCH   3   4
ATOM      4  C   UNL     1       1.531  19.952  11.366  1.00  0.00    -0.000 C 
BRANCH   4   5
ATOM      5  C   UNL     1       2.351  18.831  12.025  1.00  0.00    -0.000 C 
BRANCH   5   6
ATOM      6  C   UNL     1       3.241  18.073  11.029  1.00  0.00    -0.000 C 
BRANCH   6   7
ATOM      7  C   UNL     1       4.475  17.491  11.735  1.00  0.00    -0.000 C 
BRANCH   7   8
ATOM      8  C   UNL     1       5.290  16.553  10.831  1.00  0.00    -0.000 C 
BRANCH   8   9
ATOM      9  C   UNL     1       4.454  15.389  10.278  1.00  0.00    -0.000 C 
BRANCH   9  10
ATOM     10  C   UNL     1       5.291  14.511   9.340  1.00  0.00    -0.000 C 
BRANCH  10  11
ATOM     11  C   UNL     1       4.750  14.564   7.906  1.00  0.00    -0.003 C 
ATOM     12  C   UNL     1       5.845  14.952   6.917  1.00  0.00     0.004 C 
ENDBRANCH  10  11
ENDBRANCH   9  10
ENDBRANCH   8   9
ENDBRANCH   7   8
ENDBRANCH   6   7
ENDBRANCH   5   6
ENDBRANCH   4   5
ENDBRANCH   3   4
ENDBRANCH   2   3
ENDBRANCH   1   2
BRANCH   1  13
ATOM     13  C   UNL     1       4.937  21.121   8.699  1.00  0.00     0.000 C 
BRANCH  13  14
ATOM     14  C   UNL     1       5.715  19.842   9.040  1.00  0.00     0.000 C 
BRANCH  14  15
ATOM     15  C   UNL     1       5.687  18.854   7.864  1.00  0.00     0.000 C 
BRANCH  15  16
ATOM     16  C   UNL     1       4.294  18.243   7.647  1.00  0.00     0.000 C 
BRANCH  16  17
ATOM     17  C   UNL     1       3.689  18.636   6.288  1.00  0.00     0.000 C 
BRANCH  17  18
ATOM     18  C   UNL     1       2.377  19.426   6.426  1.00  0.00     0.000 C 
BRANCH  18  19
ATOM     19  C   UNL     1       2.355  20.702   5.571  1.00  0.00     0.000 C 
BRANCH  19  20
ATOM     20  C   UNL     1       0.938  21.282   5.486  1.00  0.00     0.006 C 
BRANCH  20  21
ATOM     21  C   UNL     1      -0.008  20.569   6.456  1.00  0.00     0.053 C 
BRANCH  21  22
ATOM     22  C   UNL     1      -0.872  21.557   7.171  1.00  0.00     0.041 C 
ATOM     23  O   UNL     1      -0.349  22.468   7.867  1.00  0.00    -0.550 OA
ATOM     24  O   UNL     1      -2.254  21.502   7.034  1.00  0.00    -0.550 OA
ENDBRANCH  21  22
ENDBRANCH  20  21
ENDBRANCH  19  20
ENDBRANCH  18  19
ENDBRANCH  17  18
ENDBRANCH  16  17
ENDBRANCH  15  16
ENDBRANCH  14  15
ENDBRANCH  13  14
ENDBRANCH   1  13
TORSDOF 20
ENDMDL
MODEL 7
REMARK VINA RESULT:    -2.530      1.913      3.917
REMARK INTER + INTRA:          -9.320
REMARK INTER:                  -6.853
REMARK INTRA:                  -2.467
REMARK UNBOUND:                -3.832
REMARK SMILES CCCCCCCCCCCCCCCCCCCCCC(=O)[O-]
REMARK SMILES IDX 12 1 11 2 10 3 9 4 8 5 7 6 6 7 5 8 4 9 3 10 2 11 1 12 13 13
REMARK SMILES IDX 14 14 15 15 16 16 17 17 18 18 19 19 20 20 21 21 22 22 23 23
REMARK SMILES IDX 24 24
REMARK H PARENT
REMARK Flexibility Score: inf
ROOT
ATOM      1  C   UNL     1       1.635  19.846   6.415  1.00  0.00     0.000 C 
ENDROOT
BRANCH   1   2
ATOM      2  C   UNL     1       0.487  20.871   6.294  1.00  0.00     0.000 C 
BRANCH   2   3
ATOM      3  C   UNL     1       0.473  21.978   7.366  1.00  0.00     0.000 C 
BRANCH   3   4
ATOM      4  C   UNL     1      -0.360  21.600   8.602  1.00  0.00    -0.000 C 
BRANCH   4   5
ATOM      5  C   UNL     1       0.513  21.242   9.816  1.00  0.00    -0.000 C 
BRANCH   5   6
ATOM      6  C   UNL     1       1.914  21.870   9.754  1.00  0.00    -0.000 C 
BRANCH   6   7
ATOM      7  C   UNL     1       3.000  20.790   9.870  1.00  0.00    -0.000 C 
BRANCH   7   8
ATOM      8  C   UNL     1       2.417  19.374  10.011  1.00  0.00    -0.000 C 
BRANCH   8   9
ATOM      9  C   UNL     1       3.212  18.502  10.994  1.00  0.00    -0.000 C 
BRANCH   9  10
ATOM     10  C   UNL     1       3.025  18.992  12.435  1.00  0.00    -0.000 C 
BRANCH  10  11
ATOM     11  C   UNL     1       1.761  18.393  13.062  1.00  0.00    -0.003 C 
ATOM     12  C   UNL     1       0.633  19.420  13.114  1.00  0.00     0.004 C 
ENDBRANCH  10  11
ENDBRANCH   9  10
ENDBRANCH   8   9
ENDBRANCH   7   8
ENDBRANCH   6   7
ENDBRANCH   5   6
ENDBRANCH   4   5
ENDBRANCH   3   4
ENDBRANCH   2   3
ENDBRANCH   1   2
BRANCH   1  13
ATOM     13  C   UNL     1       2.859  20.123   5.525  1.00  0.00     0.000 C 
BRANCH  13  14
ATOM     14  C   UNL     1       4.009  19.132   5.764  1.00  0.00     0.000 C 
BRANCH  14  15
ATOM     15  C   UNL     1       3.740  18.273   7.008  1.00  0.00     0.000 C 
BRANCH  15  16
ATOM     16  C   UNL     1       4.759  17.132   7.163  1.00  0.00     0.000 C 
BRANCH  16  17
ATOM     17  C   UNL     1       4.239  16.004   8.071  1.00  0.00     0.000 C 
BRANCH  17  18
ATOM     18  C   UNL     1       4.079  14.667   7.329  1.00  0.00     0.000 C 
BRANCH  18  19
ATOM     19  C   UNL     1       4.803  14.646   5.974  1.00  0.00     0.000 C 
BRANCH  19  20
ATOM     20  C   UNL     1       4.976  13.209   5.466  1.00  0.00     0.006 C 
BRANCH  20  21
ATOM     21  C   UNL     1       3.885  12.292   6.027  1.00  0.00     0.053 C 
BRANCH  21  22
ATOM     22  C   UNL     1       3.483  11.270   5.012  1.00  0.00     0.041 C 
ATOM     23  O   UNL     1       4.351  10.517   4.494  1.00  0.00    -0.550 OA
ATOM     24  O   UNL     1       2.146  11.118   4.668  1.00  0.00    -0.550 OA
ENDBRANCH  21  22
ENDBRANCH  20  21
ENDBRANCH  19  20
ENDBRANCH  18  19
ENDBRANCH  17  18
ENDBRANCH  16  17
ENDBRANCH  15  16
ENDBRANCH  14  15
ENDBRANCH  13  14
ENDBRANCH   1  13
TORSDOF 20
ENDMDL
MODEL 8
REMARK VINA RESULT:    -2.514      1.185      2.077
REMARK INTER + INTRA:          -9.285
REMARK INTER:                  -5.655
REMARK INTRA:                  -3.630
REMARK UNBOUND:                -3.832
REMARK SMILES CCCCCCCCCCCCCCCCCCCCCC(=O)[O-]
REMARK SMILES IDX 12 1 11 2 10 3 9 4 8 5 7 6 6 7 5 8 4 9 3 10 2 11 1 12 13 13
REMARK SMILES IDX 14 14 15 15 16 16 17 17 18 18 19 19 20 20 21 21 22 22 23 23
REMARK SMILES IDX 24 24
REMARK H PARENT
REMARK Flexibility Score: inf
ROOT
ATOM      1  C   UNL     1       1.372  22.067   8.003  1.00  0.00     0.000 C 
ENDROOT
BRANCH   1   2
ATOM      2  C   UNL     1       2.059  21.523   9.274  1.00  0.00     0.000 C 
BRANCH   2   3
ATOM      3  C   UNL     1       1.231  20.513  10.092  1.00  0.00     0.000 C 
BRANCH   3   4
ATOM      4  C   UNL     1       2.021  19.906  11.264  1.00  0.00    -0.000 C 
BRANCH   4   5
ATOM      5  C   UNL     1       2.811  18.651  10.857  1.00  0.00    -0.000 C 
BRANCH   5   6
ATOM      6  C   UNL     1       4.313  18.764  11.157  1.00  0.00    -0.000 C 
BRANCH   6   7
ATOM      7  C   UNL     1       4.651  20.149  11.729  1.00  0.00    -0.000 C 
BRANCH   7   8
ATOM      8  C   UNL     1       5.406  21.038  10.728  1.00  0.00    -0.000 C 
BRANCH   8   9
ATOM      9  C   UNL     1       5.795  20.287   9.445  1.00  0.00    -0.000 C 
BRANCH   9  10
ATOM     10  C   UNL     1       5.670  21.199   8.218  1.00  0.00    -0.000 C 
BRANCH  10  11
ATOM     11  C   UNL     1       6.456  20.633   7.029  1.00  0.00    -0.003 C 
ATOM     12  C   UNL     1       7.314  19.444   7.452  1.00  0.00     0.004 C 
ENDBRANCH  10  11
ENDBRANCH   9  10
ENDBRANCH   8   9
ENDBRANCH   7   8
ENDBRANCH   6   7
ENDBRANCH   5   6
ENDBRANCH   4   5
ENDBRANCH   3   4
ENDBRANCH   2   3
ENDBRANCH   1   2
BRANCH   1  13
ATOM     13  C   UNL     1       0.219  21.204   7.459  1.00  0.00     0.000 C 
BRANCH  13  14
ATOM     14  C   UNL     1       0.654  20.284   6.308  1.00  0.00     0.000 C 
BRANCH  14  15
ATOM     15  C   UNL     1       1.862  20.872   5.564  1.00  0.00     0.000 C 
BRANCH  15  16
ATOM     16  C   UNL     1       3.070  19.923   5.568  1.00  0.00     0.000 C 
BRANCH  16  17
ATOM     17  C   UNL     1       3.056  18.963   6.771  1.00  0.00     0.000 C 
BRANCH  17  18
ATOM     18  C   UNL     1       4.067  17.814   6.630  1.00  0.00     0.000 C 
BRANCH  18  19
ATOM     19  C   UNL     1       4.364  17.112   7.963  1.00  0.00     0.000 C 
BRANCH  19  20
ATOM     20  C   UNL     1       5.137  15.807   7.737  1.00  0.00     0.006 C 
BRANCH  20  21
ATOM     21  C   UNL     1       4.537  15.006   6.577  1.00  0.00     0.053 C 
BRANCH  21  22
ATOM     22  C   UNL     1       4.348  13.575   6.968  1.00  0.00     0.041 C 
ATOM     23  O   UNL     1       3.605  12.824   6.281  1.00  0.00    -0.550 OA
ATOM     24  O   UNL     1       5.026  13.057   8.065  1.00  0.00    -0.550 OA
ENDBRANCH  21  22
ENDBRANCH  20  21
ENDBRANCH  19  20
ENDBRANCH  18  19
ENDBRANCH  17  18
ENDBRANCH  16  17
ENDBRANCH  15  16
ENDBRANCH  14  15
ENDBRANCH  13  14
ENDBRANCH   1  13
TORSDOF 20
ENDMDL
MODEL 9
REMARK VINA RESULT:    -2.490      1.811      4.514
REMARK INTER + INTRA:          -9.233
REMARK INTER:                  -6.577
REMARK INTRA:                  -2.655
REMARK UNBOUND:                -3.832
REMARK SMILES CCCCCCCCCCCCCCCCCCCCCC(=O)[O-]
REMARK SMILES IDX 12 1 11 2 10 3 9 4 8 5 7 6 6 7 5 8 4 9 3 10 2 11 1 12 13 13
REMARK SMILES IDX 14 14 15 15 16 16 17 17 18 18 19 19 20 20 21 21 22 22 23 23
REMARK SMILES IDX 24 24
REMARK H PARENT
REMARK Flexibility Score: inf
ROOT
ATOM      1  C   UNL     1       3.093  19.003   6.554  1.00  0.00     0.000 C 
ENDROOT
BRANCH   1   2
ATOM      2  C   UNL     1       2.977  20.086   5.459  1.00  0.00     0.000 C 
BRANCH   2   3
ATOM      3  C   UNL     1       1.628  20.829   5.404  1.00  0.00     0.000 C 
BRANCH   3   4
ATOM      4  C   UNL     1       0.664  20.398   6.523  1.00  0.00    -0.000 C 
BRANCH   4   5
ATOM      5  C   UNL     1       0.291  21.559   7.460  1.00  0.00    -0.000 C 
BRANCH   5   6
ATOM      6  C   UNL     1       0.346  21.171   8.946  1.00  0.00    -0.000 C 
BRANCH   6   7
ATOM      7  C   UNL     1       1.801  21.078   9.429  1.00  0.00    -0.000 C 
BRANCH   7   8
ATOM      8  C   UNL     1       2.138  19.710  10.043  1.00  0.00    -0.000 C 
BRANCH   8   9
ATOM      9  C   UNL     1       1.593  19.551  11.470  1.00  0.00    -0.000 C 
BRANCH   9  10
ATOM     10  C   UNL     1       2.470  18.595  12.288  1.00  0.00    -0.000 C 
BRANCH  10  11
ATOM     11  C   UNL     1       3.453  17.840  11.385  1.00  0.00    -0.003 C 
ATOM     12  C   UNL     1       4.382  16.949  12.205  1.00  0.00     0.004 C 
ENDBRANCH  10  11
ENDBRANCH   9  10
ENDBRANCH   8   9
ENDBRANCH   7   8
ENDBRANCH   6   7
ENDBRANCH   5   6
ENDBRANCH   4   5
ENDBRANCH   3   4
ENDBRANCH   2   3
ENDBRANCH   1   2
BRANCH   1  13
ATOM     13  C   UNL     1       4.399  18.190   6.536  1.00  0.00     0.000 C 
BRANCH  13  14
ATOM     14  C   UNL     1       4.799  17.671   7.926  1.00  0.00     0.000 C 
BRANCH  14  15
ATOM     15  C   UNL     1       4.059  16.366   8.256  1.00  0.00     0.000 C 
BRANCH  15  16
ATOM     16  C   UNL     1       5.019  15.232   8.648  1.00  0.00     0.000 C 
BRANCH  16  17
ATOM     17  C   UNL     1       6.496  15.642   8.507  1.00  0.00     0.000 C 
BRANCH  17  18
ATOM     18  C   UNL     1       7.226  14.867   7.398  1.00  0.00     0.000 C 
BRANCH  18  19
ATOM     19  C   UNL     1       6.952  15.429   5.995  1.00  0.00     0.000 C 
BRANCH  19  20
ATOM     20  C   UNL     1       6.793  14.300   4.971  1.00  0.00     0.006 C 
BRANCH  20  21
ATOM     21  C   UNL     1       5.320  14.094   4.603  1.00  0.00     0.053 C 
BRANCH  21  22
ATOM     22  C   UNL     1       4.679  13.111   5.530  1.00  0.00     0.041 C 
ATOM     23  O   UNL     1       3.611  13.408   6.127  1.00  0.00    -0.550 OA
ATOM     24  O   UNL     1       5.236  11.849   5.700  1.00  0.00    -0.550 OA
ENDBRANCH  21  22
ENDBRANCH  20  21
ENDBRANCH  19  20
ENDBRANCH  18  19
ENDBRANCH  17  18
ENDBRANCH  16  17
ENDBRANCH  15  16
ENDBRANCH  14  15
ENDBRANCH  13  14
ENDBRANCH   1  13
TORSDOF 20
ENDMDL
