MODEL 1
REMARK VINA RESULT:    -6.697      0.000      0.000
REMARK INTER + INTRA:          -8.027
REMARK INTER:                  -8.067
REMARK INTRA:                   0.040
REMARK UNBOUND:                 0.040
REMARK SMILES O=c1c(O)c(-c2ccc(O)c(O)c2)oc2cc(O)cc(O)c12
REMARK SMILES IDX 5 1 3 2 2 3 1 4 22 5 20 6 19 7 17 8 16 9 15 10 14 11 6 12
REMARK SMILES IDX 7 13 8 14 9 15 13 16 11 17 10 18 12 20 4 22 21 24 18 26
REMARK H PARENT 10 19 12 21 4 23 21 25 18 27
REMARK Flexibility Score: inf
ROOT
ATOM      1  C   UNL     1     -19.686  26.601  -1.067  1.00  0.00     0.180 A 
ATOM      2  C   UNL     1     -18.765  26.239  -0.070  1.00  0.00     0.208 A 
ATOM      3  C   UNL     1     -18.768  24.922   0.415  1.00  0.00     0.238 A 
ATOM      4  O   UNL     1     -17.893  24.585   1.254  1.00  0.00    -0.285 OA
ATOM      5  C   UNL     1     -19.730  23.997  -0.062  1.00  0.00     0.111 A 
ATOM      6  C   UNL     1     -19.855  22.648   0.392  1.00  0.00     0.134 A 
ATOM      7  C   UNL     1     -20.775  21.794  -0.229  1.00  0.00     0.093 A 
ATOM      8  C   UNL     1     -21.618  22.256  -1.243  1.00  0.00     0.123 A 
ATOM      9  C   UNL     1     -21.541  23.585  -1.654  1.00  0.00     0.094 A 
ATOM     10  C   UNL     1     -20.608  24.451  -1.081  1.00  0.00     0.146 A 
ATOM     11  O   UNL     1     -20.555  25.703  -1.518  1.00  0.00    -0.452 OA
ENDROOT
BRANCH   1  12
ATOM     12  C   UNL     1     -19.735  27.967  -1.638  1.00  0.00     0.025 A 
ATOM     13  C   UNL     1     -19.730  29.103  -0.816  1.00  0.00     0.016 A 
ATOM     14  C   UNL     1     -19.751  30.381  -1.377  1.00  0.00     0.051 A 
ATOM     15  C   UNL     1     -19.765  30.550  -2.767  1.00  0.00     0.157 A 
ATOM     16  C   UNL     1     -19.726  28.133  -3.032  1.00  0.00     0.062 A 
ATOM     17  C   UNL     1     -19.748  29.411  -3.606  1.00  0.00     0.158 A 
BRANCH  15  18
ATOM     18  O   UNL     1     -19.791  31.855  -3.265  1.00  0.00    -0.504 OA
ATOM     19  H   UNL     1     -19.840  32.082  -4.248  1.00  0.00     0.293 HD
ENDBRANCH  15  18
BRANCH  17  20
ATOM     20  O   UNL     1     -19.750  29.500  -4.999  1.00  0.00    -0.504 OA
ATOM     21  H   UNL     1     -20.024  30.325  -5.511  1.00  0.00     0.293 HD
ENDBRANCH  17  20
ENDBRANCH   1  12
BRANCH   2  22
ATOM     22  O   UNL     1     -17.875  27.187   0.443  1.00  0.00    -0.502 OA
ATOM     23  H   UNL     1     -17.306  27.011   1.263  1.00  0.00     0.293 HD
ENDBRANCH   2  22
BRANCH   6  24
ATOM     24  O   UNL     1     -19.125  22.109   1.455  1.00  0.00    -0.507 OA
ATOM     25  H   UNL     1     -19.224  21.168   1.805  1.00  0.00     0.293 HD
ENDBRANCH   6  24
BRANCH   8  26
ATOM     26  O   UNL     1     -22.541  21.404  -1.842  1.00  0.00    -0.508 OA
ATOM     27  H   UNL     1     -23.437  21.741  -2.175  1.00  0.00     0.293 HD
ENDBRANCH   8  26
TORSDOF 6
ENDMDL
MODEL 2
REMARK VINA RESULT:    -6.493      1.701      6.940
REMARK INTER + INTRA:          -7.781
REMARK INTER:                  -7.569
REMARK INTRA:                  -0.212
REMARK UNBOUND:                 0.040
REMARK SMILES O=c1c(O)c(-c2ccc(O)c(O)c2)oc2cc(O)cc(O)c12
REMARK SMILES IDX 5 1 3 2 2 3 1 4 22 5 20 6 19 7 17 8 16 9 15 10 14 11 6 12
REMARK SMILES IDX 7 13 8 14 9 15 13 16 11 17 10 18 12 20 4 22 21 24 18 26
REMARK H PARENT 10 19 12 21 4 23 21 25 18 27
REMARK Flexibility Score: inf
ROOT
ATOM      1  C   UNL     1     -20.566  26.153  -0.548  1.00  0.00     0.180 A 
ATOM      2  C   UNL     1     -20.998  26.935   0.536  1.00  0.00     0.208 A 
ATOM      3  C   UNL     1     -20.788  28.322   0.502  1.00  0.00     0.238 A 
ATOM      4  O   UNL     1     -21.243  29.025   1.441  1.00  0.00    -0.285 OA
ATOM      5  C   UNL     1     -20.097  28.904  -0.589  1.00  0.00     0.111 A 
ATOM      6  C   UNL     1     -19.787  30.293  -0.707  1.00  0.00     0.134 A 
ATOM      7  C   UNL     1     -19.193  30.770  -1.882  1.00  0.00     0.093 A 
ATOM      8  C   UNL     1     -18.839  29.900  -2.916  1.00  0.00     0.123 A 
ATOM      9  C   UNL     1     -19.087  28.536  -2.787  1.00  0.00     0.094 A 
ATOM     10  C   UNL     1     -19.713  28.034  -1.644  1.00  0.00     0.146 A 
ATOM     11  O   UNL     1     -19.949  26.730  -1.573  1.00  0.00    -0.452 OA
ENDROOT
BRANCH   1  12
ATOM     12  C   UNL     1     -20.765  24.685  -0.592  1.00  0.00     0.025 A 
ATOM     13  C   UNL     1     -21.649  24.095  -1.508  1.00  0.00     0.016 A 
ATOM     14  C   UNL     1     -21.802  22.708  -1.547  1.00  0.00     0.051 A 
ATOM     15  C   UNL     1     -21.070  21.883  -0.684  1.00  0.00     0.157 A 
ATOM     16  C   UNL     1     -20.013  23.861   0.259  1.00  0.00     0.062 A 
ATOM     17  C   UNL     1     -20.159  22.468   0.228  1.00  0.00     0.158 A 
BRANCH  15  18
ATOM     18  O   UNL     1     -21.273  20.505  -0.771  1.00  0.00    -0.504 OA
ATOM     19  H   UNL     1     -22.077  20.079  -1.210  1.00  0.00     0.293 HD
ENDBRANCH  15  18
BRANCH  17  20
ATOM     20  O   UNL     1     -19.388  21.711   1.112  1.00  0.00    -0.504 OA
ATOM     21  H   UNL     1     -19.739  21.313   1.970  1.00  0.00     0.293 HD
ENDBRANCH  17  20
ENDBRANCH   1  12
BRANCH   2  22
ATOM     22  O   UNL     1     -21.610  26.331   1.639  1.00  0.00    -0.502 OA
ATOM     23  H   UNL     1     -21.085  25.828   2.344  1.00  0.00     0.293 HD
ENDBRANCH   2  22
BRANCH   6  24
ATOM     24  O   UNL     1     -20.016  31.234   0.300  1.00  0.00    -0.507 OA
ATOM     25  H   UNL     1     -20.922  31.473   0.673  1.00  0.00     0.293 HD
ENDBRANCH   6  24
BRANCH   8  26
ATOM     26  O   UNL     1     -18.233  30.382  -4.074  1.00  0.00    -0.508 OA
ATOM     27  H   UNL     1     -17.943  31.350  -4.158  1.00  0.00     0.293 HD
ENDBRANCH   8  26
TORSDOF 6
ENDMDL
MODEL 3
REMARK VINA RESULT:    -6.387      0.663      1.490
REMARK INTER + INTRA:          -7.654
REMARK INTER:                  -7.661
REMARK INTRA:                   0.008
REMARK UNBOUND:                 0.040
REMARK SMILES O=c1c(O)c(-c2ccc(O)c(O)c2)oc2cc(O)cc(O)c12
REMARK SMILES IDX 5 1 3 2 2 3 1 4 22 5 20 6 19 7 17 8 16 9 15 10 14 11 6 12
REMARK SMILES IDX 7 13 8 14 9 15 13 16 11 17 10 18 12 20 4 22 21 24 18 26
REMARK H PARENT 10 19 12 21 4 23 21 25 18 27
REMARK Flexibility Score: inf
ROOT
ATOM      1  C   UNL     1     -19.529  26.634  -0.953  1.00  0.00     0.180 A 
ATOM      2  C   UNL     1     -18.691  26.383   0.146  1.00  0.00     0.208 A 
ATOM      3  C   UNL     1     -18.684  25.101   0.718  1.00  0.00     0.238 A 
ATOM      4  O   UNL     1     -17.878  24.862   1.654  1.00  0.00    -0.285 OA
ATOM      5  C   UNL     1     -19.557  24.102   0.220  1.00  0.00     0.111 A 
ATOM      6  C   UNL     1     -19.666  22.781   0.753  1.00  0.00     0.134 A 
ATOM      7  C   UNL     1     -20.487  21.845   0.111  1.00  0.00     0.093 A 
ATOM      8  C   UNL     1     -21.250  22.199  -1.004  1.00  0.00     0.123 A 
ATOM      9  C   UNL     1     -21.192  23.501  -1.497  1.00  0.00     0.094 A 
ATOM     10  C   UNL     1     -20.354  24.446  -0.903  1.00  0.00     0.146 A 
ATOM     11  O   UNL     1     -20.313  25.669  -1.419  1.00  0.00    -0.452 OA
ENDROOT
BRANCH   1  12
ATOM     12  C   UNL     1     -19.582  27.957  -1.620  1.00  0.00     0.025 A 
ATOM     13  C   UNL     1     -19.457  28.079  -3.012  1.00  0.00     0.016 A 
ATOM     14  C   UNL     1     -19.534  29.333  -3.620  1.00  0.00     0.051 A 
ATOM     15  C   UNL     1     -19.749  30.486  -2.855  1.00  0.00     0.157 A 
ATOM     16  C   UNL     1     -19.820  29.107  -0.852  1.00  0.00     0.062 A 
ATOM     17  C   UNL     1     -19.898  30.371  -1.452  1.00  0.00     0.158 A 
BRANCH  15  18
ATOM     18  O   UNL     1     -19.811  31.710  -3.524  1.00  0.00    -0.504 OA
ATOM     19  H   UNL     1     -19.048  32.100  -4.058  1.00  0.00     0.293 HD
ENDBRANCH  15  18
BRANCH  17  20
ATOM     20  O   UNL     1     -20.125  31.473  -0.626  1.00  0.00    -0.504 OA
ATOM     21  H   UNL     1     -20.396  31.405   0.344  1.00  0.00     0.293 HD
ENDBRANCH  17  20
ENDBRANCH   1  12
BRANCH   2  22
ATOM     22  O   UNL     1     -17.894  27.404   0.671  1.00  0.00    -0.502 OA
ATOM     23  H   UNL     1     -17.387  27.305   1.542  1.00  0.00     0.293 HD
ENDBRANCH   2  22
BRANCH   6  24
ATOM     24  O   UNL     1     -19.018  22.348   1.912  1.00  0.00    -0.507 OA
ATOM     25  H   UNL     1     -19.473  22.155   2.791  1.00  0.00     0.293 HD
ENDBRANCH   6  24
BRANCH   8  26
ATOM     26  O   UNL     1     -22.076  21.266  -1.625  1.00  0.00    -0.508 OA
ATOM     27  H   UNL     1     -22.397  20.435  -1.140  1.00  0.00     0.293 HD
ENDBRANCH   8  26
TORSDOF 6
ENDMDL
MODEL 4
REMARK VINA RESULT:    -6.363      1.194      2.834
REMARK INTER + INTRA:          -7.625
REMARK INTER:                  -7.549
REMARK INTRA:                  -0.076
REMARK UNBOUND:                 0.040
REMARK SMILES O=c1c(O)c(-c2ccc(O)c(O)c2)oc2cc(O)cc(O)c12
REMARK SMILES IDX 5 1 3 2 2 3 1 4 22 5 20 6 19 7 17 8 16 9 15 10 14 11 6 12
REMARK SMILES IDX 7 13 8 14 9 15 13 16 11 17 10 18 12 20 4 22 21 24 18 26
REMARK H PARENT 10 19 12 21 4 23 21 25 18 27
REMARK Flexibility Score: inf
ROOT
ATOM      1  C   UNL     1     -20.321  26.267  -1.345  1.00  0.00     0.180 A 
ATOM      2  C   UNL     1     -21.380  25.544  -1.919  1.00  0.00     0.208 A 
ATOM      3  C   UNL     1     -21.553  24.196  -1.569  1.00  0.00     0.238 A 
ATOM      4  O   UNL     1     -22.546  23.575  -2.029  1.00  0.00    -0.285 OA
ATOM      5  C   UNL     1     -20.631  23.571  -0.692  1.00  0.00     0.111 A 
ATOM      6  C   UNL     1     -20.683  22.198  -0.303  1.00  0.00     0.134 A 
ATOM      7  C   UNL     1     -19.780  21.717   0.653  1.00  0.00     0.093 A 
ATOM      8  C   UNL     1     -18.787  22.543   1.187  1.00  0.00     0.123 A 
ATOM      9  C   UNL     1     -18.695  23.869   0.773  1.00  0.00     0.094 A 
ATOM     10  C   UNL     1     -19.604  24.388  -0.151  1.00  0.00     0.146 A 
ATOM     11  O   UNL     1     -19.492  25.664  -0.501  1.00  0.00    -0.452 OA
ENDROOT
BRANCH   1  12
ATOM     12  C   UNL     1     -20.082  27.696  -1.654  1.00  0.00     0.025 A 
ATOM     13  C   UNL     1     -20.033  28.665  -0.640  1.00  0.00     0.016 A 
ATOM     14  C   UNL     1     -19.783  30.002  -0.954  1.00  0.00     0.051 A 
ATOM     15  C   UNL     1     -19.564  30.397  -2.279  1.00  0.00     0.157 A 
ATOM     16  C   UNL     1     -19.842  28.085  -2.981  1.00  0.00     0.062 A 
ATOM     17  C   UNL     1     -19.590  29.424  -3.306  1.00  0.00     0.158 A 
BRANCH  15  18
ATOM     18  O   UNL     1     -19.324  31.750  -2.525  1.00  0.00    -0.504 OA
ATOM     19  H   UNL     1     -19.167  32.137  -3.445  1.00  0.00     0.293 HD
ENDBRANCH  15  18
BRANCH  17  20
ATOM     20  O   UNL     1     -19.372  29.739  -4.649  1.00  0.00    -0.504 OA
ATOM     21  H   UNL     1     -19.069  29.073  -5.344  1.00  0.00     0.293 HD
ENDBRANCH  17  20
ENDBRANCH   1  12
BRANCH   2  22
ATOM     22  O   UNL     1     -22.232  26.158  -2.841  1.00  0.00    -0.502 OA
ATOM     23  H   UNL     1     -22.172  27.144  -3.064  1.00  0.00     0.293 HD
ENDBRANCH   2  22
BRANCH   6  24
ATOM     24  O   UNL     1     -21.576  21.266  -0.839  1.00  0.00    -0.507 OA
ATOM     25  H   UNL     1     -22.051  21.362  -1.723  1.00  0.00     0.293 HD
ENDBRANCH   6  24
BRANCH   8  26
ATOM     26  O   UNL     1     -17.883  22.051   2.125  1.00  0.00    -0.508 OA
ATOM     27  H   UNL     1     -18.173  21.811   3.067  1.00  0.00     0.293 HD
ENDBRANCH   8  26
TORSDOF 6
ENDMDL
MODEL 5
REMARK VINA RESULT:    -6.013      1.729      6.835
REMARK INTER + INTRA:          -7.204
REMARK INTER:                  -6.941
REMARK INTRA:                  -0.263
REMARK UNBOUND:                 0.040
REMARK SMILES O=c1c(O)c(-c2ccc(O)c(O)c2)oc2cc(O)cc(O)c12
REMARK SMILES IDX 5 1 3 2 2 3 1 4 22 5 20 6 19 7 17 8 16 9 15 10 14 11 6 12
REMARK SMILES IDX 7 13 8 14 9 15 13 16 11 17 10 18 12 20 4 22 21 24 18 26
REMARK H PARENT 10 19 12 21 4 23 21 25 18 27
REMARK Flexibility Score: inf
ROOT
ATOM      1  C   UNL     1     -20.412  26.135  -0.398  1.00  0.00     0.180 A 
ATOM      2  C   UNL     1     -20.897  26.954   0.635  1.00  0.00     0.208 A 
ATOM      3  C   UNL     1     -20.773  28.347   0.515  1.00  0.00     0.238 A 
ATOM      4  O   UNL     1     -21.275  29.077   1.409  1.00  0.00    -0.285 OA
ATOM      5  C   UNL     1     -20.115  28.902  -0.610  1.00  0.00     0.111 A 
ATOM      6  C   UNL     1     -19.892  30.298  -0.814  1.00  0.00     0.134 A 
ATOM      7  C   UNL     1     -19.324  30.738  -2.016  1.00  0.00     0.093 A 
ATOM      8  C   UNL     1     -18.913  29.829  -2.994  1.00  0.00     0.123 A 
ATOM      9  C   UNL     1     -19.075  28.463  -2.780  1.00  0.00     0.094 A 
ATOM     10  C   UNL     1     -19.674  27.995  -1.608  1.00  0.00     0.146 A 
ATOM     11  O   UNL     1     -19.828  26.685  -1.456  1.00  0.00    -0.452 OA
ENDROOT
BRANCH   1  12
ATOM     12  C   UNL     1     -20.519  24.658  -0.351  1.00  0.00     0.025 A 
ATOM     13  C   UNL     1     -19.688  23.892   0.481  1.00  0.00     0.016 A 
ATOM     14  C   UNL     1     -19.823  22.503   0.527  1.00  0.00     0.051 A 
ATOM     15  C   UNL     1     -20.796  21.854  -0.242  1.00  0.00     0.157 A 
ATOM     16  C   UNL     1     -21.509  24.013  -1.107  1.00  0.00     0.062 A 
ATOM     17  C   UNL     1     -21.654  22.620  -1.067  1.00  0.00     0.158 A 
BRANCH  15  18
ATOM     18  O   UNL     1     -20.876  20.463  -0.153  1.00  0.00    -0.504 OA
ATOM     19  H   UNL     1     -21.096  19.964   0.697  1.00  0.00     0.293 HD
ENDBRANCH  15  18
BRANCH  17  20
ATOM     20  O   UNL     1     -22.653  22.045  -1.855  1.00  0.00    -0.504 OA
ATOM     21  H   UNL     1     -22.919  22.386  -2.767  1.00  0.00     0.293 HD
ENDBRANCH  17  20
ENDBRANCH   1  12
BRANCH   2  22
ATOM     22  O   UNL     1     -21.474  26.383   1.773  1.00  0.00    -0.502 OA
ATOM     23  H   UNL     1     -22.310  26.759   2.205  1.00  0.00     0.293 HD
ENDBRANCH   2  22
BRANCH   6  24
ATOM     24  O   UNL     1     -20.184  31.284   0.133  1.00  0.00    -0.507 OA
ATOM     25  H   UNL     1     -20.065  31.182   1.129  1.00  0.00     0.293 HD
ENDBRANCH   6  24
BRANCH   8  26
ATOM     26  O   UNL     1     -18.333  30.275  -4.179  1.00  0.00    -0.508 OA
ATOM     27  H   UNL     1     -18.477  29.788  -5.057  1.00  0.00     0.293 HD
ENDBRANCH   8  26
TORSDOF 6
ENDMDL
MODEL 6
REMARK VINA RESULT:    -5.855      1.845      6.741
REMARK INTER + INTRA:          -7.013
REMARK INTER:                  -6.916
REMARK INTRA:                  -0.097
REMARK UNBOUND:                 0.040
REMARK SMILES O=c1c(O)c(-c2ccc(O)c(O)c2)oc2cc(O)cc(O)c12
REMARK SMILES IDX 5 1 3 2 2 3 1 4 22 5 20 6 19 7 17 8 16 9 15 10 14 11 6 12
REMARK SMILES IDX 7 13 8 14 9 15 13 16 11 17 10 18 12 20 4 22 21 24 18 26
REMARK H PARENT 10 19 12 21 4 23 21 25 18 27
REMARK Flexibility Score: inf
ROOT
ATOM      1  C   UNL     1     -19.692  26.672  -0.117  1.00  0.00     0.180 A 
ATOM      2  C   UNL     1     -19.563  27.770   0.750  1.00  0.00     0.208 A 
ATOM      3  C   UNL     1     -19.571  29.067   0.214  1.00  0.00     0.238 A 
ATOM      4  O   UNL     1     -19.529  30.047   1.002  1.00  0.00    -0.285 OA
ATOM      5  C   UNL     1     -19.650  29.249  -1.189  1.00  0.00     0.111 A 
ATOM      6  C   UNL     1     -19.621  30.517  -1.847  1.00  0.00     0.134 A 
ATOM      7  C   UNL     1     -19.813  30.579  -3.232  1.00  0.00     0.093 A 
ATOM      8  C   UNL     1     -19.971  29.418  -3.992  1.00  0.00     0.123 A 
ATOM      9  C   UNL     1     -19.945  28.174  -3.366  1.00  0.00     0.094 A 
ATOM     10  C   UNL     1     -19.793  28.080  -1.982  1.00  0.00     0.146 A 
ATOM     11  O   UNL     1     -19.797  26.875  -1.425  1.00  0.00    -0.452 OA
ENDROOT
BRANCH   1  12
ATOM     12  C   UNL     1     -19.706  25.275   0.376  1.00  0.00     0.025 A 
ATOM     13  C   UNL     1     -20.642  24.846   1.330  1.00  0.00     0.016 A 
ATOM     14  C   UNL     1     -20.652  23.518   1.761  1.00  0.00     0.051 A 
ATOM     15  C   UNL     1     -19.741  22.591   1.241  1.00  0.00     0.157 A 
ATOM     16  C   UNL     1     -18.806  24.343  -0.164  1.00  0.00     0.062 A 
ATOM     17  C   UNL     1     -18.808  23.009   0.262  1.00  0.00     0.158 A 
BRANCH  15  18
ATOM     18  O   UNL     1     -19.801  21.280   1.718  1.00  0.00    -0.504 OA
ATOM     19  H   UNL     1     -19.135  20.885   2.367  1.00  0.00     0.293 HD
ENDBRANCH  15  18
BRANCH  17  20
ATOM     20  O   UNL     1     -17.875  22.140  -0.309  1.00  0.00    -0.504 OA
ATOM     21  H   UNL     1     -16.905  22.374  -0.461  1.00  0.00     0.293 HD
ENDBRANCH  17  20
ENDBRANCH   1  12
BRANCH   2  22
ATOM     22  O   UNL     1     -19.408  27.566   2.125  1.00  0.00    -0.502 OA
ATOM     23  H   UNL     1     -18.499  27.467   2.561  1.00  0.00     0.293 HD
ENDBRANCH   2  22
BRANCH   6  24
ATOM     24  O   UNL     1     -19.382  31.730  -1.196  1.00  0.00    -0.507 OA
ATOM     25  H   UNL     1     -20.030  32.503  -1.159  1.00  0.00     0.293 HD
ENDBRANCH   6  24
BRANCH   8  26
ATOM     26  O   UNL     1     -20.145  29.490  -5.372  1.00  0.00    -0.508 OA
ATOM     27  H   UNL     1     -19.475  29.079  -6.013  1.00  0.00     0.293 HD
ENDBRANCH   8  26
TORSDOF 6
ENDMDL
