MODEL 1
REMARK VINA RESULT:    -5.476      0.000      0.000
REMARK INTER + INTRA:          -6.917
REMARK INTER:                  -6.596
REMARK INTRA:                  -0.321
REMARK UNBOUND:                -0.321
REMARK SMILES O=c1c(O)c(-c2ccc(O)c(O)c2)oc2cc(O)cc(O)c12
REMARK SMILES IDX 5 1 3 2 2 3 1 4 22 5 20 6 19 7 17 8 16 9 15 10 14 11 6 12
REMARK SMILES IDX 7 13 8 14 9 15 13 16 11 17 10 18 12 20 4 22 21 24 18 26
REMARK H PARENT 10 19 12 21 4 23 21 25 18 27
REMARK Flexibility Score: inf
ROOT
ATOM      1  C   UNL     1     -39.626  31.623  14.727  1.00  0.00     0.180 A 
ATOM      2  C   UNL     1     -38.361  32.127  14.375  1.00  0.00     0.208 A 
ATOM      3  C   UNL     1     -37.255  31.263  14.389  1.00  0.00     0.238 A 
ATOM      4  O   UNL     1     -36.118  31.733  14.126  1.00  0.00    -0.285 OA
ATOM      5  C   UNL     1     -37.429  29.902  14.738  1.00  0.00     0.111 A 
ATOM      6  C   UNL     1     -36.386  28.928  14.747  1.00  0.00     0.134 A 
ATOM      7  C   UNL     1     -36.646  27.642  15.236  1.00  0.00     0.093 A 
ATOM      8  C   UNL     1     -37.928  27.275  15.654  1.00  0.00     0.123 A 
ATOM      9  C   UNL     1     -38.966  28.202  15.593  1.00  0.00     0.094 A 
ATOM     10  C   UNL     1     -38.729  29.504  15.145  1.00  0.00     0.146 A 
ATOM     11  O   UNL     1     -39.744  30.358  15.113  1.00  0.00    -0.452 OA
ENDROOT
BRANCH   1  12
ATOM     12  C   UNL     1     -40.843  32.466  14.712  1.00  0.00     0.025 A 
ATOM     13  C   UNL     1     -41.215  33.235  15.828  1.00  0.00     0.016 A 
ATOM     14  C   UNL     1     -42.354  34.042  15.782  1.00  0.00     0.051 A 
ATOM     15  C   UNL     1     -43.131  34.103  14.618  1.00  0.00     0.157 A 
ATOM     16  C   UNL     1     -41.613  32.547  13.540  1.00  0.00     0.062 A 
ATOM     17  C   UNL     1     -42.756  33.354  13.491  1.00  0.00     0.158 A 
BRANCH  15  18
ATOM     18  O   UNL     1     -44.269  34.907  14.577  1.00  0.00    -0.504 OA
ATOM     19  H   UNL     1     -44.568  35.362  13.722  1.00  0.00     0.293 HD
ENDBRANCH  15  18
BRANCH  17  20
ATOM     20  O   UNL     1     -43.502  33.399  12.314  1.00  0.00    -0.504 OA
ATOM     21  H   UNL     1     -43.069  33.525  11.407  1.00  0.00     0.293 HD
ENDBRANCH  17  20
ENDBRANCH   1  12
BRANCH   2  22
ATOM     22  O   UNL     1     -38.209  33.479  14.054  1.00  0.00    -0.502 OA
ATOM     23  H   UNL     1     -38.687  33.909  13.272  1.00  0.00     0.293 HD
ENDBRANCH   2  22
BRANCH   6  24
ATOM     24  O   UNL     1     -35.095  29.163  14.266  1.00  0.00    -0.507 OA
ATOM     25  H   UNL     1     -34.408  29.743  14.724  1.00  0.00     0.293 HD
ENDBRANCH   6  24
BRANCH   8  26
ATOM     26  O   UNL     1     -38.182  25.988  16.124  1.00  0.00    -0.508 OA
ATOM     27  H   UNL     1     -37.483  25.465  16.639  1.00  0.00     0.293 HD
ENDBRANCH   8  26
TORSDOF 6
ENDMDL
MODEL 2
REMARK VINA RESULT:    -5.201      2.782      4.471
REMARK INTER + INTRA:          -6.586
REMARK INTER:                  -6.256
REMARK INTRA:                  -0.330
REMARK UNBOUND:                -0.321
REMARK SMILES O=c1c(O)c(-c2ccc(O)c(O)c2)oc2cc(O)cc(O)c12
REMARK SMILES IDX 5 1 3 2 2 3 1 4 22 5 20 6 19 7 17 8 16 9 15 10 14 11 6 12
REMARK SMILES IDX 7 13 8 14 9 15 13 16 11 17 10 18 12 20 4 22 21 24 18 26
REMARK H PARENT 10 19 12 21 4 23 21 25 18 27
REMARK Flexibility Score: inf
ROOT
ATOM      1  C   UNL     1     -42.336  33.847  14.204  1.00  0.00     0.180 A 
ATOM      2  C   UNL     1     -42.446  33.071  13.037  1.00  0.00     0.208 A 
ATOM      3  C   UNL     1     -41.359  32.274  12.644  1.00  0.00     0.238 A 
ATOM      4  O   UNL     1     -41.444  31.624  11.570  1.00  0.00    -0.285 OA
ATOM      5  C   UNL     1     -40.182  32.250  13.431  1.00  0.00     0.111 A 
ATOM      6  C   UNL     1     -39.036  31.449  13.149  1.00  0.00     0.134 A 
ATOM      7  C   UNL     1     -37.878  31.604  13.922  1.00  0.00     0.093 A 
ATOM      8  C   UNL     1     -37.849  32.483  15.007  1.00  0.00     0.123 A 
ATOM      9  C   UNL     1     -38.983  33.225  15.326  1.00  0.00     0.094 A 
ATOM     10  C   UNL     1     -40.141  33.120  14.551  1.00  0.00     0.146 A 
ATOM     11  O   UNL     1     -41.196  33.853  14.884  1.00  0.00    -0.452 OA
ENDROOT
BRANCH   1  12
ATOM     12  C   UNL     1     -43.448  34.693  14.696  1.00  0.00     0.025 A 
ATOM     13  C   UNL     1     -44.399  34.195  15.603  1.00  0.00     0.016 A 
ATOM     14  C   UNL     1     -45.426  35.018  16.073  1.00  0.00     0.051 A 
ATOM     15  C   UNL     1     -45.510  36.353  15.654  1.00  0.00     0.157 A 
ATOM     16  C   UNL     1     -43.524  36.036  14.295  1.00  0.00     0.062 A 
ATOM     17  C   UNL     1     -44.552  36.864  14.763  1.00  0.00     0.158 A 
BRANCH  15  18
ATOM     18  O   UNL     1     -46.537  37.170  16.122  1.00  0.00    -0.504 OA
ATOM     19  H   UNL     1     -47.472  37.123  15.735  1.00  0.00     0.293 HD
ENDBRANCH  15  18
BRANCH  17  20
ATOM     20  O   UNL     1     -44.603  38.189  14.332  1.00  0.00    -0.504 OA
ATOM     21  H   UNL     1     -45.477  38.695  14.249  1.00  0.00     0.293 HD
ENDBRANCH  17  20
ENDBRANCH   1  12
BRANCH   2  22
ATOM     22  O   UNL     1     -43.609  33.126  12.264  1.00  0.00    -0.502 OA
ATOM     23  H   UNL     1     -44.334  33.816  12.421  1.00  0.00     0.293 HD
ENDBRANCH   2  22
BRANCH   6  24
ATOM     24  O   UNL     1     -38.991  30.476  12.146  1.00  0.00    -0.507 OA
ATOM     25  H   UNL     1     -39.663  30.390  11.398  1.00  0.00     0.293 HD
ENDBRANCH   6  24
BRANCH   8  26
ATOM     26  O   UNL     1     -36.698  32.619  15.781  1.00  0.00    -0.508 OA
ATOM     27  H   UNL     1     -36.090  33.424  15.689  1.00  0.00     0.293 HD
ENDBRANCH   8  26
TORSDOF 6
ENDMDL
MODEL 3
REMARK VINA RESULT:    -5.098      1.426      1.964
REMARK INTER + INTRA:          -6.463
REMARK INTER:                  -6.553
REMARK INTRA:                   0.090
REMARK UNBOUND:                -0.321
REMARK SMILES O=c1c(O)c(-c2ccc(O)c(O)c2)oc2cc(O)cc(O)c12
REMARK SMILES IDX 5 1 3 2 2 3 1 4 22 5 20 6 19 7 17 8 16 9 15 10 14 11 6 12
REMARK SMILES IDX 7 13 8 14 9 15 13 16 11 17 10 18 12 20 4 22 21 24 18 26
REMARK H PARENT 10 19 12 21 4 23 21 25 18 27
REMARK Flexibility Score: inf
ROOT
ATOM      1  C   UNL     1     -40.866  32.808  15.141  1.00  0.00     0.180 A 
ATOM      2  C   UNL     1     -39.630  33.475  15.072  1.00  0.00     0.208 A 
ATOM      3  C   UNL     1     -38.449  32.718  15.028  1.00  0.00     0.238 A 
ATOM      4  O   UNL     1     -37.345  33.322  15.020  1.00  0.00    -0.285 OA
ATOM      5  C   UNL     1     -38.518  31.304  15.036  1.00  0.00     0.111 A 
ATOM      6  C   UNL     1     -37.387  30.438  14.954  1.00  0.00     0.134 A 
ATOM      7  C   UNL     1     -37.563  29.056  15.103  1.00  0.00     0.093 A 
ATOM      8  C   UNL     1     -38.836  28.505  15.266  1.00  0.00     0.123 A 
ATOM      9  C   UNL     1     -39.952  29.339  15.287  1.00  0.00     0.094 A 
ATOM     10  C   UNL     1     -39.805  30.724  15.178  1.00  0.00     0.146 A 
ATOM     11  O   UNL     1     -40.894  31.482  15.214  1.00  0.00    -0.452 OA
ENDROOT
BRANCH   1  12
ATOM     12  C   UNL     1     -42.155  33.536  15.166  1.00  0.00     0.025 A 
ATOM     13  C   UNL     1     -43.155  33.223  16.103  1.00  0.00     0.016 A 
ATOM     14  C   UNL     1     -44.354  33.940  16.123  1.00  0.00     0.051 A 
ATOM     15  C   UNL     1     -44.567  34.987  15.217  1.00  0.00     0.157 A 
ATOM     16  C   UNL     1     -42.365  34.600  14.273  1.00  0.00     0.062 A 
ATOM     17  C   UNL     1     -43.566  35.320  14.290  1.00  0.00     0.158 A 
BRANCH  15  18
ATOM     18  O   UNL     1     -45.766  35.698  15.238  1.00  0.00    -0.504 OA
ATOM     19  H   UNL     1     -46.502  35.518  14.567  1.00  0.00     0.293 HD
ENDBRANCH  15  18
BRANCH  17  20
ATOM     20  O   UNL     1     -43.743  36.361  13.380  1.00  0.00    -0.504 OA
ATOM     21  H   UNL     1     -44.617  36.870  13.308  1.00  0.00     0.293 HD
ENDBRANCH  17  20
ENDBRANCH   1  12
BRANCH   2  22
ATOM     22  O   UNL     1     -39.585  34.872  15.086  1.00  0.00    -0.502 OA
ATOM     23  H   UNL     1     -39.675  35.410  15.940  1.00  0.00     0.293 HD
ENDBRANCH   2  22
BRANCH   6  24
ATOM     24  O   UNL     1     -36.084  30.877  14.702  1.00  0.00    -0.507 OA
ATOM     25  H   UNL     1     -35.840  31.806  14.393  1.00  0.00     0.293 HD
ENDBRANCH   6  24
BRANCH   8  26
ATOM     26  O   UNL     1     -39.004  27.128  15.397  1.00  0.00    -0.508 OA
ATOM     27  H   UNL     1     -38.258  26.534  15.740  1.00  0.00     0.293 HD
ENDBRANCH   8  26
TORSDOF 6
ENDMDL
MODEL 4
REMARK VINA RESULT:    -5.092      1.880      2.860
REMARK INTER + INTRA:          -6.456
REMARK INTER:                  -6.214
REMARK INTRA:                  -0.241
REMARK UNBOUND:                -0.321
REMARK SMILES O=c1c(O)c(-c2ccc(O)c(O)c2)oc2cc(O)cc(O)c12
REMARK SMILES IDX 5 1 3 2 2 3 1 4 22 5 20 6 19 7 17 8 16 9 15 10 14 11 6 12
REMARK SMILES IDX 7 13 8 14 9 15 13 16 11 17 10 18 12 20 4 22 21 24 18 26
REMARK H PARENT 10 19 12 21 4 23 21 25 18 27
REMARK Flexibility Score: inf
ROOT
ATOM      1  C   UNL     1     -39.458  31.417  13.852  1.00  0.00     0.180 A 
ATOM      2  C   UNL     1     -39.228  30.649  15.007  1.00  0.00     0.208 A 
ATOM      3  C   UNL     1     -38.184  29.710  15.004  1.00  0.00     0.238 A 
ATOM      4  O   UNL     1     -38.018  28.988  16.021  1.00  0.00    -0.285 OA
ATOM      5  C   UNL     1     -37.374  29.562  13.852  1.00  0.00     0.111 A 
ATOM      6  C   UNL     1     -36.265  28.670  13.752  1.00  0.00     0.134 A 
ATOM      7  C   UNL     1     -35.616  28.511  12.521  1.00  0.00     0.093 A 
ATOM      8  C   UNL     1     -35.994  29.260  11.405  1.00  0.00     0.123 A 
ATOM      9  C   UNL     1     -37.037  30.177  11.509  1.00  0.00     0.094 A 
ATOM     10  C   UNL     1     -37.728  30.331  12.714  1.00  0.00     0.146 A 
ATOM     11  O   UNL     1     -38.723  31.208  12.766  1.00  0.00    -0.452 OA
ENDROOT
BRANCH   1  12
ATOM     12  C   UNL     1     -40.523  32.445  13.788  1.00  0.00     0.025 A 
ATOM     13  C   UNL     1     -40.427  33.644  14.516  1.00  0.00     0.016 A 
ATOM     14  C   UNL     1     -41.432  34.610  14.421  1.00  0.00     0.051 A 
ATOM     15  C   UNL     1     -42.540  34.398  13.590  1.00  0.00     0.157 A 
ATOM     16  C   UNL     1     -41.625  32.247  12.941  1.00  0.00     0.062 A 
ATOM     17  C   UNL     1     -42.634  33.212  12.844  1.00  0.00     0.158 A 
BRANCH  15  18
ATOM     18  O   UNL     1     -43.542  35.363  13.500  1.00  0.00    -0.504 OA
ATOM     19  H   UNL     1     -43.329  36.335  13.311  1.00  0.00     0.293 HD
ENDBRANCH  15  18
BRANCH  17  20
ATOM     20  O   UNL     1     -43.719  32.974  12.002  1.00  0.00    -0.504 OA
ATOM     21  H   UNL     1     -43.986  33.625  11.271  1.00  0.00     0.293 HD
ENDBRANCH  17  20
ENDBRANCH   1  12
BRANCH   2  22
ATOM     22  O   UNL     1     -40.054  30.797  16.125  1.00  0.00    -0.502 OA
ATOM     23  H   UNL     1     -41.045  30.588  16.101  1.00  0.00     0.293 HD
ENDBRANCH   2  22
BRANCH   6  24
ATOM     24  O   UNL     1     -35.748  27.943  14.829  1.00  0.00    -0.507 OA
ATOM     25  H   UNL     1     -35.347  27.020  14.759  1.00  0.00     0.293 HD
ENDBRANCH   6  24
BRANCH   8  26
ATOM     26  O   UNL     1     -35.333  29.107  10.188  1.00  0.00    -0.508 OA
ATOM     27  H   UNL     1     -35.181  29.892   9.565  1.00  0.00     0.293 HD
ENDBRANCH   8  26
TORSDOF 6
ENDMDL
MODEL 5
REMARK VINA RESULT:    -5.079      1.612      6.792
REMARK INTER + INTRA:          -6.439
REMARK INTER:                  -6.105
REMARK INTRA:                  -0.335
REMARK UNBOUND:                -0.321
REMARK SMILES O=c1c(O)c(-c2ccc(O)c(O)c2)oc2cc(O)cc(O)c12
REMARK SMILES IDX 5 1 3 2 2 3 1 4 22 5 20 6 19 7 17 8 16 9 15 10 14 11 6 12
REMARK SMILES IDX 7 13 8 14 9 15 13 16 11 17 10 18 12 20 4 22 21 24 18 26
REMARK H PARENT 10 19 12 21 4 23 21 25 18 27
REMARK Flexibility Score: inf
ROOT
ATOM      1  C   UNL     1     -38.421  31.291  14.571  1.00  0.00     0.180 A 
ATOM      2  C   UNL     1     -37.998  32.501  15.151  1.00  0.00     0.208 A 
ATOM      3  C   UNL     1     -38.829  33.628  15.057  1.00  0.00     0.238 A 
ATOM      4  O   UNL     1     -38.421  34.720  15.531  1.00  0.00    -0.285 OA
ATOM      5  C   UNL     1     -40.080  33.529  14.401  1.00  0.00     0.111 A 
ATOM      6  C   UNL     1     -41.019  34.597  14.282  1.00  0.00     0.134 A 
ATOM      7  C   UNL     1     -42.166  34.423  13.498  1.00  0.00     0.093 A 
ATOM      8  C   UNL     1     -42.440  33.199  12.883  1.00  0.00     0.123 A 
ATOM      9  C   UNL     1     -41.559  32.133  13.043  1.00  0.00     0.094 A 
ATOM     10  C   UNL     1     -40.387  32.287  13.788  1.00  0.00     0.146 A 
ATOM     11  O   UNL     1     -39.569  31.248  13.906  1.00  0.00    -0.452 OA
ENDROOT
BRANCH   1  12
ATOM     12  C   UNL     1     -37.611  30.054  14.651  1.00  0.00     0.025 A 
ATOM     13  C   UNL     1     -37.735  29.167  15.734  1.00  0.00     0.016 A 
ATOM     14  C   UNL     1     -36.978  27.993  15.776  1.00  0.00     0.051 A 
ATOM     15  C   UNL     1     -36.099  27.681  14.731  1.00  0.00     0.157 A 
ATOM     16  C   UNL     1     -36.744  29.727  13.596  1.00  0.00     0.062 A 
ATOM     17  C   UNL     1     -35.984  28.552  13.635  1.00  0.00     0.158 A 
BRANCH  15  18
ATOM     18  O   UNL     1     -35.343  26.510  14.777  1.00  0.00    -0.504 OA
ATOM     19  H   UNL     1     -34.527  26.428  15.371  1.00  0.00     0.293 HD
ENDBRANCH  15  18
BRANCH  17  20
ATOM     20  O   UNL     1     -35.123  28.267  12.575  1.00  0.00    -0.504 OA
ATOM     21  H   UNL     1     -35.444  28.239  11.614  1.00  0.00     0.293 HD
ENDBRANCH  17  20
ENDBRANCH   1  12
BRANCH   2  22
ATOM     22  O   UNL     1     -36.750  32.581  15.776  1.00  0.00    -0.502 OA
ATOM     23  H   UNL     1     -36.051  33.263  15.508  1.00  0.00     0.293 HD
ENDBRANCH   2  22
BRANCH   6  24
ATOM     24  O   UNL     1     -40.887  35.828  14.930  1.00  0.00    -0.507 OA
ATOM     25  H   UNL     1     -40.147  36.062  15.575  1.00  0.00     0.293 HD
ENDBRANCH   6  24
BRANCH   8  26
ATOM     26  O   UNL     1     -43.592  33.030  12.118  1.00  0.00    -0.508 OA
ATOM     27  H   UNL     1     -44.252  33.787  11.979  1.00  0.00     0.293 HD
ENDBRANCH   8  26
TORSDOF 6
ENDMDL
MODEL 6
REMARK VINA RESULT:    -4.567     14.219     16.764
REMARK INTER + INTRA:          -5.822
REMARK INTER:                  -5.499
REMARK INTRA:                  -0.324
REMARK UNBOUND:                -0.321
REMARK SMILES O=c1c(O)c(-c2ccc(O)c(O)c2)oc2cc(O)cc(O)c12
REMARK SMILES IDX 5 1 3 2 2 3 1 4 22 5 20 6 19 7 17 8 16 9 15 10 14 11 6 12
REMARK SMILES IDX 7 13 8 14 9 15 13 16 11 17 10 18 12 20 4 22 21 24 18 26
REMARK H PARENT 10 19 12 21 4 23 21 25 18 27
REMARK Flexibility Score: inf
ROOT
ATOM      1  C   UNL     1     -48.603  32.447   2.614  1.00  0.00     0.180 A 
ATOM      2  C   UNL     1     -47.722  33.206   3.405  1.00  0.00     0.208 A 
ATOM      3  C   UNL     1     -48.087  34.512   3.768  1.00  0.00     0.238 A 
ATOM      4  O   UNL     1     -47.271  35.205   4.430  1.00  0.00    -0.285 OA
ATOM      5  C   UNL     1     -49.334  35.037   3.351  1.00  0.00     0.111 A 
ATOM      6  C   UNL     1     -49.823  36.333   3.695  1.00  0.00     0.134 A 
ATOM      7  C   UNL     1     -51.012  36.797   3.118  1.00  0.00     0.093 A 
ATOM      8  C   UNL     1     -51.762  35.988   2.262  1.00  0.00     0.123 A 
ATOM      9  C   UNL     1     -51.323  34.700   1.968  1.00  0.00     0.094 A 
ATOM     10  C   UNL     1     -50.122  34.221   2.499  1.00  0.00     0.146 A 
ATOM     11  O   UNL     1     -49.736  32.991   2.184  1.00  0.00    -0.452 OA
ENDROOT
BRANCH   1  12
ATOM     12  C   UNL     1     -48.299  31.054   2.211  1.00  0.00     0.025 A 
ATOM     13  C   UNL     1     -47.610  30.771   1.020  1.00  0.00     0.016 A 
ATOM     14  C   UNL     1     -47.314  29.451   0.672  1.00  0.00     0.051 A 
ATOM     15  C   UNL     1     -47.690  28.396   1.515  1.00  0.00     0.157 A 
ATOM     16  C   UNL     1     -48.656  29.996   3.063  1.00  0.00     0.062 A 
ATOM     17  C   UNL     1     -48.361  28.671   2.717  1.00  0.00     0.158 A 
BRANCH  15  18
ATOM     18  O   UNL     1     -47.395  27.079   1.164  1.00  0.00    -0.504 OA
ATOM     19  H   UNL     1     -47.293  26.353   1.862  1.00  0.00     0.293 HD
ENDBRANCH  15  18
BRANCH  17  20
ATOM     20  O   UNL     1     -48.743  27.646   3.581  1.00  0.00    -0.504 OA
ATOM     21  H   UNL     1     -49.467  27.772   4.280  1.00  0.00     0.293 HD
ENDBRANCH  17  20
ENDBRANCH   1  12
BRANCH   2  22
ATOM     22  O   UNL     1     -46.487  32.675   3.787  1.00  0.00    -0.502 OA
ATOM     23  H   UNL     1     -45.944  32.071   3.182  1.00  0.00     0.293 HD
ENDBRANCH   2  22
BRANCH   6  24
ATOM     24  O   UNL     1     -49.199  37.185   4.610  1.00  0.00    -0.507 OA
ATOM     25  H   UNL     1     -48.214  37.172   4.828  1.00  0.00     0.293 HD
ENDBRANCH   6  24
BRANCH   8  26
ATOM     26  O   UNL     1     -52.952  36.452   1.706  1.00  0.00    -0.508 OA
ATOM     27  H   UNL     1     -53.805  36.509   2.250  1.00  0.00     0.293 HD
ENDBRANCH   8  26
TORSDOF 6
ENDMDL
MODEL 7
REMARK VINA RESULT:    -4.532     14.945     17.151
REMARK INTER + INTRA:          -5.781
REMARK INTER:                  -5.468
REMARK INTRA:                  -0.313
REMARK UNBOUND:                -0.321
REMARK SMILES O=c1c(O)c(-c2ccc(O)c(O)c2)oc2cc(O)cc(O)c12
REMARK SMILES IDX 5 1 3 2 2 3 1 4 22 5 20 6 19 7 17 8 16 9 15 10 14 11 6 12
REMARK SMILES IDX 7 13 8 14 9 15 13 16 11 17 10 18 12 20 4 22 21 24 18 26
REMARK H PARENT 10 19 12 21 4 23 21 25 18 27
REMARK Flexibility Score: inf
ROOT
ATOM      1  C   UNL     1     -48.022  30.558   1.113  1.00  0.00     0.180 A 
ATOM      2  C   UNL     1     -47.159  31.579   1.549  1.00  0.00     0.208 A 
ATOM      3  C   UNL     1     -47.650  32.556   2.430  1.00  0.00     0.238 A 
ATOM      4  O   UNL     1     -46.888  33.497   2.773  1.00  0.00    -0.285 OA
ATOM      5  C   UNL     1     -48.991  32.491   2.878  1.00  0.00     0.111 A 
ATOM      6  C   UNL     1     -49.582  33.404   3.802  1.00  0.00     0.134 A 
ATOM      7  C   UNL     1     -50.954  33.321   4.072  1.00  0.00     0.093 A 
ATOM      8  C   UNL     1     -51.742  32.318   3.503  1.00  0.00     0.123 A 
ATOM      9  C   UNL     1     -51.161  31.386   2.647  1.00  0.00     0.094 A 
ATOM     10  C   UNL     1     -49.803  31.465   2.329  1.00  0.00     0.146 A 
ATOM     11  O   UNL     1     -49.293  30.562   1.500  1.00  0.00    -0.452 OA
ENDROOT
BRANCH   1  12
ATOM     12  C   UNL     1     -47.571  29.479   0.205  1.00  0.00     0.025 A 
ATOM     13  C   UNL     1     -47.747  29.573  -1.186  1.00  0.00     0.016 A 
ATOM     14  C   UNL     1     -47.292  28.553  -2.026  1.00  0.00     0.051 A 
ATOM     15  C   UNL     1     -46.644  27.433  -1.491  1.00  0.00     0.157 A 
ATOM     16  C   UNL     1     -46.903  28.364   0.735  1.00  0.00     0.062 A 
ATOM     17  C   UNL     1     -46.446  27.340  -0.104  1.00  0.00     0.158 A 
BRANCH  15  18
ATOM     18  O   UNL     1     -46.194  26.416  -2.332  1.00  0.00    -0.504 OA
ATOM     19  H   UNL     1     -45.224  26.124  -2.340  1.00  0.00     0.293 HD
ENDBRANCH  15  18
BRANCH  17  20
ATOM     20  O   UNL     1     -45.798  26.242   0.460  1.00  0.00    -0.504 OA
ATOM     21  H   UNL     1     -46.290  25.557   1.022  1.00  0.00     0.293 HD
ENDBRANCH  17  20
ENDBRANCH   1  12
BRANCH   2  22
ATOM     22  O   UNL     1     -45.845  31.636   1.078  1.00  0.00    -0.502 OA
ATOM     23  H   UNL     1     -45.162  30.917   1.283  1.00  0.00     0.293 HD
ENDBRANCH   2  22
BRANCH   6  24
ATOM     24  O   UNL     1     -48.867  34.385   4.495  1.00  0.00    -0.507 OA
ATOM     25  H   UNL     1     -47.887  34.325   4.728  1.00  0.00     0.293 HD
ENDBRANCH   6  24
BRANCH   8  26
ATOM     26  O   UNL     1     -53.102  32.234   3.791  1.00  0.00    -0.508 OA
ATOM     27  H   UNL     1     -53.605  31.356   3.722  1.00  0.00     0.293 HD
ENDBRANCH   8  26
TORSDOF 6
ENDMDL
MODEL 8
REMARK VINA RESULT:    -4.509     14.140     15.731
REMARK INTER + INTRA:          -5.753
REMARK INTER:                  -5.420
REMARK INTRA:                  -0.333
REMARK UNBOUND:                -0.321
REMARK SMILES O=c1c(O)c(-c2ccc(O)c(O)c2)oc2cc(O)cc(O)c12
REMARK SMILES IDX 5 1 3 2 2 3 1 4 22 5 20 6 19 7 17 8 16 9 15 10 14 11 6 12
REMARK SMILES IDX 7 13 8 14 9 15 13 16 11 17 10 18 12 20 4 22 21 24 18 26
REMARK H PARENT 10 19 12 21 4 23 21 25 18 27
REMARK Flexibility Score: inf
ROOT
ATOM      1  C   UNL     1     -47.161  31.167   1.253  1.00  0.00     0.180 A 
ATOM      2  C   UNL     1     -46.012  30.986   0.463  1.00  0.00     0.208 A 
ATOM      3  C   UNL     1     -45.700  29.697   0.000  1.00  0.00     0.238 A 
ATOM      4  O   UNL     1     -44.642  29.533  -0.660  1.00  0.00    -0.285 OA
ATOM      5  C   UNL     1     -46.549  28.610   0.318  1.00  0.00     0.111 A 
ATOM      6  C   UNL     1     -46.352  27.270  -0.132  1.00  0.00     0.134 A 
ATOM      7  C   UNL     1     -47.182  26.251   0.352  1.00  0.00     0.093 A 
ATOM      8  C   UNL     1     -48.242  26.533   1.216  1.00  0.00     0.123 A 
ATOM      9  C   UNL     1     -48.479  27.847   1.613  1.00  0.00     0.094 A 
ATOM     10  C   UNL     1     -47.646  28.880   1.177  1.00  0.00     0.146 A 
ATOM     11  O   UNL     1     -47.901  30.116   1.588  1.00  0.00    -0.452 OA
ENDROOT
BRANCH   1  12
ATOM     12  C   UNL     1     -47.569  32.499   1.757  1.00  0.00     0.025 A 
ATOM     13  C   UNL     1     -48.408  33.340   1.006  1.00  0.00     0.016 A 
ATOM     14  C   UNL     1     -48.800  34.581   1.512  1.00  0.00     0.051 A 
ATOM     15  C   UNL     1     -48.370  34.996   2.780  1.00  0.00     0.157 A 
ATOM     16  C   UNL     1     -47.158  32.909   3.035  1.00  0.00     0.062 A 
ATOM     17  C   UNL     1     -47.548  34.154   3.545  1.00  0.00     0.158 A 
BRANCH  15  18
ATOM     18  O   UNL     1     -48.761  36.237   3.280  1.00  0.00    -0.504 OA
ATOM     19  H   UNL     1     -49.395  36.317   4.066  1.00  0.00     0.293 HD
ENDBRANCH  15  18
BRANCH  17  20
ATOM     20  O   UNL     1     -47.109  34.532   4.813  1.00  0.00    -0.504 OA
ATOM     21  H   UNL     1     -46.153  34.390   5.117  1.00  0.00     0.293 HD
ENDBRANCH  17  20
ENDBRANCH   1  12
BRANCH   2  22
ATOM     22  O   UNL     1     -45.176  32.070   0.180  1.00  0.00    -0.502 OA
ATOM     23  H   UNL     1     -45.361  33.004   0.527  1.00  0.00     0.293 HD
ENDBRANCH   2  22
BRANCH   6  24
ATOM     24  O   UNL     1     -45.381  26.895  -1.064  1.00  0.00    -0.507 OA
ATOM     25  H   UNL     1     -45.059  25.950  -1.211  1.00  0.00     0.293 HD
ENDBRANCH   6  24
BRANCH   8  26
ATOM     26  O   UNL     1     -49.072  25.515   1.679  1.00  0.00    -0.508 OA
ATOM     27  H   UNL     1     -49.995  25.711   2.049  1.00  0.00     0.293 HD
ENDBRANCH   8  26
TORSDOF 6
ENDMDL
