MODEL 1
REMARK VINA RESULT:    -4.384      0.000      0.000
REMARK INTER + INTRA:         -15.653
REMARK INTER:                 -11.560
REMARK INTRA:                  -4.093
REMARK UNBOUND:                -4.093
REMARK SMILES CCCCCCCCCCCCCCCCCCCCCCCCCCCCCC(=O)[O-]
REMARK SMILES IDX 16 1 17 2 18 3 19 4 20 5 21 6 22 7 23 8 24 9 25 10 26 11
REMARK SMILES IDX 27 12 28 13 29 14 30 15 31 16 32 17 15 18 14 19 13 20 12 21
REMARK SMILES IDX 11 22 10 23 9 24 8 25 7 26 6 27 5 28 4 29 3 30 2 31 1 32
REMARK H PARENT
REMARK Flexibility Score: inf
ROOT
ATOM      1  C   UNL     1     -93.784 -61.579 -67.354  1.00  0.00     0.000 C 
ENDROOT
BRANCH   1   2
ATOM      2  C   UNL     1     -92.877 -62.646 -66.705  1.00  0.00     0.000 C 
BRANCH   2   3
ATOM      3  C   UNL     1     -92.875 -64.016 -67.407  1.00  0.00     0.000 C 
BRANCH   3   4
ATOM      4  C   UNL     1     -93.725 -64.027 -68.689  1.00  0.00     0.000 C 
BRANCH   4   5
ATOM      5  C   UNL     1     -92.892 -63.757 -69.953  1.00  0.00     0.000 C 
BRANCH   5   6
ATOM      6  C   UNL     1     -93.487 -64.433 -71.202  1.00  0.00     0.000 C 
BRANCH   6   7
ATOM      7  C   UNL     1     -94.863 -63.863 -71.581  1.00  0.00     0.000 C 
BRANCH   7   8
ATOM      8  C   UNL     1     -94.880 -62.324 -71.577  1.00  0.00     0.000 C 
BRANCH   8   9
ATOM      9  C   UNL     1     -96.251 -61.739 -71.963  1.00  0.00     0.000 C 
BRANCH   9  10
ATOM     10  C   UNL     1     -96.877 -60.787 -70.927  1.00  0.00     0.000 C 
BRANCH  10  11
ATOM     11  C   UNL     1     -96.635 -61.235 -69.476  1.00  0.00     0.000 C 
BRANCH  11  12
ATOM     12  C   UNL     1     -97.891 -61.836 -68.821  1.00  0.00     0.000 C 
BRANCH  12  13
ATOM     13  C   UNL     1     -98.635 -62.847 -69.721  1.00  0.00     0.006 C 
BRANCH  13  14
ATOM     14  C   UNL     1     -99.741 -63.589 -68.962  1.00  0.00     0.053 C 
BRANCH  14  15
ATOM     15  C   UNL     1    -101.021 -63.552 -69.734  1.00  0.00     0.041 C 
ATOM     16  O   UNL     1    -101.824 -62.597 -69.582  1.00  0.00    -0.550 OA
ATOM     17  O   UNL     1    -101.349 -64.600 -70.586  1.00  0.00    -0.550 OA
ENDBRANCH  14  15
ENDBRANCH  13  14
ENDBRANCH  12  13
ENDBRANCH  11  12
ENDBRANCH  10  11
ENDBRANCH   9  10
ENDBRANCH   8   9
ENDBRANCH   7   8
ENDBRANCH   6   7
ENDBRANCH   5   6
ENDBRANCH   4   5
ENDBRANCH   3   4
ENDBRANCH   2   3
ENDBRANCH   1   2
BRANCH   1  18
ATOM     18  C   UNL     1     -94.552 -60.678 -66.369  1.00  0.00     0.000 C 
BRANCH  18  19
ATOM     19  C   UNL     1     -95.888 -61.291 -65.915  1.00  0.00     0.000 C 
BRANCH  19  20
ATOM     20  C   UNL     1     -95.749 -62.152 -64.648  1.00  0.00     0.000 C 
BRANCH  20  21
ATOM     21  C   UNL     1     -97.064 -62.416 -63.887  1.00  0.00     0.000 C 
BRANCH  21  22
ATOM     22  C   UNL     1     -98.182 -61.387 -64.139  1.00  0.00     0.000 C 
BRANCH  22  23
ATOM     23  C   UNL     1     -99.503 -61.975 -64.676  1.00  0.00     0.000 C 
BRANCH  23  24
ATOM     24  C   UNL     1    -100.781 -61.314 -64.126  1.00  0.00    -0.000 C 
BRANCH  24  25
ATOM     25  C   UNL     1    -101.561 -60.464 -65.147  1.00  0.00    -0.000 C 
BRANCH  25  26
ATOM     26  C   UNL     1    -101.493 -61.012 -66.589  1.00  0.00    -0.000 C 
BRANCH  26  27
ATOM     27  C   UNL     1    -100.616 -60.144 -67.509  1.00  0.00    -0.000 C 
BRANCH  27  28
ATOM     28  C   UNL     1     -99.959 -58.969 -66.752  1.00  0.00    -0.000 C 
BRANCH  28  29
ATOM     29  C   UNL     1     -98.714 -58.399 -67.453  1.00  0.00    -0.000 C 
BRANCH  29  30
ATOM     30  C   UNL     1     -97.404 -58.783 -66.749  1.00  0.00    -0.000 C 
BRANCH  30  31
ATOM     31  C   UNL     1     -96.864 -57.657 -65.852  1.00  0.00    -0.003 C 
ATOM     32  C   UNL     1     -96.725 -58.083 -64.391  1.00  0.00     0.004 C 
ENDBRANCH  30  31
ENDBRANCH  29  30
ENDBRANCH  28  29
ENDBRANCH  27  28
ENDBRANCH  26  27
ENDBRANCH  25  26
ENDBRANCH  24  25
ENDBRANCH  23  24
ENDBRANCH  22  23
ENDBRANCH  21  22
ENDBRANCH  20  21
ENDBRANCH  19  20
ENDBRANCH  18  19
ENDBRANCH   1  18
TORSDOF 28
ENDMDL
MODEL 2
REMARK VINA RESULT:    -4.253      1.817      4.223
REMARK INTER + INTRA:         -15.307
REMARK INTER:                 -12.288
REMARK INTRA:                  -3.019
REMARK UNBOUND:                -4.093
REMARK SMILES CCCCCCCCCCCCCCCCCCCCCCCCCCCCCC(=O)[O-]
REMARK SMILES IDX 16 1 17 2 18 3 19 4 20 5 21 6 22 7 23 8 24 9 25 10 26 11
REMARK SMILES IDX 27 12 28 13 29 14 30 15 31 16 32 17 15 18 14 19 13 20 12 21
REMARK SMILES IDX 11 22 10 23 9 24 8 25 7 26 6 27 5 28 4 29 3 30 2 31 1 32
REMARK H PARENT
REMARK Flexibility Score: inf
ROOT
ATOM      1  C   UNL     1     -93.620 -62.844 -68.876  1.00  0.00     0.000 C 
ENDROOT
BRANCH   1   2
ATOM      2  C   UNL     1     -93.042 -63.188 -70.266  1.00  0.00     0.000 C 
BRANCH   2   3
ATOM      3  C   UNL     1     -94.054 -63.140 -71.424  1.00  0.00     0.000 C 
BRANCH   3   4
ATOM      4  C   UNL     1     -94.600 -61.724 -71.677  1.00  0.00     0.000 C 
BRANCH   4   5
ATOM      5  C   UNL     1     -96.079 -61.583 -71.285  1.00  0.00     0.000 C 
BRANCH   5   6
ATOM      6  C   UNL     1     -96.278 -60.652 -70.074  1.00  0.00     0.000 C 
BRANCH   6   7
ATOM      7  C   UNL     1     -97.240 -61.242 -69.030  1.00  0.00     0.000 C 
BRANCH   7   8
ATOM      8  C   UNL     1     -98.003 -62.467 -69.563  1.00  0.00     0.000 C 
BRANCH   8   9
ATOM      9  C   UNL     1     -99.469 -62.512 -69.094  1.00  0.00     0.000 C 
BRANCH   9  10
ATOM     10  C   UNL     1    -100.015 -63.915 -68.768  1.00  0.00     0.000 C 
BRANCH  10  11
ATOM     11  C   UNL     1    -100.892 -64.493 -69.891  1.00  0.00     0.000 C 
BRANCH  11  12
ATOM     12  C   UNL     1    -102.350 -64.008 -69.816  1.00  0.00     0.000 C 
BRANCH  12  13
ATOM     13  C   UNL     1    -103.387 -65.125 -70.066  1.00  0.00     0.006 C 
BRANCH  13  14
ATOM     14  C   UNL     1    -104.070 -64.984 -71.431  1.00  0.00     0.053 C 
BRANCH  14  15
ATOM     15  C   UNL     1    -105.204 -64.013 -71.352  1.00  0.00     0.041 C 
ATOM     16  O   UNL     1    -105.004 -62.788 -71.553  1.00  0.00    -0.550 OA
ATOM     17  O   UNL     1    -106.476 -64.457 -71.008  1.00  0.00    -0.550 OA
ENDBRANCH  14  15
ENDBRANCH  13  14
ENDBRANCH  12  13
ENDBRANCH  11  12
ENDBRANCH  10  11
ENDBRANCH   9  10
ENDBRANCH   8   9
ENDBRANCH   7   8
ENDBRANCH   6   7
ENDBRANCH   5   6
ENDBRANCH   4   5
ENDBRANCH   3   4
ENDBRANCH   2   3
ENDBRANCH   1   2
BRANCH   1  18
ATOM     18  C   UNL     1     -93.239 -63.816 -67.744  1.00  0.00     0.000 C 
BRANCH  18  19
ATOM     19  C   UNL     1     -93.204 -63.139 -66.363  1.00  0.00     0.000 C 
BRANCH  19  20
ATOM     20  C   UNL     1     -93.161 -61.604 -66.453  1.00  0.00     0.000 C 
BRANCH  20  21
ATOM     21  C   UNL     1     -94.538 -60.910 -66.480  1.00  0.00     0.000 C 
BRANCH  21  22
ATOM     22  C   UNL     1     -95.563 -61.451 -65.465  1.00  0.00     0.000 C 
BRANCH  22  23
ATOM     23  C   UNL     1     -96.941 -60.758 -65.494  1.00  0.00     0.000 C 
BRANCH  23  24
ATOM     24  C   UNL     1     -96.938 -59.285 -65.044  1.00  0.00    -0.000 C 
BRANCH  24  25
ATOM     25  C   UNL     1     -96.918 -58.258 -66.192  1.00  0.00    -0.000 C 
BRANCH  25  26
ATOM     26  C   UNL     1     -98.318 -57.925 -66.749  1.00  0.00    -0.000 C 
BRANCH  26  27
ATOM     27  C   UNL     1     -99.075 -59.178 -67.229  1.00  0.00    -0.000 C 
BRANCH  27  28
ATOM     28  C   UNL     1    -100.575 -59.127 -66.867  1.00  0.00    -0.000 C 
BRANCH  28  29
ATOM     29  C   UNL     1    -101.225 -60.514 -66.721  1.00  0.00    -0.000 C 
BRANCH  29  30
ATOM     30  C   UNL     1    -100.943 -61.166 -65.359  1.00  0.00    -0.000 C 
BRANCH  30  31
ATOM     31  C   UNL     1     -99.896 -62.287 -65.446  1.00  0.00    -0.003 C 
ATOM     32  C   UNL     1     -99.741 -63.053 -64.132  1.00  0.00     0.004 C 
ENDBRANCH  30  31
ENDBRANCH  29  30
ENDBRANCH  28  29
ENDBRANCH  27  28
ENDBRANCH  26  27
ENDBRANCH  25  26
ENDBRANCH  24  25
ENDBRANCH  23  24
ENDBRANCH  22  23
ENDBRANCH  21  22
ENDBRANCH  20  21
ENDBRANCH  19  20
ENDBRANCH  18  19
ENDBRANCH   1  18
TORSDOF 28
ENDMDL
MODEL 3
REMARK VINA RESULT:    -3.630     15.482     19.464
REMARK INTER + INTRA:         -13.665
REMARK INTER:                  -7.909
REMARK INTRA:                  -5.756
REMARK UNBOUND:                -4.093
REMARK SMILES CCCCCCCCCCCCCCCCCCCCCCCCCCCCCC(=O)[O-]
REMARK SMILES IDX 16 1 17 2 18 3 19 4 20 5 21 6 22 7 23 8 24 9 25 10 26 11
REMARK SMILES IDX 27 12 28 13 29 14 30 15 31 16 32 17 15 18 14 19 13 20 12 21
REMARK SMILES IDX 11 22 10 23 9 24 8 25 7 26 6 27 5 28 4 29 3 30 2 31 1 32
REMARK H PARENT
REMARK Flexibility Score: inf
ROOT
ATOM      1  C   UNL     1    -110.061 -47.543 -55.876  1.00  0.00     0.000 C 
ENDROOT
BRANCH   1   2
ATOM      2  C   UNL     1    -110.495 -47.623 -57.356  1.00  0.00     0.000 C 
BRANCH   2   3
ATOM      3  C   UNL     1    -110.425 -49.027 -57.982  1.00  0.00     0.000 C 
BRANCH   3   4
ATOM      4  C   UNL     1    -109.216 -49.200 -58.918  1.00  0.00     0.000 C 
BRANCH   4   5
ATOM      5  C   UNL     1    -108.555 -47.861 -59.283  1.00  0.00     0.000 C 
BRANCH   5   6
ATOM      6  C   UNL     1    -108.536 -47.613 -60.803  1.00  0.00     0.000 C 
BRANCH   6   7
ATOM      7  C   UNL     1    -109.595 -46.590 -61.246  1.00  0.00     0.000 C 
BRANCH   7   8
ATOM      8  C   UNL     1    -110.997 -47.214 -61.367  1.00  0.00     0.000 C 
BRANCH   8   9
ATOM      9  C   UNL     1    -111.320 -47.689 -62.795  1.00  0.00     0.000 C 
BRANCH   9  10
ATOM     10  C   UNL     1    -111.612 -49.195 -62.940  1.00  0.00     0.000 C 
BRANCH  10  11
ATOM     11  C   UNL     1    -111.282 -49.995 -61.669  1.00  0.00     0.000 C 
BRANCH  11  12
ATOM     12  C   UNL     1    -110.405 -51.226 -61.950  1.00  0.00     0.000 C 
BRANCH  12  13
ATOM     13  C   UNL     1    -108.997 -50.874 -62.480  1.00  0.00     0.006 C 
BRANCH  13  14
ATOM     14  C   UNL     1    -108.771 -51.395 -63.904  1.00  0.00     0.053 C 
BRANCH  14  15
ATOM     15  C   UNL     1    -107.351 -51.179 -64.321  1.00  0.00     0.041 C 
ATOM     16  O   UNL     1    -106.422 -51.278 -63.479  1.00  0.00    -0.550 OA
ATOM     17  O   UNL     1    -107.059 -50.821 -65.632  1.00  0.00    -0.550 OA
ENDBRANCH  14  15
ENDBRANCH  13  14
ENDBRANCH  12  13
ENDBRANCH  11  12
ENDBRANCH  10  11
ENDBRANCH   9  10
ENDBRANCH   8   9
ENDBRANCH   7   8
ENDBRANCH   6   7
ENDBRANCH   5   6
ENDBRANCH   4   5
ENDBRANCH   3   4
ENDBRANCH   2   3
ENDBRANCH   1   2
BRANCH   1  18
ATOM     18  C   UNL     1    -109.824 -48.898 -55.183  1.00  0.00     0.000 C 
BRANCH  18  19
ATOM     19  C   UNL     1    -108.394 -49.048 -54.639  1.00  0.00     0.000 C 
BRANCH  19  20
ATOM     20  C   UNL     1    -107.407 -48.053 -55.274  1.00  0.00     0.000 C 
BRANCH  20  21
ATOM     21  C   UNL     1    -106.431 -48.662 -56.301  1.00  0.00     0.000 C 
BRANCH  21  22
ATOM     22  C   UNL     1    -106.573 -50.181 -56.516  1.00  0.00     0.000 C 
BRANCH  22  23
ATOM     23  C   UNL     1    -105.332 -51.014 -56.134  1.00  0.00     0.000 C 
BRANCH  23  24
ATOM     24  C   UNL     1    -105.580 -52.100 -55.070  1.00  0.00    -0.000 C 
BRANCH  24  25
ATOM     25  C   UNL     1    -106.412 -51.640 -53.857  1.00  0.00    -0.000 C 
BRANCH  25  26
ATOM     26  C   UNL     1    -107.633 -52.539 -53.569  1.00  0.00    -0.000 C 
BRANCH  26  27
ATOM     27  C   UNL     1    -108.177 -53.221 -54.838  1.00  0.00    -0.000 C 
BRANCH  27  28
ATOM     28  C   UNL     1    -109.707 -53.065 -54.974  1.00  0.00    -0.000 C 
BRANCH  28  29
ATOM     29  C   UNL     1    -110.151 -52.444 -56.309  1.00  0.00    -0.000 C 
BRANCH  29  30
ATOM     30  C   UNL     1    -109.018 -52.381 -57.346  1.00  0.00    -0.000 C 
BRANCH  30  31
ATOM     31  C   UNL     1    -109.446 -52.918 -58.720  1.00  0.00    -0.003 C 
ATOM     32  C   UNL     1    -110.535 -53.986 -58.623  1.00  0.00     0.004 C 
ENDBRANCH  30  31
ENDBRANCH  29  30
ENDBRANCH  28  29
ENDBRANCH  27  28
ENDBRANCH  26  27
ENDBRANCH  25  26
ENDBRANCH  24  25
ENDBRANCH  23  24
ENDBRANCH  22  23
ENDBRANCH  21  22
ENDBRANCH  20  21
ENDBRANCH  19  20
ENDBRANCH  18  19
ENDBRANCH   1  18
TORSDOF 28
ENDMDL
MODEL 4
REMARK VINA RESULT:    -3.534     16.189     19.634
REMARK INTER + INTRA:         -13.412
REMARK INTER:                  -7.349
REMARK INTRA:                  -6.063
REMARK UNBOUND:                -4.093
REMARK SMILES CCCCCCCCCCCCCCCCCCCCCCCCCCCCCC(=O)[O-]
REMARK SMILES IDX 16 1 17 2 18 3 19 4 20 5 21 6 22 7 23 8 24 9 25 10 26 11
REMARK SMILES IDX 27 12 28 13 29 14 30 15 31 16 32 17 15 18 14 19 13 20 12 21
REMARK SMILES IDX 11 22 10 23 9 24 8 25 7 26 6 27 5 28 4 29 3 30 2 31 1 32
REMARK H PARENT
REMARK Flexibility Score: inf
ROOT
ATOM      1  C   UNL     1    -108.994 -48.697 -60.055  1.00  0.00     0.000 C 
ENDROOT
BRANCH   1   2
ATOM      2  C   UNL     1    -108.652 -47.981 -61.379  1.00  0.00     0.000 C 
BRANCH   2   3
ATOM      3  C   UNL     1    -109.610 -46.843 -61.773  1.00  0.00     0.000 C 
BRANCH   3   4
ATOM      4  C   UNL     1    -111.010 -47.353 -62.156  1.00  0.00     0.000 C 
BRANCH   4   5
ATOM      5  C   UNL     1    -112.089 -46.937 -61.143  1.00  0.00     0.000 C 
BRANCH   5   6
ATOM      6  C   UNL     1    -112.706 -48.145 -60.415  1.00  0.00     0.000 C 
BRANCH   6   7
ATOM      7  C   UNL     1    -112.721 -49.412 -61.286  1.00  0.00     0.000 C 
BRANCH   7   8
ATOM      8  C   UNL     1    -112.056 -50.611 -60.587  1.00  0.00     0.000 C 
BRANCH   8   9
ATOM      9  C   UNL     1    -111.051 -51.349 -61.490  1.00  0.00     0.000 C 
BRANCH   9  10
ATOM     10  C   UNL     1    -111.295 -51.206 -63.004  1.00  0.00     0.000 C 
BRANCH  10  11
ATOM     11  C   UNL     1    -110.116 -50.550 -63.743  1.00  0.00     0.000 C 
BRANCH  11  12
ATOM     12  C   UNL     1    -108.758 -51.164 -63.361  1.00  0.00     0.000 C 
BRANCH  12  13
ATOM     13  C   UNL     1    -107.551 -50.433 -63.989  1.00  0.00     0.006 C 
BRANCH  13  14
ATOM     14  C   UNL     1    -107.977 -49.190 -64.779  1.00  0.00     0.053 C 
BRANCH  14  15
ATOM     15  C   UNL     1    -107.762 -49.402 -66.243  1.00  0.00     0.041 C 
ATOM     16  O   UNL     1    -108.745 -49.562 -67.011  1.00  0.00    -0.550 OA
ATOM     17  O   UNL     1    -106.471 -49.470 -66.754  1.00  0.00    -0.550 OA
ENDBRANCH  14  15
ENDBRANCH  13  14
ENDBRANCH  12  13
ENDBRANCH  11  12
ENDBRANCH  10  11
ENDBRANCH   9  10
ENDBRANCH   8   9
ENDBRANCH   7   8
ENDBRANCH   6   7
ENDBRANCH   5   6
ENDBRANCH   4   5
ENDBRANCH   3   4
ENDBRANCH   2   3
ENDBRANCH   1   2
BRANCH   1  18
ATOM     18  C   UNL     1    -108.660 -47.912 -58.773  1.00  0.00     0.000 C 
BRANCH  18  19
ATOM     19  C   UNL     1    -109.906 -47.320 -58.094  1.00  0.00     0.000 C 
BRANCH  19  20
ATOM     20  C   UNL     1    -110.359 -48.133 -56.869  1.00  0.00     0.000 C 
BRANCH  20  21
ATOM     21  C   UNL     1    -109.855 -47.607 -55.509  1.00  0.00     0.000 C 
BRANCH  21  22
ATOM     22  C   UNL     1    -109.414 -48.696 -54.511  1.00  0.00     0.000 C 
BRANCH  22  23
ATOM     23  C   UNL     1    -107.906 -48.714 -54.188  1.00  0.00     0.000 C 
BRANCH  23  24
ATOM     24  C   UNL     1    -107.021 -47.918 -55.166  1.00  0.00    -0.000 C 
BRANCH  24  25
ATOM     25  C   UNL     1    -106.313 -48.769 -56.237  1.00  0.00    -0.000 C 
BRANCH  25  26
ATOM     26  C   UNL     1    -106.371 -50.286 -55.960  1.00  0.00    -0.000 C 
BRANCH  26  27
ATOM     27  C   UNL     1    -107.128 -51.057 -57.056  1.00  0.00    -0.000 C 
BRANCH  27  28
ATOM     28  C   UNL     1    -108.541 -51.483 -56.600  1.00  0.00    -0.000 C 
BRANCH  28  29
ATOM     29  C   UNL     1    -109.555 -51.596 -57.751  1.00  0.00    -0.000 C 
BRANCH  29  30
ATOM     30  C   UNL     1    -109.197 -52.700 -58.758  1.00  0.00    -0.000 C 
BRANCH  30  31
ATOM     31  C   UNL     1    -109.940 -54.016 -58.481  1.00  0.00    -0.003 C 
ATOM     32  C   UNL     1    -111.365 -53.793 -57.976  1.00  0.00     0.004 C 
ENDBRANCH  30  31
ENDBRANCH  29  30
ENDBRANCH  28  29
ENDBRANCH  27  28
ENDBRANCH  26  27
ENDBRANCH  25  26
ENDBRANCH  24  25
ENDBRANCH  23  24
ENDBRANCH  22  23
ENDBRANCH  21  22
ENDBRANCH  20  21
ENDBRANCH  19  20
ENDBRANCH  18  19
ENDBRANCH   1  18
TORSDOF 28
ENDMDL
MODEL 5
REMARK VINA RESULT:    -3.510     15.280     19.428
REMARK INTER + INTRA:         -13.348
REMARK INTER:                  -7.424
REMARK INTRA:                  -5.924
REMARK UNBOUND:                -4.093
REMARK SMILES CCCCCCCCCCCCCCCCCCCCCCCCCCCCCC(=O)[O-]
REMARK SMILES IDX 16 1 17 2 18 3 19 4 20 5 21 6 22 7 23 8 24 9 25 10 26 11
REMARK SMILES IDX 27 12 28 13 29 14 30 15 31 16 32 17 15 18 14 19 13 20 12 21
REMARK SMILES IDX 11 22 10 23 9 24 8 25 7 26 6 27 5 28 4 29 3 30 2 31 1 32
REMARK H PARENT
REMARK Flexibility Score: inf
ROOT
ATOM      1  C   UNL     1    -111.371 -50.419 -59.244  1.00  0.00     0.000 C 
ENDROOT
BRANCH   1   2
ATOM      2  C   UNL     1    -109.912 -50.900 -59.400  1.00  0.00     0.000 C 
BRANCH   2   3
ATOM      3  C   UNL     1    -109.023 -50.700 -58.161  1.00  0.00     0.000 C 
BRANCH   3   4
ATOM      4  C   UNL     1    -109.737 -49.933 -57.035  1.00  0.00     0.000 C 
BRANCH   4   5
ATOM      5  C   UNL     1    -108.902 -48.761 -56.495  1.00  0.00     0.000 C 
BRANCH   5   6
ATOM      6  C   UNL     1    -107.548 -48.625 -57.217  1.00  0.00     0.000 C 
BRANCH   6   7
ATOM      7  C   UNL     1    -106.355 -48.706 -56.251  1.00  0.00     0.000 C 
BRANCH   7   8
ATOM      8  C   UNL     1    -105.482 -49.948 -56.502  1.00  0.00     0.000 C 
BRANCH   8   9
ATOM      9  C   UNL     1    -106.121 -51.246 -55.971  1.00  0.00     0.000 C 
BRANCH   9  10
ATOM     10  C   UNL     1    -106.640 -51.182 -54.523  1.00  0.00     0.000 C 
BRANCH  10  11
ATOM     11  C   UNL     1    -108.051 -51.771 -54.364  1.00  0.00     0.000 C 
BRANCH  11  12
ATOM     12  C   UNL     1    -108.315 -52.950 -55.316  1.00  0.00     0.000 C 
BRANCH  12  13
ATOM     13  C   UNL     1    -109.782 -53.430 -55.314  1.00  0.00     0.006 C 
BRANCH  13  14
ATOM     14  C   UNL     1    -110.282 -53.764 -56.725  1.00  0.00     0.053 C 
BRANCH  14  15
ATOM     15  C   UNL     1    -110.182 -55.233 -56.983  1.00  0.00     0.041 C 
ATOM     16  O   UNL     1    -109.650 -55.655 -58.041  1.00  0.00    -0.550 OA
ATOM     17  O   UNL     1    -110.721 -56.136 -56.074  1.00  0.00    -0.550 OA
ENDBRANCH  14  15
ENDBRANCH  13  14
ENDBRANCH  12  13
ENDBRANCH  11  12
ENDBRANCH  10  11
ENDBRANCH   9  10
ENDBRANCH   8   9
ENDBRANCH   7   8
ENDBRANCH   6   7
ENDBRANCH   5   6
ENDBRANCH   4   5
ENDBRANCH   3   4
ENDBRANCH   2   3
ENDBRANCH   1   2
BRANCH   1  18
ATOM     18  C   UNL     1    -112.033 -49.889 -60.530  1.00  0.00     0.000 C 
BRANCH  18  19
ATOM     19  C   UNL     1    -112.177 -48.358 -60.540  1.00  0.00     0.000 C 
BRANCH  19  20
ATOM     20  C   UNL     1    -111.790 -47.715 -59.197  1.00  0.00     0.000 C 
BRANCH  20  21
ATOM     21  C   UNL     1    -110.463 -46.929 -59.204  1.00  0.00     0.000 C 
BRANCH  21  22
ATOM     22  C   UNL     1    -109.790 -46.797 -60.584  1.00  0.00     0.000 C 
BRANCH  22  23
ATOM     23  C   UNL     1    -108.511 -47.639 -60.770  1.00  0.00     0.000 C 
BRANCH  23  24
ATOM     24  C   UNL     1    -108.557 -48.644 -61.936  1.00  0.00    -0.000 C 
BRANCH  24  25
ATOM     25  C   UNL     1    -109.472 -48.235 -63.107  1.00  0.00    -0.000 C 
BRANCH  25  26
ATOM     26  C   UNL     1    -110.180 -49.428 -63.785  1.00  0.00    -0.000 C 
BRANCH  26  27
ATOM     27  C   UNL     1    -109.794 -50.779 -63.155  1.00  0.00    -0.000 C 
BRANCH  27  28
ATOM     28  C   UNL     1    -109.227 -51.767 -64.196  1.00  0.00    -0.000 C 
BRANCH  28  29
ATOM     29  C   UNL     1    -107.713 -52.005 -64.064  1.00  0.00    -0.000 C 
BRANCH  29  30
ATOM     30  C   UNL     1    -106.876 -50.986 -64.852  1.00  0.00    -0.000 C 
BRANCH  30  31
ATOM     31  C   UNL     1    -107.551 -50.559 -66.166  1.00  0.00    -0.003 C 
ATOM     32  C   UNL     1    -106.737 -49.518 -66.935  1.00  0.00     0.004 C 
ENDBRANCH  30  31
ENDBRANCH  29  30
ENDBRANCH  28  29
ENDBRANCH  27  28
ENDBRANCH  26  27
ENDBRANCH  25  26
ENDBRANCH  24  25
ENDBRANCH  23  24
ENDBRANCH  22  23
ENDBRANCH  21  22
ENDBRANCH  20  21
ENDBRANCH  19  20
ENDBRANCH  18  19
ENDBRANCH   1  18
TORSDOF 28
ENDMDL
MODEL 6
REMARK VINA RESULT:    -3.480     16.243     19.147
REMARK INTER + INTRA:         -13.269
REMARK INTER:                  -7.421
REMARK INTRA:                  -5.849
REMARK UNBOUND:                -4.093
REMARK SMILES CCCCCCCCCCCCCCCCCCCCCCCCCCCCCC(=O)[O-]
REMARK SMILES IDX 16 1 17 2 18 3 19 4 20 5 21 6 22 7 23 8 24 9 25 10 26 11
REMARK SMILES IDX 27 12 28 13 29 14 30 15 31 16 32 17 15 18 14 19 13 20 12 21
REMARK SMILES IDX 11 22 10 23 9 24 8 25 7 26 6 27 5 28 4 29 3 30 2 31 1 32
REMARK H PARENT
REMARK Flexibility Score: inf
ROOT
ATOM      1  C   UNL     1    -105.164 -51.704 -55.220  1.00  0.00     0.000 C 
ENDROOT
BRANCH   1   2
ATOM      2  C   UNL     1    -105.378 -50.981 -56.567  1.00  0.00     0.000 C 
BRANCH   2   3
ATOM      3  C   UNL     1    -105.153 -49.459 -56.534  1.00  0.00     0.000 C 
BRANCH   3   4
ATOM      4  C   UNL     1    -106.468 -48.663 -56.616  1.00  0.00     0.000 C 
BRANCH   4   5
ATOM      5  C   UNL     1    -106.999 -48.256 -55.232  1.00  0.00     0.000 C 
BRANCH   5   6
ATOM      6  C   UNL     1    -108.522 -48.031 -55.231  1.00  0.00     0.000 C 
BRANCH   6   7
ATOM      7  C   UNL     1    -109.265 -49.038 -54.339  1.00  0.00     0.000 C 
BRANCH   7   8
ATOM      8  C   UNL     1    -108.305 -49.990 -53.604  1.00  0.00     0.000 C 
BRANCH   8   9
ATOM      9  C   UNL     1    -108.465 -51.457 -54.043  1.00  0.00     0.000 C 
BRANCH   9  10
ATOM     10  C   UNL     1    -109.536 -51.711 -55.120  1.00  0.00     0.000 C 
BRANCH  10  11
ATOM     11  C   UNL     1    -108.964 -52.351 -56.396  1.00  0.00     0.000 C 
BRANCH  11  12
ATOM     12  C   UNL     1    -108.769 -51.336 -57.536  1.00  0.00     0.000 C 
BRANCH  12  13
ATOM     13  C   UNL     1    -110.095 -50.825 -58.141  1.00  0.00     0.006 C 
BRANCH  13  14
ATOM     14  C   UNL     1    -110.147 -49.293 -58.205  1.00  0.00     0.053 C 
BRANCH  14  15
ATOM     15  C   UNL     1    -109.366 -48.791 -59.377  1.00  0.00     0.041 C 
ATOM     16  O   UNL     1    -109.435 -49.384 -60.484  1.00  0.00    -0.550 OA
ATOM     17  O   UNL     1    -108.523 -47.696 -59.232  1.00  0.00    -0.550 OA
ENDBRANCH  14  15
ENDBRANCH  13  14
ENDBRANCH  12  13
ENDBRANCH  11  12
ENDBRANCH  10  11
ENDBRANCH   9  10
ENDBRANCH   8   9
ENDBRANCH   7   8
ENDBRANCH   6   7
ENDBRANCH   5   6
ENDBRANCH   4   5
ENDBRANCH   3   4
ENDBRANCH   2   3
ENDBRANCH   1   2
BRANCH   1  18
ATOM     18  C   UNL     1    -103.759 -52.299 -55.005  1.00  0.00     0.000 C 
BRANCH  18  19
ATOM     19  C   UNL     1    -103.411 -52.486 -53.519  1.00  0.00     0.000 C 
BRANCH  19  20
ATOM     20  C   UNL     1    -103.215 -53.963 -53.135  1.00  0.00     0.000 C 
BRANCH  20  21
ATOM     21  C   UNL     1    -103.243 -54.957 -54.314  1.00  0.00     0.000 C 
BRANCH  21  22
ATOM     22  C   UNL     1    -104.442 -55.925 -54.323  1.00  0.00     0.000 C 
BRANCH  22  23
ATOM     23  C   UNL     1    -105.561 -55.590 -53.315  1.00  0.00     0.000 C 
BRANCH  23  24
ATOM     24  C   UNL     1    -106.801 -54.908 -53.922  1.00  0.00    -0.000 C 
BRANCH  24  25
ATOM     25  C   UNL     1    -108.121 -55.182 -53.176  1.00  0.00    -0.000 C 
BRANCH  25  26
ATOM     26  C   UNL     1    -109.264 -55.662 -54.095  1.00  0.00    -0.000 C 
BRANCH  26  27
ATOM     27  C   UNL     1    -108.777 -55.995 -55.517  1.00  0.00    -0.000 C 
BRANCH  27  28
ATOM     28  C   UNL     1    -109.445 -57.267 -56.081  1.00  0.00    -0.000 C 
BRANCH  28  29
ATOM     29  C   UNL     1    -108.451 -58.391 -56.422  1.00  0.00    -0.000 C 
BRANCH  29  30
ATOM     30  C   UNL     1    -106.997 -58.023 -56.090  1.00  0.00    -0.000 C 
BRANCH  30  31
ATOM     31  C   UNL     1    -106.351 -59.006 -55.100  1.00  0.00    -0.003 C 
ATOM     32  C   UNL     1    -107.039 -59.005 -53.735  1.00  0.00     0.004 C 
ENDBRANCH  30  31
ENDBRANCH  29  30
ENDBRANCH  28  29
ENDBRANCH  27  28
ENDBRANCH  26  27
ENDBRANCH  25  26
ENDBRANCH  24  25
ENDBRANCH  23  24
ENDBRANCH  22  23
ENDBRANCH  21  22
ENDBRANCH  20  21
ENDBRANCH  19  20
ENDBRANCH  18  19
ENDBRANCH   1  18
TORSDOF 28
ENDMDL
MODEL 7
REMARK VINA RESULT:    -3.417     16.158     19.634
REMARK INTER + INTRA:         -13.102
REMARK INTER:                  -7.083
REMARK INTRA:                  -6.019
REMARK UNBOUND:                -4.093
REMARK SMILES CCCCCCCCCCCCCCCCCCCCCCCCCCCCCC(=O)[O-]
REMARK SMILES IDX 16 1 17 2 18 3 19 4 20 5 21 6 22 7 23 8 24 9 25 10 26 11
REMARK SMILES IDX 27 12 28 13 29 14 30 15 31 16 32 17 15 18 14 19 13 20 12 21
REMARK SMILES IDX 11 22 10 23 9 24 8 25 7 26 6 27 5 28 4 29 3 30 2 31 1 32
REMARK H PARENT
REMARK Flexibility Score: inf
ROOT
ATOM      1  C   UNL     1    -109.567 -49.857 -61.326  1.00  0.00     0.000 C 
ENDROOT
BRANCH   1   2
ATOM      2  C   UNL     1    -108.592 -48.800 -61.888  1.00  0.00     0.000 C 
BRANCH   2   3
ATOM      3  C   UNL     1    -108.396 -47.557 -61.002  1.00  0.00     0.000 C 
BRANCH   3   4
ATOM      4  C   UNL     1    -108.691 -47.833 -59.518  1.00  0.00     0.000 C 
BRANCH   4   5
ATOM      5  C   UNL     1    -109.744 -46.876 -58.936  1.00  0.00     0.000 C 
BRANCH   5   6
ATOM      6  C   UNL     1    -110.222 -45.835 -59.965  1.00  0.00     0.000 C 
BRANCH   6   7
ATOM      7  C   UNL     1    -111.680 -46.062 -60.398  1.00  0.00     0.000 C 
BRANCH   7   8
ATOM      8  C   UNL     1    -111.834 -46.115 -61.928  1.00  0.00     0.000 C 
BRANCH   8   9
ATOM      9  C   UNL     1    -110.743 -45.321 -62.669  1.00  0.00     0.000 C 
BRANCH   9  10
ATOM     10  C   UNL     1    -110.594 -45.644 -64.167  1.00  0.00     0.000 C 
BRANCH  10  11
ATOM     11  C   UNL     1    -110.366 -47.141 -64.438  1.00  0.00     0.000 C 
BRANCH  11  12
ATOM     12  C   UNL     1    -109.454 -47.395 -65.650  1.00  0.00     0.000 C 
BRANCH  12  13
ATOM     13  C   UNL     1    -108.495 -48.590 -65.462  1.00  0.00     0.006 C 
BRANCH  13  14
ATOM     14  C   UNL     1    -109.243 -49.928 -65.405  1.00  0.00     0.053 C 
BRANCH  14  15
ATOM     15  C   UNL     1    -108.365 -50.995 -64.837  1.00  0.00     0.041 C 
ATOM     16  O   UNL     1    -108.848 -52.115 -64.528  1.00  0.00    -0.550 OA
ATOM     17  O   UNL     1    -107.020 -50.737 -64.602  1.00  0.00    -0.550 OA
ENDBRANCH  14  15
ENDBRANCH  13  14
ENDBRANCH  12  13
ENDBRANCH  11  12
ENDBRANCH  10  11
ENDBRANCH   9  10
ENDBRANCH   8   9
ENDBRANCH   7   8
ENDBRANCH   6   7
ENDBRANCH   5   6
ENDBRANCH   4   5
ENDBRANCH   3   4
ENDBRANCH   2   3
ENDBRANCH   1   2
BRANCH   1  18
ATOM     18  C   UNL     1    -111.036 -49.697 -61.758  1.00  0.00     0.000 C 
BRANCH  18  19
ATOM     19  C   UNL     1    -112.009 -49.670 -60.568  1.00  0.00     0.000 C 
BRANCH  19  20
ATOM     20  C   UNL     1    -111.552 -50.568 -59.405  1.00  0.00     0.000 C 
BRANCH  20  21
ATOM     21  C   UNL     1    -111.463 -49.869 -58.033  1.00  0.00     0.000 C 
BRANCH  21  22
ATOM     22  C   UNL     1    -110.237 -50.255 -57.182  1.00  0.00     0.000 C 
BRANCH  22  23
ATOM     23  C   UNL     1    -109.179 -51.109 -57.911  1.00  0.00     0.000 C 
BRANCH  23  24
ATOM     24  C   UNL     1    -109.149 -52.595 -57.505  1.00  0.00    -0.000 C 
BRANCH  24  25
ATOM     25  C   UNL     1    -110.213 -53.004 -56.468  1.00  0.00    -0.000 C 
BRANCH  25  26
ATOM     26  C   UNL     1    -109.617 -53.586 -55.168  1.00  0.00    -0.000 C 
BRANCH  26  27
ATOM     27  C   UNL     1    -108.190 -53.078 -54.893  1.00  0.00    -0.000 C 
BRANCH  27  28
ATOM     28  C   UNL     1    -108.183 -51.786 -54.047  1.00  0.00    -0.000 C 
BRANCH  28  29
ATOM     29  C   UNL     1    -107.258 -50.688 -54.598  1.00  0.00    -0.000 C 
BRANCH  29  30
ATOM     30  C   UNL     1    -106.140 -51.243 -55.494  1.00  0.00    -0.000 C 
BRANCH  30  31
ATOM     31  C   UNL     1    -105.723 -50.257 -56.596  1.00  0.00    -0.003 C 
ATOM     32  C   UNL     1    -106.433 -48.908 -56.480  1.00  0.00     0.004 C 
ENDBRANCH  30  31
ENDBRANCH  29  30
ENDBRANCH  28  29
ENDBRANCH  27  28
ENDBRANCH  26  27
ENDBRANCH  25  26
ENDBRANCH  24  25
ENDBRANCH  23  24
ENDBRANCH  22  23
ENDBRANCH  21  22
ENDBRANCH  20  21
ENDBRANCH  19  20
ENDBRANCH  18  19
ENDBRANCH   1  18
TORSDOF 28
ENDMDL
MODEL 8
REMARK VINA RESULT:    -3.393     15.947     19.034
REMARK INTER + INTRA:         -13.040
REMARK INTER:                  -8.792
REMARK INTRA:                  -4.248
REMARK UNBOUND:                -4.093
REMARK SMILES CCCCCCCCCCCCCCCCCCCCCCCCCCCCCC(=O)[O-]
REMARK SMILES IDX 16 1 17 2 18 3 19 4 20 5 21 6 22 7 23 8 24 9 25 10 26 11
REMARK SMILES IDX 27 12 28 13 29 14 30 15 31 16 32 17 15 18 14 19 13 20 12 21
REMARK SMILES IDX 11 22 10 23 9 24 8 25 7 26 6 27 5 28 4 29 3 30 2 31 1 32
REMARK H PARENT
REMARK Flexibility Score: inf
ROOT
ATOM      1  C   UNL     1    -107.604 -51.179 -57.051  1.00  0.00     0.000 C 
ENDROOT
BRANCH   1   2
ATOM      2  C   UNL     1    -106.103 -51.119 -56.694  1.00  0.00     0.000 C 
BRANCH   2   3
ATOM      3  C   UNL     1    -105.551 -49.707 -56.431  1.00  0.00     0.000 C 
BRANCH   3   4
ATOM      4  C   UNL     1    -106.626 -48.615 -56.561  1.00  0.00     0.000 C 
BRANCH   4   5
ATOM      5  C   UNL     1    -107.112 -48.099 -55.197  1.00  0.00     0.000 C 
BRANCH   5   6
ATOM      6  C   UNL     1    -108.638 -48.223 -55.034  1.00  0.00     0.000 C 
BRANCH   6   7
ATOM      7  C   UNL     1    -109.408 -47.655 -56.237  1.00  0.00     0.000 C 
BRANCH   7   8
ATOM      8  C   UNL     1    -110.250 -48.727 -56.952  1.00  0.00     0.000 C 
BRANCH   8   9
ATOM      9  C   UNL     1    -110.090 -48.692 -58.483  1.00  0.00     0.000 C 
BRANCH   9  10
ATOM     10  C   UNL     1    -109.124 -47.620 -59.021  1.00  0.00     0.000 C 
BRANCH  10  11
ATOM     11  C   UNL     1    -108.595 -47.941 -60.429  1.00  0.00     0.000 C 
BRANCH  11  12
ATOM     12  C   UNL     1    -109.540 -47.464 -61.544  1.00  0.00     0.000 C 
BRANCH  12  13
ATOM     13  C   UNL     1    -109.410 -48.272 -62.854  1.00  0.00     0.006 C 
BRANCH  13  14
ATOM     14  C   UNL     1    -108.214 -49.231 -62.823  1.00  0.00     0.053 C 
BRANCH  14  15
ATOM     15  C   UNL     1    -108.675 -50.647 -62.948  1.00  0.00     0.041 C 
ATOM     16  O   UNL     1    -107.955 -51.499 -63.530  1.00  0.00    -0.550 OA
ATOM     17  O   UNL     1    -109.924 -51.017 -62.464  1.00  0.00    -0.550 OA
ENDBRANCH  14  15
ENDBRANCH  13  14
ENDBRANCH  12  13
ENDBRANCH  11  12
ENDBRANCH  10  11
ENDBRANCH   9  10
ENDBRANCH   8   9
ENDBRANCH   7   8
ENDBRANCH   6   7
ENDBRANCH   5   6
ENDBRANCH   4   5
ENDBRANCH   3   4
ENDBRANCH   2   3
ENDBRANCH   1   2
BRANCH   1  18
ATOM     18  C   UNL     1    -108.483 -51.987 -56.077  1.00  0.00     0.000 C 
BRANCH  18  19
ATOM     19  C   UNL     1    -107.949 -51.970 -54.636  1.00  0.00     0.000 C 
BRANCH  19  20
ATOM     20  C   UNL     1    -108.009 -53.351 -53.961  1.00  0.00     0.000 C 
BRANCH  20  21
ATOM     21  C   UNL     1    -106.722 -53.778 -53.226  1.00  0.00     0.000 C 
BRANCH  21  22
ATOM     22  C   UNL     1    -105.415 -53.546 -54.008  1.00  0.00     0.000 C 
BRANCH  22  23
ATOM     23  C   UNL     1    -104.419 -52.574 -53.343  1.00  0.00     0.000 C 
BRANCH  23  24
ATOM     24  C   UNL     1    -102.941 -52.802 -53.713  1.00  0.00    -0.000 C 
BRANCH  24  25
ATOM     25  C   UNL     1    -102.244 -53.929 -52.928  1.00  0.00    -0.000 C 
BRANCH  25  26
ATOM     26  C   UNL     1    -102.008 -55.209 -53.759  1.00  0.00    -0.000 C 
BRANCH  26  27
ATOM     27  C   UNL     1    -102.345 -56.491 -52.976  1.00  0.00    -0.000 C 
BRANCH  27  28
ATOM     28  C   UNL     1    -103.830 -56.890 -53.121  1.00  0.00    -0.000 C 
BRANCH  28  29
ATOM     29  C   UNL     1    -104.358 -56.801 -54.563  1.00  0.00    -0.000 C 
BRANCH  29  30
ATOM     30  C   UNL     1    -105.488 -57.802 -54.849  1.00  0.00    -0.000 C 
BRANCH  30  31
ATOM     31  C   UNL     1    -106.869 -57.132 -54.908  1.00  0.00    -0.003 C 
ATOM     32  C   UNL     1    -107.667 -57.308 -53.616  1.00  0.00     0.004 C 
ENDBRANCH  30  31
ENDBRANCH  29  30
ENDBRANCH  28  29
ENDBRANCH  27  28
ENDBRANCH  26  27
ENDBRANCH  25  26
ENDBRANCH  24  25
ENDBRANCH  23  24
ENDBRANCH  22  23
ENDBRANCH  21  22
ENDBRANCH  20  21
ENDBRANCH  19  20
ENDBRANCH  18  19
ENDBRANCH   1  18
TORSDOF 28
ENDMDL
MODEL 9
REMARK VINA RESULT:    -3.365     15.898     19.352
REMARK INTER + INTRA:         -12.965
REMARK INTER:                  -8.103
REMARK INTRA:                  -4.862
REMARK UNBOUND:                -4.093
REMARK SMILES CCCCCCCCCCCCCCCCCCCCCCCCCCCCCC(=O)[O-]
REMARK SMILES IDX 16 1 17 2 18 3 19 4 20 5 21 6 22 7 23 8 24 9 25 10 26 11
REMARK SMILES IDX 27 12 28 13 29 14 30 15 31 16 32 17 15 18 14 19 13 20 12 21
REMARK SMILES IDX 11 22 10 23 9 24 8 25 7 26 6 27 5 28 4 29 3 30 2 31 1 32
REMARK H PARENT
REMARK Flexibility Score: inf
ROOT
ATOM      1  C   UNL     1    -110.032 -52.207 -56.997  1.00  0.00     0.000 C 
ENDROOT
BRANCH   1   2
ATOM      2  C   UNL     1    -109.340 -51.679 -58.272  1.00  0.00     0.000 C 
BRANCH   2   3
ATOM      3  C   UNL     1    -109.294 -50.147 -58.403  1.00  0.00     0.000 C 
BRANCH   3   4
ATOM      4  C   UNL     1    -110.581 -49.469 -57.904  1.00  0.00     0.000 C 
BRANCH   4   5
ATOM      5  C   UNL     1    -110.575 -47.949 -58.131  1.00  0.00     0.000 C 
BRANCH   5   6
ATOM      6  C   UNL     1    -109.443 -47.501 -59.073  1.00  0.00     0.000 C 
BRANCH   6   7
ATOM      7  C   UNL     1    -109.716 -46.129 -59.711  1.00  0.00     0.000 C 
BRANCH   7   8
ATOM      8  C   UNL     1    -109.626 -46.170 -61.247  1.00  0.00     0.000 C 
BRANCH   8   9
ATOM      9  C   UNL     1    -110.890 -46.753 -61.906  1.00  0.00     0.000 C 
BRANCH   9  10
ATOM     10  C   UNL     1    -110.661 -47.991 -62.793  1.00  0.00     0.000 C 
BRANCH  10  11
ATOM     11  C   UNL     1    -110.799 -49.315 -62.022  1.00  0.00     0.000 C 
BRANCH  11  12
ATOM     12  C   UNL     1    -109.498 -50.135 -62.010  1.00  0.00     0.000 C 
BRANCH  12  13
ATOM     13  C   UNL     1    -108.295 -49.397 -62.636  1.00  0.00     0.006 C 
BRANCH  13  14
ATOM     14  C   UNL     1    -107.491 -50.299 -63.580  1.00  0.00     0.053 C 
BRANCH  14  15
ATOM     15  C   UNL     1    -107.779 -49.953 -65.006  1.00  0.00     0.041 C 
ATOM     16  O   UNL     1    -107.556 -50.790 -65.918  1.00  0.00    -0.550 OA
ATOM     17  O   UNL     1    -108.247 -48.686 -65.333  1.00  0.00    -0.550 OA
ENDBRANCH  14  15
ENDBRANCH  13  14
ENDBRANCH  12  13
ENDBRANCH  11  12
ENDBRANCH  10  11
ENDBRANCH   9  10
ENDBRANCH   8   9
ENDBRANCH   7   8
ENDBRANCH   6   7
ENDBRANCH   5   6
ENDBRANCH   4   5
ENDBRANCH   3   4
ENDBRANCH   2   3
ENDBRANCH   1   2
BRANCH   1  18
ATOM     18  C   UNL     1    -109.159 -53.095 -56.091  1.00  0.00     0.000 C 
BRANCH  18  19
ATOM     19  C   UNL     1    -109.069 -52.571 -54.648  1.00  0.00     0.000 C 
BRANCH  19  20
ATOM     20  C   UNL     1    -109.738 -51.197 -54.471  1.00  0.00     0.000 C 
BRANCH  20  21
ATOM     21  C   UNL     1    -108.811 -50.078 -53.955  1.00  0.00     0.000 C 
BRANCH  21  22
ATOM     22  C   UNL     1    -108.584 -48.913 -54.937  1.00  0.00     0.000 C 
BRANCH  22  23
ATOM     23  C   UNL     1    -107.111 -48.496 -55.128  1.00  0.00     0.000 C 
BRANCH  23  24
ATOM     24  C   UNL     1    -106.544 -48.736 -56.540  1.00  0.00    -0.000 C 
BRANCH  24  25
ATOM     25  C   UNL     1    -105.397 -49.762 -56.611  1.00  0.00    -0.000 C 
BRANCH  25  26
ATOM     26  C   UNL     1    -105.813 -51.186 -56.185  1.00  0.00    -0.000 C 
BRANCH  26  27
ATOM     27  C   UNL     1    -104.810 -51.826 -55.207  1.00  0.00    -0.000 C 
BRANCH  27  28
ATOM     28  C   UNL     1    -105.501 -52.387 -53.946  1.00  0.00    -0.000 C 
BRANCH  28  29
ATOM     29  C   UNL     1    -104.872 -53.689 -53.422  1.00  0.00    -0.000 C 
BRANCH  29  30
ATOM     30  C   UNL     1    -103.750 -54.219 -54.329  1.00  0.00    -0.000 C 
BRANCH  30  31
ATOM     31  C   UNL     1    -102.767 -55.132 -53.580  1.00  0.00    -0.003 C 
ATOM     32  C   UNL     1    -101.566 -54.370 -53.019  1.00  0.00     0.004 C 
ENDBRANCH  30  31
ENDBRANCH  29  30
ENDBRANCH  28  29
ENDBRANCH  27  28
ENDBRANCH  26  27
ENDBRANCH  25  26
ENDBRANCH  24  25
ENDBRANCH  23  24
ENDBRANCH  22  23
ENDBRANCH  21  22
ENDBRANCH  20  21
ENDBRANCH  19  20
ENDBRANCH  18  19
ENDBRANCH   1  18
TORSDOF 28
ENDMDL
