MODEL 1
REMARK VINA RESULT:    -4.586      0.000      0.000
REMARK INTER + INTRA:          -5.407
REMARK INTER:                  -5.256
REMARK INTRA:                  -0.151
REMARK UNBOUND:                -0.151
REMARK SMILES O=C([O-])C=Cc1ccc(O)cc1
REMARK SMILES IDX 6 1 7 2 12 3 8 4 11 5 9 6 5 7 4 8 2 9 1 10 3 11 10 12
REMARK H PARENT 10 13
REMARK Flexibility Score: inf
ROOT
ATOM      1  C   UNL     1      17.405  -7.696   8.998  1.00  0.00    -0.025 A 
ATOM      2  C   UNL     1      16.881  -8.179   7.787  1.00  0.00     0.012 A 
ATOM      3  C   UNL     1      17.827  -8.622   9.974  1.00  0.00     0.012 A 
ATOM      4  C   UNL     1      16.802  -9.554   7.544  1.00  0.00     0.047 A 
ATOM      5  C   UNL     1      17.747  -9.996   9.726  1.00  0.00     0.047 A 
ATOM      6  C   UNL     1      17.236 -10.465   8.510  1.00  0.00     0.115 A 
ENDROOT
BRANCH   1   7
ATOM      7  C   UNL     1      17.459  -6.229   9.213  1.00  0.00     0.010 C 
ATOM      8  C   UNL     1      16.692  -5.349   8.554  1.00  0.00     0.025 C 
BRANCH   8   9
ATOM      9  C   UNL     1      16.766  -3.900   8.802  1.00  0.00     0.064 C 
ATOM     10  O   UNL     1      17.113  -3.447   9.926  1.00  0.00    -0.545 OA
ATOM     11  O   UNL     1      16.448  -3.016   7.780  1.00  0.00    -0.545 OA
ENDBRANCH   8   9
ENDBRANCH   1   7
BRANCH   6  12
ATOM     12  O   UNL     1      17.153 -11.832   8.255  1.00  0.00    -0.508 OA
ATOM     13  H   UNL     1      17.112 -12.510   9.006  1.00  0.00     0.293 HD
ENDBRANCH   6  12
TORSDOF 3
ENDMDL
MODEL 2
REMARK VINA RESULT:    -4.546      0.369      1.717
REMARK INTER + INTRA:          -5.362
REMARK INTER:                  -5.226
REMARK INTRA:                  -0.135
REMARK UNBOUND:                -0.151
REMARK SMILES O=C([O-])C=Cc1ccc(O)cc1
REMARK SMILES IDX 6 1 7 2 12 3 8 4 11 5 9 6 5 7 4 8 2 9 1 10 3 11 10 12
REMARK H PARENT 10 13
REMARK Flexibility Score: inf
ROOT
ATOM      1  C   UNL     1      17.404  -7.368   8.955  1.00  0.00    -0.025 A 
ATOM      2  C   UNL     1      17.870  -8.173  10.010  1.00  0.00     0.012 A 
ATOM      3  C   UNL     1      16.934  -7.991   7.781  1.00  0.00     0.012 A 
ATOM      4  C   UNL     1      17.843  -9.567   9.905  1.00  0.00     0.047 A 
ATOM      5  C   UNL     1      16.910  -9.386   7.682  1.00  0.00     0.047 A 
ATOM      6  C   UNL     1      17.362 -10.177   8.745  1.00  0.00     0.115 A 
ENDROOT
BRANCH   1   7
ATOM      7  C   UNL     1      17.462  -5.894   9.109  1.00  0.00     0.010 C 
ATOM      8  C   UNL     1      16.532  -5.057   8.627  1.00  0.00     0.025 C 
BRANCH   8   9
ATOM      9  C   UNL     1      16.618  -3.597   8.808  1.00  0.00     0.064 C 
ATOM     10  O   UNL     1      16.288  -2.805   7.887  1.00  0.00    -0.545 OA
ATOM     11  O   UNL     1      17.071  -3.087  10.018  1.00  0.00    -0.545 OA
ENDBRANCH   8   9
ENDBRANCH   1   7
BRANCH   6  12
ATOM     12  O   UNL     1      17.341 -11.567   8.655  1.00  0.00    -0.508 OA
ATOM     13  H   UNL     1      18.128 -12.086   8.285  1.00  0.00     0.293 HD
ENDBRANCH   6  12
TORSDOF 3
ENDMDL
MODEL 3
REMARK VINA RESULT:    -4.525     13.598     15.668
REMARK INTER + INTRA:          -5.337
REMARK INTER:                  -5.187
REMARK INTRA:                  -0.151
REMARK UNBOUND:                -0.151
REMARK SMILES O=C([O-])C=Cc1ccc(O)cc1
REMARK SMILES IDX 6 1 7 2 12 3 8 4 11 5 9 6 5 7 4 8 2 9 1 10 3 11 10 12
REMARK H PARENT 10 13
REMARK Flexibility Score: inf
ROOT
ATOM      1  C   UNL     1      13.398 -15.939  21.248  1.00  0.00    -0.025 A 
ATOM      2  C   UNL     1      13.871 -14.694  21.698  1.00  0.00     0.012 A 
ATOM      3  C   UNL     1      13.421 -17.035  22.135  1.00  0.00     0.012 A 
ATOM      4  C   UNL     1      14.334 -14.541  23.009  1.00  0.00     0.047 A 
ATOM      5  C   UNL     1      13.883 -16.876  23.445  1.00  0.00     0.047 A 
ATOM      6  C   UNL     1      14.339 -15.628  23.885  1.00  0.00     0.115 A 
ENDROOT
BRANCH   1   7
ATOM      7  C   UNL     1      12.927 -16.055  19.846  1.00  0.00     0.010 C 
ATOM      8  C   UNL     1      13.365 -15.279  18.845  1.00  0.00     0.025 C 
BRANCH   8   9
ATOM      9  C   UNL     1      12.882 -15.432  17.462  1.00  0.00     0.064 C 
ATOM     10  O   UNL     1      12.129 -16.388  17.136  1.00  0.00    -0.545 OA
ATOM     11  O   UNL     1      13.262 -14.504  16.501  1.00  0.00    -0.545 OA
ENDBRANCH   8   9
ENDBRANCH   1   7
BRANCH   6  12
ATOM     12  O   UNL     1      14.801 -15.460  25.188  1.00  0.00    -0.508 OA
ATOM     13  H   UNL     1      14.168 -15.455  25.979  1.00  0.00     0.293 HD
ENDBRANCH   6  12
TORSDOF 3
ENDMDL
MODEL 4
REMARK VINA RESULT:    -4.337     13.779     15.792
REMARK INTER + INTRA:          -5.123
REMARK INTER:                  -4.980
REMARK INTRA:                  -0.143
REMARK UNBOUND:                -0.151
REMARK SMILES O=C([O-])C=Cc1ccc(O)cc1
REMARK SMILES IDX 6 1 7 2 12 3 8 4 11 5 9 6 5 7 4 8 2 9 1 10 3 11 10 12
REMARK H PARENT 10 13
REMARK Flexibility Score: inf
ROOT
ATOM      1  C   UNL     1      13.256 -14.955  20.827  1.00  0.00    -0.025 A 
ATOM      2  C   UNL     1      13.894 -15.831  19.933  1.00  0.00     0.012 A 
ATOM      3  C   UNL     1      12.247 -14.099  20.336  1.00  0.00     0.012 A 
ATOM      4  C   UNL     1      13.519 -15.872  18.586  1.00  0.00     0.047 A 
ATOM      5  C   UNL     1      11.875 -14.145  18.989  1.00  0.00     0.047 A 
ATOM      6  C   UNL     1      12.509 -15.033  18.112  1.00  0.00     0.115 A 
ENDROOT
BRANCH   1   7
ATOM      7  C   UNL     1      13.696 -14.940  22.243  1.00  0.00     0.010 C 
ATOM      8  C   UNL     1      13.940 -16.046  22.960  1.00  0.00     0.025 C 
BRANCH   8   9
ATOM      9  C   UNL     1      14.386 -15.992  24.363  1.00  0.00     0.064 C 
ATOM     10  O   UNL     1      15.610 -16.024  24.660  1.00  0.00    -0.545 OA
ATOM     11  O   UNL     1      13.440 -15.902  25.376  1.00  0.00    -0.545 OA
ENDBRANCH   8   9
ENDBRANCH   1   7
BRANCH   6  12
ATOM     12  O   UNL     1      12.144 -15.085  16.768  1.00  0.00    -0.508 OA
ATOM     13  H   UNL     1      12.803 -15.363  16.051  1.00  0.00     0.293 HD
ENDBRANCH   6  12
TORSDOF 3
ENDMDL
MODEL 5
REMARK VINA RESULT:    -4.322      2.716      5.537
REMARK INTER + INTRA:          -5.105
REMARK INTER:                  -4.965
REMARK INTRA:                  -0.140
REMARK UNBOUND:                -0.151
REMARK SMILES O=C([O-])C=Cc1ccc(O)cc1
REMARK SMILES IDX 6 1 7 2 12 3 8 4 11 5 9 6 5 7 4 8 2 9 1 10 3 11 10 12
REMARK H PARENT 10 13
REMARK Flexibility Score: inf
ROOT
ATOM      1  C   UNL     1      15.850  -8.122   8.893  1.00  0.00    -0.025 A 
ATOM      2  C   UNL     1      16.867  -8.741   9.640  1.00  0.00     0.012 A 
ATOM      3  C   UNL     1      16.034  -6.790   8.467  1.00  0.00     0.012 A 
ATOM      4  C   UNL     1      18.051  -8.056   9.933  1.00  0.00     0.047 A 
ATOM      5  C   UNL     1      17.219  -6.111   8.762  1.00  0.00     0.047 A 
ATOM      6  C   UNL     1      18.232  -6.743   9.494  1.00  0.00     0.115 A 
ENDROOT
BRANCH   1   7
ATOM      7  C   UNL     1      14.608  -8.885   8.617  1.00  0.00     0.010 C 
ATOM      8  C   UNL     1      14.578 -10.039   7.934  1.00  0.00     0.025 C 
BRANCH   8   9
ATOM      9  C   UNL     1      13.325 -10.774   7.688  1.00  0.00     0.064 C 
ATOM     10  O   UNL     1      13.155 -11.437   6.631  1.00  0.00    -0.545 OA
ATOM     11  O   UNL     1      12.314 -10.735   8.639  1.00  0.00    -0.545 OA
ENDBRANCH   8   9
ENDBRANCH   1   7
BRANCH   6  12
ATOM     12  O   UNL     1      19.416  -6.074   9.792  1.00  0.00    -0.508 OA
ATOM     13  H   UNL     1      19.776  -6.027  10.738  1.00  0.00     0.293 HD
ENDBRANCH   6  12
TORSDOF 3
ENDMDL
MODEL 6
REMARK VINA RESULT:    -4.208      1.957      2.776
REMARK INTER + INTRA:          -4.974
REMARK INTER:                  -4.839
REMARK INTRA:                  -0.135
REMARK UNBOUND:                -0.151
REMARK SMILES O=C([O-])C=Cc1ccc(O)cc1
REMARK SMILES IDX 6 1 7 2 12 3 8 4 11 5 9 6 5 7 4 8 2 9 1 10 3 11 10 12
REMARK H PARENT 10 13
REMARK Flexibility Score: inf
ROOT
ATOM      1  C   UNL     1      16.578  -9.278   8.688  1.00  0.00    -0.025 A 
ATOM      2  C   UNL     1      17.239 -10.475   8.367  1.00  0.00     0.012 A 
ATOM      3  C   UNL     1      15.208  -9.153   8.377  1.00  0.00     0.012 A 
ATOM      4  C   UNL     1      16.545 -11.533   7.771  1.00  0.00     0.047 A 
ATOM      5  C   UNL     1      14.519 -10.213   7.782  1.00  0.00     0.047 A 
ATOM      6  C   UNL     1      15.185 -11.407   7.480  1.00  0.00     0.115 A 
ENDROOT
BRANCH   1   7
ATOM      7  C   UNL     1      17.359  -8.180   9.310  1.00  0.00     0.010 C 
ATOM      8  C   UNL     1      17.547  -6.982   8.739  1.00  0.00     0.025 C 
BRANCH   8   9
ATOM      9  C   UNL     1      18.321  -5.912   9.392  1.00  0.00     0.064 C 
ATOM     10  O   UNL     1      17.789  -4.809   9.688  1.00  0.00    -0.545 OA
ATOM     11  O   UNL     1      19.661  -6.124   9.687  1.00  0.00    -0.545 OA
ENDBRANCH   8   9
ENDBRANCH   1   7
BRANCH   6  12
ATOM     12  O   UNL     1      14.506 -12.469   6.888  1.00  0.00    -0.508 OA
ATOM     13  H   UNL     1      13.857 -13.043   7.414  1.00  0.00     0.293 HD
ENDBRANCH   6  12
TORSDOF 3
ENDMDL
MODEL 7
REMARK VINA RESULT:    -4.093      1.970      6.179
REMARK INTER + INTRA:          -4.842
REMARK INTER:                  -4.699
REMARK INTRA:                  -0.143
REMARK UNBOUND:                -0.151
REMARK SMILES O=C([O-])C=Cc1ccc(O)cc1
REMARK SMILES IDX 6 1 7 2 12 3 8 4 11 5 9 6 5 7 4 8 2 9 1 10 3 11 10 12
REMARK H PARENT 10 13
REMARK Flexibility Score: inf
ROOT
ATOM      1  C   UNL     1      17.068  -9.130   7.971  1.00  0.00    -0.025 A 
ATOM      2  C   UNL     1      17.483  -9.211   9.311  1.00  0.00     0.012 A 
ATOM      3  C   UNL     1      17.050  -7.870   7.339  1.00  0.00     0.012 A 
ATOM      4  C   UNL     1      17.896  -8.065   9.998  1.00  0.00     0.047 A 
ATOM      5  C   UNL     1      17.465  -6.727   8.029  1.00  0.00     0.047 A 
ATOM      6  C   UNL     1      17.890  -6.822   9.360  1.00  0.00     0.115 A 
ENDROOT
BRANCH   1   7
ATOM      7  C   UNL     1      16.629 -10.372   7.288  1.00  0.00     0.010 C 
ATOM      8  C   UNL     1      17.329 -11.515   7.295  1.00  0.00     0.025 C 
BRANCH   8   9
ATOM      9  C   UNL     1      16.856 -12.732   6.613  1.00  0.00     0.064 C 
ATOM     10  O   UNL     1      17.665 -13.541   6.086  1.00  0.00    -0.545 OA
ATOM     11  O   UNL     1      15.493 -12.992   6.551  1.00  0.00    -0.545 OA
ENDBRANCH   8   9
ENDBRANCH   1   7
BRANCH   6  12
ATOM     12  O   UNL     1      18.305  -5.689  10.056  1.00  0.00    -0.508 OA
ATOM     13  H   UNL     1      18.830  -4.951   9.602  1.00  0.00     0.293 HD
ENDBRANCH   6  12
TORSDOF 3
ENDMDL
MODEL 8
REMARK VINA RESULT:    -4.048      1.578      5.825
REMARK INTER + INTRA:          -4.790
REMARK INTER:                  -4.653
REMARK INTRA:                  -0.137
REMARK UNBOUND:                -0.151
REMARK SMILES O=C([O-])C=Cc1ccc(O)cc1
REMARK SMILES IDX 6 1 7 2 12 3 8 4 11 5 9 6 5 7 4 8 2 9 1 10 3 11 10 12
REMARK H PARENT 10 13
REMARK Flexibility Score: inf
ROOT
ATOM      1  C   UNL     1      16.758  -5.945   8.825  1.00  0.00    -0.025 A 
ATOM      2  C   UNL     1      17.291  -4.741   9.317  1.00  0.00     0.012 A 
ATOM      3  C   UNL     1      15.542  -5.908   8.111  1.00  0.00     0.012 A 
ATOM      4  C   UNL     1      16.641  -3.526   9.080  1.00  0.00     0.047 A 
ATOM      5  C   UNL     1      14.897  -4.690   7.876  1.00  0.00     0.047 A 
ATOM      6  C   UNL     1      15.446  -3.496   8.358  1.00  0.00     0.115 A 
ENDROOT
BRANCH   1   7
ATOM      7  C   UNL     1      17.478  -7.210   9.111  1.00  0.00     0.010 C 
ATOM      8  C   UNL     1      16.887  -8.313   9.593  1.00  0.00     0.025 C 
BRANCH   8   9
ATOM      9  C   UNL     1      17.634  -9.555   9.854  1.00  0.00     0.064 C 
ATOM     10  O   UNL     1      18.363  -9.675  10.875  1.00  0.00    -0.545 OA
ATOM     11  O   UNL     1      17.533 -10.612   8.960  1.00  0.00    -0.545 OA
ENDBRANCH   8   9
ENDBRANCH   1   7
BRANCH   6  12
ATOM     12  O   UNL     1      14.810  -2.278   8.129  1.00  0.00    -0.508 OA
ATOM     13  H   UNL     1      14.554  -1.662   8.890  1.00  0.00     0.293 HD
ENDBRANCH   6  12
TORSDOF 3
ENDMDL
MODEL 9
REMARK VINA RESULT:    -3.997      2.182      6.128
REMARK INTER + INTRA:          -4.732
REMARK INTER:                  -4.596
REMARK INTRA:                  -0.136
REMARK UNBOUND:                -0.151
REMARK SMILES O=C([O-])C=Cc1ccc(O)cc1
REMARK SMILES IDX 6 1 7 2 12 3 8 4 11 5 9 6 5 7 4 8 2 9 1 10 3 11 10 12
REMARK H PARENT 10 13
REMARK Flexibility Score: inf
ROOT
ATOM      1  C   UNL     1      16.966  -9.907   8.348  1.00  0.00    -0.025 A 
ATOM      2  C   UNL     1      16.834  -8.735   7.584  1.00  0.00     0.012 A 
ATOM      3  C   UNL     1      17.550  -9.822   9.629  1.00  0.00     0.012 A 
ATOM      4  C   UNL     1      17.251  -7.502   8.096  1.00  0.00     0.047 A 
ATOM      5  C   UNL     1      17.965  -8.586  10.136  1.00  0.00     0.047 A 
ATOM      6  C   UNL     1      17.814  -7.423   9.371  1.00  0.00     0.115 A 
ENDROOT
BRANCH   1   7
ATOM      7  C   UNL     1      16.519 -11.193   7.759  1.00  0.00     0.010 C 
ATOM      8  C   UNL     1      15.232 -11.525   7.582  1.00  0.00     0.025 C 
BRANCH   8   9
ATOM      9  C   UNL     1      14.827 -12.808   6.983  1.00  0.00     0.064 C 
ATOM     10  O   UNL     1      13.975 -12.856   6.056  1.00  0.00    -0.545 OA
ATOM     11  O   UNL     1      15.393 -13.987   7.449  1.00  0.00    -0.545 OA
ENDBRANCH   8   9
ENDBRANCH   1   7
BRANCH   6  12
ATOM     12  O   UNL     1      18.224  -6.188   9.868  1.00  0.00    -0.508 OA
ATOM     13  H   UNL     1      18.054  -5.329   9.359  1.00  0.00     0.293 HD
ENDBRANCH   6  12
TORSDOF 3
ENDMDL
