MODEL 1
REMARK VINA RESULT:    -2.723      0.000      0.000
REMARK INTER + INTRA:          -2.802
REMARK INTER:                  -2.802
REMARK INTRA:                   0.000
REMARK UNBOUND:                 0.000
REMARK SMILES CC1(C)[C@@H]2CC[C@@](C)(C2)[C@H]1O
REMARK SMILES IDX 1 1 2 2 4 3 5 4 6 5 7 6 9 7 10 8 8 9 3 10 11 11
REMARK H PARENT 11 12
REMARK Flexibility Score: inf
ROOT
ATOM      1  C   UNL     1     116.350 109.903 108.776  1.00  0.00     0.014 C 
ATOM      2  C   UNL     1     117.848 110.166 108.488  1.00  0.00    -0.006 C 
ATOM      3  C   UNL     1     118.353 109.515 107.155  1.00  0.00    -0.002 C 
ATOM      4  C   UNL     1     117.919 108.037 107.051  1.00  0.00     0.005 C 
ATOM      5  C   UNL     1     118.746 107.362 108.156  1.00  0.00     0.010 C 
ATOM      6  C   UNL     1     119.630 108.519 108.677  1.00  0.00    -0.006 C 
ATOM      7  C   UNL     1     119.838 109.336 107.421  1.00  0.00     0.013 C 
ATOM      8  C   UNL     1     118.761 109.463 109.551  1.00  0.00     0.126 C 
ATOM      9  C   UNL     1     120.929 108.038 109.338  1.00  0.00     0.014 C 
ATOM     10  C   UNL     1     118.042 111.704 108.422  1.00  0.00     0.014 C 
ENDROOT
BRANCH   8  11
ATOM     11  O   UNL     1     119.571 110.379 110.246  1.00  0.00    -0.392 OA
ATOM     12  H   UNL     1     120.265 110.686 109.606  1.00  0.00     0.211 HD
ENDBRANCH   8  11
TORSDOF 1
ENDMDL
MODEL 2
REMARK VINA RESULT:    -2.718     12.272     14.807
REMARK INTER + INTRA:          -2.797
REMARK INTER:                  -2.797
REMARK INTRA:                   0.000
REMARK UNBOUND:                 0.000
REMARK SMILES CC1(C)[C@@H]2CC[C@@](C)(C2)[C@H]1O
REMARK SMILES IDX 1 1 2 2 4 3 5 4 6 5 7 6 9 7 10 8 8 9 3 10 11 11
REMARK H PARENT 11 12
REMARK Flexibility Score: inf
ROOT
ATOM      1  C   UNL     1     115.655 122.083 108.782  1.00  0.00     0.014 C 
ATOM      2  C   UNL     1     114.158 121.812 108.495  1.00  0.00    -0.006 C 
ATOM      3  C   UNL     1     113.653 122.445 107.154  1.00  0.00    -0.002 C 
ATOM      4  C   UNL     1     114.083 123.923 107.034  1.00  0.00     0.005 C 
ATOM      5  C   UNL     1     113.252 124.609 108.129  1.00  0.00     0.010 C 
ATOM      6  C   UNL     1     112.371 123.456 108.662  1.00  0.00    -0.006 C 
ATOM      7  C   UNL     1     112.168 122.623 107.416  1.00  0.00     0.013 C 
ATOM      8  C   UNL     1     113.242 122.525 109.549  1.00  0.00     0.126 C 
ATOM      9  C   UNL     1     111.070 123.941 109.316  1.00  0.00     0.014 C 
ATOM     10  C   UNL     1     113.968 120.272 108.448  1.00  0.00     0.014 C 
ENDROOT
BRANCH   8  11
ATOM     11  O   UNL     1     112.433 121.615 110.253  1.00  0.00    -0.392 OA
ATOM     12  H   UNL     1     113.036 121.105 110.854  1.00  0.00     0.211 HD
ENDBRANCH   8  11
TORSDOF 1
ENDMDL
MODEL 3
REMARK VINA RESULT:    -2.715      8.655     10.473
REMARK INTER + INTRA:          -2.794
REMARK INTER:                  -2.794
REMARK INTRA:                   0.000
REMARK UNBOUND:                 0.000
REMARK SMILES CC1(C)[C@@H]2CC[C@@](C)(C2)[C@H]1O
REMARK SMILES IDX 1 1 2 2 4 3 5 4 6 5 7 6 9 7 10 8 8 9 3 10 11 11
REMARK H PARENT 11 12
REMARK Flexibility Score: inf
ROOT
ATOM      1  C   UNL     1     109.933 115.606 108.751  1.00  0.00     0.014 C 
ATOM      2  C   UNL     1     110.177 114.104 108.471  1.00  0.00    -0.006 C 
ATOM      3  C   UNL     1     109.508 113.597 107.148  1.00  0.00    -0.002 C 
ATOM      4  C   UNL     1     108.034 114.046 107.056  1.00  0.00     0.005 C 
ATOM      5  C   UNL     1     107.361 113.233 108.172  1.00  0.00     0.010 C 
ATOM      6  C   UNL     1     108.514 112.341 108.688  1.00  0.00    -0.006 C 
ATOM      7  C   UNL     1     109.316 112.116 107.425  1.00  0.00     0.013 C 
ATOM      8  C   UNL     1     109.476 113.206 109.547  1.00  0.00     0.126 C 
ATOM      9  C   UNL     1     108.026 111.052 109.363  1.00  0.00     0.014 C 
ATOM     10  C   UNL     1     111.713 113.893 108.391  1.00  0.00     0.014 C 
ENDROOT
BRANCH   8  11
ATOM     11  O   UNL     1     110.390 112.390 110.238  1.00  0.00    -0.392 OA
ATOM     12  H   UNL     1     110.086 112.360 111.183  1.00  0.00     0.211 HD
ENDBRANCH   8  11
TORSDOF 1
ENDMDL
MODEL 4
REMARK VINA RESULT:    -2.713      8.718     10.512
REMARK INTER + INTRA:          -2.793
REMARK INTER:                  -2.793
REMARK INTRA:                   0.000
REMARK UNBOUND:                 0.000
REMARK SMILES CC1(C)[C@@H]2CC[C@@](C)(C2)[C@H]1O
REMARK SMILES IDX 1 1 2 2 4 3 5 4 6 5 7 6 9 7 10 8 8 9 3 10 11 11
REMARK H PARENT 11 12
REMARK Flexibility Score: inf
ROOT
ATOM      1  C   UNL     1     122.067 116.391 108.774  1.00  0.00     0.014 C 
ATOM      2  C   UNL     1     121.812 117.892 108.492  1.00  0.00    -0.006 C 
ATOM      3  C   UNL     1     122.453 118.395 107.154  1.00  0.00    -0.002 C 
ATOM      4  C   UNL     1     123.927 117.951 107.035  1.00  0.00     0.005 C 
ATOM      5  C   UNL     1     124.619 118.770 108.134  1.00  0.00     0.010 C 
ATOM      6  C   UNL     1     123.474 119.661 108.669  1.00  0.00    -0.006 C 
ATOM      7  C   UNL     1     122.646 119.878 107.423  1.00  0.00     0.013 C 
ATOM      8  C   UNL     1     122.533 118.796 109.551  1.00  0.00     0.126 C 
ATOM      9  C   UNL     1     123.971 120.954 109.330  1.00  0.00     0.014 C 
ATOM     10  C   UNL     1     120.275 118.097 108.443  1.00  0.00     0.014 C 
ENDROOT
BRANCH   8  11
ATOM     11  O   UNL     1     121.630 119.611 110.257  1.00  0.00    -0.392 OA
ATOM     12  H   UNL     1     121.838 119.496 111.221  1.00  0.00     0.211 HD
ENDBRANCH   8  11
TORSDOF 1
ENDMDL
MODEL 5
REMARK VINA RESULT:    -2.690      8.497     10.006
REMARK INTER + INTRA:          -2.769
REMARK INTER:                  -2.769
REMARK INTRA:                   0.000
REMARK UNBOUND:                 0.000
REMARK SMILES CC1(C)[C@@H]2CC[C@@](C)(C2)[C@H]1O
REMARK SMILES IDX 1 1 2 2 4 3 5 4 6 5 7 6 9 7 10 8 8 9 3 10 11 11
REMARK H PARENT 11 12
REMARK Flexibility Score: inf
ROOT
ATOM      1  C   UNL     1     124.349 116.987 107.678  1.00  0.00     0.014 C 
ATOM      2  C   UNL     1     122.879 117.386 107.401  1.00  0.00    -0.006 C 
ATOM      3  C   UNL     1     122.677 118.925 107.185  1.00  0.00    -0.002 C 
ATOM      4  C   UNL     1     123.377 119.744 108.290  1.00  0.00     0.005 C 
ATOM      5  C   UNL     1     122.546 119.410 109.538  1.00  0.00     0.010 C 
ATOM      6  C   UNL     1     121.410 118.531 108.967  1.00  0.00    -0.006 C 
ATOM      7  C   UNL     1     121.226 119.123 107.588  1.00  0.00     0.013 C 
ATOM      8  C   UNL     1     121.975 117.119 108.653  1.00  0.00     0.126 C 
ATOM      9  C   UNL     1     120.142 118.542 109.832  1.00  0.00     0.014 C 
ATOM     10  C   UNL     1     122.424 116.618 106.131  1.00  0.00     0.014 C 
ENDROOT
BRANCH   8  11
ATOM     11  O   UNL     1     120.930 116.220 108.374  1.00  0.00    -0.392 OA
ATOM     12  H   UNL     1     120.117 116.768 108.218  1.00  0.00     0.211 HD
ENDBRANCH   8  11
TORSDOF 1
ENDMDL
MODEL 6
REMARK VINA RESULT:    -2.690      8.504     10.103
REMARK INTER + INTRA:          -2.769
REMARK INTER:                  -2.769
REMARK INTRA:                   0.000
REMARK UNBOUND:                 0.000
REMARK SMILES CC1(C)[C@@H]2CC[C@@](C)(C2)[C@H]1O
REMARK SMILES IDX 1 1 2 2 4 3 5 4 6 5 7 6 9 7 10 8 8 9 3 10 11 11
REMARK H PARENT 11 12
REMARK Flexibility Score: inf
ROOT
ATOM      1  C   UNL     1     107.680 115.003 107.707  1.00  0.00     0.014 C 
ATOM      2  C   UNL     1     109.145 114.597 107.419  1.00  0.00    -0.006 C 
ATOM      3  C   UNL     1     109.335 113.058 107.191  1.00  0.00    -0.002 C 
ATOM      4  C   UNL     1     108.636 112.237 108.295  1.00  0.00     0.005 C 
ATOM      5  C   UNL     1     109.477 112.556 109.541  1.00  0.00     0.010 C 
ATOM      6  C   UNL     1     110.616 113.432 108.969  1.00  0.00    -0.006 C 
ATOM      7  C   UNL     1     110.787 112.847 107.585  1.00  0.00     0.013 C 
ATOM      8  C   UNL     1     110.058 114.850 108.667  1.00  0.00     0.126 C 
ATOM      9  C   UNL     1     111.888 113.407 109.827  1.00  0.00     0.014 C 
ATOM     10  C   UNL     1     109.598 115.370 106.151  1.00  0.00     0.014 C 
ENDROOT
BRANCH   8  11
ATOM     11  O   UNL     1     111.107 115.744 108.388  1.00  0.00    -0.392 OA
ATOM     12  H   UNL     1     110.801 116.314 107.634  1.00  0.00     0.211 HD
ENDBRANCH   8  11
TORSDOF 1
ENDMDL
MODEL 7
REMARK VINA RESULT:    -2.685     12.222     13.968
REMARK INTER + INTRA:          -2.764
REMARK INTER:                  -2.764
REMARK INTRA:                   0.000
REMARK UNBOUND:                 0.000
REMARK SMILES CC1(C)[C@@H]2CC[C@@](C)(C2)[C@H]1O
REMARK SMILES IDX 1 1 2 2 4 3 5 4 6 5 7 6 9 7 10 8 8 9 3 10 11 11
REMARK H PARENT 11 12
REMARK Flexibility Score: inf
ROOT
ATOM      1  C   UNL     1     115.014 124.333 107.710  1.00  0.00     0.014 C 
ATOM      2  C   UNL     1     114.607 122.869 107.416  1.00  0.00    -0.006 C 
ATOM      3  C   UNL     1     113.065 122.677 107.213  1.00  0.00    -0.002 C 
ATOM      4  C   UNL     1     112.260 123.364 108.336  1.00  0.00     0.005 C 
ATOM      5  C   UNL     1     112.603 122.514 109.569  1.00  0.00     0.010 C 
ATOM      6  C   UNL     1     113.472 121.382 108.973  1.00  0.00    -0.006 C 
ATOM      7  C   UNL     1     112.864 121.221 107.597  1.00  0.00     0.013 C 
ATOM      8  C   UNL     1     114.883 121.946 108.653  1.00  0.00     0.126 C 
ATOM      9  C   UNL     1     113.463 120.102 109.820  1.00  0.00     0.014 C 
ATOM     10  C   UNL     1     115.360 122.429 106.132  1.00  0.00     0.014 C 
ENDROOT
BRANCH   8  11
ATOM     11  O   UNL     1     115.774 120.901 108.349  1.00  0.00    -0.392 OA
ATOM     12  H   UNL     1     116.514 120.959 109.009  1.00  0.00     0.211 HD
ENDBRANCH   8  11
TORSDOF 1
ENDMDL
MODEL 8
REMARK VINA RESULT:    -2.684      1.627      2.730
REMARK INTER + INTRA:          -2.763
REMARK INTER:                  -2.763
REMARK INTRA:                   0.000
REMARK UNBOUND:                 0.000
REMARK SMILES CC1(C)[C@@H]2CC[C@@](C)(C2)[C@H]1O
REMARK SMILES IDX 1 1 2 2 4 3 5 4 6 5 7 6 9 7 10 8 8 9 3 10 11 11
REMARK H PARENT 11 12
REMARK Flexibility Score: inf
ROOT
ATOM      1  C   UNL     1     116.990 107.667 107.707  1.00  0.00     0.014 C 
ATOM      2  C   UNL     1     117.376 109.140 107.429  1.00  0.00    -0.006 C 
ATOM      3  C   UNL     1     118.913 109.355 107.216  1.00  0.00    -0.002 C 
ATOM      4  C   UNL     1     119.736 108.664 108.324  1.00  0.00     0.005 C 
ATOM      5  C   UNL     1     119.392 109.494 109.571  1.00  0.00     0.010 C 
ATOM      6  C   UNL     1     118.504 110.622 108.996  1.00  0.00    -0.006 C 
ATOM      7  C   UNL     1     119.098 110.808 107.618  1.00  0.00     0.013 C 
ATOM      8  C   UNL     1     117.097 110.044 108.680  1.00  0.00     0.126 C 
ATOM      9  C   UNL     1     118.502 111.890 109.859  1.00  0.00     0.014 C 
ATOM     10  C   UNL     1     116.607 109.587 106.157  1.00  0.00     0.014 C 
ENDROOT
BRANCH   8  11
ATOM     11  O   UNL     1     116.190 111.080 108.396  1.00  0.00    -0.392 OA
ATOM     12  H   UNL     1     116.547 111.562 107.606  1.00  0.00     0.211 HD
ENDBRANCH   8  11
TORSDOF 1
ENDMDL
MODEL 9
REMARK VINA RESULT:    -2.521      1.359      3.254
REMARK INTER + INTRA:          -2.595
REMARK INTER:                  -2.595
REMARK INTRA:                   0.000
REMARK UNBOUND:                 0.000
REMARK SMILES CC1(C)[C@@H]2CC[C@@](C)(C2)[C@H]1O
REMARK SMILES IDX 1 1 2 2 4 3 5 4 6 5 7 6 9 7 10 8 8 9 3 10 11 11
REMARK H PARENT 11 12
REMARK Flexibility Score: inf
ROOT
ATOM      1  C   UNL     1     121.091 107.282 107.308  1.00  0.00     0.014 C 
ATOM      2  C   UNL     1     119.802 107.575 108.113  1.00  0.00    -0.006 C 
ATOM      3  C   UNL     1     118.597 108.032 107.220  1.00  0.00    -0.002 C 
ATOM      4  C   UNL     1     119.018 109.143 106.235  1.00  0.00     0.005 C 
ATOM      5  C   UNL     1     119.292 110.336 107.164  1.00  0.00     0.010 C 
ATOM      6  C   UNL     1     118.887 109.787 108.552  1.00  0.00    -0.006 C 
ATOM      7  C   UNL     1     117.760 108.844 108.193  1.00  0.00     0.013 C 
ATOM      8  C   UNL     1     119.991 108.816 109.052  1.00  0.00     0.126 C 
ATOM      9  C   UNL     1     118.495 110.888 109.547  1.00  0.00     0.014 C 
ATOM     10  C   UNL     1     119.424 106.274 108.870  1.00  0.00     0.014 C 
ENDROOT
BRANCH   8  11
ATOM     11  O   UNL     1     119.789 108.494 110.406  1.00  0.00    -0.392 OA
ATOM     12  H   UNL     1     119.730 107.505 110.457  1.00  0.00     0.211 HD
ENDBRANCH   8  11
TORSDOF 1
ENDMDL
