MODEL 1
REMARK VINA RESULT:     5.130      0.000      0.000
REMARK INTER + INTRA:           7.787
REMARK INTER:                   8.129
REMARK INTRA:                  -0.342
REMARK UNBOUND:                -0.342
REMARK SMILES CCCCCCCCCCCC(=O)[O-]
REMARK SMILES IDX 7 1 8 2 9 3 10 4 11 5 12 6 13 7 14 8 6 9 5 10 4 11 3 12 2 13
REMARK SMILES IDX 1 14
REMARK H PARENT
REMARK Flexibility Score: inf
ROOT
ATOM      1  C   UNL     1       2.910   7.648  -3.299  1.00  0.00     0.000 C 
ENDROOT
BRANCH   1   2
ATOM      2  C   UNL     1       1.495   7.052  -3.262  1.00  0.00     0.000 C 
BRANCH   2   3
ATOM      3  C   UNL     1       0.470   7.911  -4.018  1.00  0.00     0.000 C 
BRANCH   3   4
ATOM      4  C   UNL     1       1.108   8.747  -5.137  1.00  0.00     0.006 C 
BRANCH   4   5
ATOM      5  C   UNL     1       0.296   8.643  -6.431  1.00  0.00     0.053 C 
BRANCH   5   6
ATOM      6  C   UNL     1       1.201   8.429  -7.602  1.00  0.00     0.041 C 
ATOM      7  O   UNL     1       0.754   7.914  -8.661  1.00  0.00    -0.550 OA
ATOM      8  O   UNL     1       2.548   8.753  -7.510  1.00  0.00    -0.550 OA
ENDBRANCH   5   6
ENDBRANCH   4   5
ENDBRANCH   3   4
ENDBRANCH   2   3
ENDBRANCH   1   2
BRANCH   1   9
ATOM      9  C   UNL     1       3.728   7.195  -2.083  1.00  0.00     0.000 C 
BRANCH   9  10
ATOM     10  C   UNL     1       5.187   7.653  -2.199  1.00  0.00    -0.000 C 
BRANCH  10  11
ATOM     11  C   UNL     1       6.093   6.494  -2.646  1.00  0.00    -0.000 C 
BRANCH  11  12
ATOM     12  C   UNL     1       5.310   5.354  -3.314  1.00  0.00    -0.000 C 
BRANCH  12  13
ATOM     13  C   UNL     1       6.173   4.533  -4.284  1.00  0.00    -0.003 C 
ATOM     14  C   UNL     1       6.760   3.306  -3.592  1.00  0.00     0.004 C 
ENDBRANCH  12  13
ENDBRANCH  11  12
ENDBRANCH  10  11
ENDBRANCH   9  10
ENDBRANCH   1   9
TORSDOF 10
ENDMDL
MODEL 2
REMARK VINA RESULT:     5.908      2.619      6.062
REMARK INTER + INTRA:           9.019
REMARK INTER:                   9.293
REMARK INTRA:                  -0.274
REMARK UNBOUND:                -0.342
REMARK SMILES CCCCCCCCCCCC(=O)[O-]
REMARK SMILES IDX 7 1 8 2 9 3 10 4 11 5 12 6 13 7 14 8 6 9 5 10 4 11 3 12 2 13
REMARK SMILES IDX 1 14
REMARK H PARENT
REMARK Flexibility Score: inf
ROOT
ATOM      1  C   UNL     1       2.923   7.698  -3.332  1.00  0.00     0.000 C 
ENDROOT
BRANCH   1   2
ATOM      2  C   UNL     1       3.713   7.331  -2.068  1.00  0.00     0.000 C 
BRANCH   2   3
ATOM      3  C   UNL     1       5.203   7.692  -2.174  1.00  0.00     0.000 C 
BRANCH   3   4
ATOM      4  C   UNL     1       6.069   6.512  -2.638  1.00  0.00     0.006 C 
BRANCH   4   5
ATOM      5  C   UNL     1       5.205   5.408  -3.256  1.00  0.00     0.053 C 
BRANCH   5   6
ATOM      6  C   UNL     1       6.021   4.558  -4.177  1.00  0.00     0.041 C 
ATOM      7  O   UNL     1       5.938   4.716  -5.423  1.00  0.00    -0.550 OA
ATOM      8  O   UNL     1       6.838   3.559  -3.663  1.00  0.00    -0.550 OA
ENDBRANCH   5   6
ENDBRANCH   4   5
ENDBRANCH   3   4
ENDBRANCH   2   3
ENDBRANCH   1   2
BRANCH   1   9
ATOM      9  C   UNL     1       1.533   7.051  -3.318  1.00  0.00     0.000 C 
BRANCH   9  10
ATOM     10  C   UNL     1       0.450   8.064  -3.710  1.00  0.00    -0.000 C 
BRANCH  10  11
ATOM     11  C   UNL     1       0.182   8.025  -5.222  1.00  0.00    -0.000 C 
BRANCH  11  12
ATOM     12  C   UNL     1       0.943   9.120  -5.986  1.00  0.00    -0.000 C 
BRANCH  12  13
ATOM     13  C   UNL     1       1.625   8.589  -7.256  1.00  0.00    -0.003 C 
ATOM     14  C   UNL     1       0.596   8.074  -8.258  1.00  0.00     0.004 C 
ENDBRANCH  12  13
ENDBRANCH  11  12
ENDBRANCH  10  11
ENDBRANCH   9  10
ENDBRANCH   1   9
TORSDOF 10
ENDMDL
MODEL 3
REMARK VINA RESULT:     6.326      0.711      1.586
REMARK INTER + INTRA:           9.682
REMARK INTER:                  10.194
REMARK INTRA:                  -0.511
REMARK UNBOUND:                -0.342
REMARK SMILES CCCCCCCCCCCC(=O)[O-]
REMARK SMILES IDX 7 1 8 2 9 3 10 4 11 5 12 6 13 7 14 8 6 9 5 10 4 11 3 12 2 13
REMARK SMILES IDX 1 14
REMARK H PARENT
REMARK Flexibility Score: inf
ROOT
ATOM      1  C   UNL     1       1.312   7.186  -2.802  1.00  0.00     0.000 C 
ENDROOT
BRANCH   1   2
ATOM      2  C   UNL     1       0.478   7.318  -4.085  1.00  0.00     0.000 C 
BRANCH   2   3
ATOM      3  C   UNL     1       0.241   8.781  -4.490  1.00  0.00     0.000 C 
BRANCH   3   4
ATOM      4  C   UNL     1       0.446   9.022  -5.993  1.00  0.00     0.006 C 
BRANCH   4   5
ATOM      5  C   UNL     1       1.888   8.713  -6.406  1.00  0.00     0.053 C 
BRANCH   5   6
ATOM      6  C   UNL     1       2.005   8.658  -7.896  1.00  0.00     0.041 C 
ATOM      7  O   UNL     1       3.041   9.093  -8.465  1.00  0.00    -0.550 OA
ATOM      8  O   UNL     1       0.953   8.172  -8.661  1.00  0.00    -0.550 OA
ENDBRANCH   5   6
ENDBRANCH   4   5
ENDBRANCH   3   4
ENDBRANCH   2   3
ENDBRANCH   1   2
BRANCH   1   9
ATOM      9  C   UNL     1       2.774   7.570  -3.056  1.00  0.00     0.000 C 
BRANCH   9  10
ATOM     10  C   UNL     1       3.693   6.989  -1.974  1.00  0.00    -0.000 C 
BRANCH  10  11
ATOM     11  C   UNL     1       5.124   7.528  -2.120  1.00  0.00    -0.000 C 
BRANCH  11  12
ATOM     12  C   UNL     1       6.054   6.548  -2.852  1.00  0.00    -0.000 C 
BRANCH  12  13
ATOM     13  C   UNL     1       5.329   5.272  -3.306  1.00  0.00    -0.003 C 
ATOM     14  C   UNL     1       6.128   4.538  -4.378  1.00  0.00     0.004 C 
ENDBRANCH  12  13
ENDBRANCH  11  12
ENDBRANCH  10  11
ENDBRANCH   9  10
ENDBRANCH   1   9
TORSDOF 10
ENDMDL
MODEL 4
REMARK VINA RESULT:     6.400      1.174      2.268
REMARK INTER + INTRA:           9.800
REMARK INTER:                  10.333
REMARK INTRA:                  -0.533
REMARK UNBOUND:                -0.342
REMARK SMILES CCCCCCCCCCCC(=O)[O-]
REMARK SMILES IDX 7 1 8 2 9 3 10 4 11 5 12 6 13 7 14 8 6 9 5 10 4 11 3 12 2 13
REMARK SMILES IDX 1 14
REMARK H PARENT
REMARK Flexibility Score: inf
ROOT
ATOM      1  C   UNL     1       4.718   7.698  -2.134  1.00  0.00     0.000 C 
ENDROOT
BRANCH   1   2
ATOM      2  C   UNL     1       3.347   7.053  -2.386  1.00  0.00     0.000 C 
BRANCH   2   3
ATOM      3  C   UNL     1       2.610   7.678  -3.582  1.00  0.00     0.000 C 
BRANCH   3   4
ATOM      4  C   UNL     1       1.083   7.625  -3.430  1.00  0.00     0.006 C 
BRANCH   4   5
ATOM      5  C   UNL     1       0.396   7.606  -4.799  1.00  0.00     0.053 C 
BRANCH   5   6
ATOM      6  C   UNL     1       0.837   8.775  -5.622  1.00  0.00     0.041 C 
ATOM      7  O   UNL     1       0.450   9.937  -5.329  1.00  0.00    -0.550 OA
ATOM      8  O   UNL     1       1.635   8.577  -6.741  1.00  0.00    -0.550 OA
ENDBRANCH   5   6
ENDBRANCH   4   5
ENDBRANCH   3   4
ENDBRANCH   2   3
ENDBRANCH   1   2
BRANCH   1   9
ATOM      9  C   UNL     1       5.844   6.838  -2.721  1.00  0.00     0.000 C 
BRANCH   9  10
ATOM     10  C   UNL     1       5.348   5.423  -3.043  1.00  0.00    -0.000 C 
BRANCH  10  11
ATOM     11  C   UNL     1       5.852   4.964  -4.420  1.00  0.00    -0.000 C 
BRANCH  11  12
ATOM     12  C   UNL     1       6.716   3.696  -4.341  1.00  0.00    -0.000 C 
BRANCH  12  13
ATOM     13  C   UNL     1       6.984   3.253  -2.895  1.00  0.00    -0.003 C 
ATOM     14  C   UNL     1       7.243   1.750  -2.821  1.00  0.00     0.004 C 
ENDBRANCH  12  13
ENDBRANCH  11  12
ENDBRANCH  10  11
ENDBRANCH   9  10
ENDBRANCH   1   9
TORSDOF 10
ENDMDL
MODEL 5
REMARK VINA RESULT:     7.736      3.160      6.795
REMARK INTER + INTRA:          11.916
REMARK INTER:                  12.217
REMARK INTRA:                  -0.301
REMARK UNBOUND:                -0.342
REMARK SMILES CCCCCCCCCCCC(=O)[O-]
REMARK SMILES IDX 7 1 8 2 9 3 10 4 11 5 12 6 13 7 14 8 6 9 5 10 4 11 3 12 2 13
REMARK SMILES IDX 1 14
REMARK H PARENT
REMARK Flexibility Score: inf
ROOT
ATOM      1  C   UNL     1       0.201   8.010  -4.939  1.00  0.00     0.000 C 
ENDROOT
BRANCH   1   2
ATOM      2  C   UNL     1       0.543   7.909  -3.445  1.00  0.00     0.000 C 
BRANCH   2   3
ATOM      3  C   UNL     1       1.680   6.915  -3.164  1.00  0.00     0.000 C 
BRANCH   3   4
ATOM      4  C   UNL     1       3.070   7.562  -3.256  1.00  0.00     0.006 C 
BRANCH   4   5
ATOM      5  C   UNL     1       3.903   7.252  -2.008  1.00  0.00     0.053 C 
BRANCH   5   6
ATOM      6  C   UNL     1       5.362   7.268  -2.336  1.00  0.00     0.041 C 
ATOM      7  O   UNL     1       6.066   8.269  -2.040  1.00  0.00    -0.550 OA
ATOM      8  O   UNL     1       5.936   6.198  -3.010  1.00  0.00    -0.550 OA
ENDBRANCH   5   6
ENDBRANCH   4   5
ENDBRANCH   3   4
ENDBRANCH   2   3
ENDBRANCH   1   2
BRANCH   1   9
ATOM      9  C   UNL     1       1.100   9.036  -5.640  1.00  0.00     0.000 C 
BRANCH   9  10
ATOM     10  C   UNL     1       1.425   8.597  -7.073  1.00  0.00    -0.000 C 
BRANCH  10  11
ATOM     11  C   UNL     1       0.139   8.373  -7.884  1.00  0.00    -0.000 C 
BRANCH  11  12
ATOM     12  C   UNL     1       0.419   7.945  -9.332  1.00  0.00    -0.000 C 
BRANCH  12  13
ATOM     13  C   UNL     1      -0.639   8.464 -10.317  1.00  0.00    -0.003 C 
ATOM     14  C   UNL     1      -0.578   7.705 -11.639  1.00  0.00     0.004 C 
ENDBRANCH  12  13
ENDBRANCH  11  12
ENDBRANCH  10  11
ENDBRANCH   9  10
ENDBRANCH   1   9
TORSDOF 10
ENDMDL
