MODEL 1
REMARK VINA RESULT:    -4.722      0.000      0.000
REMARK INTER + INTRA:         -16.209
REMARK INTER:                 -12.450
REMARK INTRA:                  -3.759
REMARK UNBOUND:                -3.759
REMARK SMILES CCCCCCCCCCCCCCCCCCCCCCCCCCCCCC(=O)[O-]
REMARK SMILES IDX 16 1 17 2 18 3 19 4 20 5 21 6 22 7 23 8 24 9 25 10 26 11
REMARK SMILES IDX 27 12 28 13 29 14 30 15 31 16 32 17 15 18 14 19 13 20 12 21
REMARK SMILES IDX 11 22 10 23 9 24 8 25 7 26 6 27 5 28 4 29 3 30 2 31 1 32
REMARK H PARENT
REMARK Flexibility Score: inf
ROOT
ATOM      1  C   UNL     1       7.873  60.918  55.662  1.00  0.00     0.000 C 
ENDROOT
BRANCH   1   2
ATOM      2  C   UNL     1       7.569  59.619  56.429  1.00  0.00     0.000 C 
BRANCH   2   3
ATOM      3  C   UNL     1       6.230  59.674  57.187  1.00  0.00     0.000 C 
BRANCH   3   4
ATOM      4  C   UNL     1       5.302  60.839  56.786  1.00  0.00     0.000 C 
BRANCH   4   5
ATOM      5  C   UNL     1       4.481  61.451  57.938  1.00  0.00     0.000 C 
BRANCH   5   6
ATOM      6  C   UNL     1       5.264  62.410  58.853  1.00  0.00     0.000 C 
BRANCH   6   7
ATOM      7  C   UNL     1       5.673  61.754  60.184  1.00  0.00     0.000 C 
BRANCH   7   8
ATOM      8  C   UNL     1       7.196  61.749  60.404  1.00  0.00     0.000 C 
BRANCH   8   9
ATOM      9  C   UNL     1       8.023  62.284  59.218  1.00  0.00     0.000 C 
BRANCH   9  10
ATOM     10  C   UNL     1       9.550  62.270  59.425  1.00  0.00     0.000 C 
BRANCH  10  11
ATOM     11  C   UNL     1      10.308  63.434  58.760  1.00  0.00     0.000 C 
BRANCH  11  12
ATOM     12  C   UNL     1       9.375  64.428  58.054  1.00  0.00     0.000 C 
BRANCH  12  13
ATOM     13  C   UNL     1      10.102  65.132  56.898  1.00  0.00     0.006 C 
BRANCH  13  14
ATOM     14  C   UNL     1      10.628  64.142  55.849  1.00  0.00     0.053 C 
BRANCH  14  15
ATOM     15  C   UNL     1      11.354  64.833  54.737  1.00  0.00     0.041 C 
ATOM     16  O   UNL     1      11.399  64.316  53.589  1.00  0.00    -0.550 OA
ATOM     17  O   UNL     1      11.966  66.061  54.964  1.00  0.00    -0.550 OA
ENDBRANCH  14  15
ENDBRANCH  13  14
ENDBRANCH  12  13
ENDBRANCH  11  12
ENDBRANCH  10  11
ENDBRANCH   9  10
ENDBRANCH   8   9
ENDBRANCH   7   8
ENDBRANCH   6   7
ENDBRANCH   5   6
ENDBRANCH   4   5
ENDBRANCH   3   4
ENDBRANCH   2   3
ENDBRANCH   1   2
BRANCH   1  18
ATOM     18  C   UNL     1       8.123  60.677  54.158  1.00  0.00     0.000 C 
BRANCH  18  19
ATOM     19  C   UNL     1       9.183  61.612  53.543  1.00  0.00     0.000 C 
BRANCH  19  20
ATOM     20  C   UNL     1       9.034  61.873  52.032  1.00  0.00     0.000 C 
BRANCH  20  21
ATOM     21  C   UNL     1       7.584  62.062  51.547  1.00  0.00     0.000 C 
BRANCH  21  22
ATOM     22  C   UNL     1       7.482  62.160  50.017  1.00  0.00     0.000 C 
BRANCH  22  23
ATOM     23  C   UNL     1       8.857  62.283  49.335  1.00  0.00     0.000 C 
BRANCH  23  24
ATOM     24  C   UNL     1       9.030  63.523  48.433  1.00  0.00    -0.000 C 
BRANCH  24  25
ATOM     25  C   UNL     1       9.154  64.865  49.178  1.00  0.00    -0.000 C 
BRANCH  25  26
ATOM     26  C   UNL     1      10.235  64.848  50.269  1.00  0.00    -0.000 C 
BRANCH  26  27
ATOM     27  C   UNL     1      10.589  66.274  50.711  1.00  0.00    -0.000 C 
BRANCH  27  28
ATOM     28  C   UNL     1      11.914  66.773  50.110  1.00  0.00    -0.000 C 
BRANCH  28  29
ATOM     29  C   UNL     1      11.775  68.103  49.335  1.00  0.00    -0.000 C 
BRANCH  29  30
ATOM     30  C   UNL     1      11.929  67.935  47.807  1.00  0.00    -0.000 C 
BRANCH  30  31
ATOM     31  C   UNL     1      12.159  66.476  47.372  1.00  0.00    -0.003 C 
ATOM     32  C   UNL     1      11.203  66.023  46.272  1.00  0.00     0.004 C 
ENDBRANCH  30  31
ENDBRANCH  29  30
ENDBRANCH  28  29
ENDBRANCH  27  28
ENDBRANCH  26  27
ENDBRANCH  25  26
ENDBRANCH  24  25
ENDBRANCH  23  24
ENDBRANCH  22  23
ENDBRANCH  21  22
ENDBRANCH  20  21
ENDBRANCH  19  20
ENDBRANCH  18  19
ENDBRANCH   1  18
TORSDOF 28
ENDMDL
MODEL 2
REMARK VINA RESULT:    -4.661      1.685      4.805
REMARK INTER + INTRA:         -16.050
REMARK INTER:                 -11.856
REMARK INTRA:                  -4.193
REMARK UNBOUND:                -3.759
REMARK SMILES CCCCCCCCCCCCCCCCCCCCCCCCCCCCCC(=O)[O-]
REMARK SMILES IDX 16 1 17 2 18 3 19 4 20 5 21 6 22 7 23 8 24 9 25 10 26 11
REMARK SMILES IDX 27 12 28 13 29 14 30 15 31 16 32 17 15 18 14 19 13 20 12 21
REMARK SMILES IDX 11 22 10 23 9 24 8 25 7 26 6 27 5 28 4 29 3 30 2 31 1 32
REMARK H PARENT
REMARK Flexibility Score: inf
ROOT
ATOM      1  C   UNL     1       6.100  61.127  57.568  1.00  0.00     0.000 C 
ENDROOT
BRANCH   1   2
ATOM      2  C   UNL     1       5.964  61.402  59.077  1.00  0.00     0.000 C 
BRANCH   2   3
ATOM      3  C   UNL     1       7.261  61.944  59.704  1.00  0.00     0.000 C 
BRANCH   3   4
ATOM      4  C   UNL     1       8.256  62.568  58.704  1.00  0.00     0.000 C 
BRANCH   4   5
ATOM      5  C   UNL     1       9.741  62.254  58.973  1.00  0.00     0.000 C 
BRANCH   5   6
ATOM      6  C   UNL     1      10.739  63.164  58.233  1.00  0.00     0.000 C 
BRANCH   6   7
ATOM      7  C   UNL     1      10.343  63.407  56.767  1.00  0.00     0.000 C 
BRANCH   7   8
ATOM      8  C   UNL     1      10.165  64.900  56.435  1.00  0.00     0.000 C 
BRANCH   8   9
ATOM      9  C   UNL     1      10.994  65.399  55.234  1.00  0.00     0.000 C 
BRANCH   9  10
ATOM     10  C   UNL     1      11.371  64.318  54.204  1.00  0.00     0.000 C 
BRANCH  10  11
ATOM     11  C   UNL     1      11.563  64.829  52.764  1.00  0.00     0.000 C 
BRANCH  11  12
ATOM     12  C   UNL     1      10.259  64.836  51.954  1.00  0.00     0.000 C 
BRANCH  12  13
ATOM     13  C   UNL     1      10.352  65.821  50.779  1.00  0.00     0.006 C 
BRANCH  13  14
ATOM     14  C   UNL     1      11.804  66.134  50.392  1.00  0.00     0.053 C 
BRANCH  14  15
ATOM     15  C   UNL     1      12.032  67.602  50.202  1.00  0.00     0.041 C 
ATOM     16  O   UNL     1      12.161  68.360  51.201  1.00  0.00    -0.550 OA
ATOM     17  O   UNL     1      12.122  68.132  48.920  1.00  0.00    -0.550 OA
ENDBRANCH  14  15
ENDBRANCH  13  14
ENDBRANCH  12  13
ENDBRANCH  11  12
ENDBRANCH  10  11
ENDBRANCH   9  10
ENDBRANCH   8   9
ENDBRANCH   7   8
ENDBRANCH   6   7
ENDBRANCH   5   6
ENDBRANCH   4   5
ENDBRANCH   3   4
ENDBRANCH   2   3
ENDBRANCH   1   2
BRANCH   1  18
ATOM     18  C   UNL     1       6.216  59.622  57.246  1.00  0.00     0.000 C 
BRANCH  18  19
ATOM     19  C   UNL     1       7.511  59.240  56.504  1.00  0.00     0.000 C 
BRANCH  19  20
ATOM     20  C   UNL     1       8.263  60.411  55.844  1.00  0.00     0.000 C 
BRANCH  20  21
ATOM     21  C   UNL     1       7.983  60.595  54.340  1.00  0.00     0.000 C 
BRANCH  21  22
ATOM     22  C   UNL     1       9.005  61.520  53.659  1.00  0.00     0.000 C 
BRANCH  22  23
ATOM     23  C   UNL     1       8.719  61.720  52.160  1.00  0.00     0.000 C 
BRANCH  23  24
ATOM     24  C   UNL     1       7.226  61.697  51.771  1.00  0.00    -0.000 C 
BRANCH  24  25
ATOM     25  C   UNL     1       6.713  62.966  51.065  1.00  0.00    -0.000 C 
BRANCH  25  26
ATOM     26  C   UNL     1       7.582  63.383  49.871  1.00  0.00    -0.000 C 
BRANCH  26  27
ATOM     27  C   UNL     1       7.580  62.297  48.787  1.00  0.00    -0.000 C 
BRANCH  27  28
ATOM     28  C   UNL     1       8.972  62.058  48.178  1.00  0.00    -0.000 C 
BRANCH  28  29
ATOM     29  C   UNL     1       9.931  63.258  48.348  1.00  0.00    -0.000 C 
BRANCH  29  30
ATOM     30  C   UNL     1      10.237  63.985  47.020  1.00  0.00    -0.000 C 
BRANCH  30  31
ATOM     31  C   UNL     1       9.933  65.493  47.064  1.00  0.00    -0.003 C 
ATOM     32  C   UNL     1       8.495  65.802  47.473  1.00  0.00     0.004 C 
ENDBRANCH  30  31
ENDBRANCH  29  30
ENDBRANCH  28  29
ENDBRANCH  27  28
ENDBRANCH  26  27
ENDBRANCH  25  26
ENDBRANCH  24  25
ENDBRANCH  23  24
ENDBRANCH  22  23
ENDBRANCH  21  22
ENDBRANCH  20  21
ENDBRANCH  19  20
ENDBRANCH  18  19
ENDBRANCH   1  18
TORSDOF 28
ENDMDL
MODEL 3
REMARK VINA RESULT:    -4.572      1.795      5.431
REMARK INTER + INTRA:         -15.816
REMARK INTER:                 -12.153
REMARK INTRA:                  -3.663
REMARK UNBOUND:                -3.759
REMARK SMILES CCCCCCCCCCCCCCCCCCCCCCCCCCCCCC(=O)[O-]
REMARK SMILES IDX 16 1 17 2 18 3 19 4 20 5 21 6 22 7 23 8 24 9 25 10 26 11
REMARK SMILES IDX 27 12 28 13 29 14 30 15 31 16 32 17 15 18 14 19 13 20 12 21
REMARK SMILES IDX 11 22 10 23 9 24 8 25 7 26 6 27 5 28 4 29 3 30 2 31 1 32
REMARK H PARENT
REMARK Flexibility Score: inf
ROOT
ATOM      1  C   UNL     1       5.157  62.349  58.892  1.00  0.00     0.000 C 
ENDROOT
BRANCH   1   2
ATOM      2  C   UNL     1       5.986  61.916  60.115  1.00  0.00     0.000 C 
BRANCH   2   3
ATOM      3  C   UNL     1       7.482  61.753  59.793  1.00  0.00     0.000 C 
BRANCH   3   4
ATOM      4  C   UNL     1       8.006  62.657  58.658  1.00  0.00     0.000 C 
BRANCH   4   5
ATOM      5  C   UNL     1       9.437  63.197  58.857  1.00  0.00     0.000 C 
BRANCH   5   6
ATOM      6  C   UNL     1       9.715  64.554  58.185  1.00  0.00     0.000 C 
BRANCH   6   7
ATOM      7  C   UNL     1      10.157  64.408  56.718  1.00  0.00     0.000 C 
BRANCH   7   8
ATOM      8  C   UNL     1      10.753  65.705  56.142  1.00  0.00     0.000 C 
BRANCH   8   9
ATOM      9  C   UNL     1      11.557  65.525  54.839  1.00  0.00     0.000 C 
BRANCH   9  10
ATOM     10  C   UNL     1      11.193  64.277  54.011  1.00  0.00     0.000 C 
BRANCH  10  11
ATOM     11  C   UNL     1      10.542  64.568  52.647  1.00  0.00     0.000 C 
BRANCH  11  12
ATOM     12  C   UNL     1      11.484  65.298  51.679  1.00  0.00     0.000 C 
BRANCH  12  13
ATOM     13  C   UNL     1      10.686  66.145  50.676  1.00  0.00     0.006 C 
BRANCH  13  14
ATOM     14  C   UNL     1      11.035  67.637  50.763  1.00  0.00     0.053 C 
BRANCH  14  15
ATOM     15  C   UNL     1       9.864  68.509  50.425  1.00  0.00     0.041 C 
ATOM     16  O   UNL     1       9.986  69.763  50.423  1.00  0.00    -0.550 OA
ATOM     17  O   UNL     1       8.643  67.935  50.093  1.00  0.00    -0.550 OA
ENDBRANCH  14  15
ENDBRANCH  13  14
ENDBRANCH  12  13
ENDBRANCH  11  12
ENDBRANCH  10  11
ENDBRANCH   9  10
ENDBRANCH   8   9
ENDBRANCH   7   8
ENDBRANCH   6   7
ENDBRANCH   5   6
ENDBRANCH   4   5
ENDBRANCH   3   4
ENDBRANCH   2   3
ENDBRANCH   1   2
BRANCH   1  18
ATOM     18  C   UNL     1       4.499  61.156  58.167  1.00  0.00     0.000 C 
BRANCH  18  19
ATOM     19  C   UNL     1       5.237  60.718  56.887  1.00  0.00     0.000 C 
BRANCH  19  20
ATOM     20  C   UNL     1       6.225  59.549  57.065  1.00  0.00     0.000 C 
BRANCH  20  21
ATOM     21  C   UNL     1       7.608  59.766  56.421  1.00  0.00     0.000 C 
BRANCH  21  22
ATOM     22  C   UNL     1       7.662  61.034  55.553  1.00  0.00     0.000 C 
BRANCH  22  23
ATOM     23  C   UNL     1       8.948  61.124  54.712  1.00  0.00     0.000 C 
BRANCH  23  24
ATOM     24  C   UNL     1       8.729  61.417  53.213  1.00  0.00    -0.000 C 
BRANCH  24  25
ATOM     25  C   UNL     1       7.257  61.532  52.775  1.00  0.00    -0.000 C 
BRANCH  25  26
ATOM     26  C   UNL     1       7.097  61.890  51.291  1.00  0.00    -0.000 C 
BRANCH  26  27
ATOM     27  C   UNL     1       8.443  62.303  50.680  1.00  0.00    -0.000 C 
BRANCH  27  28
ATOM     28  C   UNL     1       8.549  61.963  49.184  1.00  0.00    -0.000 C 
BRANCH  28  29
ATOM     29  C   UNL     1       9.686  62.721  48.461  1.00  0.00    -0.000 C 
BRANCH  29  30
ATOM     30  C   UNL     1       9.285  64.148  48.027  1.00  0.00    -0.000 C 
BRANCH  30  31
ATOM     31  C   UNL     1      10.120  64.688  46.852  1.00  0.00    -0.003 C 
ATOM     32  C   UNL     1      10.317  66.201  46.904  1.00  0.00     0.004 C 
ENDBRANCH  30  31
ENDBRANCH  29  30
ENDBRANCH  28  29
ENDBRANCH  27  28
ENDBRANCH  26  27
ENDBRANCH  25  26
ENDBRANCH  24  25
ENDBRANCH  23  24
ENDBRANCH  22  23
ENDBRANCH  21  22
ENDBRANCH  20  21
ENDBRANCH  19  20
ENDBRANCH  18  19
ENDBRANCH   1  18
TORSDOF 28
ENDMDL
MODEL 4
REMARK VINA RESULT:    -4.525      2.114      9.778
REMARK INTER + INTRA:         -15.691
REMARK INTER:                 -12.408
REMARK INTRA:                  -3.282
REMARK UNBOUND:                -3.759
REMARK SMILES CCCCCCCCCCCCCCCCCCCCCCCCCCCCCC(=O)[O-]
REMARK SMILES IDX 16 1 17 2 18 3 19 4 20 5 21 6 22 7 23 8 24 9 25 10 26 11
REMARK SMILES IDX 27 12 28 13 29 14 30 15 31 16 32 17 15 18 14 19 13 20 12 21
REMARK SMILES IDX 11 22 10 23 9 24 8 25 7 26 6 27 5 28 4 29 3 30 2 31 1 32
REMARK H PARENT
REMARK Flexibility Score: inf
ROOT
ATOM      1  C   UNL     1      10.068  64.724  57.044  1.00  0.00     0.000 C 
ENDROOT
BRANCH   1   2
ATOM      2  C   UNL     1      10.580  64.060  55.753  1.00  0.00     0.000 C 
BRANCH   2   3
ATOM      3  C   UNL     1      11.146  65.077  54.745  1.00  0.00     0.000 C 
BRANCH   3   4
ATOM      4  C   UNL     1      11.574  64.480  53.389  1.00  0.00     0.000 C 
BRANCH   4   5
ATOM      5  C   UNL     1      10.613  64.760  52.216  1.00  0.00     0.000 C 
BRANCH   5   6
ATOM      6  C   UNL     1      11.286  65.313  50.947  1.00  0.00     0.000 C 
BRANCH   6   7
ATOM      7  C   UNL     1      10.997  66.809  50.729  1.00  0.00     0.000 C 
BRANCH   7   8
ATOM      8  C   UNL     1       9.988  67.064  49.594  1.00  0.00     0.000 C 
BRANCH   8   9
ATOM      9  C   UNL     1      10.067  66.065  48.422  1.00  0.00     0.000 C 
BRANCH   9  10
ATOM     10  C   UNL     1       8.773  65.276  48.144  1.00  0.00     0.000 C 
BRANCH  10  11
ATOM     11  C   UNL     1       8.981  63.872  47.550  1.00  0.00     0.000 C 
BRANCH  11  12
ATOM     12  C   UNL     1       9.677  62.909  48.522  1.00  0.00     0.000 C 
BRANCH  12  13
ATOM     13  C   UNL     1       8.672  61.909  49.112  1.00  0.00     0.006 C 
BRANCH  13  14
ATOM     14  C   UNL     1       8.329  62.219  50.576  1.00  0.00     0.053 C 
BRANCH  14  15
ATOM     15  C   UNL     1       6.854  62.374  50.788  1.00  0.00     0.041 C 
ATOM     16  O   UNL     1       6.162  63.041  49.974  1.00  0.00    -0.550 OA
ATOM     17  O   UNL     1       6.240  61.765  51.877  1.00  0.00    -0.550 OA
ENDBRANCH  14  15
ENDBRANCH  13  14
ENDBRANCH  12  13
ENDBRANCH  11  12
ENDBRANCH  10  11
ENDBRANCH   9  10
ENDBRANCH   8   9
ENDBRANCH   7   8
ENDBRANCH   6   7
ENDBRANCH   5   6
ENDBRANCH   4   5
ENDBRANCH   3   4
ENDBRANCH   2   3
ENDBRANCH   1   2
BRANCH   1  18
ATOM     18  C   UNL     1      10.131  63.780  58.264  1.00  0.00     0.000 C 
BRANCH  18  19
ATOM     19  C   UNL     1       9.030  62.702  58.277  1.00  0.00     0.000 C 
BRANCH  19  20
ATOM     20  C   UNL     1       8.586  62.231  59.675  1.00  0.00     0.000 C 
BRANCH  20  21
ATOM     21  C   UNL     1       7.077  61.963  59.820  1.00  0.00     0.000 C 
BRANCH  21  22
ATOM     22  C   UNL     1       6.735  61.183  61.099  1.00  0.00     0.000 C 
BRANCH  22  23
ATOM     23  C   UNL     1       5.487  60.296  60.940  1.00  0.00     0.000 C 
BRANCH  23  24
ATOM     24  C   UNL     1       4.229  61.025  60.423  1.00  0.00    -0.000 C 
BRANCH  24  25
ATOM     25  C   UNL     1       3.791  60.645  58.997  1.00  0.00    -0.000 C 
BRANCH  25  26
ATOM     26  C   UNL     1       4.391  61.560  57.920  1.00  0.00    -0.000 C 
BRANCH  26  27
ATOM     27  C   UNL     1       5.226  60.751  56.918  1.00  0.00    -0.000 C 
BRANCH  27  28
ATOM     28  C   UNL     1       5.624  59.366  57.455  1.00  0.00    -0.000 C 
BRANCH  28  29
ATOM     29  C   UNL     1       6.854  58.760  56.740  1.00  0.00    -0.000 C 
BRANCH  29  30
ATOM     30  C   UNL     1       7.910  59.816  56.349  1.00  0.00    -0.000 C 
BRANCH  30  31
ATOM     31  C   UNL     1       8.250  59.816  54.847  1.00  0.00    -0.003 C 
ATOM     32  C   UNL     1       8.651  61.193  54.325  1.00  0.00     0.004 C 
ENDBRANCH  30  31
ENDBRANCH  29  30
ENDBRANCH  28  29
ENDBRANCH  27  28
ENDBRANCH  26  27
ENDBRANCH  25  26
ENDBRANCH  24  25
ENDBRANCH  23  24
ENDBRANCH  22  23
ENDBRANCH  21  22
ENDBRANCH  20  21
ENDBRANCH  19  20
ENDBRANCH  18  19
ENDBRANCH   1  18
TORSDOF 28
ENDMDL
MODEL 5
REMARK VINA RESULT:    -4.519      2.372      6.304
REMARK INTER + INTRA:         -15.676
REMARK INTER:                 -11.977
REMARK INTRA:                  -3.699
REMARK UNBOUND:                -3.759
REMARK SMILES CCCCCCCCCCCCCCCCCCCCCCCCCCCCCC(=O)[O-]
REMARK SMILES IDX 16 1 17 2 18 3 19 4 20 5 21 6 22 7 23 8 24 9 25 10 26 11
REMARK SMILES IDX 27 12 28 13 29 14 30 15 31 16 32 17 15 18 14 19 13 20 12 21
REMARK SMILES IDX 11 22 10 23 9 24 8 25 7 26 6 27 5 28 4 29 3 30 2 31 1 32
REMARK H PARENT
REMARK Flexibility Score: inf
ROOT
ATOM      1  C   UNL     1       5.717  60.888  59.370  1.00  0.00     0.000 C 
ENDROOT
BRANCH   1   2
ATOM      2  C   UNL     1       5.365  61.542  58.022  1.00  0.00     0.000 C 
BRANCH   2   3
ATOM      3  C   UNL     1       5.465  60.561  56.839  1.00  0.00     0.000 C 
BRANCH   3   4
ATOM      4  C   UNL     1       6.276  59.280  57.123  1.00  0.00     0.000 C 
BRANCH   4   5
ATOM      5  C   UNL     1       7.621  59.175  56.376  1.00  0.00     0.000 C 
BRANCH   5   6
ATOM      6  C   UNL     1       8.129  60.495  55.769  1.00  0.00     0.000 C 
BRANCH   6   7
ATOM      7  C   UNL     1       8.240  60.436  54.236  1.00  0.00     0.000 C 
BRANCH   7   8
ATOM      8  C   UNL     1       8.970  61.655  53.642  1.00  0.00     0.000 C 
BRANCH   8   9
ATOM      9  C   UNL     1       8.922  61.752  52.104  1.00  0.00     0.000 C 
BRANCH   9  10
ATOM     10  C   UNL     1       7.508  61.847  51.497  1.00  0.00     0.000 C 
BRANCH  10  11
ATOM     11  C   UNL     1       7.213  63.151  50.734  1.00  0.00     0.000 C 
BRANCH  11  12
ATOM     12  C   UNL     1       7.590  63.071  49.248  1.00  0.00     0.000 C 
BRANCH  12  13
ATOM     13  C   UNL     1       8.742  64.034  48.925  1.00  0.00     0.006 C 
BRANCH  13  14
ATOM     14  C   UNL     1       9.983  63.305  48.393  1.00  0.00     0.053 C 
BRANCH  14  15
ATOM     15  C   UNL     1      10.081  63.374  46.900  1.00  0.00     0.041 C 
ATOM     16  O   UNL     1      10.383  64.457  46.332  1.00  0.00    -0.550 OA
ATOM     17  O   UNL     1       9.857  62.235  46.135  1.00  0.00    -0.550 OA
ENDBRANCH  14  15
ENDBRANCH  13  14
ENDBRANCH  12  13
ENDBRANCH  11  12
ENDBRANCH  10  11
ENDBRANCH   9  10
ENDBRANCH   8   9
ENDBRANCH   7   8
ENDBRANCH   6   7
ENDBRANCH   5   6
ENDBRANCH   4   5
ENDBRANCH   3   4
ENDBRANCH   2   3
ENDBRANCH   1   2
BRANCH   1  18
ATOM     18  C   UNL     1       6.863  61.616  60.103  1.00  0.00     0.000 C 
BRANCH  18  19
ATOM     19  C   UNL     1       7.831  62.362  59.165  1.00  0.00     0.000 C 
BRANCH  19  20
ATOM     20  C   UNL     1       9.316  62.305  59.569  1.00  0.00     0.000 C 
BRANCH  20  21
ATOM     21  C   UNL     1      10.288  62.945  58.560  1.00  0.00     0.000 C 
BRANCH  21  22
ATOM     22  C   UNL     1       9.578  63.443  57.292  1.00  0.00     0.000 C 
BRANCH  22  23
ATOM     23  C   UNL     1      10.550  63.691  56.124  1.00  0.00     0.000 C 
BRANCH  23  24
ATOM     24  C   UNL     1      10.746  65.173  55.741  1.00  0.00    -0.000 C 
BRANCH  24  25
ATOM     25  C   UNL     1      11.581  65.416  54.470  1.00  0.00    -0.000 C 
BRANCH  25  26
ATOM     26  C   UNL     1      11.352  64.352  53.387  1.00  0.00    -0.000 C 
BRANCH  26  27
ATOM     27  C   UNL     1      10.776  64.982  52.113  1.00  0.00    -0.000 C 
BRANCH  27  28
ATOM     28  C   UNL     1      11.865  65.532  51.175  1.00  0.00    -0.000 C 
BRANCH  28  29
ATOM     29  C   UNL     1      11.319  66.504  50.104  1.00  0.00    -0.000 C 
BRANCH  29  30
ATOM     30  C   UNL     1      10.884  67.867  50.685  1.00  0.00    -0.000 C 
BRANCH  30  31
ATOM     31  C   UNL     1      11.862  68.424  51.735  1.00  0.00    -0.003 C 
ATOM     32  C   UNL     1      11.650  69.909  52.020  1.00  0.00     0.004 C 
ENDBRANCH  30  31
ENDBRANCH  29  30
ENDBRANCH  28  29
ENDBRANCH  27  28
ENDBRANCH  26  27
ENDBRANCH  25  26
ENDBRANCH  24  25
ENDBRANCH  23  24
ENDBRANCH  22  23
ENDBRANCH  21  22
ENDBRANCH  20  21
ENDBRANCH  19  20
ENDBRANCH  18  19
ENDBRANCH   1  18
TORSDOF 28
ENDMDL
MODEL 6
REMARK VINA RESULT:    -4.515      1.885      4.437
REMARK INTER + INTRA:         -15.665
REMARK INTER:                 -12.011
REMARK INTRA:                  -3.654
REMARK UNBOUND:                -3.759
REMARK SMILES CCCCCCCCCCCCCCCCCCCCCCCCCCCCCC(=O)[O-]
REMARK SMILES IDX 16 1 17 2 18 3 19 4 20 5 21 6 22 7 23 8 24 9 25 10 26 11
REMARK SMILES IDX 27 12 28 13 29 14 30 15 31 16 32 17 15 18 14 19 13 20 12 21
REMARK SMILES IDX 11 22 10 23 9 24 8 25 7 26 6 27 5 28 4 29 3 30 2 31 1 32
REMARK H PARENT
REMARK Flexibility Score: inf
ROOT
ATOM      1  C   UNL     1       5.305  60.813  56.796  1.00  0.00     0.000 C 
ENDROOT
BRANCH   1   2
ATOM      2  C   UNL     1       4.526  61.347  58.012  1.00  0.00     0.000 C 
BRANCH   2   3
ATOM      3  C   UNL     1       5.317  62.398  58.811  1.00  0.00     0.000 C 
BRANCH   3   4
ATOM      4  C   UNL     1       5.885  61.902  60.156  1.00  0.00     0.000 C 
BRANCH   4   5
ATOM      5  C   UNL     1       7.423  61.817  60.230  1.00  0.00     0.000 C 
BRANCH   5   6
ATOM      6  C   UNL     1       8.165  62.515  59.076  1.00  0.00     0.000 C 
BRANCH   6   7
ATOM      7  C   UNL     1       9.678  62.234  59.090  1.00  0.00     0.000 C 
BRANCH   7   8
ATOM      8  C   UNL     1      10.487  63.270  58.289  1.00  0.00     0.000 C 
BRANCH   8   9
ATOM      9  C   UNL     1       9.756  64.603  58.033  1.00  0.00     0.000 C 
BRANCH   9  10
ATOM     10  C   UNL     1       9.901  65.166  56.606  1.00  0.00     0.000 C 
BRANCH  10  11
ATOM     11  C   UNL     1      10.917  64.428  55.715  1.00  0.00     0.000 C 
BRANCH  11  12
ATOM     12  C   UNL     1      11.389  65.272  54.522  1.00  0.00     0.000 C 
BRANCH  12  13
ATOM     13  C   UNL     1      11.410  64.433  53.236  1.00  0.00     0.006 C 
BRANCH  13  14
ATOM     14  C   UNL     1      10.589  65.073  52.107  1.00  0.00     0.053 C 
BRANCH  14  15
ATOM     15  C   UNL     1      11.460  65.621  51.018  1.00  0.00     0.041 C 
ATOM     16  O   UNL     1      12.647  65.218  50.890  1.00  0.00    -0.550 OA
ATOM     17  O   UNL     1      10.954  66.564  50.131  1.00  0.00    -0.550 OA
ENDBRANCH  14  15
ENDBRANCH  13  14
ENDBRANCH  12  13
ENDBRANCH  11  12
ENDBRANCH  10  11
ENDBRANCH   9  10
ENDBRANCH   8   9
ENDBRANCH   7   8
ENDBRANCH   6   7
ENDBRANCH   5   6
ENDBRANCH   4   5
ENDBRANCH   3   4
ENDBRANCH   2   3
ENDBRANCH   1   2
BRANCH   1  18
ATOM     18  C   UNL     1       6.261  59.659  57.162  1.00  0.00     0.000 C 
BRANCH  18  19
ATOM     19  C   UNL     1       7.650  59.766  56.503  1.00  0.00     0.000 C 
BRANCH  19  20
ATOM     20  C   UNL     1       7.997  61.148  55.917  1.00  0.00     0.000 C 
BRANCH  20  21
ATOM     21  C   UNL     1       8.934  61.117  54.695  1.00  0.00     0.000 C 
BRANCH  21  22
ATOM     22  C   UNL     1       8.169  61.189  53.363  1.00  0.00     0.000 C 
BRANCH  22  23
ATOM     23  C   UNL     1       8.977  61.881  52.251  1.00  0.00     0.000 C 
BRANCH  23  24
ATOM     24  C   UNL     1       8.171  62.237  50.984  1.00  0.00    -0.000 C 
BRANCH  24  25
ATOM     25  C   UNL     1       8.802  61.780  49.656  1.00  0.00    -0.000 C 
BRANCH  25  26
ATOM     26  C   UNL     1       8.982  62.927  48.651  1.00  0.00    -0.000 C 
BRANCH  26  27
ATOM     27  C   UNL     1       8.381  64.230  49.193  1.00  0.00    -0.000 C 
BRANCH  27  28
ATOM     28  C   UNL     1       7.412  64.899  48.202  1.00  0.00    -0.000 C 
BRANCH  28  29
ATOM     29  C   UNL     1       6.654  63.890  47.309  1.00  0.00    -0.000 C 
BRANCH  29  30
ATOM     30  C   UNL     1       5.221  63.597  47.805  1.00  0.00    -0.000 C 
BRANCH  30  31
ATOM     31  C   UNL     1       4.439  64.864  48.197  1.00  0.00    -0.003 C 
ATOM     32  C   UNL     1       2.925  64.675  48.130  1.00  0.00     0.004 C 
ENDBRANCH  30  31
ENDBRANCH  29  30
ENDBRANCH  28  29
ENDBRANCH  27  28
ENDBRANCH  26  27
ENDBRANCH  25  26
ENDBRANCH  24  25
ENDBRANCH  23  24
ENDBRANCH  22  23
ENDBRANCH  21  22
ENDBRANCH  20  21
ENDBRANCH  19  20
ENDBRANCH  18  19
ENDBRANCH   1  18
TORSDOF 28
ENDMDL
MODEL 7
REMARK VINA RESULT:    -4.470     10.068     13.726
REMARK INTER + INTRA:         -15.546
REMARK INTER:                 -10.688
REMARK INTRA:                  -4.858
REMARK UNBOUND:                -3.759
REMARK SMILES CCCCCCCCCCCCCCCCCCCCCCCCCCCCCC(=O)[O-]
REMARK SMILES IDX 16 1 17 2 18 3 19 4 20 5 21 6 22 7 23 8 24 9 25 10 26 11
REMARK SMILES IDX 27 12 28 13 29 14 30 15 31 16 32 17 15 18 14 19 13 20 12 21
REMARK SMILES IDX 11 22 10 23 9 24 8 25 7 26 6 27 5 28 4 29 3 30 2 31 1 32
REMARK H PARENT
REMARK Flexibility Score: inf
ROOT
ATOM      1  C   UNL     1      -1.191  57.752  45.411  1.00  0.00     0.000 C 
ENDROOT
BRANCH   1   2
ATOM      2  C   UNL     1      -0.534  57.891  44.026  1.00  0.00     0.000 C 
BRANCH   2   3
ATOM      3  C   UNL     1       0.734  58.763  44.052  1.00  0.00     0.000 C 
BRANCH   3   4
ATOM      4  C   UNL     1       0.482  60.275  44.225  1.00  0.00     0.000 C 
BRANCH   4   5
ATOM      5  C   UNL     1       1.026  60.887  45.531  1.00  0.00     0.000 C 
BRANCH   5   6
ATOM      6  C   UNL     1       1.057  62.426  45.561  1.00  0.00     0.000 C 
BRANCH   6   7
ATOM      7  C   UNL     1       1.715  63.028  44.308  1.00  0.00     0.000 C 
BRANCH   7   8
ATOM      8  C   UNL     1       3.078  63.680  44.603  1.00  0.00     0.000 C 
BRANCH   8   9
ATOM      9  C   UNL     1       3.423  63.808  46.101  1.00  0.00     0.000 C 
BRANCH   9  10
ATOM     10  C   UNL     1       3.817  65.225  46.563  1.00  0.00     0.000 C 
BRANCH  10  11
ATOM     11  C   UNL     1       3.340  65.603  47.978  1.00  0.00     0.000 C 
BRANCH  11  12
ATOM     12  C   UNL     1       1.877  65.220  48.237  1.00  0.00     0.000 C 
BRANCH  12  13
ATOM     13  C   UNL     1       1.452  65.620  49.658  1.00  0.00     0.006 C 
BRANCH  13  14
ATOM     14  C   UNL     1       1.459  67.141  49.865  1.00  0.00     0.053 C 
BRANCH  14  15
ATOM     15  C   UNL     1       0.184  67.777  49.405  1.00  0.00     0.041 C 
ATOM     16  O   UNL     1      -0.922  67.394  49.873  1.00  0.00    -0.550 OA
ATOM     17  O   UNL     1       0.217  68.809  48.474  1.00  0.00    -0.550 OA
ENDBRANCH  14  15
ENDBRANCH  13  14
ENDBRANCH  12  13
ENDBRANCH  11  12
ENDBRANCH  10  11
ENDBRANCH   9  10
ENDBRANCH   8   9
ENDBRANCH   7   8
ENDBRANCH   6   7
ENDBRANCH   5   6
ENDBRANCH   4   5
ENDBRANCH   3   4
ENDBRANCH   2   3
ENDBRANCH   1   2
BRANCH   1  18
ATOM     18  C   UNL     1      -2.696  57.423  45.325  1.00  0.00     0.000 C 
BRANCH  18  19
ATOM     19  C   UNL     1      -3.247  56.688  46.563  1.00  0.00     0.000 C 
BRANCH  19  20
ATOM     20  C   UNL     1      -2.257  56.539  47.734  1.00  0.00     0.000 C 
BRANCH  20  21
ATOM     21  C   UNL     1      -2.609  57.362  48.988  1.00  0.00     0.000 C 
BRANCH  21  22
ATOM     22  C   UNL     1      -2.180  58.834  48.867  1.00  0.00     0.000 C 
BRANCH  22  23
ATOM     23  C   UNL     1      -3.377  59.802  48.852  1.00  0.00     0.000 C 
BRANCH  23  24
ATOM     24  C   UNL     1      -3.844  60.241  47.448  1.00  0.00    -0.000 C 
BRANCH  24  25
ATOM     25  C   UNL     1      -2.772  60.931  46.585  1.00  0.00    -0.000 C 
BRANCH  25  26
ATOM     26  C   UNL     1      -3.131  60.963  45.092  1.00  0.00    -0.000 C 
BRANCH  26  27
ATOM     27  C   UNL     1      -3.404  62.399  44.626  1.00  0.00    -0.000 C 
BRANCH  27  28
ATOM     28  C   UNL     1      -2.208  63.024  43.888  1.00  0.00    -0.000 C 
BRANCH  28  29
ATOM     29  C   UNL     1      -1.725  64.351  44.517  1.00  0.00    -0.000 C 
BRANCH  29  30
ATOM     30  C   UNL     1      -2.104  64.491  46.007  1.00  0.00    -0.000 C 
BRANCH  30  31
ATOM     31  C   UNL     1      -1.342  65.618  46.729  1.00  0.00    -0.003 C 
ATOM     32  C   UNL     1      -0.528  66.492  45.779  1.00  0.00     0.004 C 
ENDBRANCH  30  31
ENDBRANCH  29  30
ENDBRANCH  28  29
ENDBRANCH  27  28
ENDBRANCH  26  27
ENDBRANCH  25  26
ENDBRANCH  24  25
ENDBRANCH  23  24
ENDBRANCH  22  23
ENDBRANCH  21  22
ENDBRANCH  20  21
ENDBRANCH  19  20
ENDBRANCH  18  19
ENDBRANCH   1  18
TORSDOF 28
ENDMDL
MODEL 8
REMARK VINA RESULT:    -4.390      9.214     13.178
REMARK INTER + INTRA:         -15.335
REMARK INTER:                 -11.336
REMARK INTRA:                  -3.999
REMARK UNBOUND:                -3.759
REMARK SMILES CCCCCCCCCCCCCCCCCCCCCCCCCCCCCC(=O)[O-]
REMARK SMILES IDX 16 1 17 2 18 3 19 4 20 5 21 6 22 7 23 8 24 9 25 10 26 11
REMARK SMILES IDX 27 12 28 13 29 14 30 15 31 16 32 17 15 18 14 19 13 20 12 21
REMARK SMILES IDX 11 22 10 23 9 24 8 25 7 26 6 27 5 28 4 29 3 30 2 31 1 32
REMARK H PARENT
REMARK Flexibility Score: inf
ROOT
ATOM      1  C   UNL     1      -1.345  57.755  45.430  1.00  0.00     0.000 C 
ENDROOT
BRANCH   1   2
ATOM      2  C   UNL     1      -0.727  57.877  44.026  1.00  0.00     0.000 C 
BRANCH   2   3
ATOM      3  C   UNL     1       0.609  58.641  44.027  1.00  0.00     0.000 C 
BRANCH   3   4
ATOM      4  C   UNL     1       0.480  60.176  44.115  1.00  0.00     0.000 C 
BRANCH   4   5
ATOM      5  C   UNL     1       0.754  60.779  45.508  1.00  0.00     0.000 C 
BRANCH   5   6
ATOM      6  C   UNL     1       1.529  62.109  45.496  1.00  0.00     0.000 C 
BRANCH   6   7
ATOM      7  C   UNL     1       1.499  62.799  44.121  1.00  0.00     0.000 C 
BRANCH   7   8
ATOM      8  C   UNL     1       2.878  63.331  43.689  1.00  0.00     0.000 C 
BRANCH   8   9
ATOM      9  C   UNL     1       4.053  62.882  44.581  1.00  0.00     0.000 C 
BRANCH   9  10
ATOM     10  C   UNL     1       4.753  64.012  45.361  1.00  0.00     0.000 C 
BRANCH  10  11
ATOM     11  C   UNL     1       5.618  63.546  46.546  1.00  0.00     0.000 C 
BRANCH  11  12
ATOM     12  C   UNL     1       4.860  63.562  47.881  1.00  0.00     0.000 C 
BRANCH  12  13
ATOM     13  C   UNL     1       5.596  62.723  48.936  1.00  0.00     0.006 C 
BRANCH  13  14
ATOM     14  C   UNL     1       7.091  63.064  49.017  1.00  0.00     0.053 C 
BRANCH  14  15
ATOM     15  C   UNL     1       7.839  62.110  49.896  1.00  0.00     0.041 C 
ATOM     16  O   UNL     1       8.864  61.518  49.464  1.00  0.00    -0.550 OA
ATOM     17  O   UNL     1       7.416  61.889  51.202  1.00  0.00    -0.550 OA
ENDBRANCH  14  15
ENDBRANCH  13  14
ENDBRANCH  12  13
ENDBRANCH  11  12
ENDBRANCH  10  11
ENDBRANCH   9  10
ENDBRANCH   8   9
ENDBRANCH   7   8
ENDBRANCH   6   7
ENDBRANCH   5   6
ENDBRANCH   4   5
ENDBRANCH   3   4
ENDBRANCH   2   3
ENDBRANCH   1   2
BRANCH   1  18
ATOM     18  C   UNL     1      -2.844  57.391  45.392  1.00  0.00     0.000 C 
BRANCH  18  19
ATOM     19  C   UNL     1      -3.338  56.641  46.645  1.00  0.00     0.000 C 
BRANCH  19  20
ATOM     20  C   UNL     1      -2.313  56.527  47.790  1.00  0.00     0.000 C 
BRANCH  20  21
ATOM     21  C   UNL     1      -2.648  57.356  49.044  1.00  0.00     0.000 C 
BRANCH  21  22
ATOM     22  C   UNL     1      -2.359  58.854  48.855  1.00  0.00     0.000 C 
BRANCH  22  23
ATOM     23  C   UNL     1      -3.626  59.669  48.542  1.00  0.00     0.000 C 
BRANCH  23  24
ATOM     24  C   UNL     1      -3.406  60.894  47.630  1.00  0.00    -0.000 C 
BRANCH  24  25
ATOM     25  C   UNL     1      -3.993  60.770  46.212  1.00  0.00    -0.000 C 
BRANCH  25  26
ATOM     26  C   UNL     1      -2.957  61.028  45.108  1.00  0.00    -0.000 C 
BRANCH  26  27
ATOM     27  C   UNL     1      -3.308  62.292  44.313  1.00  0.00    -0.000 C 
BRANCH  27  28
ATOM     28  C   UNL     1      -2.173  63.330  44.312  1.00  0.00    -0.000 C 
BRANCH  28  29
ATOM     29  C   UNL     1      -1.752  63.781  45.729  1.00  0.00    -0.000 C 
BRANCH  29  30
ATOM     30  C   UNL     1      -1.823  65.311  45.926  1.00  0.00    -0.000 C 
BRANCH  30  31
ATOM     31  C   UNL     1      -0.444  65.995  45.907  1.00  0.00    -0.003 C 
ATOM     32  C   UNL     1       0.569  65.322  46.829  1.00  0.00     0.004 C 
ENDBRANCH  30  31
ENDBRANCH  29  30
ENDBRANCH  28  29
ENDBRANCH  27  28
ENDBRANCH  26  27
ENDBRANCH  25  26
ENDBRANCH  24  25
ENDBRANCH  23  24
ENDBRANCH  22  23
ENDBRANCH  21  22
ENDBRANCH  20  21
ENDBRANCH  19  20
ENDBRANCH  18  19
ENDBRANCH   1  18
TORSDOF 28
ENDMDL
MODEL 9
REMARK VINA RESULT:    -4.323      8.960     13.191
REMARK INTER + INTRA:         -15.158
REMARK INTER:                 -11.335
REMARK INTRA:                  -3.823
REMARK UNBOUND:                -3.759
REMARK SMILES CCCCCCCCCCCCCCCCCCCCCCCCCCCCCC(=O)[O-]
REMARK SMILES IDX 16 1 17 2 18 3 19 4 20 5 21 6 22 7 23 8 24 9 25 10 26 11
REMARK SMILES IDX 27 12 28 13 29 14 30 15 31 16 32 17 15 18 14 19 13 20 12 21
REMARK SMILES IDX 11 22 10 23 9 24 8 25 7 26 6 27 5 28 4 29 3 30 2 31 1 32
REMARK H PARENT
REMARK Flexibility Score: inf
ROOT
ATOM      1  C   UNL     1       1.284  60.479  44.634  1.00  0.00     0.000 C 
ENDROOT
BRANCH   1   2
ATOM      2  C   UNL     1       0.758  61.253  45.856  1.00  0.00     0.000 C 
BRANCH   2   3
ATOM      3  C   UNL     1       0.184  62.632  45.485  1.00  0.00     0.000 C 
BRANCH   3   4
ATOM      4  C   UNL     1       0.074  62.907  43.971  1.00  0.00     0.000 C 
BRANCH   4   5
ATOM      5  C   UNL     1       1.020  63.999  43.431  1.00  0.00     0.000 C 
BRANCH   5   6
ATOM      6  C   UNL     1       2.007  64.570  44.465  1.00  0.00     0.000 C 
BRANCH   6   7
ATOM      7  C   UNL     1       3.442  64.056  44.259  1.00  0.00     0.000 C 
BRANCH   7   8
ATOM      8  C   UNL     1       4.028  63.397  45.520  1.00  0.00     0.000 C 
BRANCH   8   9
ATOM      9  C   UNL     1       4.292  64.363  46.692  1.00  0.00     0.000 C 
BRANCH   9  10
ATOM     10  C   UNL     1       5.270  63.843  47.764  1.00  0.00     0.000 C 
BRANCH  10  11
ATOM     11  C   UNL     1       6.484  63.071  47.216  1.00  0.00     0.000 C 
BRANCH  11  12
ATOM     12  C   UNL     1       7.812  63.808  47.440  1.00  0.00     0.000 C 
BRANCH  12  13
ATOM     13  C   UNL     1       8.804  62.924  48.210  1.00  0.00     0.006 C 
BRANCH  13  14
ATOM     14  C   UNL     1       8.101  61.977  49.194  1.00  0.00     0.053 C 
BRANCH  14  15
ATOM     15  C   UNL     1       8.148  62.490  50.600  1.00  0.00     0.041 C 
ATOM     16  O   UNL     1       7.437  61.960  51.494  1.00  0.00    -0.550 OA
ATOM     17  O   UNL     1       8.994  63.544  50.929  1.00  0.00    -0.550 OA
ENDBRANCH  14  15
ENDBRANCH  13  14
ENDBRANCH  12  13
ENDBRANCH  11  12
ENDBRANCH  10  11
ENDBRANCH   9  10
ENDBRANCH   8   9
ENDBRANCH   7   8
ENDBRANCH   6   7
ENDBRANCH   5   6
ENDBRANCH   4   5
ENDBRANCH   3   4
ENDBRANCH   2   3
ENDBRANCH   1   2
BRANCH   1  18
ATOM     18  C   UNL     1       0.450  59.217  44.325  1.00  0.00     0.000 C 
BRANCH  18  19
ATOM     19  C   UNL     1      -0.860  59.121  45.132  1.00  0.00     0.000 C 
BRANCH  19  20
ATOM     20  C   UNL     1      -1.371  57.691  45.389  1.00  0.00     0.000 C 
BRANCH  20  21
ATOM     21  C   UNL     1      -2.904  57.545  45.410  1.00  0.00     0.000 C 
BRANCH  21  22
ATOM     22  C   UNL     1      -3.399  56.675  46.577  1.00  0.00     0.000 C 
BRANCH  22  23
ATOM     23  C   UNL     1      -2.331  56.483  47.669  1.00  0.00     0.000 C 
BRANCH  23  24
ATOM     24  C   UNL     1      -2.564  57.295  48.960  1.00  0.00    -0.000 C 
BRANCH  24  25
ATOM     25  C   UNL     1      -2.135  58.772  48.893  1.00  0.00    -0.000 C 
BRANCH  25  26
ATOM     26  C   UNL     1      -3.319  59.746  48.985  1.00  0.00    -0.000 C 
BRANCH  26  27
ATOM     27  C   UNL     1      -3.881  60.058  47.592  1.00  0.00    -0.000 C 
BRANCH  27  28
ATOM     28  C   UNL     1      -3.608  61.506  47.149  1.00  0.00    -0.000 C 
BRANCH  28  29
ATOM     29  C   UNL     1      -3.400  61.653  45.624  1.00  0.00    -0.000 C 
BRANCH  29  30
ATOM     30  C   UNL     1      -3.761  63.057  45.094  1.00  0.00    -0.000 C 
BRANCH  30  31
ATOM     31  C   UNL     1      -3.736  64.147  46.182  1.00  0.00    -0.003 C 
ATOM     32  C   UNL     1      -2.533  65.079  46.065  1.00  0.00     0.004 C 
ENDBRANCH  30  31
ENDBRANCH  29  30
ENDBRANCH  28  29
ENDBRANCH  27  28
ENDBRANCH  26  27
ENDBRANCH  25  26
ENDBRANCH  24  25
ENDBRANCH  23  24
ENDBRANCH  22  23
ENDBRANCH  21  22
ENDBRANCH  20  21
ENDBRANCH  19  20
ENDBRANCH  18  19
ENDBRANCH   1  18
TORSDOF 28
ENDMDL
