MODEL 1
REMARK VINA RESULT:    -4.759      0.000      0.000
REMARK INTER + INTRA:         -11.204
REMARK INTER:                  -9.211
REMARK INTRA:                  -1.994
REMARK UNBOUND:                -1.994
REMARK SMILES CCCCCCCCCCCCCCCCCC(=O)[O-]
REMARK SMILES IDX 10 1 11 2 12 3 13 4 14 5 15 6 16 7 17 8 18 9 19 10 20 11
REMARK SMILES IDX 9 12 8 13 7 14 6 15 5 16 4 17 3 18 2 19 1 20
REMARK H PARENT
REMARK Flexibility Score: inf
ROOT
ATOM      1  C   UNL     1      16.230  30.121  60.256  1.00  0.00     0.000 C 
ENDROOT
BRANCH   1   2
ATOM      2  C   UNL     1      16.319  29.392  61.606  1.00  0.00     0.000 C 
BRANCH   2   3
ATOM      3  C   UNL     1      15.046  29.561  62.454  1.00  0.00     0.000 C 
BRANCH   3   4
ATOM      4  C   UNL     1      14.507  28.222  62.981  1.00  0.00     0.000 C 
BRANCH   4   5
ATOM      5  C   UNL     1      13.203  27.793  62.289  1.00  0.00     0.000 C 
BRANCH   5   6
ATOM      6  C   UNL     1      12.358  28.986  61.809  1.00  0.00     0.000 C 
BRANCH   6   7
ATOM      7  C   UNL     1      11.652  28.742  60.459  1.00  0.00     0.006 C 
BRANCH   7   8
ATOM      8  C   UNL     1      10.532  29.758  60.190  1.00  0.00     0.053 C 
BRANCH   8   9
ATOM      9  C   UNL     1       9.234  29.289  60.772  1.00  0.00     0.041 C 
ATOM     10  O   UNL     1       8.455  28.573  60.089  1.00  0.00    -0.550 OA
ATOM     11  O   UNL     1       8.892  29.627  62.077  1.00  0.00    -0.550 OA
ENDBRANCH   8   9
ENDBRANCH   7   8
ENDBRANCH   6   7
ENDBRANCH   5   6
ENDBRANCH   4   5
ENDBRANCH   3   4
ENDBRANCH   2   3
ENDBRANCH   1   2
BRANCH   1  12
ATOM     12  C   UNL     1      14.780  30.295  59.768  1.00  0.00     0.000 C 
BRANCH  12  13
ATOM     13  C   UNL     1      14.600  29.912  58.290  1.00  0.00    -0.000 C 
BRANCH  13  14
ATOM     14  C   UNL     1      13.561  30.792  57.572  1.00  0.00    -0.000 C 
BRANCH  14  15
ATOM     15  C   UNL     1      14.102  31.394  56.265  1.00  0.00    -0.000 C 
BRANCH  15  16
ATOM     16  C   UNL     1      14.528  30.317  55.251  1.00  0.00    -0.000 C 
BRANCH  16  17
ATOM     17  C   UNL     1      16.029  30.395  54.921  1.00  0.00    -0.000 C 
BRANCH  17  18
ATOM     18  C   UNL     1      16.660  31.763  55.274  1.00  0.00    -0.000 C 
BRANCH  18  19
ATOM     19  C   UNL     1      17.825  31.661  56.274  1.00  0.00    -0.003 C 
ATOM     20  C   UNL     1      17.504  32.287  57.628  1.00  0.00     0.004 C 
ENDBRANCH  18  19
ENDBRANCH  17  18
ENDBRANCH  16  17
ENDBRANCH  15  16
ENDBRANCH  14  15
ENDBRANCH  13  14
ENDBRANCH  12  13
ENDBRANCH   1  12
TORSDOF 16
ENDMDL
MODEL 2
REMARK VINA RESULT:    -4.716      2.570      3.260
REMARK INTER + INTRA:         -11.120
REMARK INTER:                  -9.855
REMARK INTRA:                  -1.265
REMARK UNBOUND:                -1.994
REMARK SMILES CCCCCCCCCCCCCCCCCC(=O)[O-]
REMARK SMILES IDX 10 1 11 2 12 3 13 4 14 5 15 6 16 7 17 8 18 9 19 10 20 11
REMARK SMILES IDX 9 12 8 13 7 14 6 15 5 16 4 17 3 18 2 19 1 20
REMARK H PARENT
REMARK Flexibility Score: inf
ROOT
ATOM      1  C   UNL     1      14.896  29.739  58.006  1.00  0.00     0.000 C 
ENDROOT
BRANCH   1   2
ATOM      2  C   UNL     1      15.054  30.597  59.272  1.00  0.00     0.000 C 
BRANCH   2   3
ATOM      3  C   UNL     1      15.929  29.918  60.340  1.00  0.00     0.000 C 
BRANCH   3   4
ATOM      4  C   UNL     1      15.139  29.552  61.606  1.00  0.00     0.000 C 
BRANCH   4   5
ATOM      5  C   UNL     1      13.644  29.896  61.492  1.00  0.00     0.000 C 
BRANCH   5   6
ATOM      6  C   UNL     1      12.736  28.657  61.580  1.00  0.00     0.000 C 
BRANCH   6   7
ATOM      7  C   UNL     1      11.962  28.363  60.278  1.00  0.00     0.006 C 
BRANCH   7   8
ATOM      8  C   UNL     1      11.381  29.633  59.641  1.00  0.00     0.053 C 
BRANCH   8   9
ATOM      9  C   UNL     1       9.905  29.497  59.426  1.00  0.00     0.041 C 
ATOM     10  O   UNL     1       9.465  28.794  58.478  1.00  0.00    -0.550 OA
ATOM     11  O   UNL     1       9.013  30.131  60.285  1.00  0.00    -0.550 OA
ENDBRANCH   8   9
ENDBRANCH   7   8
ENDBRANCH   6   7
ENDBRANCH   5   6
ENDBRANCH   4   5
ENDBRANCH   3   4
ENDBRANCH   2   3
ENDBRANCH   1   2
BRANCH   1  12
ATOM     12  C   UNL     1      15.427  30.441  56.742  1.00  0.00     0.000 C 
BRANCH  12  13
ATOM     13  C   UNL     1      14.330  30.682  55.692  1.00  0.00    -0.000 C 
BRANCH  13  14
ATOM     14  C   UNL     1      14.470  32.046  54.992  1.00  0.00    -0.000 C 
BRANCH  14  15
ATOM     15  C   UNL     1      14.411  33.222  55.980  1.00  0.00    -0.000 C 
BRANCH  15  16
ATOM     16  C   UNL     1      15.735  34.005  56.046  1.00  0.00    -0.000 C 
BRANCH  16  17
ATOM     17  C   UNL     1      15.505  35.522  56.161  1.00  0.00    -0.000 C 
BRANCH  17  18
ATOM     18  C   UNL     1      16.819  36.340  56.141  1.00  0.00    -0.000 C 
BRANCH  18  19
ATOM     19  C   UNL     1      16.869  37.445  57.211  1.00  0.00    -0.003 C 
ATOM     20  C   UNL     1      17.737  38.631  56.800  1.00  0.00     0.004 C 
ENDBRANCH  18  19
ENDBRANCH  17  18
ENDBRANCH  16  17
ENDBRANCH  15  16
ENDBRANCH  14  15
ENDBRANCH  13  14
ENDBRANCH  12  13
ENDBRANCH   1  12
TORSDOF 16
ENDMDL
MODEL 3
REMARK VINA RESULT:    -4.714      1.299      2.406
REMARK INTER + INTRA:         -11.118
REMARK INTER:                  -8.641
REMARK INTRA:                  -2.477
REMARK UNBOUND:                -1.994
REMARK SMILES CCCCCCCCCCCCCCCCCC(=O)[O-]
REMARK SMILES IDX 10 1 11 2 12 3 13 4 14 5 15 6 16 7 17 8 18 9 19 10 20 11
REMARK SMILES IDX 9 12 8 13 7 14 6 15 5 16 4 17 3 18 2 19 1 20
REMARK H PARENT
REMARK Flexibility Score: inf
ROOT
ATOM      1  C   UNL     1      13.884  31.067  58.756  1.00  0.00     0.000 C 
ENDROOT
BRANCH   1   2
ATOM      2  C   UNL     1      14.835  29.898  59.060  1.00  0.00     0.000 C 
BRANCH   2   3
ATOM      3  C   UNL     1      15.594  30.084  60.385  1.00  0.00     0.000 C 
BRANCH   3   4
ATOM      4  C   UNL     1      14.654  30.162  61.598  1.00  0.00     0.000 C 
BRANCH   4   5
ATOM      5  C   UNL     1      14.481  28.806  62.303  1.00  0.00     0.000 C 
BRANCH   5   6
ATOM      6  C   UNL     1      13.104  28.170  62.048  1.00  0.00     0.000 C 
BRANCH   6   7
ATOM      7  C   UNL     1      12.046  29.169  61.532  1.00  0.00     0.006 C 
BRANCH   7   8
ATOM      8  C   UNL     1      11.382  28.699  60.231  1.00  0.00     0.053 C 
BRANCH   8   9
ATOM      9  C   UNL     1      10.057  29.370  60.034  1.00  0.00     0.041 C 
ATOM     10  O   UNL     1       9.956  30.357  59.258  1.00  0.00    -0.550 OA
ATOM     11  O   UNL     1       8.929  28.893  60.691  1.00  0.00    -0.550 OA
ENDBRANCH   8   9
ENDBRANCH   7   8
ENDBRANCH   6   7
ENDBRANCH   5   6
ENDBRANCH   4   5
ENDBRANCH   3   4
ENDBRANCH   2   3
ENDBRANCH   1   2
BRANCH   1  12
ATOM     12  C   UNL     1      13.019  30.821  57.505  1.00  0.00     0.000 C 
BRANCH  12  13
ATOM     13  C   UNL     1      13.582  31.508  56.250  1.00  0.00    -0.000 C 
BRANCH  13  14
ATOM     14  C   UNL     1      14.299  30.525  55.308  1.00  0.00    -0.000 C 
BRANCH  14  15
ATOM     15  C   UNL     1      15.789  30.362  55.651  1.00  0.00    -0.000 C 
BRANCH  15  16
ATOM     16  C   UNL     1      16.548  31.701  55.634  1.00  0.00    -0.000 C 
BRANCH  16  17
ATOM     17  C   UNL     1      17.302  31.956  56.952  1.00  0.00    -0.000 C 
BRANCH  17  18
ATOM     18  C   UNL     1      16.681  33.094  57.797  1.00  0.00    -0.000 C 
BRANCH  18  19
ATOM     19  C   UNL     1      15.781  34.041  56.982  1.00  0.00    -0.003 C 
ATOM     20  C   UNL     1      16.480  35.343  56.601  1.00  0.00     0.004 C 
ENDBRANCH  18  19
ENDBRANCH  17  18
ENDBRANCH  16  17
ENDBRANCH  15  16
ENDBRANCH  14  15
ENDBRANCH  13  14
ENDBRANCH  12  13
ENDBRANCH   1  12
TORSDOF 16
ENDMDL
MODEL 4
REMARK VINA RESULT:    -4.713      3.576      7.373
REMARK INTER + INTRA:         -11.115
REMARK INTER:                  -8.987
REMARK INTRA:                  -2.127
REMARK UNBOUND:                -1.994
REMARK SMILES CCCCCCCCCCCCCCCCCC(=O)[O-]
REMARK SMILES IDX 10 1 11 2 12 3 13 4 14 5 15 6 16 7 17 8 18 9 19 10 20 11
REMARK SMILES IDX 9 12 8 13 7 14 6 15 5 16 4 17 3 18 2 19 1 20
REMARK H PARENT
REMARK Flexibility Score: inf
ROOT
ATOM      1  C   UNL     1      15.703  30.399  59.613  1.00  0.00     0.000 C 
ENDROOT
BRANCH   1   2
ATOM      2  C   UNL     1      14.724  29.759  58.617  1.00  0.00     0.000 C 
BRANCH   2   3
ATOM      3  C   UNL     1      13.725  30.774  58.034  1.00  0.00     0.000 C 
BRANCH   3   4
ATOM      4  C   UNL     1      14.022  32.215  58.478  1.00  0.00     0.000 C 
BRANCH   4   5
ATOM      5  C   UNL     1      14.675  33.054  57.367  1.00  0.00     0.000 C 
BRANCH   5   6
ATOM      6  C   UNL     1      16.116  33.476  57.704  1.00  0.00     0.000 C 
BRANCH   6   7
ATOM      7  C   UNL     1      17.146  33.075  56.627  1.00  0.00     0.006 C 
BRANCH   7   8
ATOM      8  C   UNL     1      17.093  31.578  56.292  1.00  0.00     0.053 C 
BRANCH   8   9
ATOM      9  C   UNL     1      16.825  31.364  54.835  1.00  0.00     0.041 C 
ATOM     10  O   UNL     1      16.324  32.289  54.140  1.00  0.00    -0.550 OA
ATOM     11  O   UNL     1      17.146  30.151  54.236  1.00  0.00    -0.550 OA
ENDBRANCH   8   9
ENDBRANCH   7   8
ENDBRANCH   6   7
ENDBRANCH   5   6
ENDBRANCH   4   5
ENDBRANCH   3   4
ENDBRANCH   2   3
ENDBRANCH   1   2
BRANCH   1  12
ATOM     12  C   UNL     1      15.926  29.534  60.868  1.00  0.00     0.000 C 
BRANCH  12  13
ATOM     13  C   UNL     1      14.926  29.850  61.993  1.00  0.00    -0.000 C 
BRANCH  13  14
ATOM     14  C   UNL     1      14.383  28.583  62.675  1.00  0.00    -0.000 C 
BRANCH  14  15
ATOM     15  C   UNL     1      13.117  28.042  61.990  1.00  0.00    -0.000 C 
BRANCH  15  16
ATOM     16  C   UNL     1      12.232  29.162  61.417  1.00  0.00    -0.000 C 
BRANCH  16  17
ATOM     17  C   UNL     1      11.443  28.700  60.179  1.00  0.00    -0.000 C 
BRANCH  17  18
ATOM     18  C   UNL     1      10.484  29.783  59.630  1.00  0.00    -0.000 C 
BRANCH  18  19
ATOM     19  C   UNL     1       8.997  29.458  59.859  1.00  0.00    -0.003 C 
ATOM     20  C   UNL     1       8.595  29.517  61.330  1.00  0.00     0.004 C 
ENDBRANCH  18  19
ENDBRANCH  17  18
ENDBRANCH  16  17
ENDBRANCH  15  16
ENDBRANCH  14  15
ENDBRANCH  13  14
ENDBRANCH  12  13
ENDBRANCH   1  12
TORSDOF 16
ENDMDL
MODEL 5
REMARK VINA RESULT:    -4.691      4.694      7.873
REMARK INTER + INTRA:         -11.072
REMARK INTER:                 -10.061
REMARK INTRA:                  -1.011
REMARK UNBOUND:                -1.994
REMARK SMILES CCCCCCCCCCCCCCCCCC(=O)[O-]
REMARK SMILES IDX 10 1 11 2 12 3 13 4 14 5 15 6 16 7 17 8 18 9 19 10 20 11
REMARK SMILES IDX 9 12 8 13 7 14 6 15 5 16 4 17 3 18 2 19 1 20
REMARK H PARENT
REMARK Flexibility Score: inf
ROOT
ATOM      1  C   UNL     1       8.634  28.815  59.929  1.00  0.00     0.000 C 
ENDROOT
BRANCH   1   2
ATOM      2  C   UNL     1      10.139  28.552  59.769  1.00  0.00     0.000 C 
BRANCH   2   3
ATOM      3  C   UNL     1      10.953  29.850  59.624  1.00  0.00     0.000 C 
BRANCH   3   4
ATOM      4  C   UNL     1      12.413  29.683  60.072  1.00  0.00     0.000 C 
BRANCH   4   5
ATOM      5  C   UNL     1      12.553  29.536  61.597  1.00  0.00     0.000 C 
BRANCH   5   6
ATOM      6  C   UNL     1      12.994  28.125  62.024  1.00  0.00     0.000 C 
BRANCH   6   7
ATOM      7  C   UNL     1      14.302  28.106  62.842  1.00  0.00     0.006 C 
BRANCH   7   8
ATOM      8  C   UNL     1      15.109  29.404  62.688  1.00  0.00     0.053 C 
BRANCH   8   9
ATOM      9  C   UNL     1      16.305  29.190  61.813  1.00  0.00     0.041 C 
ATOM     10  O   UNL     1      16.435  29.846  60.745  1.00  0.00    -0.550 OA
ATOM     11  O   UNL     1      17.288  28.279  62.185  1.00  0.00    -0.550 OA
ENDBRANCH   8   9
ENDBRANCH   7   8
ENDBRANCH   6   7
ENDBRANCH   5   6
ENDBRANCH   4   5
ENDBRANCH   3   4
ENDBRANCH   2   3
ENDBRANCH   1   2
BRANCH   1  12
ATOM     12  C   UNL     1       8.284  29.465  61.282  1.00  0.00     0.000 C 
BRANCH  12  13
ATOM     13  C   UNL     1       7.202  30.550  61.157  1.00  0.00    -0.000 C 
BRANCH  13  14
ATOM     14  C   UNL     1       7.364  31.405  59.888  1.00  0.00    -0.000 C 
BRANCH  14  15
ATOM     15  C   UNL     1       6.238  32.439  59.727  1.00  0.00    -0.000 C 
BRANCH  15  16
ATOM     16  C   UNL     1       6.755  33.805  59.243  1.00  0.00    -0.000 C 
BRANCH  16  17
ATOM     17  C   UNL     1       5.607  34.770  58.897  1.00  0.00    -0.000 C 
BRANCH  17  18
ATOM     18  C   UNL     1       6.089  36.213  58.615  1.00  0.00    -0.000 C 
BRANCH  18  19
ATOM     19  C   UNL     1       7.461  36.533  59.236  1.00  0.00    -0.003 C 
ATOM     20  C   UNL     1       8.063  37.832  58.709  1.00  0.00     0.004 C 
ENDBRANCH  18  19
ENDBRANCH  17  18
ENDBRANCH  16  17
ENDBRANCH  15  16
ENDBRANCH  14  15
ENDBRANCH  13  14
ENDBRANCH  12  13
ENDBRANCH   1  12
TORSDOF 16
ENDMDL
MODEL 6
REMARK VINA RESULT:    -4.680      5.421      8.296
REMARK INTER + INTRA:         -11.051
REMARK INTER:                 -10.321
REMARK INTRA:                  -0.731
REMARK UNBOUND:                -1.994
REMARK SMILES CCCCCCCCCCCCCCCCCC(=O)[O-]
REMARK SMILES IDX 10 1 11 2 12 3 13 4 14 5 15 6 16 7 17 8 18 9 19 10 20 11
REMARK SMILES IDX 9 12 8 13 7 14 6 15 5 16 4 17 3 18 2 19 1 20
REMARK H PARENT
REMARK Flexibility Score: inf
ROOT
ATOM      1  C   UNL     1       7.171  30.136  61.394  1.00  0.00     0.000 C 
ENDROOT
BRANCH   1   2
ATOM      2  C   UNL     1       7.102  31.298  60.392  1.00  0.00     0.000 C 
BRANCH   2   3
ATOM      3  C   UNL     1       5.811  32.124  60.534  1.00  0.00     0.000 C 
BRANCH   3   4
ATOM      4  C   UNL     1       5.575  33.060  59.338  1.00  0.00     0.000 C 
BRANCH   4   5
ATOM      5  C   UNL     1       6.777  33.978  59.056  1.00  0.00     0.000 C 
BRANCH   5   6
ATOM      6  C   UNL     1       6.367  35.435  58.783  1.00  0.00     0.000 C 
BRANCH   6   7
ATOM      7  C   UNL     1       7.187  36.470  59.582  1.00  0.00     0.006 C 
BRANCH   7   8
ATOM      8  C   UNL     1       7.768  37.574  58.688  1.00  0.00     0.053 C 
BRANCH   8   9
ATOM      9  C   UNL     1       6.702  38.185  57.831  1.00  0.00     0.041 C 
ATOM     10  O   UNL     1       6.788  38.127  56.576  1.00  0.00    -0.550 OA
ATOM     11  O   UNL     1       5.603  38.803  58.419  1.00  0.00    -0.550 OA
ENDBRANCH   8   9
ENDBRANCH   7   8
ENDBRANCH   6   7
ENDBRANCH   5   6
ENDBRANCH   4   5
ENDBRANCH   3   4
ENDBRANCH   2   3
ENDBRANCH   1   2
BRANCH   1  12
ATOM     12  C   UNL     1       8.593  29.563  61.543  1.00  0.00     0.000 C 
BRANCH  12  13
ATOM     13  C   UNL     1       9.100  28.888  60.258  1.00  0.00    -0.000 C 
BRANCH  13  14
ATOM     14  C   UNL     1      10.410  29.508  59.741  1.00  0.00    -0.000 C 
BRANCH  14  15
ATOM     15  C   UNL     1      11.648  28.970  60.477  1.00  0.00    -0.000 C 
BRANCH  15  16
ATOM     16  C   UNL     1      12.860  29.911  60.357  1.00  0.00    -0.000 C 
BRANCH  16  17
ATOM     17  C   UNL     1      13.617  30.051  61.690  1.00  0.00    -0.000 C 
BRANCH  17  18
ATOM     18  C   UNL     1      14.016  28.690  62.309  1.00  0.00    -0.000 C 
BRANCH  18  19
ATOM     19  C   UNL     1      15.482  28.635  62.776  1.00  0.00    -0.003 C 
ATOM     20  C   UNL     1      16.446  29.280  61.785  1.00  0.00     0.004 C 
ENDBRANCH  18  19
ENDBRANCH  17  18
ENDBRANCH  16  17
ENDBRANCH  15  16
ENDBRANCH  14  15
ENDBRANCH  13  14
ENDBRANCH  12  13
ENDBRANCH   1  12
TORSDOF 16
ENDMDL
MODEL 7
REMARK VINA RESULT:    -4.675      2.548      4.336
REMARK INTER + INTRA:         -11.042
REMARK INTER:                  -8.670
REMARK INTRA:                  -2.371
REMARK UNBOUND:                -1.994
REMARK SMILES CCCCCCCCCCCCCCCCCC(=O)[O-]
REMARK SMILES IDX 10 1 11 2 12 3 13 4 14 5 15 6 16 7 17 8 18 9 19 10 20 11
REMARK SMILES IDX 9 12 8 13 7 14 6 15 5 16 4 17 3 18 2 19 1 20
REMARK H PARENT
REMARK Flexibility Score: inf
ROOT
ATOM      1  C   UNL     1      14.290  32.396  58.225  1.00  0.00     0.000 C 
ENDROOT
BRANCH   1   2
ATOM      2  C   UNL     1      14.587  31.017  58.833  1.00  0.00     0.000 C 
BRANCH   2   3
ATOM      3  C   UNL     1      13.483  29.989  58.533  1.00  0.00     0.000 C 
BRANCH   3   4
ATOM      4  C   UNL     1      12.078  30.612  58.544  1.00  0.00     0.000 C 
BRANCH   4   5
ATOM      5  C   UNL     1      11.110  29.877  59.487  1.00  0.00     0.000 C 
BRANCH   5   6
ATOM      6  C   UNL     1      11.831  28.960  60.489  1.00  0.00     0.000 C 
BRANCH   6   7
ATOM      7  C   UNL     1      11.961  29.567  61.902  1.00  0.00     0.006 C 
BRANCH   7   8
ATOM      8  C   UNL     1      13.365  30.123  62.175  1.00  0.00     0.053 C 
BRANCH   8   9
ATOM      9  C   UNL     1      14.369  29.015  62.276  1.00  0.00     0.041 C 
ATOM     10  O   UNL     1      14.028  27.891  62.733  1.00  0.00    -0.550 OA
ATOM     11  O   UNL     1      15.676  29.217  61.849  1.00  0.00    -0.550 OA
ENDBRANCH   8   9
ENDBRANCH   7   8
ENDBRANCH   6   7
ENDBRANCH   5   6
ENDBRANCH   4   5
ENDBRANCH   3   4
ENDBRANCH   2   3
ENDBRANCH   1   2
BRANCH   1  12
ATOM     12  C   UNL     1      15.560  33.115  57.730  1.00  0.00     0.000 C 
BRANCH  12  13
ATOM     13  C   UNL     1      16.710  32.143  57.421  1.00  0.00    -0.000 C 
BRANCH  13  14
ATOM     14  C   UNL     1      16.788  31.771  55.930  1.00  0.00    -0.000 C 
BRANCH  14  15
ATOM     15  C   UNL     1      16.192  30.384  55.638  1.00  0.00    -0.000 C 
BRANCH  15  16
ATOM     16  C   UNL     1      14.792  30.465  55.002  1.00  0.00    -0.000 C 
BRANCH  16  17
ATOM     17  C   UNL     1      14.614  31.739  54.157  1.00  0.00    -0.000 C 
BRANCH  17  18
ATOM     18  C   UNL     1      13.416  32.607  54.612  1.00  0.00    -0.000 C 
BRANCH  18  19
ATOM     19  C   UNL     1      12.059  31.892  54.488  1.00  0.00    -0.003 C 
ATOM     20  C   UNL     1      11.309  32.256  53.210  1.00  0.00     0.004 C 
ENDBRANCH  18  19
ENDBRANCH  17  18
ENDBRANCH  16  17
ENDBRANCH  15  16
ENDBRANCH  14  15
ENDBRANCH  13  14
ENDBRANCH  12  13
ENDBRANCH   1  12
TORSDOF 16
ENDMDL
MODEL 8
REMARK VINA RESULT:    -4.662      3.104      5.343
REMARK INTER + INTRA:         -11.016
REMARK INTER:                  -8.223
REMARK INTRA:                  -2.793
REMARK UNBOUND:                -1.994
REMARK SMILES CCCCCCCCCCCCCCCCCC(=O)[O-]
REMARK SMILES IDX 10 1 11 2 12 3 13 4 14 5 15 6 16 7 17 8 18 9 19 10 20 11
REMARK SMILES IDX 9 12 8 13 7 14 6 15 5 16 4 17 3 18 2 19 1 20
REMARK H PARENT
REMARK Flexibility Score: inf
ROOT
ATOM      1  C   UNL     1      16.221  30.546  55.227  1.00  0.00     0.000 C 
ENDROOT
BRANCH   1   2
ATOM      2  C   UNL     1      17.354  31.574  55.090  1.00  0.00     0.000 C 
BRANCH   2   3
ATOM      3  C   UNL     1      17.850  32.092  56.451  1.00  0.00     0.000 C 
BRANCH   3   4
ATOM      4  C   UNL     1      16.885  31.753  57.598  1.00  0.00     0.000 C 
BRANCH   4   5
ATOM      5  C   UNL     1      16.010  32.949  58.010  1.00  0.00     0.000 C 
BRANCH   5   6
ATOM      6  C   UNL     1      14.513  32.600  58.081  1.00  0.00     0.000 C 
BRANCH   6   7
ATOM      7  C   UNL     1      14.236  31.090  58.243  1.00  0.00     0.006 C 
BRANCH   7   8
ATOM      8  C   UNL     1      12.788  30.801  58.663  1.00  0.00     0.053 C 
BRANCH   8   9
ATOM      9  C   UNL     1      12.747  30.029  59.946  1.00  0.00     0.041 C 
ATOM     10  O   UNL     1      13.803  29.845  60.609  1.00  0.00    -0.550 OA
ATOM     11  O   UNL     1      11.540  29.529  60.421  1.00  0.00    -0.550 OA
ENDBRANCH   8   9
ENDBRANCH   7   8
ENDBRANCH   6   7
ENDBRANCH   5   6
ENDBRANCH   4   5
ENDBRANCH   3   4
ENDBRANCH   2   3
ENDBRANCH   1   2
BRANCH   1  12
ATOM     12  C   UNL     1      14.895  31.036  54.616  1.00  0.00     0.000 C 
BRANCH  12  13
ATOM     13  C   UNL     1      14.993  32.462  54.049  1.00  0.00    -0.000 C 
BRANCH  13  14
ATOM     14  C   UNL     1      13.944  33.413  54.653  1.00  0.00    -0.000 C 
BRANCH  14  15
ATOM     15  C   UNL     1      14.556  34.745  55.116  1.00  0.00    -0.000 C 
BRANCH  15  16
ATOM     16  C   UNL     1      16.032  34.891  54.706  1.00  0.00    -0.000 C 
BRANCH  16  17
ATOM     17  C   UNL     1      16.840  35.705  55.733  1.00  0.00    -0.000 C 
BRANCH  17  18
ATOM     18  C   UNL     1      15.974  36.713  56.527  1.00  0.00    -0.000 C 
BRANCH  18  19
ATOM     19  C   UNL     1      16.789  37.597  57.488  1.00  0.00    -0.003 C 
ATOM     20  C   UNL     1      17.852  38.428  56.774  1.00  0.00     0.004 C 
ENDBRANCH  18  19
ENDBRANCH  17  18
ENDBRANCH  16  17
ENDBRANCH  15  16
ENDBRANCH  14  15
ENDBRANCH  13  14
ENDBRANCH  12  13
ENDBRANCH   1  12
TORSDOF 16
ENDMDL
MODEL 9
REMARK VINA RESULT:    -4.573      2.295      4.118
REMARK INTER + INTRA:         -10.843
REMARK INTER:                  -8.099
REMARK INTRA:                  -2.744
REMARK UNBOUND:                -1.994
REMARK SMILES CCCCCCCCCCCCCCCCCC(=O)[O-]
REMARK SMILES IDX 10 1 11 2 12 3 13 4 14 5 15 6 16 7 17 8 18 9 19 10 20 11
REMARK SMILES IDX 9 12 8 13 7 14 6 15 5 16 4 17 3 18 2 19 1 20
REMARK H PARENT
REMARK Flexibility Score: inf
ROOT
ATOM      1  C   UNL     1      14.133  30.387  56.163  1.00  0.00     0.000 C 
ENDROOT
BRANCH   1   2
ATOM      2  C   UNL     1      14.939  29.795  57.330  1.00  0.00     0.000 C 
BRANCH   2   3
ATOM      3  C   UNL     1      14.473  30.323  58.698  1.00  0.00     0.000 C 
BRANCH   3   4
ATOM      4  C   UNL     1      13.174  31.138  58.604  1.00  0.00     0.000 C 
BRANCH   4   5
ATOM      5  C   UNL     1      11.929  30.317  58.981  1.00  0.00     0.000 C 
BRANCH   5   6
ATOM      6  C   UNL     1      12.275  29.004  59.706  1.00  0.00     0.000 C 
BRANCH   6   7
ATOM      7  C   UNL     1      11.973  29.034  61.219  1.00  0.00     0.006 C 
BRANCH   7   8
ATOM      8  C   UNL     1      13.013  28.257  62.039  1.00  0.00     0.053 C 
BRANCH   8   9
ATOM      9  C   UNL     1      14.246  29.080  62.256  1.00  0.00     0.041 C 
ATOM     10  O   UNL     1      15.360  28.518  62.431  1.00  0.00    -0.550 OA
ATOM     11  O   UNL     1      14.169  30.468  62.246  1.00  0.00    -0.550 OA
ENDBRANCH   8   9
ENDBRANCH   7   8
ENDBRANCH   6   7
ENDBRANCH   5   6
ENDBRANCH   4   5
ENDBRANCH   3   4
ENDBRANCH   2   3
ENDBRANCH   1   2
BRANCH   1  12
ATOM     12  C   UNL     1      14.980  30.580  54.891  1.00  0.00     0.000 C 
BRANCH  12  13
ATOM     13  C   UNL     1      15.203  32.062  54.546  1.00  0.00    -0.000 C 
BRANCH  13  14
ATOM     14  C   UNL     1      14.115  32.977  55.135  1.00  0.00    -0.000 C 
BRANCH  14  15
ATOM     15  C   UNL     1      14.649  33.878  56.260  1.00  0.00    -0.000 C 
BRANCH  15  16
ATOM     16  C   UNL     1      16.181  33.811  56.392  1.00  0.00    -0.000 C 
BRANCH  16  17
ATOM     17  C   UNL     1      16.621  33.239  57.752  1.00  0.00    -0.000 C 
BRANCH  17  18
ATOM     18  C   UNL     1      17.663  32.102  57.625  1.00  0.00    -0.000 C 
BRANCH  18  19
ATOM     19  C   UNL     1      18.612  32.273  56.425  1.00  0.00    -0.003 C 
ATOM     20  C   UNL     1      18.640  31.051  55.511  1.00  0.00     0.004 C 
ENDBRANCH  18  19
ENDBRANCH  17  18
ENDBRANCH  16  17
ENDBRANCH  15  16
ENDBRANCH  14  15
ENDBRANCH  13  14
ENDBRANCH  12  13
ENDBRANCH   1  12
TORSDOF 16
ENDMDL
