MODEL 1
REMARK VINA RESULT:    -4.579      0.000      0.000
REMARK INTER + INTRA:          -9.269
REMARK INTER:                  -7.791
REMARK INTRA:                  -1.478
REMARK UNBOUND:                -1.478
REMARK SMILES CCCCCCCCCCCCCC(=O)[O-]
REMARK SMILES IDX 8 1 9 2 10 3 11 4 12 5 13 6 14 7 15 8 16 9 7 10 6 11 5 12
REMARK SMILES IDX 4 13 3 14 2 15 1 16
REMARK H PARENT
REMARK Flexibility Score: inf
ROOT
ATOM      1  C   UNL     1     -14.061  -2.361  33.341  1.00  0.00     0.000 C 
ENDROOT
BRANCH   1   2
ATOM      2  C   UNL     1     -13.805  -3.289  34.538  1.00  0.00     0.000 C 
BRANCH   2   3
ATOM      3  C   UNL     1     -14.561  -2.844  35.801  1.00  0.00     0.000 C 
BRANCH   3   4
ATOM      4  C   UNL     1     -16.086  -2.871  35.616  1.00  0.00     0.000 C 
BRANCH   4   5
ATOM      5  C   UNL     1     -16.806  -1.829  36.490  1.00  0.00     0.006 C 
BRANCH   5   6
ATOM      6  C   UNL     1     -17.464  -0.725  35.651  1.00  0.00     0.053 C 
BRANCH   6   7
ATOM      7  C   UNL     1     -18.229   0.240  36.505  1.00  0.00     0.041 C 
ATOM      8  O   UNL     1     -19.167   0.917  36.010  1.00  0.00    -0.550 OA
ATOM      9  O   UNL     1     -17.882   0.417  37.838  1.00  0.00    -0.550 OA
ENDBRANCH   6   7
ENDBRANCH   5   6
ENDBRANCH   4   5
ENDBRANCH   3   4
ENDBRANCH   2   3
ENDBRANCH   1   2
BRANCH   1  10
ATOM     10  C   UNL     1     -13.938  -3.090  31.991  1.00  0.00     0.000 C 
BRANCH  10  11
ATOM     11  C   UNL     1     -15.292  -3.263  31.286  1.00  0.00    -0.000 C 
BRANCH  11  12
ATOM     12  C   UNL     1     -16.119  -4.419  31.871  1.00  0.00    -0.000 C 
BRANCH  12  13
ATOM     13  C   UNL     1     -17.517  -3.942  32.281  1.00  0.00    -0.000 C 
BRANCH  13  14
ATOM     14  C   UNL     1     -17.606  -2.410  32.253  1.00  0.00    -0.000 C 
BRANCH  14  15
ATOM     15  C   UNL     1     -19.053  -1.899  32.329  1.00  0.00    -0.003 C 
ATOM     16  C   UNL     1     -19.818  -2.094  31.019  1.00  0.00     0.004 C 
ENDBRANCH  14  15
ENDBRANCH  13  14
ENDBRANCH  12  13
ENDBRANCH  11  12
ENDBRANCH  10  11
ENDBRANCH   1  10
TORSDOF 12
ENDMDL
MODEL 2
REMARK VINA RESULT:    -4.487      1.349      3.733
REMARK INTER + INTRA:          -9.112
REMARK INTER:                  -7.557
REMARK INTRA:                  -1.555
REMARK UNBOUND:                -1.478
REMARK SMILES CCCCCCCCCCCCCC(=O)[O-]
REMARK SMILES IDX 8 1 9 2 10 3 11 4 12 5 13 6 14 7 15 8 16 9 7 10 6 11 5 12
REMARK SMILES IDX 4 13 3 14 2 15 1 16
REMARK H PARENT
REMARK Flexibility Score: inf
ROOT
ATOM      1  C   UNL     1     -17.875  -3.648  32.110  1.00  0.00     0.000 C 
ENDROOT
BRANCH   1   2
ATOM      2  C   UNL     1     -17.131  -2.390  31.637  1.00  0.00     0.000 C 
BRANCH   2   3
ATOM      3  C   UNL     1     -17.057  -1.305  32.726  1.00  0.00     0.000 C 
BRANCH   3   4
ATOM      4  C   UNL     1     -17.892  -1.656  33.967  1.00  0.00     0.000 C 
BRANCH   4   5
ATOM      5  C   UNL     1     -17.251  -1.154  35.272  1.00  0.00     0.006 C 
BRANCH   5   6
ATOM      6  C   UNL     1     -17.886   0.155  35.763  1.00  0.00     0.053 C 
BRANCH   6   7
ATOM      7  C   UNL     1     -18.220   0.096  37.222  1.00  0.00     0.041 C 
ATOM      8  O   UNL     1     -17.473  -0.532  38.018  1.00  0.00    -0.550 OA
ATOM      9  O   UNL     1     -19.374   0.706  37.698  1.00  0.00    -0.550 OA
ENDBRANCH   6   7
ENDBRANCH   5   6
ENDBRANCH   4   5
ENDBRANCH   3   4
ENDBRANCH   2   3
ENDBRANCH   1   2
BRANCH   1  10
ATOM     10  C   UNL     1     -16.938  -4.855  32.289  1.00  0.00     0.000 C 
BRANCH  10  11
ATOM     11  C   UNL     1     -15.619  -4.700  31.517  1.00  0.00    -0.000 C 
BRANCH  11  12
ATOM     12  C   UNL     1     -14.390  -4.713  32.439  1.00  0.00    -0.000 C 
BRANCH  12  13
ATOM     13  C   UNL     1     -13.480  -3.511  32.160  1.00  0.00    -0.000 C 
BRANCH  13  14
ATOM     14  C   UNL     1     -13.710  -2.396  33.190  1.00  0.00    -0.000 C 
BRANCH  14  15
ATOM     15  C   UNL     1     -14.252  -2.928  34.526  1.00  0.00    -0.003 C 
ATOM     16  C   UNL     1     -13.257  -2.762  35.675  1.00  0.00     0.004 C 
ENDBRANCH  14  15
ENDBRANCH  13  14
ENDBRANCH  12  13
ENDBRANCH  11  12
ENDBRANCH  10  11
ENDBRANCH   1  10
TORSDOF 12
ENDMDL
MODEL 3
REMARK VINA RESULT:    -4.415      1.295      2.457
REMARK INTER + INTRA:          -8.991
REMARK INTER:                  -7.824
REMARK INTRA:                  -1.167
REMARK UNBOUND:                -1.478
REMARK SMILES CCCCCCCCCCCCCC(=O)[O-]
REMARK SMILES IDX 8 1 9 2 10 3 11 4 12 5 13 6 14 7 15 8 16 9 7 10 6 11 5 12
REMARK SMILES IDX 4 13 3 14 2 15 1 16
REMARK H PARENT
REMARK Flexibility Score: inf
ROOT
ATOM      1  C   UNL     1     -15.556  -3.102  35.167  1.00  0.00     0.000 C 
ENDROOT
BRANCH   1   2
ATOM      2  C   UNL     1     -16.356  -1.898  35.686  1.00  0.00     0.000 C 
BRANCH   2   3
ATOM      3  C   UNL     1     -16.756  -2.049  37.164  1.00  0.00     0.000 C 
BRANCH   3   4
ATOM      4  C   UNL     1     -17.514  -0.823  37.699  1.00  0.00     0.000 C 
BRANCH   4   5
ATOM      5  C   UNL     1     -18.166   0.003  36.578  1.00  0.00     0.006 C 
BRANCH   5   6
ATOM      6  C   UNL     1     -17.777   1.487  36.650  1.00  0.00     0.053 C 
BRANCH   6   7
ATOM      7  C   UNL     1     -18.033   2.062  38.010  1.00  0.00     0.041 C 
ATOM      8  O   UNL     1     -17.084   2.544  38.682  1.00  0.00    -0.550 OA
ATOM      9  O   UNL     1     -19.313   2.033  38.549  1.00  0.00    -0.550 OA
ENDBRANCH   6   7
ENDBRANCH   5   6
ENDBRANCH   4   5
ENDBRANCH   3   4
ENDBRANCH   2   3
ENDBRANCH   1   2
BRANCH   1  10
ATOM     10  C   UNL     1     -14.250  -2.685  34.468  1.00  0.00     0.000 C 
BRANCH  10  11
ATOM     11  C   UNL     1     -14.061  -3.376  33.109  1.00  0.00    -0.000 C 
BRANCH  11  12
ATOM     12  C   UNL     1     -15.169  -3.020  32.105  1.00  0.00    -0.000 C 
BRANCH  12  13
ATOM     13  C   UNL     1     -16.013  -4.253  31.758  1.00  0.00    -0.000 C 
BRANCH  13  14
ATOM     14  C   UNL     1     -17.488  -4.029  32.121  1.00  0.00    -0.000 C 
BRANCH  14  15
ATOM     15  C   UNL     1     -17.965  -2.603  31.802  1.00  0.00    -0.003 C 
ATOM     16  C   UNL     1     -18.643  -1.928  32.994  1.00  0.00     0.004 C 
ENDBRANCH  14  15
ENDBRANCH  13  14
ENDBRANCH  12  13
ENDBRANCH  11  12
ENDBRANCH  10  11
ENDBRANCH   1  10
TORSDOF 12
ENDMDL
MODEL 4
REMARK VINA RESULT:    -4.409      1.525      3.639
REMARK INTER + INTRA:          -8.980
REMARK INTER:                  -7.688
REMARK INTRA:                  -1.292
REMARK UNBOUND:                -1.478
REMARK SMILES CCCCCCCCCCCCCC(=O)[O-]
REMARK SMILES IDX 8 1 9 2 10 3 11 4 12 5 13 6 14 7 15 8 16 9 7 10 6 11 5 12
REMARK SMILES IDX 4 13 3 14 2 15 1 16
REMARK H PARENT
REMARK Flexibility Score: inf
ROOT
ATOM      1  C   UNL     1     -16.833  -1.465  32.681  1.00  0.00     0.000 C 
ENDROOT
BRANCH   1   2
ATOM      2  C   UNL     1     -17.518  -1.942  33.971  1.00  0.00     0.000 C 
BRANCH   2   3
ATOM      3  C   UNL     1     -17.533  -0.860  35.065  1.00  0.00     0.000 C 
BRANCH   3   4
ATOM      4  C   UNL     1     -17.086  -1.399  36.433  1.00  0.00     0.000 C 
BRANCH   4   5
ATOM      5  C   UNL     1     -17.857  -0.760  37.600  1.00  0.00     0.006 C 
BRANCH   5   6
ATOM      6  C   UNL     1     -18.910   0.248  37.116  1.00  0.00     0.053 C 
BRANCH   6   7
ATOM      7  C   UNL     1     -18.509   1.659  37.421  1.00  0.00     0.041 C 
ATOM      8  O   UNL     1     -18.775   2.164  38.543  1.00  0.00    -0.550 OA
ATOM      9  O   UNL     1     -17.874   2.428  36.454  1.00  0.00    -0.550 OA
ENDBRANCH   6   7
ENDBRANCH   5   6
ENDBRANCH   4   5
ENDBRANCH   3   4
ENDBRANCH   2   3
ENDBRANCH   1   2
BRANCH   1  10
ATOM     10  C   UNL     1     -17.041  -2.439  31.508  1.00  0.00     0.000 C 
BRANCH  10  11
ATOM     11  C   UNL     1     -15.959  -3.528  31.444  1.00  0.00    -0.000 C 
BRANCH  11  12
ATOM     12  C   UNL     1     -14.553  -2.982  31.739  1.00  0.00    -0.000 C 
BRANCH  12  13
ATOM     13  C   UNL     1     -13.770  -3.940  32.645  1.00  0.00    -0.000 C 
BRANCH  13  14
ATOM     14  C   UNL     1     -14.454  -4.088  34.011  1.00  0.00    -0.000 C 
BRANCH  14  15
ATOM     15  C   UNL     1     -13.949  -3.065  35.039  1.00  0.00    -0.003 C 
ATOM     16  C   UNL     1     -14.144  -3.531  36.482  1.00  0.00     0.004 C 
ENDBRANCH  14  15
ENDBRANCH  13  14
ENDBRANCH  12  13
ENDBRANCH  11  12
ENDBRANCH  10  11
ENDBRANCH   1  10
TORSDOF 12
ENDMDL
MODEL 5
REMARK VINA RESULT:    -4.350     10.353     12.836
REMARK INTER + INTRA:          -8.880
REMARK INTER:                  -7.482
REMARK INTRA:                  -1.398
REMARK UNBOUND:                -1.478
REMARK SMILES CCCCCCCCCCCCCC(=O)[O-]
REMARK SMILES IDX 8 1 9 2 10 3 11 4 12 5 13 6 14 7 15 8 16 9 7 10 6 11 5 12
REMARK SMILES IDX 4 13 3 14 2 15 1 16
REMARK H PARENT
REMARK Flexibility Score: inf
ROOT
ATOM      1  C   UNL     1     -26.039  -2.248  23.441  1.00  0.00     0.000 C 
ENDROOT
BRANCH   1   2
ATOM      2  C   UNL     1     -27.018  -2.626  24.562  1.00  0.00     0.000 C 
BRANCH   2   3
ATOM      3  C   UNL     1     -27.903  -1.444  24.995  1.00  0.00     0.000 C 
BRANCH   3   4
ATOM      4  C   UNL     1     -27.555  -0.930  26.401  1.00  0.00     0.000 C 
BRANCH   4   5
ATOM      5  C   UNL     1     -26.861  -1.996  27.265  1.00  0.00     0.006 C 
BRANCH   5   6
ATOM      6  C   UNL     1     -25.498  -1.522  27.787  1.00  0.00     0.053 C 
BRANCH   6   7
ATOM      7  C   UNL     1     -24.487  -2.628  27.785  1.00  0.00     0.041 C 
ATOM      8  O   UNL     1     -24.400  -3.404  26.797  1.00  0.00    -0.550 OA
ATOM      9  O   UNL     1     -23.666  -2.824  28.888  1.00  0.00    -0.550 OA
ENDBRANCH   6   7
ENDBRANCH   5   6
ENDBRANCH   4   5
ENDBRANCH   3   4
ENDBRANCH   2   3
ENDBRANCH   1   2
BRANCH   1  10
ATOM     10  C   UNL     1     -25.237  -0.975  23.763  1.00  0.00     0.000 C 
BRANCH  10  11
ATOM     11  C   UNL     1     -23.758  -1.268  24.064  1.00  0.00    -0.000 C 
BRANCH  11  12
ATOM     12  C   UNL     1     -23.142  -0.252  25.039  1.00  0.00    -0.000 C 
BRANCH  12  13
ATOM     13  C   UNL     1     -22.747   1.038  24.311  1.00  0.00    -0.000 C 
BRANCH  13  14
ATOM     14  C   UNL     1     -21.821   0.738  23.124  1.00  0.00    -0.000 C 
BRANCH  14  15
ATOM     15  C   UNL     1     -21.818   1.863  22.076  1.00  0.00    -0.003 C 
ATOM     16  C   UNL     1     -23.218   2.410  21.794  1.00  0.00     0.004 C 
ENDBRANCH  14  15
ENDBRANCH  13  14
ENDBRANCH  12  13
ENDBRANCH  11  12
ENDBRANCH  10  11
ENDBRANCH   1  10
TORSDOF 12
ENDMDL
MODEL 6
REMARK VINA RESULT:    -4.302      1.473      3.423
REMARK INTER + INTRA:          -8.798
REMARK INTER:                  -7.520
REMARK INTRA:                  -1.278
REMARK UNBOUND:                -1.478
REMARK SMILES CCCCCCCCCCCCCC(=O)[O-]
REMARK SMILES IDX 8 1 9 2 10 3 11 4 12 5 13 6 14 7 15 8 16 9 7 10 6 11 5 12
REMARK SMILES IDX 4 13 3 14 2 15 1 16
REMARK H PARENT
REMARK Flexibility Score: inf
ROOT
ATOM      1  C   UNL     1     -16.516  -1.574  35.105  1.00  0.00     0.000 C 
ENDROOT
BRANCH   1   2
ATOM      2  C   UNL     1     -16.238  -2.489  36.307  1.00  0.00     0.000 C 
BRANCH   2   3
ATOM      3  C   UNL     1     -17.178  -2.207  37.492  1.00  0.00     0.000 C 
BRANCH   3   4
ATOM      4  C   UNL     1     -17.348  -0.704  37.766  1.00  0.00     0.000 C 
BRANCH   4   5
ATOM      5  C   UNL     1     -18.810  -0.243  37.645  1.00  0.00     0.006 C 
BRANCH   5   6
ATOM      6  C   UNL     1     -19.012   0.747  36.489  1.00  0.00     0.053 C 
BRANCH   6   7
ATOM      7  C   UNL     1     -17.973   1.826  36.496  1.00  0.00     0.041 C 
ATOM      8  O   UNL     1     -17.161   1.929  35.539  1.00  0.00    -0.550 OA
ATOM      9  O   UNL     1     -17.878   2.696  37.575  1.00  0.00    -0.550 OA
ENDBRANCH   6   7
ENDBRANCH   5   6
ENDBRANCH   4   5
ENDBRANCH   3   4
ENDBRANCH   2   3
ENDBRANCH   1   2
BRANCH   1  10
ATOM     10  C   UNL     1     -17.770  -1.996  34.319  1.00  0.00     0.000 C 
BRANCH  10  11
ATOM     11  C   UNL     1     -17.522  -2.067  32.804  1.00  0.00    -0.000 C 
BRANCH  11  12
ATOM     12  C   UNL     1     -17.666  -3.493  32.249  1.00  0.00    -0.000 C 
BRANCH  12  13
ATOM     13  C   UNL     1     -16.294  -4.156  32.075  1.00  0.00    -0.000 C 
BRANCH  13  14
ATOM     14  C   UNL     1     -15.224  -3.117  31.709  1.00  0.00    -0.000 C 
BRANCH  14  15
ATOM     15  C   UNL     1     -14.026  -3.138  32.671  1.00  0.00    -0.003 C 
ATOM     16  C   UNL     1     -13.048  -4.275  32.374  1.00  0.00     0.004 C 
ENDBRANCH  14  15
ENDBRANCH  13  14
ENDBRANCH  12  13
ENDBRANCH  11  12
ENDBRANCH  10  11
ENDBRANCH   1  10
TORSDOF 12
ENDMDL
MODEL 7
REMARK VINA RESULT:    -4.276      1.498      2.622
REMARK INTER + INTRA:          -8.754
REMARK INTER:                  -7.426
REMARK INTRA:                  -1.329
REMARK UNBOUND:                -1.478
REMARK SMILES CCCCCCCCCCCCCC(=O)[O-]
REMARK SMILES IDX 8 1 9 2 10 3 11 4 12 5 13 6 14 7 15 8 16 9 7 10 6 11 5 12
REMARK SMILES IDX 4 13 3 14 2 15 1 16
REMARK H PARENT
REMARK Flexibility Score: inf
ROOT
ATOM      1  C   UNL     1     -14.865  -4.872  35.382  1.00  0.00     0.000 C 
ENDROOT
BRANCH   1   2
ATOM      2  C   UNL     1     -16.017  -4.095  36.037  1.00  0.00     0.000 C 
BRANCH   2   3
ATOM      3  C   UNL     1     -15.639  -2.639  36.358  1.00  0.00     0.000 C 
BRANCH   3   4
ATOM      4  C   UNL     1     -16.793  -1.658  36.098  1.00  0.00     0.000 C 
BRANCH   4   5
ATOM      5  C   UNL     1     -17.620  -1.371  37.362  1.00  0.00     0.006 C 
BRANCH   5   6
ATOM      6  C   UNL     1     -17.660   0.125  37.702  1.00  0.00     0.053 C 
BRANCH   6   7
ATOM      7  C   UNL     1     -18.206   0.937  36.568  1.00  0.00     0.041 C 
ATOM      8  O   UNL     1     -19.391   0.763  36.177  1.00  0.00    -0.550 OA
ATOM      9  O   UNL     1     -17.398   1.862  35.919  1.00  0.00    -0.550 OA
ENDBRANCH   6   7
ENDBRANCH   5   6
ENDBRANCH   4   5
ENDBRANCH   3   4
ENDBRANCH   2   3
ENDBRANCH   1   2
BRANCH   1  10
ATOM     10  C   UNL     1     -13.792  -3.944  34.786  1.00  0.00     0.000 C 
BRANCH  10  11
ATOM     11  C   UNL     1     -12.840  -4.679  33.829  1.00  0.00    -0.000 C 
BRANCH  11  12
ATOM     12  C   UNL     1     -13.028  -4.251  32.365  1.00  0.00    -0.000 C 
BRANCH  12  13
ATOM     13  C   UNL     1     -13.839  -2.954  32.271  1.00  0.00    -0.000 C 
BRANCH  13  14
ATOM     14  C   UNL     1     -15.148  -3.177  31.500  1.00  0.00    -0.000 C 
BRANCH  14  15
ATOM     15  C   UNL     1     -16.393  -2.859  32.342  1.00  0.00    -0.003 C 
ATOM     16  C   UNL     1     -16.753  -1.373  32.326  1.00  0.00     0.004 C 
ENDBRANCH  14  15
ENDBRANCH  13  14
ENDBRANCH  12  13
ENDBRANCH  11  12
ENDBRANCH  10  11
ENDBRANCH   1  10
TORSDOF 12
ENDMDL
MODEL 8
REMARK VINA RESULT:    -4.187     11.617     13.684
REMARK INTER + INTRA:          -8.603
REMARK INTER:                  -6.742
REMARK INTRA:                  -1.861
REMARK UNBOUND:                -1.478
REMARK SMILES CCCCCCCCCCCCCC(=O)[O-]
REMARK SMILES IDX 8 1 9 2 10 3 11 4 12 5 13 6 14 7 15 8 16 9 7 10 6 11 5 12
REMARK SMILES IDX 4 13 3 14 2 15 1 16
REMARK H PARENT
REMARK Flexibility Score: inf
ROOT
ATOM      1  C   UNL     1     -26.440  -3.709  24.084  1.00  0.00     0.000 C 
ENDROOT
BRANCH   1   2
ATOM      2  C   UNL     1     -25.257  -3.678  25.063  1.00  0.00     0.000 C 
BRANCH   2   3
ATOM      3  C   UNL     1     -24.122  -2.754  24.587  1.00  0.00     0.000 C 
BRANCH   3   4
ATOM      4  C   UNL     1     -23.840  -1.610  25.574  1.00  0.00     0.000 C 
BRANCH   4   5
ATOM      5  C   UNL     1     -22.990  -0.489  24.953  1.00  0.00     0.006 C 
BRANCH   5   6
ATOM      6  C   UNL     1     -23.652   0.116  23.707  1.00  0.00     0.053 C 
BRANCH   6   7
ATOM      7  C   UNL     1     -23.224   1.535  23.485  1.00  0.00     0.041 C 
ATOM      8  O   UNL     1     -23.053   2.305  24.467  1.00  0.00    -0.550 OA
ATOM      9  O   UNL     1     -23.048   2.017  22.194  1.00  0.00    -0.550 OA
ENDBRANCH   6   7
ENDBRANCH   5   6
ENDBRANCH   4   5
ENDBRANCH   3   4
ENDBRANCH   2   3
ENDBRANCH   1   2
BRANCH   1  10
ATOM     10  C   UNL     1     -26.501  -2.456  23.193  1.00  0.00     0.000 C 
BRANCH  10  11
ATOM     11  C   UNL     1     -27.639  -1.503  23.589  1.00  0.00    -0.000 C 
BRANCH  11  12
ATOM     12  C   UNL     1     -27.162  -0.360  24.499  1.00  0.00    -0.000 C 
BRANCH  12  13
ATOM     13  C   UNL     1     -27.967  -0.323  25.804  1.00  0.00    -0.000 C 
BRANCH  13  14
ATOM     14  C   UNL     1     -27.506  -1.428  26.765  1.00  0.00    -0.000 C 
BRANCH  14  15
ATOM     15  C   UNL     1     -28.589  -2.491  27.006  1.00  0.00    -0.003 C 
ATOM     16  C   UNL     1     -29.981  -2.026  26.578  1.00  0.00     0.004 C 
ENDBRANCH  14  15
ENDBRANCH  13  14
ENDBRANCH  12  13
ENDBRANCH  11  12
ENDBRANCH  10  11
ENDBRANCH   1  10
TORSDOF 12
ENDMDL
MODEL 9
REMARK VINA RESULT:    -4.169      1.925      3.740
REMARK INTER + INTRA:          -8.571
REMARK INTER:                  -7.285
REMARK INTRA:                  -1.286
REMARK UNBOUND:                -1.478
REMARK SMILES CCCCCCCCCCCCCC(=O)[O-]
REMARK SMILES IDX 8 1 9 2 10 3 11 4 12 5 13 6 14 7 15 8 16 9 7 10 6 11 5 12
REMARK SMILES IDX 4 13 3 14 2 15 1 16
REMARK H PARENT
REMARK Flexibility Score: inf
ROOT
ATOM      1  C   UNL     1     -15.611  -3.363  31.392  1.00  0.00     0.000 C 
ENDROOT
BRANCH   1   2
ATOM      2  C   UNL     1     -16.602  -3.765  32.495  1.00  0.00     0.000 C 
BRANCH   2   3
ATOM      3  C   UNL     1     -17.676  -2.691  32.742  1.00  0.00     0.000 C 
BRANCH   3   4
ATOM      4  C   UNL     1     -17.122  -1.460  33.477  1.00  0.00     0.000 C 
BRANCH   4   5
ATOM      5  C   UNL     1     -17.260  -1.574  35.005  1.00  0.00     0.006 C 
BRANCH   5   6
ATOM      6  C   UNL     1     -17.788  -0.278  35.637  1.00  0.00     0.053 C 
BRANCH   6   7
ATOM      7  C   UNL     1     -17.794  -0.353  37.133  1.00  0.00     0.041 C 
ATOM      8  O   UNL     1     -17.789   0.702  37.820  1.00  0.00    -0.550 OA
ATOM      9  O   UNL     1     -17.771  -1.588  37.770  1.00  0.00    -0.550 OA
ENDBRANCH   6   7
ENDBRANCH   5   6
ENDBRANCH   4   5
ENDBRANCH   3   4
ENDBRANCH   2   3
ENDBRANCH   1   2
BRANCH   1  10
ATOM     10  C   UNL     1     -14.212  -3.041  31.946  1.00  0.00     0.000 C 
BRANCH  10  11
ATOM     11  C   UNL     1     -13.897  -3.808  33.240  1.00  0.00    -0.000 C 
BRANCH  11  12
ATOM     12  C   UNL     1     -12.741  -4.805  33.069  1.00  0.00    -0.000 C 
BRANCH  12  13
ATOM     13  C   UNL     1     -13.245  -6.251  33.152  1.00  0.00    -0.000 C 
BRANCH  13  14
ATOM     14  C   UNL     1     -13.700  -6.755  31.775  1.00  0.00    -0.000 C 
BRANCH  14  15
ATOM     15  C   UNL     1     -15.020  -7.539  31.839  1.00  0.00    -0.003 C 
ATOM     16  C   UNL     1     -16.057  -7.030  30.838  1.00  0.00     0.004 C 
ENDBRANCH  14  15
ENDBRANCH  13  14
ENDBRANCH  12  13
ENDBRANCH  11  12
ENDBRANCH  10  11
ENDBRANCH   1  10
TORSDOF 12
ENDMDL
