MODEL 1
REMARK VINA RESULT:    -6.136      0.000      0.000
REMARK INTER + INTRA:          -7.670
REMARK INTER:                  -7.391
REMARK INTRA:                  -0.279
REMARK UNBOUND:                -0.279
REMARK SMILES O=c1c(O)c(-c2ccc(O)c(O)c2)oc2cc(O)cc(O)c12
REMARK SMILES IDX 5 1 3 2 2 3 1 4 22 5 20 6 19 7 17 8 16 9 15 10 14 11 6 12
REMARK SMILES IDX 7 13 8 14 9 15 13 16 11 17 10 18 12 20 4 22 21 24 18 26
REMARK H PARENT 10 19 12 21 4 23 21 25 18 27
REMARK Flexibility Score: inf
ROOT
ATOM      1  C   UNL     1      -5.493   5.948   4.570  1.00  0.00     0.180 A 
ATOM      2  C   UNL     1      -4.123   6.244   4.657  1.00  0.00     0.208 A 
ATOM      3  C   UNL     1      -3.397   6.462   3.475  1.00  0.00     0.238 A 
ATOM      4  O   UNL     1      -2.182   6.780   3.561  1.00  0.00    -0.285 OA
ATOM      5  C   UNL     1      -4.046   6.364   2.221  1.00  0.00     0.111 A 
ATOM      6  C   UNL     1      -3.401   6.525   0.958  1.00  0.00     0.134 A 
ATOM      7  C   UNL     1      -4.168   6.536  -0.214  1.00  0.00     0.093 A 
ATOM      8  C   UNL     1      -5.548   6.327  -0.173  1.00  0.00     0.123 A 
ATOM      9  C   UNL     1      -6.178   6.110   1.050  1.00  0.00     0.094 A 
ATOM     10  C   UNL     1      -5.446   6.130   2.239  1.00  0.00     0.146 A 
ATOM     11  O   UNL     1      -6.089   5.928   3.383  1.00  0.00    -0.452 OA
ENDROOT
BRANCH   1  12
ATOM     12  C   UNL     1      -6.320   5.682   5.770  1.00  0.00     0.025 A 
ATOM     13  C   UNL     1      -7.167   6.667   6.308  1.00  0.00     0.016 A 
ATOM     14  C   UNL     1      -7.921   6.401   7.454  1.00  0.00     0.051 A 
ATOM     15  C   UNL     1      -7.829   5.154   8.088  1.00  0.00     0.157 A 
ATOM     16  C   UNL     1      -6.216   4.442   6.421  1.00  0.00     0.062 A 
ATOM     17  C   UNL     1      -6.969   4.172   7.568  1.00  0.00     0.158 A 
BRANCH  15  18
ATOM     18  O   UNL     1      -8.582   4.892   9.230  1.00  0.00    -0.504 OA
ATOM     19  H   UNL     1      -8.194   4.385  10.017  1.00  0.00     0.293 HD
ENDBRANCH  15  18
BRANCH  17  20
ATOM     20  O   UNL     1      -6.849   2.924   8.180  1.00  0.00    -0.504 OA
ATOM     21  H   UNL     1      -6.785   2.821   9.185  1.00  0.00     0.293 HD
ENDBRANCH  17  20
ENDBRANCH   1  12
BRANCH   2  22
ATOM     22  O   UNL     1      -3.505   6.357   5.906  1.00  0.00    -0.502 OA
ATOM     23  H   UNL     1      -3.858   6.967   6.634  1.00  0.00     0.293 HD
ENDBRANCH   2  22
BRANCH   6  24
ATOM     24  O   UNL     1      -2.017   6.649   0.800  1.00  0.00    -0.507 OA
ATOM     25  H   UNL     1      -1.444   6.029   0.246  1.00  0.00     0.293 HD
ENDBRANCH   6  24
BRANCH   8  26
ATOM     26  O   UNL     1      -6.301   6.325  -1.345  1.00  0.00    -0.508 OA
ATOM     27  H   UNL     1      -7.154   6.865  -1.429  1.00  0.00     0.293 HD
ENDBRANCH   8  26
TORSDOF 6
ENDMDL
MODEL 2
REMARK VINA RESULT:    -5.938      1.689      2.810
REMARK INTER + INTRA:          -7.432
REMARK INTER:                  -7.191
REMARK INTRA:                  -0.241
REMARK UNBOUND:                -0.279
REMARK SMILES O=c1c(O)c(-c2ccc(O)c(O)c2)oc2cc(O)cc(O)c12
REMARK SMILES IDX 5 1 3 2 2 3 1 4 22 5 20 6 19 7 17 8 16 9 15 10 14 11 6 12
REMARK SMILES IDX 7 13 8 14 9 15 13 16 11 17 10 18 12 20 4 22 21 24 18 26
REMARK H PARENT 10 19 12 21 4 23 21 25 18 27
REMARK Flexibility Score: inf
ROOT
ATOM      1  C   UNL     1      -5.732   5.972   5.135  1.00  0.00     0.180 A 
ATOM      2  C   UNL     1      -6.234   6.799   4.116  1.00  0.00     0.208 A 
ATOM      3  C   UNL     1      -5.504   6.932   2.924  1.00  0.00     0.238 A 
ATOM      4  O   UNL     1      -5.985   7.631   1.995  1.00  0.00    -0.285 OA
ATOM      5  C   UNL     1      -4.273   6.250   2.772  1.00  0.00     0.111 A 
ATOM      6  C   UNL     1      -3.430   6.343   1.624  1.00  0.00     0.134 A 
ATOM      7  C   UNL     1      -2.300   5.522   1.528  1.00  0.00     0.093 A 
ATOM      8  C   UNL     1      -1.946   4.659   2.568  1.00  0.00     0.123 A 
ATOM      9  C   UNL     1      -2.730   4.604   3.718  1.00  0.00     0.094 A 
ATOM     10  C   UNL     1      -3.884   5.384   3.827  1.00  0.00     0.146 A 
ATOM     11  O   UNL     1      -4.608   5.293   4.937  1.00  0.00    -0.452 OA
ENDROOT
BRANCH   1  12
ATOM     12  C   UNL     1      -6.432   5.801   6.429  1.00  0.00     0.025 A 
ATOM     13  C   UNL     1      -6.500   6.847   7.367  1.00  0.00     0.016 A 
ATOM     14  C   UNL     1      -7.146   6.655   8.591  1.00  0.00     0.051 A 
ATOM     15  C   UNL     1      -7.719   5.415   8.902  1.00  0.00     0.157 A 
ATOM     16  C   UNL     1      -6.990   4.554   6.754  1.00  0.00     0.062 A 
ATOM     17  C   UNL     1      -7.637   4.360   7.979  1.00  0.00     0.158 A 
BRANCH  15  18
ATOM     18  O   UNL     1      -8.364   5.229  10.124  1.00  0.00    -0.504 OA
ATOM     19  H   UNL     1      -8.451   5.980  10.798  1.00  0.00     0.293 HD
ENDBRANCH  15  18
BRANCH  17  20
ATOM     20  O   UNL     1      -8.192   3.111   8.262  1.00  0.00    -0.504 OA
ATOM     21  H   UNL     1      -9.112   3.012   8.673  1.00  0.00     0.293 HD
ENDBRANCH  17  20
ENDBRANCH   1  12
BRANCH   2  22
ATOM     22  O   UNL     1      -7.462   7.447   4.278  1.00  0.00    -0.502 OA
ATOM     23  H   UNL     1      -8.156   7.490   3.541  1.00  0.00     0.293 HD
ENDBRANCH   2  22
BRANCH   6  24
ATOM     24  O   UNL     1      -3.643   7.238   0.571  1.00  0.00    -0.507 OA
ATOM     25  H   UNL     1      -4.529   7.387   0.114  1.00  0.00     0.293 HD
ENDBRANCH   6  24
BRANCH   8  26
ATOM     26  O   UNL     1      -0.811   3.857   2.470  1.00  0.00    -0.508 OA
ATOM     27  H   UNL     1      -0.832   2.876   2.722  1.00  0.00     0.293 HD
ENDBRANCH   8  26
TORSDOF 6
ENDMDL
MODEL 3
REMARK VINA RESULT:    -5.835      3.260      7.784
REMARK INTER + INTRA:          -7.308
REMARK INTER:                  -6.985
REMARK INTRA:                  -0.324
REMARK UNBOUND:                -0.279
REMARK SMILES O=c1c(O)c(-c2ccc(O)c(O)c2)oc2cc(O)cc(O)c12
REMARK SMILES IDX 5 1 3 2 2 3 1 4 22 5 20 6 19 7 17 8 16 9 15 10 14 11 6 12
REMARK SMILES IDX 7 13 8 14 9 15 13 16 11 17 10 18 12 20 4 22 21 24 18 26
REMARK H PARENT 10 19 12 21 4 23 21 25 18 27
REMARK Flexibility Score: inf
ROOT
ATOM      1  C   UNL     1      -5.259   7.315  -0.047  1.00  0.00     0.180 A 
ATOM      2  C   UNL     1      -6.260   7.164   0.928  1.00  0.00     0.208 A 
ATOM      3  C   UNL     1      -5.973   6.433   2.092  1.00  0.00     0.238 A 
ATOM      4  O   UNL     1      -6.856   6.348   2.985  1.00  0.00    -0.285 OA
ATOM      5  C   UNL     1      -4.695   5.848   2.259  1.00  0.00     0.111 A 
ATOM      6  C   UNL     1      -4.307   5.054   3.380  1.00  0.00     0.134 A 
ATOM      7  C   UNL     1      -2.977   4.634   3.502  1.00  0.00     0.093 A 
ATOM      8  C   UNL     1      -2.036   4.926   2.512  1.00  0.00     0.123 A 
ATOM      9  C   UNL     1      -2.419   5.651   1.386  1.00  0.00     0.094 A 
ATOM     10  C   UNL     1      -3.730   6.114   1.253  1.00  0.00     0.146 A 
ATOM     11  O   UNL     1      -4.050   6.810   0.168  1.00  0.00    -0.452 OA
ENDROOT
BRANCH   1  12
ATOM     12  C   UNL     1      -5.494   8.049  -1.311  1.00  0.00     0.025 A 
ATOM     13  C   UNL     1      -5.264   9.434  -1.406  1.00  0.00     0.016 A 
ATOM     14  C   UNL     1      -5.514  10.110  -2.603  1.00  0.00     0.051 A 
ATOM     15  C   UNL     1      -6.010   9.419  -3.716  1.00  0.00     0.157 A 
ATOM     16  C   UNL     1      -6.010   7.365  -2.424  1.00  0.00     0.062 A 
ATOM     17  C   UNL     1      -6.261   8.040  -3.623  1.00  0.00     0.158 A 
BRANCH  15  18
ATOM     18  O   UNL     1      -6.257  10.097  -4.909  1.00  0.00    -0.504 OA
ATOM     19  H   UNL     1      -6.487  11.083  -4.920  1.00  0.00     0.293 HD
ENDBRANCH  15  18
BRANCH  17  20
ATOM     20  O   UNL     1      -6.761   7.324  -4.712  1.00  0.00    -0.504 OA
ATOM     21  H   UNL     1      -6.251   6.557  -5.131  1.00  0.00     0.293 HD
ENDBRANCH  17  20
ENDBRANCH   1  12
BRANCH   2  22
ATOM     22  O   UNL     1      -7.508   7.768   0.752  1.00  0.00    -0.502 OA
ATOM     23  H   UNL     1      -8.273   7.308   0.273  1.00  0.00     0.293 HD
ENDBRANCH   2  22
BRANCH   6  24
ATOM     24  O   UNL     1      -5.190   4.628   4.377  1.00  0.00    -0.507 OA
ATOM     25  H   UNL     1      -6.003   5.142   4.682  1.00  0.00     0.293 HD
ENDBRANCH   6  24
BRANCH   8  26
ATOM     26  O   UNL     1      -0.718   4.492   2.635  1.00  0.00    -0.508 OA
ATOM     27  H   UNL     1      -0.122   4.812   3.389  1.00  0.00     0.293 HD
ENDBRANCH   8  26
TORSDOF 6
ENDMDL
MODEL 4
REMARK VINA RESULT:    -5.797      3.394      5.543
REMARK INTER + INTRA:          -7.263
REMARK INTER:                  -7.024
REMARK INTRA:                  -0.238
REMARK UNBOUND:                -0.279
REMARK SMILES O=c1c(O)c(-c2ccc(O)c(O)c2)oc2cc(O)cc(O)c12
REMARK SMILES IDX 5 1 3 2 2 3 1 4 22 5 20 6 19 7 17 8 16 9 15 10 14 11 6 12
REMARK SMILES IDX 7 13 8 14 9 15 13 16 11 17 10 18 12 20 4 22 21 24 18 26
REMARK H PARENT 10 19 12 21 4 23 21 25 18 27
REMARK Flexibility Score: inf
ROOT
ATOM      1  C   UNL     1      -5.389   7.398   0.748  1.00  0.00     0.180 A 
ATOM      2  C   UNL     1      -6.518   8.159   1.095  1.00  0.00     0.208 A 
ATOM      3  C   UNL     1      -7.319   8.693   0.073  1.00  0.00     0.238 A 
ATOM      4  O   UNL     1      -8.359   9.328   0.390  1.00  0.00    -0.285 OA
ATOM      5  C   UNL     1      -6.972   8.476  -1.282  1.00  0.00     0.111 A 
ATOM      6  C   UNL     1      -7.688   9.003  -2.398  1.00  0.00     0.134 A 
ATOM      7  C   UNL     1      -7.330   8.615  -3.695  1.00  0.00     0.093 A 
ATOM      8  C   UNL     1      -6.241   7.771  -3.919  1.00  0.00     0.123 A 
ATOM      9  C   UNL     1      -5.499   7.297  -2.839  1.00  0.00     0.094 A 
ATOM     10  C   UNL     1      -5.854   7.637  -1.532  1.00  0.00     0.146 A 
ATOM     11  O   UNL     1      -5.126   7.156  -0.531  1.00  0.00    -0.452 OA
ENDROOT
BRANCH   1  12
ATOM     12  C   UNL     1      -4.482   6.823   1.768  1.00  0.00     0.025 A 
ATOM     13  C   UNL     1      -3.187   7.334   1.968  1.00  0.00     0.016 A 
ATOM     14  C   UNL     1      -2.341   6.760   2.920  1.00  0.00     0.051 A 
ATOM     15  C   UNL     1      -2.769   5.660   3.675  1.00  0.00     0.157 A 
ATOM     16  C   UNL     1      -4.898   5.707   2.513  1.00  0.00     0.062 A 
ATOM     17  C   UNL     1      -4.053   5.131   3.467  1.00  0.00     0.158 A 
BRANCH  15  18
ATOM     18  O   UNL     1      -1.922   5.091   4.625  1.00  0.00    -0.504 OA
ATOM     19  H   UNL     1      -2.257   4.826   5.544  1.00  0.00     0.293 HD
ENDBRANCH  15  18
BRANCH  17  20
ATOM     20  O   UNL     1      -4.505   4.032   4.198  1.00  0.00    -0.504 OA
ATOM     21  H   UNL     1      -4.171   3.093   4.020  1.00  0.00     0.293 HD
ENDBRANCH  17  20
ENDBRANCH   1  12
BRANCH   2  22
ATOM     22  O   UNL     1      -6.855   8.344   2.439  1.00  0.00    -0.502 OA
ATOM     23  H   UNL     1      -7.578   8.989   2.734  1.00  0.00     0.293 HD
ENDBRANCH   2  22
BRANCH   6  24
ATOM     24  O   UNL     1      -8.733   9.926  -2.288  1.00  0.00    -0.507 OA
ATOM     25  H   UNL     1      -9.144  10.424  -3.064  1.00  0.00     0.293 HD
ENDBRANCH   6  24
BRANCH   8  26
ATOM     26  O   UNL     1      -5.883   7.402  -5.214  1.00  0.00    -0.508 OA
ATOM     27  H   UNL     1      -5.192   7.923  -5.742  1.00  0.00     0.293 HD
ENDBRANCH   8  26
TORSDOF 6
ENDMDL
MODEL 5
REMARK VINA RESULT:    -5.768     11.646     13.750
REMARK INTER + INTRA:          -7.227
REMARK INTER:                  -6.980
REMARK INTRA:                  -0.247
REMARK UNBOUND:                -0.279
REMARK SMILES O=c1c(O)c(-c2ccc(O)c(O)c2)oc2cc(O)cc(O)c12
REMARK SMILES IDX 5 1 3 2 2 3 1 4 22 5 20 6 19 7 17 8 16 9 15 10 14 11 6 12
REMARK SMILES IDX 7 13 8 14 9 15 13 16 11 17 10 18 12 20 4 22 21 24 18 26
REMARK H PARENT 10 19 12 21 4 23 21 25 18 27
REMARK Flexibility Score: inf
ROOT
ATOM      1  C   UNL     1      -2.999  -5.968   6.091  1.00  0.00     0.180 A 
ATOM      2  C   UNL     1      -3.599  -5.964   4.821  1.00  0.00     0.208 A 
ATOM      3  C   UNL     1      -4.959  -6.296   4.710  1.00  0.00     0.238 A 
ATOM      4  O   UNL     1      -5.505  -6.238   3.576  1.00  0.00    -0.285 OA
ATOM      5  C   UNL     1      -5.697  -6.644   5.866  1.00  0.00     0.111 A 
ATOM      6  C   UNL     1      -7.069  -7.035   5.866  1.00  0.00     0.134 A 
ATOM      7  C   UNL     1      -7.733  -7.231   7.084  1.00  0.00     0.093 A 
ATOM      8  C   UNL     1      -7.056  -7.113   8.299  1.00  0.00     0.123 A 
ATOM      9  C   UNL     1      -5.701  -6.788   8.308  1.00  0.00     0.094 A 
ATOM     10  C   UNL     1      -5.021  -6.551   7.111  1.00  0.00     0.146 A 
ATOM     11  O   UNL     1      -3.733  -6.235   7.165  1.00  0.00    -0.452 OA
ENDROOT
BRANCH   1  12
ATOM     12  C   UNL     1      -1.565  -5.654   6.286  1.00  0.00     0.025 A 
ATOM     13  C   UNL     1      -0.634  -6.657   6.615  1.00  0.00     0.016 A 
ATOM     14  C   UNL     1       0.710  -6.333   6.817  1.00  0.00     0.051 A 
ATOM     15  C   UNL     1       1.142  -5.005   6.708  1.00  0.00     0.157 A 
ATOM     16  C   UNL     1      -1.130  -4.322   6.199  1.00  0.00     0.062 A 
ATOM     17  C   UNL     1       0.215  -3.995   6.400  1.00  0.00     0.158 A 
BRANCH  15  18
ATOM     18  O   UNL     1       2.484  -4.686   6.909  1.00  0.00    -0.504 OA
ATOM     19  H   UNL     1       2.796  -3.725   6.982  1.00  0.00     0.293 HD
ENDBRANCH  15  18
BRANCH  17  20
ATOM     20  O   UNL     1       0.613  -2.662   6.292  1.00  0.00    -0.504 OA
ATOM     21  H   UNL     1       1.312  -2.258   6.902  1.00  0.00     0.293 HD
ENDBRANCH  17  20
ENDBRANCH   1  12
BRANCH   2  22
ATOM     22  O   UNL     1      -2.858  -5.597   3.694  1.00  0.00    -0.502 OA
ATOM     23  H   UNL     1      -3.242  -5.626   2.757  1.00  0.00     0.293 HD
ENDBRANCH   2  22
BRANCH   6  24
ATOM     24  O   UNL     1      -7.813  -7.271   4.705  1.00  0.00    -0.507 OA
ATOM     25  H   UNL     1      -8.811  -7.413   4.682  1.00  0.00     0.293 HD
ENDBRANCH   6  24
BRANCH   8  26
ATOM     26  O   UNL     1      -7.720  -7.324   9.506  1.00  0.00    -0.508 OA
ATOM     27  H   UNL     1      -8.160  -8.211   9.721  1.00  0.00     0.293 HD
ENDBRANCH   8  26
TORSDOF 6
ENDMDL
MODEL 6
REMARK VINA RESULT:    -5.682     11.542     13.249
REMARK INTER + INTRA:          -7.123
REMARK INTER:                  -7.021
REMARK INTRA:                  -0.102
REMARK UNBOUND:                -0.279
REMARK SMILES O=c1c(O)c(-c2ccc(O)c(O)c2)oc2cc(O)cc(O)c12
REMARK SMILES IDX 5 1 3 2 2 3 1 4 22 5 20 6 19 7 17 8 16 9 15 10 14 11 6 12
REMARK SMILES IDX 7 13 8 14 9 15 13 16 11 17 10 18 12 20 4 22 21 24 18 26
REMARK H PARENT 10 19 12 21 4 23 21 25 18 27
REMARK Flexibility Score: inf
ROOT
ATOM      1  C   UNL     1       0.205  -4.174   6.917  1.00  0.00     0.180 A 
ATOM      2  C   UNL     1       0.136  -3.057   7.766  1.00  0.00     0.208 A 
ATOM      3  C   UNL     1       1.304  -2.617   8.410  1.00  0.00     0.238 A 
ATOM      4  O   UNL     1       1.247  -1.584   9.126  1.00  0.00    -0.285 OA
ATOM      5  C   UNL     1       2.521  -3.311   8.212  1.00  0.00     0.111 A 
ATOM      6  C   UNL     1       3.757  -2.978   8.845  1.00  0.00     0.134 A 
ATOM      7  C   UNL     1       4.927  -3.653   8.474  1.00  0.00     0.093 A 
ATOM      8  C   UNL     1       4.894  -4.691   7.541  1.00  0.00     0.123 A 
ATOM      9  C   UNL     1       3.683  -5.062   6.961  1.00  0.00     0.094 A 
ATOM     10  C   UNL     1       2.506  -4.384   7.283  1.00  0.00     0.146 A 
ATOM     11  O   UNL     1       1.375  -4.764   6.700  1.00  0.00    -0.452 OA
ENDROOT
BRANCH   1  12
ATOM     12  C   UNL     1      -0.987  -4.712   6.223  1.00  0.00     0.025 A 
ATOM     13  C   UNL     1      -2.135  -5.104   6.936  1.00  0.00     0.016 A 
ATOM     14  C   UNL     1      -3.239  -5.631   6.261  1.00  0.00     0.051 A 
ATOM     15  C   UNL     1      -3.210  -5.786   4.869  1.00  0.00     0.157 A 
ATOM     16  C   UNL     1      -0.955  -4.890   4.830  1.00  0.00     0.062 A 
ATOM     17  C   UNL     1      -2.060  -5.416   4.152  1.00  0.00     0.158 A 
BRANCH  15  18
ATOM     18  O   UNL     1      -4.314  -6.310   4.199  1.00  0.00    -0.504 OA
ATOM     19  H   UNL     1      -5.203  -5.824   4.180  1.00  0.00     0.293 HD
ENDBRANCH  15  18
BRANCH  17  20
ATOM     20  O   UNL     1      -1.997  -5.565   2.766  1.00  0.00    -0.504 OA
ATOM     21  H   UNL     1      -1.118  -5.550   2.263  1.00  0.00     0.293 HD
ENDBRANCH  17  20
ENDBRANCH   1  12
BRANCH   2  22
ATOM     22  O   UNL     1      -1.072  -2.374   7.931  1.00  0.00    -0.502 OA
ATOM     23  H   UNL     1      -1.159  -1.376   7.776  1.00  0.00     0.293 HD
ENDBRANCH   2  22
BRANCH   6  24
ATOM     24  O   UNL     1       3.882  -2.021   9.856  1.00  0.00    -0.507 OA
ATOM     25  H   UNL     1       3.166  -1.803  10.533  1.00  0.00     0.293 HD
ENDBRANCH   6  24
BRANCH   8  26
ATOM     26  O   UNL     1       6.061  -5.367   7.189  1.00  0.00    -0.508 OA
ATOM     27  H   UNL     1       6.220  -5.694   6.243  1.00  0.00     0.293 HD
ENDBRANCH   8  26
TORSDOF 6
ENDMDL
MODEL 7
REMARK VINA RESULT:    -5.627      2.740      7.215
REMARK INTER + INTRA:          -7.057
REMARK INTER:                  -6.735
REMARK INTRA:                  -0.322
REMARK UNBOUND:                -0.279
REMARK SMILES O=c1c(O)c(-c2ccc(O)c(O)c2)oc2cc(O)cc(O)c12
REMARK SMILES IDX 5 1 3 2 2 3 1 4 22 5 20 6 19 7 17 8 16 9 15 10 14 11 6 12
REMARK SMILES IDX 7 13 8 14 9 15 13 16 11 17 10 18 12 20 4 22 21 24 18 26
REMARK H PARENT 10 19 12 21 4 23 21 25 18 27
REMARK Flexibility Score: inf
ROOT
ATOM      1  C   UNL     1      -5.873   7.155   1.201  1.00  0.00     0.180 A 
ATOM      2  C   UNL     1      -6.626   6.248   1.965  1.00  0.00     0.208 A 
ATOM      3  C   UNL     1      -6.160   5.879   3.238  1.00  0.00     0.238 A 
ATOM      4  O   UNL     1      -6.865   5.108   3.940  1.00  0.00    -0.285 OA
ATOM      5  C   UNL     1      -4.940   6.409   3.722  1.00  0.00     0.111 A 
ATOM      6  C   UNL     1      -4.353   6.074   4.979  1.00  0.00     0.134 A 
ATOM      7  C   UNL     1      -3.210   6.757   5.412  1.00  0.00     0.093 A 
ATOM      8  C   UNL     1      -2.596   7.717   4.604  1.00  0.00     0.123 A 
ATOM      9  C   UNL     1      -3.128   8.009   3.350  1.00  0.00     0.094 A 
ATOM     10  C   UNL     1      -4.288   7.370   2.907  1.00  0.00     0.146 A 
ATOM     11  O   UNL     1      -4.767   7.685   1.709  1.00  0.00    -0.452 OA
ENDROOT
BRANCH   1  12
ATOM     12  C   UNL     1      -6.286   7.572  -0.159  1.00  0.00     0.025 A 
ATOM     13  C   UNL     1      -7.153   8.662  -0.359  1.00  0.00     0.016 A 
ATOM     14  C   UNL     1      -7.547   9.024  -1.649  1.00  0.00     0.051 A 
ATOM     15  C   UNL     1      -7.094   8.295  -2.758  1.00  0.00     0.157 A 
ATOM     16  C   UNL     1      -5.852   6.833  -1.272  1.00  0.00     0.062 A 
ATOM     17  C   UNL     1      -6.245   7.193  -2.565  1.00  0.00     0.158 A 
BRANCH  15  18
ATOM     18  O   UNL     1      -7.489   8.659  -4.044  1.00  0.00    -0.504 OA
ATOM     19  H   UNL     1      -8.440   8.524  -4.365  1.00  0.00     0.293 HD
ENDBRANCH  15  18
BRANCH  17  20
ATOM     20  O   UNL     1      -5.783   6.443  -3.647  1.00  0.00    -0.504 OA
ATOM     21  H   UNL     1      -5.209   5.618  -3.524  1.00  0.00     0.293 HD
ENDBRANCH  17  20
ENDBRANCH   1  12
BRANCH   2  22
ATOM     22  O   UNL     1      -7.839   5.753   1.477  1.00  0.00    -0.502 OA
ATOM     23  H   UNL     1      -8.235   6.058   0.595  1.00  0.00     0.293 HD
ENDBRANCH   2  22
BRANCH   6  24
ATOM     24  O   UNL     1      -4.833   5.066   5.821  1.00  0.00    -0.507 OA
ATOM     25  H   UNL     1      -4.537   4.102   5.790  1.00  0.00     0.293 HD
ENDBRANCH   6  24
BRANCH   8  26
ATOM     26  O   UNL     1      -1.450   8.381   5.036  1.00  0.00    -0.508 OA
ATOM     27  H   UNL     1      -0.824   8.838   4.384  1.00  0.00     0.293 HD
ENDBRANCH   8  26
TORSDOF 6
ENDMDL
MODEL 8
REMARK VINA RESULT:    -5.514      1.967      7.068
REMARK INTER + INTRA:          -6.921
REMARK INTER:                  -6.667
REMARK INTRA:                  -0.254
REMARK UNBOUND:                -0.279
REMARK SMILES O=c1c(O)c(-c2ccc(O)c(O)c2)oc2cc(O)cc(O)c12
REMARK SMILES IDX 5 1 3 2 2 3 1 4 22 5 20 6 19 7 17 8 16 9 15 10 14 11 6 12
REMARK SMILES IDX 7 13 8 14 9 15 13 16 11 17 10 18 12 20 4 22 21 24 18 26
REMARK H PARENT 10 19 12 21 4 23 21 25 18 27
REMARK Flexibility Score: inf
ROOT
ATOM      1  C   UNL     1      -4.572   7.247   1.272  1.00  0.00     0.180 A 
ATOM      2  C   UNL     1      -3.277   6.926   1.713  1.00  0.00     0.208 A 
ATOM      3  C   UNL     1      -3.068   6.659   3.075  1.00  0.00     0.238 A 
ATOM      4  O   UNL     1      -1.916   6.321   3.455  1.00  0.00    -0.285 OA
ATOM      5  C   UNL     1      -4.152   6.733   3.983  1.00  0.00     0.111 A 
ATOM      6  C   UNL     1      -4.047   6.521   5.390  1.00  0.00     0.134 A 
ATOM      7  C   UNL     1      -5.208   6.490   6.173  1.00  0.00     0.093 A 
ATOM      8  C   UNL     1      -6.463   6.728   5.608  1.00  0.00     0.123 A 
ATOM      9  C   UNL     1      -6.569   6.994   4.245  1.00  0.00     0.094 A 
ATOM     10  C   UNL     1      -5.433   6.995   3.433  1.00  0.00     0.146 A 
ATOM     11  O   UNL     1      -5.581   7.243   2.136  1.00  0.00    -0.452 OA
ENDROOT
BRANCH   1  12
ATOM     12  C   UNL     1      -4.868   7.565  -0.144  1.00  0.00     0.025 A 
ATOM     13  C   UNL     1      -4.446   8.774  -0.725  1.00  0.00     0.016 A 
ATOM     14  C   UNL     1      -4.756   9.063  -2.056  1.00  0.00     0.051 A 
ATOM     15  C   UNL     1      -5.502   8.157  -2.822  1.00  0.00     0.157 A 
ATOM     16  C   UNL     1      -5.633   6.670  -0.909  1.00  0.00     0.062 A 
ATOM     17  C   UNL     1      -5.944   6.956  -2.242  1.00  0.00     0.158 A 
BRANCH  15  18
ATOM     18  O   UNL     1      -5.809   8.448  -4.150  1.00  0.00    -0.504 OA
ATOM     19  H   UNL     1      -5.115   8.369  -4.884  1.00  0.00     0.293 HD
ENDBRANCH  15  18
BRANCH  17  20
ATOM     20  O   UNL     1      -6.695   6.037  -2.975  1.00  0.00    -0.504 OA
ATOM     21  H   UNL     1      -6.515   5.854  -3.954  1.00  0.00     0.293 HD
ENDBRANCH  17  20
ENDBRANCH   1  12
BRANCH   2  22
ATOM     22  O   UNL     1      -2.225   6.839   0.797  1.00  0.00    -0.502 OA
ATOM     23  H   UNL     1      -2.367   6.912  -0.204  1.00  0.00     0.293 HD
ENDBRANCH   2  22
BRANCH   6  24
ATOM     24  O   UNL     1      -2.833   6.366   6.067  1.00  0.00    -0.507 OA
ATOM     25  H   UNL     1      -1.957   6.773   5.777  1.00  0.00     0.293 HD
ENDBRANCH   6  24
BRANCH   8  26
ATOM     26  O   UNL     1      -7.611   6.710   6.397  1.00  0.00    -0.508 OA
ATOM     27  H   UNL     1      -8.428   7.260   6.157  1.00  0.00     0.293 HD
ENDBRANCH   8  26
TORSDOF 6
ENDMDL
MODEL 9
REMARK VINA RESULT:    -5.449      1.958      6.925
REMARK INTER + INTRA:          -6.843
REMARK INTER:                  -6.515
REMARK INTRA:                  -0.328
REMARK UNBOUND:                -0.279
REMARK SMILES O=c1c(O)c(-c2ccc(O)c(O)c2)oc2cc(O)cc(O)c12
REMARK SMILES IDX 5 1 3 2 2 3 1 4 22 5 20 6 19 7 17 8 16 9 15 10 14 11 6 12
REMARK SMILES IDX 7 13 8 14 9 15 13 16 11 17 10 18 12 20 4 22 21 24 18 26
REMARK H PARENT 10 19 12 21 4 23 21 25 18 27
REMARK Flexibility Score: inf
ROOT
ATOM      1  C   UNL     1      -4.527   6.113   5.412  1.00  0.00     0.180 A 
ATOM      2  C   UNL     1      -4.279   7.164   6.310  1.00  0.00     0.208 A 
ATOM      3  C   UNL     1      -4.994   7.212   7.517  1.00  0.00     0.238 A 
ATOM      4  O   UNL     1      -4.730   8.126   8.341  1.00  0.00    -0.285 OA
ATOM      5  C   UNL     1      -5.960   6.217   7.803  1.00  0.00     0.111 A 
ATOM      6  C   UNL     1      -6.772   6.189   8.977  1.00  0.00     0.134 A 
ATOM      7  C   UNL     1      -7.601   5.087   9.217  1.00  0.00     0.093 A 
ATOM      8  C   UNL     1      -7.697   4.043   8.295  1.00  0.00     0.123 A 
ATOM      9  C   UNL     1      -6.953   4.090   7.118  1.00  0.00     0.094 A 
ATOM     10  C   UNL     1      -6.090   5.158   6.867  1.00  0.00     0.146 A 
ATOM     11  O   UNL     1      -5.391   5.159   5.738  1.00  0.00    -0.452 OA
ENDROOT
BRANCH   1  12
ATOM     12  C   UNL     1      -3.831   6.008   4.109  1.00  0.00     0.025 A 
ATOM     13  C   UNL     1      -4.378   6.567   2.940  1.00  0.00     0.016 A 
ATOM     14  C   UNL     1      -3.715   6.436   1.717  1.00  0.00     0.051 A 
ATOM     15  C   UNL     1      -2.504   5.734   1.640  1.00  0.00     0.157 A 
ATOM     16  C   UNL     1      -2.629   5.287   4.022  1.00  0.00     0.062 A 
ATOM     17  C   UNL     1      -1.962   5.155   2.799  1.00  0.00     0.158 A 
BRANCH  15  18
ATOM     18  O   UNL     1      -1.845   5.606   0.419  1.00  0.00    -0.504 OA
ATOM     19  H   UNL     1      -0.970   6.083   0.236  1.00  0.00     0.293 HD
ENDBRANCH  15  18
BRANCH  17  20
ATOM     20  O   UNL     1      -0.763   4.443   2.755  1.00  0.00    -0.504 OA
ATOM     21  H   UNL     1       0.000   4.713   2.147  1.00  0.00     0.293 HD
ENDBRANCH  17  20
ENDBRANCH   1  12
BRANCH   2  22
ATOM     22  O   UNL     1      -3.306   8.124   6.017  1.00  0.00    -0.502 OA
ATOM     23  H   UNL     1      -3.139   8.461   5.076  1.00  0.00     0.293 HD
ENDBRANCH   2  22
BRANCH   6  24
ATOM     24  O   UNL     1      -6.820   7.223   9.917  1.00  0.00    -0.507 OA
ATOM     25  H   UNL     1      -6.807   7.092  10.917  1.00  0.00     0.293 HD
ENDBRANCH   6  24
BRANCH   8  26
ATOM     26  O   UNL     1      -8.536   2.957   8.535  1.00  0.00    -0.508 OA
ATOM     27  H   UNL     1      -8.691   2.241   7.834  1.00  0.00     0.293 HD
ENDBRANCH   8  26
TORSDOF 6
ENDMDL
