MODEL 1
REMARK VINA RESULT:    -7.980      0.000      0.000
REMARK INTER + INTRA:          -8.203
REMARK INTER:                  -8.680
REMARK INTRA:                   0.477
REMARK UNBOUND:                 0.477
REMARK SMILES CC1(C)CC[C@]2(C(=O)[O-])CC[C@@]3(C)C(=CC[C@@H]4[C@]5(C)CC[C@H](O)C(C)(C)[C@H]5CC[C@]43C)[C@@H]2C1
REMARK SMILES IDX 6 1 5 2 10 3 32 4 4 5 11 6 14 7 33 8 2 9 12 10 15 11 1 12
REMARK SMILES IDX 3 13 13 14 30 15 16 16 17 17 29 18 31 19 18 20 28 21 27 22
REMARK SMILES IDX 20 23 19 24 24 25 21 26 22 27 25 28 26 29 7 30 8 31 9 32
REMARK SMILES IDX 23 33
REMARK H PARENT 23 34
REMARK Flexibility Score: inf
ROOT
ATOM      1  C   UNL     1       6.676   9.274 -13.627  1.00  0.00     0.017 C 
ATOM      2  C   UNL     1       6.072   8.615 -14.896  1.00  0.00     0.014 C 
ATOM      3  C   UNL     1       5.962  10.631 -13.373  1.00  0.00     0.014 C 
ATOM      4  C   UNL     1       8.232   9.430 -13.817  1.00  0.00     0.028 C 
ATOM      5  C   UNL     1       6.640   7.212 -15.147  1.00  0.00     0.007 C 
ATOM      6  C   UNL     1       6.402  11.778 -14.298  1.00  0.00     0.013 C 
ATOM      7  C   UNL     1       8.592  10.644 -14.704  1.00  0.00    -0.064 C 
ATOM      8  C   UNL     1       8.876   8.050 -14.194  1.00  0.00     0.015 C 
ATOM      9  C   UNL     1       8.178   7.208 -15.319  1.00  0.00    -0.035 C 
ATOM     10  C   UNL     1       7.945  12.008 -14.343  1.00  0.00    -0.006 C 
ATOM     11  C   UNL     1       9.470  10.541 -15.743  1.00  0.00    -0.027 C 
ATOM     12  C   UNL     1       8.675   5.748 -15.206  1.00  0.00     0.011 C 
ATOM     13  C   UNL     1       8.536   7.695 -16.742  1.00  0.00     0.011 C 
ATOM     14  C   UNL     1       8.403  12.419 -12.902  1.00  0.00     0.017 C 
ATOM     15  C   UNL     1       8.365  13.156 -15.408  1.00  0.00    -0.020 C 
ATOM     16  C   UNL     1       9.512  11.497 -16.916  1.00  0.00     0.032 C 
ATOM     17  C   UNL     1       8.353  12.509 -16.843  1.00  0.00     0.006 C 
ATOM     18  C   UNL     1       7.376  14.355 -15.413  1.00  0.00     0.008 C 
ATOM     19  C   UNL     1       9.793  13.700 -15.029  1.00  0.00     0.012 C 
ATOM     20  C   UNL     1       8.105  13.482 -18.105  1.00  0.00    -0.025 C 
ATOM     21  C   UNL     1       7.735  15.466 -16.418  1.00  0.00     0.005 C 
ATOM     22  C   UNL     1       8.415  14.978 -17.734  1.00  0.00     0.003 C 
ATOM     23  C   UNL     1       9.015  13.090 -19.312  1.00  0.00     0.010 C 
ATOM     24  C   UNL     1       6.617  13.303 -18.550  1.00  0.00     0.012 C 
ATOM     25  C   UNL     1       8.371  16.029 -18.919  1.00  0.00    -0.006 C 
ATOM     26  C   UNL     1       8.948  14.065 -20.500  1.00  0.00     0.033 C 
ATOM     27  C   UNL     1       9.275  15.515 -20.091  1.00  0.00     0.120 C 
ATOM     28  C   UNL     1       6.938  16.336 -19.455  1.00  0.00     0.014 C 
ATOM     29  C   UNL     1       8.957  17.380 -18.417  1.00  0.00     0.014 C 
ENDROOT
BRANCH   1  30
ATOM     30  C   UNL     1       6.355   8.412 -12.405  1.00  0.00     0.048 C 
ATOM     31  O   UNL     1       5.937   7.230 -12.539  1.00  0.00    -0.550 OA
ATOM     32  O   UNL     1       6.635   8.879 -11.126  1.00  0.00    -0.550 OA
ENDBRANCH   1  30
BRANCH  27  33
ATOM     33  O   UNL     1      10.634  15.593 -19.731  1.00  0.00    -0.393 OA
ATOM     34  H   UNL     1      11.150  15.739 -20.567  1.00  0.00     0.210 HD
ENDBRANCH  27  33
TORSDOF 2
ENDMDL
MODEL 2
REMARK VINA RESULT:    -7.642      1.941      3.854
REMARK INTER + INTRA:          -7.835
REMARK INTER:                  -7.932
REMARK INTRA:                   0.096
REMARK UNBOUND:                 0.477
REMARK SMILES CC1(C)CC[C@]2(C(=O)[O-])CC[C@@]3(C)C(=CC[C@@H]4[C@]5(C)CC[C@H](O)C(C)(C)[C@H]5CC[C@]43C)[C@@H]2C1
REMARK SMILES IDX 6 1 5 2 10 3 32 4 4 5 11 6 14 7 33 8 2 9 12 10 15 11 1 12
REMARK SMILES IDX 3 13 13 14 30 15 16 16 17 17 29 18 31 19 18 20 28 21 27 22
REMARK SMILES IDX 20 23 19 24 24 25 21 26 22 27 25 28 26 29 7 30 8 31 9 32
REMARK SMILES IDX 23 33
REMARK H PARENT 23 34
REMARK Flexibility Score: inf
ROOT
ATOM      1  C   UNL     1       8.038   7.483 -15.503  1.00  0.00     0.017 C 
ATOM      2  C   UNL     1       8.925   8.084 -14.380  1.00  0.00     0.014 C 
ATOM      3  C   UNL     1       8.778   7.628 -16.863  1.00  0.00     0.014 C 
ATOM      4  C   UNL     1       6.635   8.201 -15.493  1.00  0.00     0.028 C 
ATOM      5  C   UNL     1       8.318   7.871 -12.986  1.00  0.00     0.007 C 
ATOM      6  C   UNL     1       8.756   9.042 -17.466  1.00  0.00     0.013 C 
ATOM      7  C   UNL     1       6.685   9.587 -16.176  1.00  0.00    -0.064 C 
ATOM      8  C   UNL     1       5.997   8.128 -14.061  1.00  0.00     0.015 C 
ATOM      9  C   UNL     1       6.911   8.499 -12.842  1.00  0.00    -0.035 C 
ATOM     10  C   UNL     1       7.328   9.664 -17.586  1.00  0.00    -0.006 C 
ATOM     11  C   UNL     1       6.154  10.697 -15.589  1.00  0.00    -0.027 C 
ATOM     12  C   UNL     1       6.257   7.932 -11.560  1.00  0.00     0.011 C 
ATOM     13  C   UNL     1       7.049  10.025 -12.636  1.00  0.00     0.011 C 
ATOM     14  C   UNL     1       6.503   8.766 -18.569  1.00  0.00     0.017 C 
ATOM     15  C   UNL     1       7.368  11.191 -18.129  1.00  0.00    -0.020 C 
ATOM     16  C   UNL     1       6.563  12.114 -15.928  1.00  0.00     0.032 C 
ATOM     17  C   UNL     1       7.744  12.123 -16.918  1.00  0.00     0.006 C 
ATOM     18  C   UNL     1       8.430  11.400 -19.245  1.00  0.00     0.008 C 
ATOM     19  C   UNL     1       5.954  11.553 -18.722  1.00  0.00     0.012 C 
ATOM     20  C   UNL     1       8.457  13.532 -17.246  1.00  0.00    -0.025 C 
ATOM     21  C   UNL     1       8.504  12.842 -19.784  1.00  0.00     0.005 C 
ATOM     22  C   UNL     1       8.205  13.959 -18.738  1.00  0.00     0.003 C 
ATOM     23  C   UNL     1       7.917  14.671 -16.324  1.00  0.00     0.010 C 
ATOM     24  C   UNL     1       9.984  13.364 -16.953  1.00  0.00     0.012 C 
ATOM     25  C   UNL     1       8.710  15.401 -19.161  1.00  0.00    -0.006 C 
ATOM     26  C   UNL     1       8.437  16.075 -16.680  1.00  0.00     0.033 C 
ATOM     27  C   UNL     1       8.153  16.455 -18.146  1.00  0.00     0.120 C 
ATOM     28  C   UNL     1      10.261  15.535 -19.262  1.00  0.00     0.014 C 
ATOM     29  C   UNL     1       8.141  15.741 -20.569  1.00  0.00     0.014 C 
ENDROOT
BRANCH   1  30
ATOM     30  C   UNL     1       7.888   5.978 -15.281  1.00  0.00     0.048 C 
ATOM     31  O   UNL     1       8.874   5.272 -14.937  1.00  0.00    -0.550 OA
ATOM     32  O   UNL     1       6.632   5.384 -15.338  1.00  0.00    -0.550 OA
ENDBRANCH   1  30
BRANCH  27  33
ATOM     33  O   UNL     1       6.763  16.611 -18.316  1.00  0.00    -0.393 OA
ATOM     34  H   UNL     1       6.519  16.151 -19.162  1.00  0.00     0.210 HD
ENDBRANCH  27  33
TORSDOF 2
ENDMDL
MODEL 3
REMARK VINA RESULT:    -6.834      1.963      3.903
REMARK INTER + INTRA:          -6.957
REMARK INTER:                  -7.138
REMARK INTRA:                   0.181
REMARK UNBOUND:                 0.477
REMARK SMILES CC1(C)CC[C@]2(C(=O)[O-])CC[C@@]3(C)C(=CC[C@@H]4[C@]5(C)CC[C@H](O)C(C)(C)[C@H]5CC[C@]43C)[C@@H]2C1
REMARK SMILES IDX 6 1 5 2 10 3 32 4 4 5 11 6 14 7 33 8 2 9 12 10 15 11 1 12
REMARK SMILES IDX 3 13 13 14 30 15 16 16 17 17 29 18 31 19 18 20 28 21 27 22
REMARK SMILES IDX 20 23 19 24 24 25 21 26 22 27 25 28 26 29 7 30 8 31 9 32
REMARK SMILES IDX 23 33
REMARK H PARENT 23 34
REMARK Flexibility Score: inf
ROOT
ATOM      1  C   UNL     1       8.237   8.272 -15.940  1.00  0.00     0.017 C 
ATOM      2  C   UNL     1       8.967   8.864 -14.704  1.00  0.00     0.014 C 
ATOM      3  C   UNL     1       9.057   8.606 -17.218  1.00  0.00     0.014 C 
ATOM      4  C   UNL     1       6.768   8.840 -15.992  1.00  0.00     0.028 C 
ATOM      5  C   UNL     1       8.284   8.474 -13.386  1.00  0.00     0.007 C 
ATOM      6  C   UNL     1       8.927  10.057 -17.712  1.00  0.00     0.013 C 
ATOM      7  C   UNL     1       6.718  10.276 -16.562  1.00  0.00    -0.064 C 
ATOM      8  C   UNL     1       6.036   8.582 -14.628  1.00  0.00     0.015 C 
ATOM      9  C   UNL     1       6.811   8.940 -13.312  1.00  0.00    -0.035 C 
ATOM     10  C   UNL     1       7.453  10.537 -17.903  1.00  0.00    -0.006 C 
ATOM     11  C   UNL     1       6.027  11.273 -15.939  1.00  0.00    -0.027 C 
ATOM     12  C   UNL     1       6.128   8.203 -12.137  1.00  0.00     0.011 C 
ATOM     13  C   UNL     1       6.765  10.449 -12.981  1.00  0.00     0.011 C 
ATOM     14  C   UNL     1       6.806   9.646 -19.016  1.00  0.00     0.017 C 
ATOM     15  C   UNL     1       7.367  12.101 -18.323  1.00  0.00    -0.020 C 
ATOM     16  C   UNL     1       6.304  12.748 -16.133  1.00  0.00     0.032 C 
ATOM     17  C   UNL     1       7.549  12.961 -17.018  1.00  0.00     0.006 C 
ATOM     18  C   UNL     1       8.481  12.511 -19.327  1.00  0.00     0.008 C 
ATOM     19  C   UNL     1       5.971  12.365 -19.003  1.00  0.00     0.012 C 
ATOM     20  C   UNL     1       8.127  14.458 -17.177  1.00  0.00    -0.025 C 
ATOM     21  C   UNL     1       8.438  13.993 -19.747  1.00  0.00     0.005 C 
ATOM     22  C   UNL     1       7.943  14.982 -18.648  1.00  0.00     0.003 C 
ATOM     23  C   UNL     1       7.399  15.454 -16.220  1.00  0.00     0.010 C 
ATOM     24  C   UNL     1       9.637  14.423 -16.772  1.00  0.00     0.012 C 
ATOM     25  C   UNL     1       8.318  16.498 -18.917  1.00  0.00    -0.006 C 
ATOM     26  C   UNL     1       7.789  16.929 -16.423  1.00  0.00     0.033 C 
ATOM     27  C   UNL     1       7.575  17.400 -17.875  1.00  0.00     0.120 C 
ATOM     28  C   UNL     1       9.849  16.798 -18.877  1.00  0.00     0.014 C 
ATOM     29  C   UNL     1       7.823  16.896 -20.338  1.00  0.00     0.014 C 
ENDROOT
BRANCH   1  30
ATOM     30  C   UNL     1       8.235   6.746 -15.846  1.00  0.00     0.048 C 
ATOM     31  O   UNL     1       8.988   6.147 -15.032  1.00  0.00    -0.550 OA
ATOM     32  O   UNL     1       7.313   6.002 -16.574  1.00  0.00    -0.550 OA
ENDBRANCH   1  30
BRANCH  27  33
ATOM     33  O   UNL     1       6.193  17.427 -18.148  1.00  0.00    -0.393 OA
ATOM     34  H   UNL     1       5.984  18.329 -18.506  1.00  0.00     0.210 HD
ENDBRANCH  27  33
TORSDOF 2
ENDMDL
MODEL 4
REMARK VINA RESULT:    -6.798      1.665      7.802
REMARK INTER + INTRA:          -6.917
REMARK INTER:                  -7.004
REMARK INTRA:                   0.086
REMARK UNBOUND:                 0.477
REMARK SMILES CC1(C)CC[C@]2(C(=O)[O-])CC[C@@]3(C)C(=CC[C@@H]4[C@]5(C)CC[C@H](O)C(C)(C)[C@H]5CC[C@]43C)[C@@H]2C1
REMARK SMILES IDX 6 1 5 2 10 3 32 4 4 5 11 6 14 7 33 8 2 9 12 10 15 11 1 12
REMARK SMILES IDX 3 13 13 14 30 15 16 16 17 17 29 18 31 19 18 20 28 21 27 22
REMARK SMILES IDX 20 23 19 24 24 25 21 26 22 27 25 28 26 29 7 30 8 31 9 32
REMARK SMILES IDX 23 33
REMARK H PARENT 23 34
REMARK Flexibility Score: inf
ROOT
ATOM      1  C   UNL     1       8.965  15.833 -18.228  1.00  0.00     0.017 C 
ATOM      2  C   UNL     1      10.135  15.176 -19.010  1.00  0.00     0.014 C 
ATOM      3  C   UNL     1       9.248  15.717 -16.704  1.00  0.00     0.014 C 
ATOM      4  C   UNL     1       7.612  15.144 -18.651  1.00  0.00     0.028 C 
ATOM      5  C   UNL     1       9.990  15.355 -20.527  1.00  0.00     0.007 C 
ATOM      6  C   UNL     1       9.000  14.325 -16.101  1.00  0.00     0.013 C 
ATOM      7  C   UNL     1       7.408  13.781 -17.950  1.00  0.00    -0.064 C 
ATOM      8  C   UNL     1       7.445  15.183 -20.210  1.00  0.00     0.015 C 
ATOM      9  C   UNL     1       8.677  14.753 -21.081  1.00  0.00    -0.035 C 
ATOM     10  C   UNL     1       7.587  13.737 -16.409  1.00  0.00    -0.006 C 
ATOM     11  C   UNL     1       7.049  12.663 -18.644  1.00  0.00    -0.027 C 
ATOM     12  C   UNL     1       8.464  15.291 -22.515  1.00  0.00     0.011 C 
ATOM     13  C   UNL     1       8.824  13.219 -21.196  1.00  0.00     0.011 C 
ATOM     14  C   UNL     1       6.528  14.684 -15.750  1.00  0.00     0.017 C 
ATOM     15  C   UNL     1       7.413  12.228 -15.843  1.00  0.00    -0.020 C 
ATOM     16  C   UNL     1       7.293  11.249 -18.160  1.00  0.00     0.032 C 
ATOM     17  C   UNL     1       8.113  11.249 -16.855  1.00  0.00     0.006 C 
ATOM     18  C   UNL     1       8.075  12.034 -14.450  1.00  0.00     0.008 C 
ATOM     19  C   UNL     1       5.875  11.915 -15.702  1.00  0.00     0.012 C 
ATOM     20  C   UNL     1       8.649   9.837 -16.289  1.00  0.00    -0.025 C 
ATOM     21  C   UNL     1       7.937  10.610 -13.878  1.00  0.00     0.005 C 
ATOM     22  C   UNL     1       7.940   9.465 -14.937  1.00  0.00     0.003 C 
ATOM     23  C   UNL     1       8.383   8.679 -17.304  1.00  0.00     0.010 C 
ATOM     24  C   UNL     1      10.197   9.963 -16.104  1.00  0.00     0.012 C 
ATOM     25  C   UNL     1       8.248   8.028 -14.343  1.00  0.00    -0.006 C 
ATOM     26  C   UNL     1       8.728   7.277 -16.771  1.00  0.00     0.033 C 
ATOM     27  C   UNL     1       7.996   6.952 -15.453  1.00  0.00     0.120 C 
ATOM     28  C   UNL     1       9.689   7.864 -13.768  1.00  0.00     0.014 C 
ATOM     29  C   UNL     1       7.265   7.746 -13.169  1.00  0.00     0.014 C 
ENDROOT
BRANCH   1  30
ATOM     30  C   UNL     1       8.935  17.332 -18.523  1.00  0.00     0.048 C 
ATOM     31  O   UNL     1      10.003  17.993 -18.628  1.00  0.00    -0.550 OA
ATOM     32  O   UNL     1       7.729  17.967 -18.802  1.00  0.00    -0.550 OA
ENDBRANCH   1  30
BRANCH  27  33
ATOM     33  O   UNL     1       6.617   6.831 -15.714  1.00  0.00    -0.393 OA
ATOM     34  H   UNL     1       6.161   7.553 -15.207  1.00  0.00     0.210 HD
ENDBRANCH  27  33
TORSDOF 2
ENDMDL
MODEL 5
REMARK VINA RESULT:    -6.797      1.730      8.253
REMARK INTER + INTRA:          -6.916
REMARK INTER:                  -7.517
REMARK INTRA:                   0.601
REMARK UNBOUND:                 0.477
REMARK SMILES CC1(C)CC[C@]2(C(=O)[O-])CC[C@@]3(C)C(=CC[C@@H]4[C@]5(C)CC[C@H](O)C(C)(C)[C@H]5CC[C@]43C)[C@@H]2C1
REMARK SMILES IDX 6 1 5 2 10 3 32 4 4 5 11 6 14 7 33 8 2 9 12 10 15 11 1 12
REMARK SMILES IDX 3 13 13 14 30 15 16 16 17 17 29 18 31 19 18 20 28 21 27 22
REMARK SMILES IDX 20 23 19 24 24 25 21 26 22 27 25 28 26 29 7 30 8 31 9 32
REMARK SMILES IDX 23 33
REMARK H PARENT 23 34
REMARK Flexibility Score: inf
ROOT
ATOM      1  C   UNL     1       8.130  14.384 -20.511  1.00  0.00     0.017 C 
ATOM      2  C   UNL     1       7.115  15.077 -19.562  1.00  0.00     0.014 C 
ATOM      3  C   UNL     1       7.520  13.045 -21.012  1.00  0.00     0.014 C 
ATOM      4  C   UNL     1       9.495  14.185 -19.750  1.00  0.00     0.028 C 
ATOM      5  C   UNL     1       7.593  16.466 -19.117  1.00  0.00     0.007 C 
ATOM      6  C   UNL     1       7.543  11.898 -19.989  1.00  0.00     0.013 C 
ATOM      7  C   UNL     1       9.456  12.972 -18.792  1.00  0.00    -0.064 C 
ATOM      8  C   UNL     1       9.995  15.550 -19.161  1.00  0.00     0.015 C 
ATOM      9  C   UNL     1       8.953  16.426 -18.381  1.00  0.00    -0.035 C 
ATOM     10  C   UNL     1       8.949  11.623 -19.368  1.00  0.00    -0.006 C 
ATOM     11  C   UNL     1       9.884  13.062 -17.499  1.00  0.00    -0.027 C 
ATOM     12  C   UNL     1       9.503  17.870 -18.300  1.00  0.00     0.011 C 
ATOM     13  C   UNL     1       8.736  15.948 -16.927  1.00  0.00     0.011 C 
ATOM     14  C   UNL     1       9.901  11.181 -20.530  1.00  0.00     0.017 C 
ATOM     15  C   UNL     1       8.901  10.478 -18.222  1.00  0.00    -0.020 C 
ATOM     16  C   UNL     1       9.452  12.122 -16.395  1.00  0.00     0.032 C 
ATOM     17  C   UNL     1       8.372  11.143 -16.897  1.00  0.00     0.006 C 
ATOM     18  C   UNL     1       7.944   9.309 -18.587  1.00  0.00     0.008 C 
ATOM     19  C   UNL     1      10.349   9.887 -18.037  1.00  0.00     0.012 C 
ATOM     20  C   UNL     1       7.639  10.195 -15.819  1.00  0.00    -0.025 C 
ATOM     21  C   UNL     1       7.865   8.200 -17.519  1.00  0.00     0.005 C 
ATOM     22  C   UNL     1       8.016   8.685 -16.045  1.00  0.00     0.003 C 
ATOM     23  C   UNL     1       8.041  10.576 -14.359  1.00  0.00     0.010 C 
ATOM     24  C   UNL     1       6.099  10.423 -15.965  1.00  0.00     0.012 C 
ATOM     25  C   UNL     1       7.497   7.652 -14.962  1.00  0.00    -0.006 C 
ATOM     26  C   UNL     1       7.502   9.618 -13.282  1.00  0.00     0.033 C 
ATOM     27  C   UNL     1       7.911   8.154 -13.537  1.00  0.00     0.120 C 
ATOM     28  C   UNL     1       5.958   7.395 -15.003  1.00  0.00     0.014 C 
ATOM     29  C   UNL     1       8.185   6.277 -15.206  1.00  0.00     0.014 C 
ENDROOT
BRANCH   1  30
ATOM     30  C   UNL     1       8.318  15.239 -21.764  1.00  0.00     0.048 C 
ATOM     31  O   UNL     1       8.119  16.484 -21.735  1.00  0.00    -0.550 OA
ATOM     32  O   UNL     1       8.831  14.673 -22.927  1.00  0.00    -0.550 OA
ENDBRANCH   1  30
BRANCH  27  33
ATOM     33  O   UNL     1       9.304   8.031 -13.361  1.00  0.00    -0.393 OA
ATOM     34  H   UNL     1       9.607   7.288 -13.946  1.00  0.00     0.210 HD
ENDBRANCH  27  33
TORSDOF 2
ENDMDL
MODEL 6
REMARK VINA RESULT:    -6.494      1.539      8.041
REMARK INTER + INTRA:          -6.586
REMARK INTER:                  -6.947
REMARK INTRA:                   0.361
REMARK UNBOUND:                 0.477
REMARK SMILES CC1(C)CC[C@]2(C(=O)[O-])CC[C@@]3(C)C(=CC[C@@H]4[C@]5(C)CC[C@H](O)C(C)(C)[C@H]5CC[C@]43C)[C@@H]2C1
REMARK SMILES IDX 6 1 5 2 10 3 32 4 4 5 11 6 14 7 33 8 2 9 12 10 15 11 1 12
REMARK SMILES IDX 3 13 13 14 30 15 16 16 17 17 29 18 31 19 18 20 28 21 27 22
REMARK SMILES IDX 20 23 19 24 24 25 21 26 22 27 25 28 26 29 7 30 8 31 9 32
REMARK SMILES IDX 23 33
REMARK H PARENT 23 34
REMARK Flexibility Score: inf
ROOT
ATOM      1  C   UNL     1       7.857  14.953 -19.118  1.00  0.00     0.017 C 
ATOM      2  C   UNL     1       6.329  14.969 -18.845  1.00  0.00     0.014 C 
ATOM      3  C   UNL     1       8.215  13.666 -19.912  1.00  0.00     0.014 C 
ATOM      4  C   UNL     1       8.627  15.057 -17.746  1.00  0.00     0.028 C 
ATOM      5  C   UNL     1       5.875  16.270 -18.169  1.00  0.00     0.007 C 
ATOM      6  C   UNL     1       8.250  12.376 -19.076  1.00  0.00     0.013 C 
ATOM      7  C   UNL     1       8.673  13.703 -17.001  1.00  0.00    -0.064 C 
ATOM      8  C   UNL     1       8.131  16.306 -16.937  1.00  0.00     0.015 C 
ATOM      9  C   UNL     1       6.582  16.522 -16.816  1.00  0.00    -0.035 C 
ATOM     10  C   UNL     1       9.150  12.463 -17.803  1.00  0.00    -0.006 C 
ATOM     11  C   UNL     1       8.347  13.598 -15.681  1.00  0.00    -0.027 C 
ATOM     12  C   UNL     1       6.332  17.992 -16.405  1.00  0.00     0.011 C 
ATOM     13  C   UNL     1       5.936  15.636 -15.726  1.00  0.00     0.011 C 
ATOM     14  C   UNL     1      10.622  12.705 -18.280  1.00  0.00     0.017 C 
ATOM     15  C   UNL     1       9.071  11.117 -16.902  1.00  0.00    -0.020 C 
ATOM     16  C   UNL     1       7.906  12.312 -15.015  1.00  0.00     0.032 C 
ATOM     17  C   UNL     1       7.748  11.183 -16.053  1.00  0.00     0.006 C 
ATOM     18  C   UNL     1       9.025   9.825 -17.764  1.00  0.00     0.008 C 
ATOM     19  C   UNL     1      10.348  11.049 -15.983  1.00  0.00     0.012 C 
ATOM     20  C   UNL     1       7.092   9.790 -15.573  1.00  0.00    -0.025 C 
ATOM     21  C   UNL     1       8.943   8.522 -16.945  1.00  0.00     0.005 C 
ATOM     22  C   UNL     1       8.148   8.626 -15.608  1.00  0.00     0.003 C 
ATOM     23  C   UNL     1       6.540   9.893 -14.116  1.00  0.00     0.010 C 
ATOM     24  C   UNL     1       5.884   9.490 -16.521  1.00  0.00     0.012 C 
ATOM     25  C   UNL     1       7.690   7.231 -15.011  1.00  0.00    -0.006 C 
ATOM     26  C   UNL     1       6.036   8.561 -13.533  1.00  0.00     0.033 C 
ATOM     27  C   UNL     1       7.111   7.456 -13.573  1.00  0.00     0.120 C 
ATOM     28  C   UNL     1       6.647   6.468 -15.885  1.00  0.00     0.014 C 
ATOM     29  C   UNL     1       8.933   6.303 -14.889  1.00  0.00     0.014 C 
ENDROOT
BRANCH   1  30
ATOM     30  C   UNL     1       8.221  16.115 -20.042  1.00  0.00     0.048 C 
ATOM     31  O   UNL     1       8.701  17.185 -19.579  1.00  0.00    -0.550 OA
ATOM     32  O   UNL     1       8.141  15.963 -21.422  1.00  0.00    -0.550 OA
ENDBRANCH   1  30
BRANCH  27  33
ATOM     33  O   UNL     1       8.145   7.792 -12.676  1.00  0.00    -0.393 OA
ATOM     34  H   UNL     1       8.370   6.968 -12.170  1.00  0.00     0.210 HD
ENDBRANCH  27  33
TORSDOF 2
ENDMDL
MODEL 7
REMARK VINA RESULT:    -5.595      1.355      1.668
REMARK INTER + INTRA:          -5.609
REMARK INTER:                  -5.607
REMARK INTRA:                  -0.001
REMARK UNBOUND:                 0.477
REMARK SMILES CC1(C)CC[C@]2(C(=O)[O-])CC[C@@]3(C)C(=CC[C@@H]4[C@]5(C)CC[C@H](O)C(C)(C)[C@H]5CC[C@]43C)[C@@H]2C1
REMARK SMILES IDX 6 1 5 2 10 3 32 4 4 5 11 6 14 7 33 8 2 9 12 10 15 11 1 12
REMARK SMILES IDX 3 13 13 14 30 15 16 16 17 17 29 18 31 19 18 20 28 21 27 22
REMARK SMILES IDX 20 23 19 24 24 25 21 26 22 27 25 28 26 29 7 30 8 31 9 32
REMARK SMILES IDX 23 33
REMARK H PARENT 23 34
REMARK Flexibility Score: inf
ROOT
ATOM      1  C   UNL     1       7.155   8.958 -14.772  1.00  0.00     0.017 C 
ATOM      2  C   UNL     1       5.913   8.790 -15.689  1.00  0.00     0.014 C 
ATOM      3  C   UNL     1       7.051  10.318 -14.026  1.00  0.00     0.014 C 
ATOM      4  C   UNL     1       8.461   8.840 -15.645  1.00  0.00     0.028 C 
ATOM      5  C   UNL     1       5.879   7.416 -16.371  1.00  0.00     0.007 C 
ATOM      6  C   UNL     1       7.390  11.553 -14.877  1.00  0.00     0.013 C 
ATOM      7  C   UNL     1       8.766  10.144 -16.416  1.00  0.00    -0.064 C 
ATOM      8  C   UNL     1       8.446   7.505 -16.469  1.00  0.00     0.015 C 
ATOM      9  C   UNL     1       7.129   7.146 -17.242  1.00  0.00    -0.035 C 
ATOM     10  C   UNL     1       8.768  11.468 -15.607  1.00  0.00    -0.006 C 
ATOM     11  C   UNL     1       9.061  10.140 -17.748  1.00  0.00    -0.027 C 
ATOM     12  C   UNL     1       7.166   5.637 -17.581  1.00  0.00     0.011 C 
ATOM     13  C   UNL     1       6.994   7.903 -18.582  1.00  0.00     0.011 C 
ATOM     14  C   UNL     1       9.880  11.387 -14.507  1.00  0.00     0.017 C 
ATOM     15  C   UNL     1       9.031  12.744 -16.571  1.00  0.00    -0.020 C 
ATOM     16  C   UNL     1       8.898  11.339 -18.657  1.00  0.00     0.032 C 
ATOM     17  C   UNL     1       8.234  12.511 -17.908  1.00  0.00     0.006 C 
ATOM     18  C   UNL     1       8.537  14.078 -15.944  1.00  0.00     0.008 C 
ATOM     19  C   UNL     1      10.579  12.869 -16.833  1.00  0.00     0.012 C 
ATOM     20  C   UNL     1       7.790  13.808 -18.756  1.00  0.00    -0.025 C 
ATOM     21  C   UNL     1       8.763  15.316 -16.833  1.00  0.00     0.005 C 
ATOM     22  C   UNL     1       8.657  15.061 -18.368  1.00  0.00     0.003 C 
ATOM     23  C   UNL     1       7.956  13.569 -20.291  1.00  0.00     0.010 C 
ATOM     24  C   UNL     1       6.273  14.058 -18.473  1.00  0.00     0.012 C 
ATOM     25  C   UNL     1       8.444  16.371 -19.233  1.00  0.00    -0.006 C 
ATOM     26  C   UNL     1       7.699  14.814 -21.158  1.00  0.00     0.033 C 
ATOM     27  C   UNL     1       8.582  16.009 -20.751  1.00  0.00     0.120 C 
ATOM     28  C   UNL     1       7.081  17.091 -18.986  1.00  0.00     0.014 C 
ATOM     29  C   UNL     1       9.559  17.397 -18.880  1.00  0.00     0.014 C 
ENDROOT
BRANCH   1  30
ATOM     30  C   UNL     1       7.126   7.891 -13.677  1.00  0.00     0.048 C 
ATOM     31  O   UNL     1       8.194   7.461 -13.164  1.00  0.00    -0.550 OA
ATOM     32  O   UNL     1       5.913   7.466 -13.146  1.00  0.00    -0.550 OA
ENDBRANCH   1  30
BRANCH  27  33
ATOM     33  O   UNL     1       9.924  15.713 -21.062  1.00  0.00    -0.393 OA
ATOM     34  H   UNL     1      10.454  16.533 -20.879  1.00  0.00     0.210 HD
ENDBRANCH  27  33
TORSDOF 2
ENDMDL
MODEL 8
REMARK VINA RESULT:    -5.594      2.010      7.877
REMARK INTER + INTRA:          -5.608
REMARK INTER:                  -5.669
REMARK INTRA:                   0.062
REMARK UNBOUND:                 0.477
REMARK SMILES CC1(C)CC[C@]2(C(=O)[O-])CC[C@@]3(C)C(=CC[C@@H]4[C@]5(C)CC[C@H](O)C(C)(C)[C@H]5CC[C@]43C)[C@@H]2C1
REMARK SMILES IDX 6 1 5 2 10 3 32 4 4 5 11 6 14 7 33 8 2 9 12 10 15 11 1 12
REMARK SMILES IDX 3 13 13 14 30 15 16 16 17 17 29 18 31 19 18 20 28 21 27 22
REMARK SMILES IDX 20 23 19 24 24 25 21 26 22 27 25 28 26 29 7 30 8 31 9 32
REMARK SMILES IDX 23 33
REMARK H PARENT 23 34
REMARK Flexibility Score: inf
ROOT
ATOM      1  C   UNL     1       7.700  14.997 -18.298  1.00  0.00     0.017 C 
ATOM      2  C   UNL     1       8.437  15.433 -17.003  1.00  0.00     0.014 C 
ATOM      3  C   UNL     1       6.308  14.418 -17.916  1.00  0.00     0.014 C 
ATOM      4  C   UNL     1       8.596  13.962 -19.078  1.00  0.00     0.028 C 
ATOM      5  C   UNL     1       9.773  16.127 -17.304  1.00  0.00     0.007 C 
ATOM      6  C   UNL     1       6.334  12.996 -17.333  1.00  0.00     0.013 C 
ATOM      7  C   UNL     1       8.514  12.544 -18.469  1.00  0.00    -0.064 C 
ATOM      8  C   UNL     1      10.027  14.557 -19.323  1.00  0.00     0.015 C 
ATOM      9  C   UNL     1      10.748  15.232 -18.104  1.00  0.00    -0.035 C 
ATOM     10  C   UNL     1       7.100  11.958 -18.212  1.00  0.00    -0.006 C 
ATOM     11  C   UNL     1       9.633  11.811 -18.198  1.00  0.00    -0.027 C 
ATOM     12  C   UNL     1      11.885  16.125 -18.653  1.00  0.00     0.011 C 
ATOM     13  C   UNL     1      11.404  14.207 -17.152  1.00  0.00     0.011 C 
ATOM     14  C   UNL     1       6.343  11.848 -19.579  1.00  0.00     0.017 C 
ATOM     15  C   UNL     1       7.189  10.501 -17.506  1.00  0.00    -0.020 C 
ATOM     16  C   UNL     1       9.682  10.676 -17.199  1.00  0.00     0.032 C 
ATOM     17  C   UNL     1       8.346  10.551 -16.441  1.00  0.00     0.006 C 
ATOM     18  C   UNL     1       5.875  10.114 -16.771  1.00  0.00     0.008 C 
ATOM     19  C   UNL     1       7.468   9.418 -18.616  1.00  0.00     0.012 C 
ATOM     20  C   UNL     1       8.265   9.533 -15.194  1.00  0.00    -0.025 C 
ATOM     21  C   UNL     1       5.920   8.738 -16.080  1.00  0.00     0.005 C 
ATOM     22  C   UNL     1       7.312   8.324 -15.512  1.00  0.00     0.003 C 
ATOM     23  C   UNL     1       9.672   8.953 -14.841  1.00  0.00     0.010 C 
ATOM     24  C   UNL     1       7.759  10.345 -13.957  1.00  0.00     0.012 C 
ATOM     25  C   UNL     1       7.259   7.158 -14.440  1.00  0.00    -0.006 C 
ATOM     26  C   UNL     1       9.654   7.857 -13.760  1.00  0.00     0.033 C 
ATOM     27  C   UNL     1       8.719   6.687 -14.124  1.00  0.00     0.120 C 
ATOM     28  C   UNL     1       6.529   7.536 -13.113  1.00  0.00     0.014 C 
ATOM     29  C   UNL     1       6.485   5.951 -15.046  1.00  0.00     0.014 C 
ENDROOT
BRANCH   1  30
ATOM     30  C   UNL     1       7.407  16.228 -19.155  1.00  0.00     0.048 C 
ATOM     31  O   UNL     1       7.756  16.272 -20.366  1.00  0.00    -0.550 OA
ATOM     32  O   UNL     1       6.641  17.270 -18.644  1.00  0.00    -0.550 OA
ENDBRANCH   1  30
BRANCH  27  33
ATOM     33  O   UNL     1       9.259   5.997 -15.227  1.00  0.00    -0.393 OA
ATOM     34  H   UNL     1       8.565   5.992 -15.937  1.00  0.00     0.210 HD
ENDBRANCH  27  33
TORSDOF 2
ENDMDL
MODEL 9
REMARK VINA RESULT:    -5.416      1.853      2.675
REMARK INTER + INTRA:          -5.414
REMARK INTER:                  -5.408
REMARK INTRA:                  -0.006
REMARK UNBOUND:                 0.477
REMARK SMILES CC1(C)CC[C@]2(C(=O)[O-])CC[C@@]3(C)C(=CC[C@@H]4[C@]5(C)CC[C@H](O)C(C)(C)[C@H]5CC[C@]43C)[C@@H]2C1
REMARK SMILES IDX 6 1 5 2 10 3 32 4 4 5 11 6 14 7 33 8 2 9 12 10 15 11 1 12
REMARK SMILES IDX 3 13 13 14 30 15 16 16 17 17 29 18 31 19 18 20 28 21 27 22
REMARK SMILES IDX 20 23 19 24 24 25 21 26 22 27 25 28 26 29 7 30 8 31 9 32
REMARK SMILES IDX 23 33
REMARK H PARENT 23 34
REMARK Flexibility Score: inf
ROOT
ATOM      1  C   UNL     1       8.266   9.570 -15.782  1.00  0.00     0.017 C 
ATOM      2  C   UNL     1       8.024   9.259 -17.283  1.00  0.00     0.014 C 
ATOM      3  C   UNL     1       7.059  10.383 -15.234  1.00  0.00     0.014 C 
ATOM      4  C   UNL     1       9.635  10.334 -15.627  1.00  0.00     0.028 C 
ATOM      5  C   UNL     1       9.116   8.353 -17.869  1.00  0.00     0.007 C 
ATOM      6  C   UNL     1       7.037  11.866 -15.641  1.00  0.00     0.013 C 
ATOM      7  C   UNL     1       9.512  11.831 -15.992  1.00  0.00    -0.064 C 
ATOM      8  C   UNL     1      10.792   9.522 -16.310  1.00  0.00     0.015 C 
ATOM      9  C   UNL     1      10.532   8.966 -17.753  1.00  0.00    -0.035 C 
ATOM     10  C   UNL     1       8.361  12.634 -15.329  1.00  0.00    -0.006 C 
ATOM     11  C   UNL     1      10.396  12.443 -16.831  1.00  0.00    -0.027 C 
ATOM     12  C   UNL     1      11.567   7.852 -18.033  1.00  0.00     0.011 C 
ATOM     13  C   UNL     1      10.719  10.037 -18.851  1.00  0.00     0.011 C 
ATOM     14  C   UNL     1       8.561  12.618 -13.776  1.00  0.00     0.017 C 
ATOM     15  C   UNL     1       8.326  14.162 -15.870  1.00  0.00    -0.020 C 
ATOM     16  C   UNL     1      10.097  13.710 -17.602  1.00  0.00     0.032 C 
ATOM     17  C   UNL     1       8.627  14.134 -17.414  1.00  0.00     0.006 C 
ATOM     18  C   UNL     1       6.940  14.836 -15.664  1.00  0.00     0.008 C 
ATOM     19  C   UNL     1       9.402  15.001 -15.083  1.00  0.00     0.012 C 
ATOM     20  C   UNL     1       8.059  15.345 -18.315  1.00  0.00    -0.025 C 
ATOM     21  C   UNL     1       6.863  16.289 -16.171  1.00  0.00     0.005 C 
ATOM     22  C   UNL     1       7.730  16.602 -17.429  1.00  0.00     0.003 C 
ATOM     23  C   UNL     1       9.095  15.782 -19.399  1.00  0.00     0.010 C 
ATOM     24  C   UNL     1       6.785  14.822 -19.055  1.00  0.00     0.012 C 
ATOM     25  C   UNL     1       7.314  17.925 -18.195  1.00  0.00    -0.006 C 
ATOM     26  C   UNL     1       8.688  17.034 -20.197  1.00  0.00     0.033 C 
ATOM     27  C   UNL     1       8.391  18.242 -19.287  1.00  0.00     0.120 C 
ATOM     28  C   UNL     1       5.899  17.870 -18.852  1.00  0.00     0.014 C 
ATOM     29  C   UNL     1       7.291  19.107 -17.184  1.00  0.00     0.014 C 
ENDROOT
BRANCH   1  30
ATOM     30  C   UNL     1       8.271   8.265 -14.986  1.00  0.00     0.048 C 
ATOM     31  O   UNL     1       9.123   8.063 -14.079  1.00  0.00    -0.550 OA
ATOM     32  O   UNL     1       7.257   7.331 -15.168  1.00  0.00    -0.550 OA
ENDBRANCH   1  30
BRANCH  27  33
ATOM     33  O   UNL     1       9.591  18.664 -18.682  1.00  0.00    -0.393 OA
ATOM     34  H   UNL     1       9.644  19.649 -18.794  1.00  0.00     0.210 HD
ENDBRANCH  27  33
TORSDOF 2
ENDMDL
