MODEL 1
REMARK VINA RESULT:    -4.052      0.000      0.000
REMARK INTER + INTRA:          -5.185
REMARK INTER:                  -4.881
REMARK INTRA:                  -0.304
REMARK UNBOUND:                -0.304
REMARK SMILES Oc1cc(O)c2cc(O)c(-c3ccc(O)c(O)c3)[o+]c2c1
REMARK SMILES IDX 10 1 19 2 20 3 21 4 2 5 3 6 4 7 6 8 7 9 8 10 11 11 12 12
REMARK SMILES IDX 13 13 14 14 18 15 16 16 15 17 17 19 9 21 1 23 5 25
REMARK H PARENT 15 18 17 20 9 22 1 24 5 26
REMARK Flexibility Score: inf
ROOT
ATOM      1  C   UNL     1      73.482  75.558  78.980  1.00  0.00     0.402 A 
ATOM      2  O   UNL     1      73.786  76.128  80.143  1.00  0.00    -0.202 OA
ATOM      3  C   UNL     1      73.817  75.466  81.295  1.00  0.00     0.368 A 
ATOM      4  C   UNL     1      74.152  76.153  82.466  1.00  0.00     0.162 A 
ATOM      5  C   UNL     1      74.195  75.480  83.690  1.00  0.00     0.128 A 
ATOM      6  C   UNL     1      73.904  74.116  83.745  1.00  0.00     0.093 A 
ATOM      7  C   UNL     1      73.567  73.404  82.586  1.00  0.00     0.136 A 
ATOM      8  C   UNL     1      73.519  74.084  81.341  1.00  0.00     0.125 A 
ATOM      9  C   UNL     1      73.178  73.455  80.131  1.00  0.00     0.078 A 
ATOM     10  C   UNL     1      73.147  74.192  78.943  1.00  0.00     0.223 A 
ENDROOT
BRANCH   1  11
ATOM     11  C   UNL     1      73.491  76.401  77.764  1.00  0.00     0.087 A 
ATOM     12  C   UNL     1      72.276  76.879  77.247  1.00  0.00     0.022 A 
ATOM     13  C   UNL     1      72.263  77.693  76.110  1.00  0.00     0.051 A 
ATOM     14  C   UNL     1      73.463  78.053  75.484  1.00  0.00     0.157 A 
ATOM     15  C   UNL     1      74.695  76.781  77.144  1.00  0.00     0.068 A 
ATOM     16  C   UNL     1      74.684  77.598  76.007  1.00  0.00     0.158 A 
BRANCH  14  17
ATOM     17  O   UNL     1      73.446  78.863  74.350  1.00  0.00    -0.504 OA
ATOM     18  H   UNL     1      73.269  78.482  73.428  1.00  0.00     0.293 HD
ENDBRANCH  14  17
BRANCH  16  19
ATOM     19  O   UNL     1      75.897  77.950  75.415  1.00  0.00    -0.504 OA
ATOM     20  H   UNL     1      76.008  78.011  74.410  1.00  0.00     0.293 HD
ENDBRANCH  16  19
ENDBRANCH   1  11
BRANCH  10  21
ATOM     21  O   UNL     1      72.760  73.580  77.751  1.00  0.00    -0.500 OA
ATOM     22  H   UNL     1      72.529  72.595  77.708  1.00  0.00     0.294 HD
ENDBRANCH  10  21
BRANCH   5  23
ATOM     23  O   UNL     1      74.527  76.158  84.861  1.00  0.00    -0.507 OA
ATOM     24  H   UNL     1      75.449  76.081  85.275  1.00  0.00     0.293 HD
ENDBRANCH   5  23
BRANCH   7  25
ATOM     25  O   UNL     1      73.293  72.041  82.724  1.00  0.00    -0.507 OA
ATOM     26  H   UNL     1      73.188  71.399  81.952  1.00  0.00     0.293 HD
ENDBRANCH   7  25
TORSDOF 6
ENDMDL
MODEL 2
REMARK VINA RESULT:    -3.913      3.296      3.895
REMARK INTER + INTRA:          -5.018
REMARK INTER:                  -4.734
REMARK INTRA:                  -0.285
REMARK UNBOUND:                -0.304
REMARK SMILES Oc1cc(O)c2cc(O)c(-c3ccc(O)c(O)c3)[o+]c2c1
REMARK SMILES IDX 10 1 19 2 20 3 21 4 2 5 3 6 4 7 6 8 7 9 8 10 11 11 12 12
REMARK SMILES IDX 13 13 14 14 18 15 16 16 15 17 17 19 9 21 1 23 5 25
REMARK H PARENT 15 18 17 20 9 22 1 24 5 26
REMARK Flexibility Score: inf
ROOT
ATOM      1  C   UNL     1      75.377  73.304  78.043  1.00  0.00     0.402 A 
ATOM      2  O   UNL     1      76.035  73.721  79.121  1.00  0.00    -0.202 OA
ATOM      3  C   UNL     1      75.479  73.821  80.323  1.00  0.00     0.368 A 
ATOM      4  C   UNL     1      76.255  74.267  81.397  1.00  0.00     0.162 A 
ATOM      5  C   UNL     1      75.695  74.377  82.673  1.00  0.00     0.128 A 
ATOM      6  C   UNL     1      74.356  74.038  82.878  1.00  0.00     0.093 A 
ATOM      7  C   UNL     1      73.558  73.588  81.818  1.00  0.00     0.136 A 
ATOM      8  C   UNL     1      74.120  73.477  80.520  1.00  0.00     0.125 A 
ATOM      9  C   UNL     1      73.392  73.047  79.398  1.00  0.00     0.078 A 
ATOM     10  C   UNL     1      74.014  72.968  78.148  1.00  0.00     0.223 A 
ENDROOT
BRANCH   1  11
ATOM     11  C   UNL     1      76.110  73.228  76.759  1.00  0.00     0.087 A 
ATOM     12  C   UNL     1      76.452  71.972  76.234  1.00  0.00     0.022 A 
ATOM     13  C   UNL     1      77.127  71.875  75.013  1.00  0.00     0.051 A 
ATOM     14  C   UNL     1      77.456  73.031  74.294  1.00  0.00     0.157 A 
ATOM     15  C   UNL     1      76.423  74.385  76.024  1.00  0.00     0.068 A 
ATOM     16  C   UNL     1      77.098  74.292  74.801  1.00  0.00     0.158 A 
BRANCH  14  17
ATOM     17  O   UNL     1      78.131  72.932  73.079  1.00  0.00    -0.504 OA
ATOM     18  H   UNL     1      79.143  72.924  73.032  1.00  0.00     0.293 HD
ENDBRANCH  14  17
BRANCH  16  19
ATOM     19  O   UNL     1      77.398  75.460  74.103  1.00  0.00    -0.504 OA
ATOM     20  H   UNL     1      77.443  75.487  73.090  1.00  0.00     0.293 HD
ENDBRANCH  16  19
ENDBRANCH   1  11
BRANCH  10  21
ATOM     21  O   UNL     1      73.279  72.590  77.024  1.00  0.00    -0.500 OA
ATOM     22  H   UNL     1      73.311  73.124  76.163  1.00  0.00     0.294 HD
ENDBRANCH  10  21
BRANCH   5  23
ATOM     23  O   UNL     1      76.462  74.822  83.748  1.00  0.00    -0.507 OA
ATOM     24  H   UNL     1      77.390  74.454  83.926  1.00  0.00     0.293 HD
ENDBRANCH   5  23
BRANCH   7  25
ATOM     25  O   UNL     1      72.228  73.266  82.106  1.00  0.00    -0.507 OA
ATOM     26  H   UNL     1      71.768  72.420  81.804  1.00  0.00     0.293 HD
ENDBRANCH   7  25
TORSDOF 6
ENDMDL
MODEL 3
REMARK VINA RESULT:    -3.911      2.854      4.812
REMARK INTER + INTRA:          -5.015
REMARK INTER:                  -4.840
REMARK INTRA:                  -0.176
REMARK UNBOUND:                -0.304
REMARK SMILES Oc1cc(O)c2cc(O)c(-c3ccc(O)c(O)c3)[o+]c2c1
REMARK SMILES IDX 10 1 19 2 20 3 21 4 2 5 3 6 4 7 6 8 7 9 8 10 11 11 12 12
REMARK SMILES IDX 13 13 14 14 18 15 16 16 15 17 17 19 9 21 1 23 5 25
REMARK H PARENT 15 18 17 20 9 22 1 24 5 26
REMARK Flexibility Score: inf
ROOT
ATOM      1  C   UNL     1      74.501  74.569  82.143  1.00  0.00     0.402 A 
ATOM      2  O   UNL     1      75.425  75.526  82.151  1.00  0.00    -0.202 OA
ATOM      3  C   UNL     1      75.887  76.086  83.264  1.00  0.00     0.368 A 
ATOM      4  C   UNL     1      76.862  77.083  83.170  1.00  0.00     0.162 A 
ATOM      5  C   UNL     1      77.367  77.686  84.325  1.00  0.00     0.128 A 
ATOM      6  C   UNL     1      76.900  77.289  85.579  1.00  0.00     0.093 A 
ATOM      7  C   UNL     1      75.924  76.291  85.701  1.00  0.00     0.136 A 
ATOM      8  C   UNL     1      75.405  75.678  84.531  1.00  0.00     0.125 A 
ATOM      9  C   UNL     1      74.417  74.679  84.556  1.00  0.00     0.078 A 
ATOM     10  C   UNL     1      73.950  74.125  83.360  1.00  0.00     0.223 A 
ENDROOT
BRANCH   1  11
ATOM     11  C   UNL     1      74.074  74.018  80.838  1.00  0.00     0.087 A 
ATOM     12  C   UNL     1      74.275  72.656  80.564  1.00  0.00     0.022 A 
ATOM     13  C   UNL     1      73.861  72.110  79.345  1.00  0.00     0.051 A 
ATOM     14  C   UNL     1      73.227  72.914  78.390  1.00  0.00     0.157 A 
ATOM     15  C   UNL     1      73.417  74.818  79.884  1.00  0.00     0.068 A 
ATOM     16  C   UNL     1      73.001  74.274  78.664  1.00  0.00     0.158 A 
BRANCH  14  17
ATOM     17  O   UNL     1      72.816  72.368  77.175  1.00  0.00    -0.504 OA
ATOM     18  H   UNL     1      72.178  71.581  77.135  1.00  0.00     0.293 HD
ENDBRANCH  14  17
BRANCH  16  19
ATOM     19  O   UNL     1      72.359  75.097  77.739  1.00  0.00    -0.504 OA
ATOM     20  H   UNL     1      72.867  75.596  77.018  1.00  0.00     0.293 HD
ENDBRANCH  16  19
ENDBRANCH   1  11
BRANCH  10  21
ATOM     21  O   UNL     1      72.934  73.170  83.381  1.00  0.00    -0.500 OA
ATOM     22  H   UNL     1      72.925  72.387  82.737  1.00  0.00     0.294 HD
ENDBRANCH  10  21
BRANCH   5  23
ATOM     23  O   UNL     1      78.338  78.682  84.239  1.00  0.00    -0.507 OA
ATOM     24  H   UNL     1      78.489  79.202  83.382  1.00  0.00     0.293 HD
ENDBRANCH   5  23
BRANCH   7  25
ATOM     25  O   UNL     1      75.511  75.948  86.991  1.00  0.00    -0.507 OA
ATOM     26  H   UNL     1      75.972  76.250  87.837  1.00  0.00     0.293 HD
ENDBRANCH   7  25
TORSDOF 6
ENDMDL
MODEL 4
REMARK VINA RESULT:    -3.903      3.645      6.984
REMARK INTER + INTRA:          -5.005
REMARK INTER:                  -4.699
REMARK INTRA:                  -0.306
REMARK UNBOUND:                -0.304
REMARK SMILES Oc1cc(O)c2cc(O)c(-c3ccc(O)c(O)c3)[o+]c2c1
REMARK SMILES IDX 10 1 19 2 20 3 21 4 2 5 3 6 4 7 6 8 7 9 8 10 11 11 12 12
REMARK SMILES IDX 13 13 14 14 18 15 16 16 15 17 17 19 9 21 1 23 5 25
REMARK H PARENT 15 18 17 20 9 22 1 24 5 26
REMARK Flexibility Score: inf
ROOT
ATOM      1  C   UNL     1      74.565  74.426  82.352  1.00  0.00     0.402 A 
ATOM      2  O   UNL     1      73.806  74.114  81.305  1.00  0.00    -0.202 OA
ATOM      3  C   UNL     1      74.271  73.498  80.223  1.00  0.00     0.368 A 
ATOM      4  C   UNL     1      73.393  73.209  79.175  1.00  0.00     0.162 A 
ATOM      5  C   UNL     1      73.855  72.559  78.027  1.00  0.00     0.128 A 
ATOM      6  C   UNL     1      75.199  72.195  77.927  1.00  0.00     0.093 A 
ATOM      7  C   UNL     1      76.099  72.473  78.964  1.00  0.00     0.136 A 
ATOM      8  C   UNL     1      75.635  73.135  80.131  1.00  0.00     0.125 A 
ATOM      9  C   UNL     1      76.468  73.465  81.213  1.00  0.00     0.078 A 
ATOM     10  C   UNL     1      75.939  74.123  82.329  1.00  0.00     0.223 A 
ENDROOT
BRANCH   1  11
ATOM     11  C   UNL     1      73.927  75.103  83.503  1.00  0.00     0.087 A 
ATOM     12  C   UNL     1      73.215  74.342  84.444  1.00  0.00     0.022 A 
ATOM     13  C   UNL     1      72.622  74.959  85.550  1.00  0.00     0.051 A 
ATOM     14  C   UNL     1      72.745  76.341  85.739  1.00  0.00     0.157 A 
ATOM     15  C   UNL     1      74.066  76.488  83.708  1.00  0.00     0.068 A 
ATOM     16  C   UNL     1      73.475  77.107  84.815  1.00  0.00     0.158 A 
BRANCH  14  17
ATOM     17  O   UNL     1      72.151  76.953  86.841  1.00  0.00    -0.504 OA
ATOM     18  H   UNL     1      71.979  76.445  87.702  1.00  0.00     0.293 HD
ENDBRANCH  14  17
BRANCH  16  19
ATOM     19  O   UNL     1      73.627  78.483  84.983  1.00  0.00    -0.504 OA
ATOM     20  H   UNL     1      74.457  78.976  84.673  1.00  0.00     0.293 HD
ENDBRANCH  16  19
ENDBRANCH   1  11
BRANCH  10  21
ATOM     21  O   UNL     1      76.774  74.496  83.382  1.00  0.00    -0.500 OA
ATOM     22  H   UNL     1      77.188  73.809  84.001  1.00  0.00     0.294 HD
ENDBRANCH  10  21
BRANCH   5  23
ATOM     23  O   UNL     1      72.986  72.268  76.978  1.00  0.00    -0.507 OA
ATOM     24  H   UNL     1      73.098  72.692  76.063  1.00  0.00     0.293 HD
ENDBRANCH   5  23
BRANCH   7  25
ATOM     25  O   UNL     1      77.427  72.074  78.789  1.00  0.00    -0.507 OA
ATOM     26  H   UNL     1      77.725  71.342  78.159  1.00  0.00     0.293 HD
ENDBRANCH   7  25
TORSDOF 6
ENDMDL
MODEL 5
REMARK VINA RESULT:    -3.886      2.839      4.631
REMARK INTER + INTRA:          -4.985
REMARK INTER:                  -4.696
REMARK INTRA:                  -0.289
REMARK UNBOUND:                -0.304
REMARK SMILES Oc1cc(O)c2cc(O)c(-c3ccc(O)c(O)c3)[o+]c2c1
REMARK SMILES IDX 10 1 19 2 20 3 21 4 2 5 3 6 4 7 6 8 7 9 8 10 11 11 12 12
REMARK SMILES IDX 13 13 14 14 18 15 16 16 15 17 17 19 9 21 1 23 5 25
REMARK H PARENT 15 18 17 20 9 22 1 24 5 26
REMARK Flexibility Score: inf
ROOT
ATOM      1  C   UNL     1      74.606  74.560  81.942  1.00  0.00     0.402 A 
ATOM      2  O   UNL     1      73.667  74.986  82.783  1.00  0.00    -0.202 OA
ATOM      3  C   UNL     1      73.938  75.525  83.967  1.00  0.00     0.368 A 
ATOM      4  C   UNL     1      72.882  75.946  84.780  1.00  0.00     0.162 A 
ATOM      5  C   UNL     1      73.138  76.520  86.028  1.00  0.00     0.128 A 
ATOM      6  C   UNL     1      74.455  76.676  86.465  1.00  0.00     0.093 A 
ATOM      7  C   UNL     1      75.531  76.263  85.669  1.00  0.00     0.136 A 
ATOM      8  C   UNL     1      75.276  75.677  84.402  1.00  0.00     0.125 A 
ATOM      9  C   UNL     1      76.291  75.223  83.543  1.00  0.00     0.078 A 
ATOM     10  C   UNL     1      75.962  74.651  82.310  1.00  0.00     0.223 A 
ENDROOT
BRANCH   1  11
ATOM     11  C   UNL     1      74.179  73.986  80.647  1.00  0.00     0.087 A 
ATOM     12  C   UNL     1      74.191  72.593  80.472  1.00  0.00     0.022 A 
ATOM     13  C   UNL     1      73.772  72.027  79.265  1.00  0.00     0.051 A 
ATOM     14  C   UNL     1      73.320  72.844  78.220  1.00  0.00     0.157 A 
ATOM     15  C   UNL     1      73.704  74.801  79.604  1.00  0.00     0.068 A 
ATOM     16  C   UNL     1      73.282  74.238  78.394  1.00  0.00     0.158 A 
BRANCH  14  17
ATOM     17  O   UNL     1      72.904  72.278  77.017  1.00  0.00    -0.504 OA
ATOM     18  H   UNL     1      72.910  71.274  76.872  1.00  0.00     0.293 HD
ENDBRANCH  14  17
BRANCH  16  19
ATOM     19  O   UNL     1      72.824  75.077  77.379  1.00  0.00    -0.504 OA
ATOM     20  H   UNL     1      71.915  74.956  76.949  1.00  0.00     0.293 HD
ENDBRANCH  16  19
ENDBRANCH   1  11
BRANCH  10  21
ATOM     21  O   UNL     1      76.966  74.154  81.479  1.00  0.00    -0.500 OA
ATOM     22  H   UNL     1      77.591  74.770  80.973  1.00  0.00     0.294 HD
ENDBRANCH  10  21
BRANCH   5  23
ATOM     23  O   UNL     1      72.090  76.941  86.845  1.00  0.00    -0.507 OA
ATOM     24  H   UNL     1      71.426  76.283  87.237  1.00  0.00     0.293 HD
ENDBRANCH   5  23
BRANCH   7  25
ATOM     25  O   UNL     1      76.819  76.456  86.177  1.00  0.00    -0.507 OA
ATOM     26  H   UNL     1      77.231  75.904  86.915  1.00  0.00     0.293 HD
ENDBRANCH   7  25
TORSDOF 6
ENDMDL
MODEL 6
REMARK VINA RESULT:    -3.856      4.126      7.173
REMARK INTER + INTRA:          -4.950
REMARK INTER:                  -4.653
REMARK INTRA:                  -0.297
REMARK UNBOUND:                -0.304
REMARK SMILES Oc1cc(O)c2cc(O)c(-c3ccc(O)c(O)c3)[o+]c2c1
REMARK SMILES IDX 10 1 19 2 20 3 21 4 2 5 3 6 4 7 6 8 7 9 8 10 11 11 12 12
REMARK SMILES IDX 13 13 14 14 18 15 16 16 15 17 17 19 9 21 1 23 5 25
REMARK H PARENT 15 18 17 20 9 22 1 24 5 26
REMARK Flexibility Score: inf
ROOT
ATOM      1  C   UNL     1      75.477  73.163  77.690  1.00  0.00     0.402 A 
ATOM      2  O   UNL     1      76.725  73.619  77.765  1.00  0.00    -0.202 OA
ATOM      3  C   UNL     1      77.627  73.437  76.807  1.00  0.00     0.368 A 
ATOM      4  C   UNL     1      78.913  73.958  76.976  1.00  0.00     0.162 A 
ATOM      5  C   UNL     1      79.881  73.783  75.982  1.00  0.00     0.128 A 
ATOM      6  C   UNL     1      79.561  73.087  74.815  1.00  0.00     0.093 A 
ATOM      7  C   UNL     1      78.280  72.556  74.621  1.00  0.00     0.136 A 
ATOM      8  C   UNL     1      77.295  72.728  75.628  1.00  0.00     0.125 A 
ATOM      9  C   UNL     1      75.989  72.219  75.525  1.00  0.00     0.078 A 
ATOM     10  C   UNL     1      75.073  72.425  76.562  1.00  0.00     0.223 A 
ENDROOT
BRANCH   1  11
ATOM     11  C   UNL     1      74.561  73.440  78.820  1.00  0.00     0.087 A 
ATOM     12  C   UNL     1      73.560  74.413  78.674  1.00  0.00     0.022 A 
ATOM     13  C   UNL     1      72.672  74.676  79.721  1.00  0.00     0.051 A 
ATOM     14  C   UNL     1      72.761  73.960  80.922  1.00  0.00     0.157 A 
ATOM     15  C   UNL     1      74.635  72.708  80.019  1.00  0.00     0.068 A 
ATOM     16  C   UNL     1      73.746  72.968  81.068  1.00  0.00     0.158 A 
BRANCH  14  17
ATOM     17  O   UNL     1      71.875  74.226  81.964  1.00  0.00    -0.504 OA
ATOM     18  H   UNL     1      72.074  74.933  82.662  1.00  0.00     0.293 HD
ENDBRANCH  14  17
BRANCH  16  19
ATOM     19  O   UNL     1      73.852  72.228  82.245  1.00  0.00    -0.504 OA
ATOM     20  H   UNL     1      73.631  72.623  83.152  1.00  0.00     0.293 HD
ENDBRANCH  16  19
ENDBRANCH   1  11
BRANCH  10  21
ATOM     21  O   UNL     1      73.793  71.878  76.483  1.00  0.00    -0.500 OA
ATOM     22  H   UNL     1      73.133  71.954  77.249  1.00  0.00     0.294 HD
ENDBRANCH  10  21
BRANCH   5  23
ATOM     23  O   UNL     1      81.165  74.299  76.144  1.00  0.00    -0.507 OA
ATOM     24  H   UNL     1      81.933  73.718  76.461  1.00  0.00     0.293 HD
ENDBRANCH   5  23
BRANCH   7  25
ATOM     25  O   UNL     1      78.039  71.875  73.424  1.00  0.00    -0.507 OA
ATOM     26  H   UNL     1      78.728  71.325  72.932  1.00  0.00     0.293 HD
ENDBRANCH   7  25
TORSDOF 6
ENDMDL
MODEL 7
REMARK VINA RESULT:    -3.825     16.824     18.534
REMARK INTER + INTRA:          -4.912
REMARK INTER:                  -4.559
REMARK INTRA:                  -0.353
REMARK UNBOUND:                -0.304
REMARK SMILES Oc1cc(O)c2cc(O)c(-c3ccc(O)c(O)c3)[o+]c2c1
REMARK SMILES IDX 10 1 19 2 20 3 21 4 2 5 3 6 4 7 6 8 7 9 8 10 11 11 12 12
REMARK SMILES IDX 13 13 14 14 18 15 16 16 15 17 17 19 9 21 1 23 5 25
REMARK H PARENT 15 18 17 20 9 22 1 24 5 26
REMARK Flexibility Score: inf
ROOT
ATOM      1  C   UNL     1      85.761  87.524  75.002  1.00  0.00     0.402 A 
ATOM      2  O   UNL     1      85.125  88.316  74.143  1.00  0.00    -0.202 OA
ATOM      3  C   UNL     1      84.444  89.396  74.512  1.00  0.00     0.368 A 
ATOM      4  C   UNL     1      83.812  90.169  73.534  1.00  0.00     0.162 A 
ATOM      5  C   UNL     1      83.093  91.311  73.894  1.00  0.00     0.128 A 
ATOM      6  C   UNL     1      83.007  91.685  75.236  1.00  0.00     0.093 A 
ATOM      7  C   UNL     1      83.632  90.929  76.236  1.00  0.00     0.136 A 
ATOM      8  C   UNL     1      84.362  89.766  75.875  1.00  0.00     0.125 A 
ATOM      9  C   UNL     1      85.009  88.941  76.810  1.00  0.00     0.078 A 
ATOM     10  C   UNL     1      85.705  87.807  76.380  1.00  0.00     0.223 A 
ENDROOT
BRANCH   1  11
ATOM     11  C   UNL     1      86.493  86.354  74.467  1.00  0.00     0.087 A 
ATOM     12  C   UNL     1      85.808  85.145  74.264  1.00  0.00     0.022 A 
ATOM     13  C   UNL     1      86.474  84.034  73.740  1.00  0.00     0.051 A 
ATOM     14  C   UNL     1      87.830  84.118  73.398  1.00  0.00     0.157 A 
ATOM     15  C   UNL     1      87.848  86.442  74.102  1.00  0.00     0.068 A 
ATOM     16  C   UNL     1      88.518  85.331  73.576  1.00  0.00     0.158 A 
BRANCH  14  17
ATOM     17  O   UNL     1      88.492  83.008  72.877  1.00  0.00    -0.504 OA
ATOM     18  H   UNL     1      88.085  82.080  72.918  1.00  0.00     0.293 HD
ENDBRANCH  14  17
BRANCH  16  19
ATOM     19  O   UNL     1      89.864  85.452  73.231  1.00  0.00    -0.504 OA
ATOM     20  H   UNL     1      90.590  85.573  73.928  1.00  0.00     0.293 HD
ENDBRANCH  16  19
ENDBRANCH   1  11
BRANCH  10  21
ATOM     21  O   UNL     1      86.306  86.960  77.311  1.00  0.00    -0.500 OA
ATOM     22  H   UNL     1      87.271  87.080  77.595  1.00  0.00     0.294 HD
ENDBRANCH  10  21
BRANCH   5  23
ATOM     23  O   UNL     1      82.459  92.086  72.924  1.00  0.00    -0.507 OA
ATOM     24  H   UNL     1      82.462  91.818  71.946  1.00  0.00     0.293 HD
ENDBRANCH   5  23
BRANCH   7  25
ATOM     25  O   UNL     1      83.502  91.371  77.555  1.00  0.00    -0.507 OA
ATOM     26  H   UNL     1      82.750  91.105  78.175  1.00  0.00     0.293 HD
ENDBRANCH   7  25
TORSDOF 6
ENDMDL
MODEL 8
REMARK VINA RESULT:    -3.817      3.244      4.328
REMARK INTER + INTRA:          -4.903
REMARK INTER:                  -4.555
REMARK INTRA:                  -0.347
REMARK UNBOUND:                -0.304
REMARK SMILES Oc1cc(O)c2cc(O)c(-c3ccc(O)c(O)c3)[o+]c2c1
REMARK SMILES IDX 10 1 19 2 20 3 21 4 2 5 3 6 4 7 6 8 7 9 8 10 11 11 12 12
REMARK SMILES IDX 13 13 14 14 18 15 16 16 15 17 17 19 9 21 1 23 5 25
REMARK H PARENT 15 18 17 20 9 22 1 24 5 26
REMARK Flexibility Score: inf
ROOT
ATOM      1  C   UNL     1      75.203  73.682  81.254  1.00  0.00     0.402 A 
ATOM      2  O   UNL     1      75.824  74.572  82.024  1.00  0.00    -0.202 OA
ATOM      3  C   UNL     1      75.374  74.944  83.218  1.00  0.00     0.368 A 
ATOM      4  C   UNL     1      76.099  75.884  83.956  1.00  0.00     0.162 A 
ATOM      5  C   UNL     1      75.650  76.290  85.215  1.00  0.00     0.128 A 
ATOM      6  C   UNL     1      74.473  75.753  85.741  1.00  0.00     0.093 A 
ATOM      7  C   UNL     1      73.728  74.809  85.022  1.00  0.00     0.136 A 
ATOM      8  C   UNL     1      74.179  74.395  83.741  1.00  0.00     0.125 A 
ATOM      9  C   UNL     1      73.491  73.464  82.945  1.00  0.00     0.078 A 
ATOM     10  C   UNL     1      73.994  73.109  81.689  1.00  0.00     0.223 A 
ENDROOT
BRANCH   1  11
ATOM     11  C   UNL     1      75.810  73.343  79.947  1.00  0.00     0.087 A 
ATOM     12  C   UNL     1      76.653  72.225  79.847  1.00  0.00     0.022 A 
ATOM     13  C   UNL     1      77.221  71.875  78.618  1.00  0.00     0.051 A 
ATOM     14  C   UNL     1      76.942  72.627  77.470  1.00  0.00     0.157 A 
ATOM     15  C   UNL     1      75.515  74.084  78.788  1.00  0.00     0.068 A 
ATOM     16  C   UNL     1      76.080  73.734  77.556  1.00  0.00     0.158 A 
BRANCH  14  17
ATOM     17  O   UNL     1      77.510  72.276  76.247  1.00  0.00    -0.504 OA
ATOM     18  H   UNL     1      78.446  72.571  75.993  1.00  0.00     0.293 HD
ENDBRANCH  14  17
BRANCH  16  19
ATOM     19  O   UNL     1      75.771  74.495  76.429  1.00  0.00    -0.504 OA
ATOM     20  H   UNL     1      76.448  74.670  75.695  1.00  0.00     0.293 HD
ENDBRANCH  16  19
ENDBRANCH   1  11
BRANCH  10  21
ATOM     21  O   UNL     1      73.286  72.224  80.877  1.00  0.00    -0.500 OA
ATOM     22  H   UNL     1      73.637  71.297  80.667  1.00  0.00     0.294 HD
ENDBRANCH  10  21
BRANCH   5  23
ATOM     23  O   UNL     1      76.367  77.227  85.956  1.00  0.00    -0.507 OA
ATOM     24  H   UNL     1      77.368  77.141  86.093  1.00  0.00     0.293 HD
ENDBRANCH   5  23
BRANCH   7  25
ATOM     25  O   UNL     1      72.564  74.317  85.619  1.00  0.00    -0.507 OA
ATOM     26  H   UNL     1      71.690  74.820  85.664  1.00  0.00     0.293 HD
ENDBRANCH   7  25
TORSDOF 6
ENDMDL
