MODEL 1
REMARK VINA RESULT:    -4.584      0.000      0.000
REMARK INTER + INTRA:          -7.770
REMARK INTER:                  -7.264
REMARK INTRA:                  -0.505
REMARK UNBOUND:                -0.505
REMARK SMILES CCCCCCCCCCCC(=O)[O-]
REMARK SMILES IDX 7 1 8 2 9 3 10 4 11 5 12 6 13 7 14 8 6 9 5 10 4 11 3 12 2 13
REMARK SMILES IDX 1 14
REMARK H PARENT
REMARK Flexibility Score: inf
ROOT
ATOM      1  C   UNL     1      43.208  11.883 -36.064  1.00  0.00     0.000 C 
ENDROOT
BRANCH   1   2
ATOM      2  C   UNL     1      41.834  12.505 -35.747  1.00  0.00     0.000 C 
BRANCH   2   3
ATOM      3  C   UNL     1      41.616  13.926 -36.297  1.00  0.00     0.000 C 
BRANCH   3   4
ATOM      4  C   UNL     1      40.263  14.527 -35.879  1.00  0.00     0.006 C 
BRANCH   4   5
ATOM      5  C   UNL     1      39.165  13.461 -35.771  1.00  0.00     0.053 C 
BRANCH   5   6
ATOM      6  C   UNL     1      37.952  13.982 -35.064  1.00  0.00     0.041 C 
ATOM      7  O   UNL     1      37.731  15.221 -35.011  1.00  0.00    -0.550 OA
ATOM      8  O   UNL     1      37.050  13.098 -34.487  1.00  0.00    -0.550 OA
ENDBRANCH   5   6
ENDBRANCH   4   5
ENDBRANCH   3   4
ENDBRANCH   2   3
ENDBRANCH   1   2
BRANCH   1   9
ATOM      9  C   UNL     1      44.364  12.357 -35.164  1.00  0.00     0.000 C 
BRANCH   9  10
ATOM     10  C   UNL     1      43.988  12.384 -33.675  1.00  0.00    -0.000 C 
BRANCH  10  11
ATOM     11  C   UNL     1      44.998  13.209 -32.868  1.00  0.00    -0.000 C 
BRANCH  11  12
ATOM     12  C   UNL     1      46.282  12.406 -32.610  1.00  0.00    -0.000 C 
BRANCH  12  13
ATOM     13  C   UNL     1      46.383  11.902 -31.162  1.00  0.00    -0.003 C 
ATOM     14  C   UNL     1      45.677  12.821 -30.166  1.00  0.00     0.004 C 
ENDBRANCH  12  13
ENDBRANCH  11  12
ENDBRANCH  10  11
ENDBRANCH   9  10
ENDBRANCH   1   9
TORSDOF 10
ENDMDL
MODEL 2
REMARK VINA RESULT:    -4.066      3.944      7.298
REMARK INTER + INTRA:          -6.948
REMARK INTER:                  -6.527
REMARK INTRA:                  -0.422
REMARK UNBOUND:                -0.505
REMARK SMILES CCCCCCCCCCCC(=O)[O-]
REMARK SMILES IDX 7 1 8 2 9 3 10 4 11 5 12 6 13 7 14 8 6 9 5 10 4 11 3 12 2 13
REMARK SMILES IDX 1 14
REMARK H PARENT
REMARK Flexibility Score: inf
ROOT
ATOM      1  C   UNL     1      43.027  11.876 -35.539  1.00  0.00     0.000 C 
ENDROOT
BRANCH   1   2
ATOM      2  C   UNL     1      43.831  12.831 -34.635  1.00  0.00     0.000 C 
BRANCH   2   3
ATOM      3  C   UNL     1      44.207  12.263 -33.254  1.00  0.00     0.000 C 
BRANCH   3   4
ATOM      4  C   UNL     1      45.555  12.795 -32.738  1.00  0.00     0.006 C 
BRANCH   4   5
ATOM      5  C   UNL     1      46.171  11.875 -31.675  1.00  0.00     0.053 C 
BRANCH   5   6
ATOM      6  C   UNL     1      46.104  12.483 -30.308  1.00  0.00     0.041 C 
ATOM      7  O   UNL     1      45.435  13.531 -30.111  1.00  0.00    -0.550 OA
ATOM      8  O   UNL     1      46.759  11.875 -29.244  1.00  0.00    -0.550 OA
ENDBRANCH   5   6
ENDBRANCH   4   5
ENDBRANCH   3   4
ENDBRANCH   2   3
ENDBRANCH   1   2
BRANCH   1   9
ATOM      9  C   UNL     1      41.966  12.553 -36.426  1.00  0.00     0.000 C 
BRANCH   9  10
ATOM     10  C   UNL     1      40.673  12.880 -35.664  1.00  0.00    -0.000 C 
BRANCH  10  11
ATOM     11  C   UNL     1      40.259  14.340 -35.885  1.00  0.00    -0.000 C 
BRANCH  11  12
ATOM     12  C   UNL     1      38.746  14.453 -36.120  1.00  0.00    -0.000 C 
BRANCH  12  13
ATOM     13  C   UNL     1      37.994  13.163 -35.756  1.00  0.00    -0.003 C 
ATOM     14  C   UNL     1      37.247  13.269 -34.427  1.00  0.00     0.004 C 
ENDBRANCH  12  13
ENDBRANCH  11  12
ENDBRANCH  10  11
ENDBRANCH   9  10
ENDBRANCH   1   9
TORSDOF 10
ENDMDL
MODEL 3
REMARK VINA RESULT:    -3.700     20.485     22.135
REMARK INTER + INTRA:          -6.368
REMARK INTER:                  -5.392
REMARK INTRA:                  -0.975
REMARK UNBOUND:                -0.505
REMARK SMILES CCCCCCCCCCCC(=O)[O-]
REMARK SMILES IDX 7 1 8 2 9 3 10 4 11 5 12 6 13 7 14 8 6 9 5 10 4 11 3 12 2 13
REMARK SMILES IDX 1 14
REMARK H PARENT
REMARK Flexibility Score: inf
ROOT
ATOM      1  C   UNL     1      56.915  31.370 -34.167  1.00  0.00     0.000 C 
ENDROOT
BRANCH   1   2
ATOM      2  C   UNL     1      55.717  30.920 -33.308  1.00  0.00     0.000 C 
BRANCH   2   3
ATOM      3  C   UNL     1      56.024  29.810 -32.287  1.00  0.00     0.000 C 
BRANCH   3   4
ATOM      4  C   UNL     1      56.734  28.599 -32.916  1.00  0.00     0.006 C 
BRANCH   4   5
ATOM      5  C   UNL     1      55.744  27.598 -33.523  1.00  0.00     0.053 C 
BRANCH   5   6
ATOM      6  C   UNL     1      55.975  27.406 -34.991  1.00  0.00     0.041 C 
ATOM      7  O   UNL     1      56.797  28.137 -35.604  1.00  0.00    -0.550 OA
ATOM      8  O   UNL     1      55.303  26.402 -35.676  1.00  0.00    -0.550 OA
ENDBRANCH   5   6
ENDBRANCH   4   5
ENDBRANCH   3   4
ENDBRANCH   2   3
ENDBRANCH   1   2
BRANCH   1   9
ATOM      9  C   UNL     1      56.555  31.884 -35.573  1.00  0.00     0.000 C 
BRANCH   9  10
ATOM     10  C   UNL     1      55.240  31.295 -36.105  1.00  0.00    -0.000 C 
BRANCH  10  11
ATOM     11  C   UNL     1      54.851  31.938 -37.442  1.00  0.00    -0.000 C 
BRANCH  11  12
ATOM     12  C   UNL     1      54.842  30.897 -38.571  1.00  0.00    -0.000 C 
BRANCH  12  13
ATOM     13  C   UNL     1      54.542  29.478 -38.063  1.00  0.00    -0.003 C 
ATOM     14  C   UNL     1      54.839  28.401 -39.106  1.00  0.00     0.004 C 
ENDBRANCH  12  13
ENDBRANCH  11  12
ENDBRANCH  10  11
ENDBRANCH   9  10
ENDBRANCH   1   9
TORSDOF 10
ENDMDL
MODEL 4
REMARK VINA RESULT:    -3.667     20.181     21.858
REMARK INTER + INTRA:          -6.316
REMARK INTER:                  -5.437
REMARK INTRA:                  -0.879
REMARK UNBOUND:                -0.505
REMARK SMILES CCCCCCCCCCCC(=O)[O-]
REMARK SMILES IDX 7 1 8 2 9 3 10 4 11 5 12 6 13 7 14 8 6 9 5 10 4 11 3 12 2 13
REMARK SMILES IDX 1 14
REMARK H PARENT
REMARK Flexibility Score: inf
ROOT
ATOM      1  C   UNL     1      55.817  27.805 -35.512  1.00  0.00     0.000 C 
ENDROOT
BRANCH   1   2
ATOM      2  C   UNL     1      55.856  27.119 -34.132  1.00  0.00     0.000 C 
BRANCH   2   3
ATOM      3  C   UNL     1      56.671  27.859 -33.056  1.00  0.00     0.000 C 
BRANCH   3   4
ATOM      4  C   UNL     1      55.803  28.352 -31.885  1.00  0.00     0.006 C 
BRANCH   4   5
ATOM      5  C   UNL     1      55.703  29.882 -31.843  1.00  0.00     0.053 C 
BRANCH   5   6
ATOM      6  C   UNL     1      55.908  30.415 -30.459  1.00  0.00     0.041 C 
ATOM      7  O   UNL     1      56.023  31.654 -30.266  1.00  0.00    -0.550 OA
ATOM      8  O   UNL     1      55.944  29.545 -29.376  1.00  0.00    -0.550 OA
ENDBRANCH   5   6
ENDBRANCH   4   5
ENDBRANCH   3   4
ENDBRANCH   2   3
ENDBRANCH   1   2
BRANCH   1   9
ATOM      9  C   UNL     1      56.983  28.770 -35.795  1.00  0.00     0.000 C 
BRANCH   9  10
ATOM     10  C   UNL     1      56.520  30.103 -36.400  1.00  0.00    -0.000 C 
BRANCH  10  11
ATOM     11  C   UNL     1      55.062  30.019 -36.867  1.00  0.00    -0.000 C 
BRANCH  11  12
ATOM     12  C   UNL     1      54.966  30.147 -38.395  1.00  0.00    -0.000 C 
BRANCH  12  13
ATOM     13  C   UNL     1      55.166  28.804 -39.114  1.00  0.00    -0.003 C 
ATOM     14  C   UNL     1      53.950  27.885 -39.000  1.00  0.00     0.004 C 
ENDBRANCH  12  13
ENDBRANCH  11  12
ENDBRANCH  10  11
ENDBRANCH   9  10
ENDBRANCH   1   9
TORSDOF 10
ENDMDL
MODEL 5
REMARK VINA RESULT:    -3.658     19.973     21.532
REMARK INTER + INTRA:          -6.302
REMARK INTER:                  -5.364
REMARK INTRA:                  -0.938
REMARK UNBOUND:                -0.505
REMARK SMILES CCCCCCCCCCCC(=O)[O-]
REMARK SMILES IDX 7 1 8 2 9 3 10 4 11 5 12 6 13 7 14 8 6 9 5 10 4 11 3 12 2 13
REMARK SMILES IDX 1 14
REMARK H PARENT
REMARK Flexibility Score: inf
ROOT
ATOM      1  C   UNL     1      57.087  28.002 -32.682  1.00  0.00     0.000 C 
ENDROOT
BRANCH   1   2
ATOM      2  C   UNL     1      56.787  28.194 -34.181  1.00  0.00     0.000 C 
BRANCH   2   3
ATOM      3  C   UNL     1      56.184  26.969 -34.891  1.00  0.00     0.000 C 
BRANCH   3   4
ATOM      4  C   UNL     1      55.314  27.349 -36.102  1.00  0.00     0.006 C 
BRANCH   4   5
ATOM      5  C   UNL     1      55.603  28.771 -36.599  1.00  0.00     0.053 C 
BRANCH   5   6
ATOM      6  C   UNL     1      54.997  29.024 -37.945  1.00  0.00     0.041 C 
ATOM      7  O   UNL     1      54.320  28.128 -38.514  1.00  0.00    -0.550 OA
ATOM      8  O   UNL     1      55.157  30.259 -38.559  1.00  0.00    -0.550 OA
ENDBRANCH   5   6
ENDBRANCH   4   5
ENDBRANCH   3   4
ENDBRANCH   2   3
ENDBRANCH   1   2
BRANCH   1   9
ATOM      9  C   UNL     1      55.914  28.313 -31.735  1.00  0.00     0.000 C 
BRANCH   9  10
ATOM     10  C   UNL     1      56.299  29.277 -30.604  1.00  0.00    -0.000 C 
BRANCH  10  11
ATOM     11  C   UNL     1      56.129  30.736 -31.043  1.00  0.00    -0.000 C 
BRANCH  11  12
ATOM     12  C   UNL     1      54.857  30.912 -31.886  1.00  0.00    -0.000 C 
BRANCH  12  13
ATOM     13  C   UNL     1      54.974  32.063 -32.898  1.00  0.00    -0.003 C 
ATOM     14  C   UNL     1      55.853  31.708 -34.097  1.00  0.00     0.004 C 
ENDBRANCH  12  13
ENDBRANCH  11  12
ENDBRANCH  10  11
ENDBRANCH   9  10
ENDBRANCH   1   9
TORSDOF 10
ENDMDL
MODEL 6
REMARK VINA RESULT:    -3.646     20.630     21.911
REMARK INTER + INTRA:          -6.282
REMARK INTER:                  -5.129
REMARK INTRA:                  -1.154
REMARK UNBOUND:                -0.505
REMARK SMILES CCCCCCCCCCCC(=O)[O-]
REMARK SMILES IDX 7 1 8 2 9 3 10 4 11 5 12 6 13 7 14 8 6 9 5 10 4 11 3 12 2 13
REMARK SMILES IDX 1 14
REMARK H PARENT
REMARK Flexibility Score: inf
ROOT
ATOM      1  C   UNL     1      56.202  27.654 -34.112  1.00  0.00     0.000 C 
ENDROOT
BRANCH   1   2
ATOM      2  C   UNL     1      56.998  28.012 -35.383  1.00  0.00     0.000 C 
BRANCH   2   3
ATOM      3  C   UNL     1      57.125  29.518 -35.674  1.00  0.00     0.000 C 
BRANCH   3   4
ATOM      4  C   UNL     1      55.794  30.272 -35.507  1.00  0.00     0.006 C 
BRANCH   4   5
ATOM      5  C   UNL     1      55.622  31.379 -36.555  1.00  0.00     0.053 C 
BRANCH   5   6
ATOM      6  C   UNL     1      54.684  30.970 -37.648  1.00  0.00     0.041 C 
ATOM      7  O   UNL     1      55.056  30.152 -38.531  1.00  0.00    -0.550 OA
ATOM      8  O   UNL     1      53.388  31.470 -37.677  1.00  0.00    -0.550 OA
ENDBRANCH   5   6
ENDBRANCH   4   5
ENDBRANCH   3   4
ENDBRANCH   2   3
ENDBRANCH   1   2
BRANCH   1   9
ATOM      9  C   UNL     1      56.927  27.939 -32.784  1.00  0.00     0.000 C 
BRANCH   9  10
ATOM     10  C   UNL     1      55.972  28.005 -31.584  1.00  0.00    -0.000 C 
BRANCH  10  11
ATOM     11  C   UNL     1      56.029  29.381 -30.910  1.00  0.00    -0.000 C 
BRANCH  11  12
ATOM     12  C   UNL     1      56.944  30.337 -31.690  1.00  0.00    -0.000 C 
BRANCH  12  13
ATOM     13  C   UNL     1      56.194  31.569 -32.222  1.00  0.00    -0.003 C 
ATOM     14  C   UNL     1      54.682  31.471 -32.025  1.00  0.00     0.004 C 
ENDBRANCH  12  13
ENDBRANCH  11  12
ENDBRANCH  10  11
ENDBRANCH   9  10
ENDBRANCH   1   9
TORSDOF 10
ENDMDL
MODEL 7
REMARK VINA RESULT:    -3.582     19.993     21.266
REMARK INTER + INTRA:          -6.181
REMARK INTER:                  -5.696
REMARK INTRA:                  -0.485
REMARK UNBOUND:                -0.505
REMARK SMILES CCCCCCCCCCCC(=O)[O-]
REMARK SMILES IDX 7 1 8 2 9 3 10 4 11 5 12 6 13 7 14 8 6 9 5 10 4 11 3 12 2 13
REMARK SMILES IDX 1 14
REMARK H PARENT
REMARK Flexibility Score: inf
ROOT
ATOM      1  C   UNL     1      55.618  26.885 -35.060  1.00  0.00     0.000 C 
ENDROOT
BRANCH   1   2
ATOM      2  C   UNL     1      55.185  27.183 -36.509  1.00  0.00     0.000 C 
BRANCH   2   3
ATOM      3  C   UNL     1      55.359  28.646 -36.956  1.00  0.00     0.000 C 
BRANCH   3   4
ATOM      4  C   UNL     1      54.946  28.876 -38.420  1.00  0.00     0.006 C 
BRANCH   4   5
ATOM      5  C   UNL     1      55.071  30.348 -38.833  1.00  0.00     0.053 C 
BRANCH   5   6
ATOM      6  C   UNL     1      54.580  31.270 -37.760  1.00  0.00     0.041 C 
ATOM      7  O   UNL     1      53.349  31.504 -37.637  1.00  0.00    -0.550 OA
ATOM      8  O   UNL     1      55.481  31.851 -36.875  1.00  0.00    -0.550 OA
ENDBRANCH   5   6
ENDBRANCH   4   5
ENDBRANCH   3   4
ENDBRANCH   2   3
ENDBRANCH   1   2
BRANCH   1   9
ATOM      9  C   UNL     1      56.993  27.450 -34.659  1.00  0.00     0.000 C 
BRANCH   9  10
ATOM     10  C   UNL     1      56.912  28.450 -33.498  1.00  0.00    -0.000 C 
BRANCH  10  11
ATOM     11  C   UNL     1      55.974  27.939 -32.397  1.00  0.00    -0.000 C 
BRANCH  11  12
ATOM     12  C   UNL     1      55.990  28.878 -31.181  1.00  0.00    -0.000 C 
BRANCH  12  13
ATOM     13  C   UNL     1      56.244  30.343 -31.570  1.00  0.00    -0.003 C 
ATOM     14  C   UNL     1      54.951  31.140 -31.747  1.00  0.00     0.004 C 
ENDBRANCH  12  13
ENDBRANCH  11  12
ENDBRANCH  10  11
ENDBRANCH   9  10
ENDBRANCH   1   9
TORSDOF 10
ENDMDL
MODEL 8
REMARK VINA RESULT:    -3.560     20.475     22.220
REMARK INTER + INTRA:          -6.146
REMARK INTER:                  -5.489
REMARK INTRA:                  -0.656
REMARK UNBOUND:                -0.505
REMARK SMILES CCCCCCCCCCCC(=O)[O-]
REMARK SMILES IDX 7 1 8 2 9 3 10 4 11 5 12 6 13 7 14 8 6 9 5 10 4 11 3 12 2 13
REMARK SMILES IDX 1 14
REMARK H PARENT
REMARK Flexibility Score: inf
ROOT
ATOM      1  C   UNL     1      56.016  27.991 -32.935  1.00  0.00     0.000 C 
ENDROOT
BRANCH   1   2
ATOM      2  C   UNL     1      56.641  29.356 -32.582  1.00  0.00     0.000 C 
BRANCH   2   3
ATOM      3  C   UNL     1      55.694  30.563 -32.711  1.00  0.00     0.000 C 
BRANCH   3   4
ATOM      4  C   UNL     1      55.412  31.247 -31.363  1.00  0.00     0.006 C 
BRANCH   4   5
ATOM      5  C   UNL     1      56.646  31.265 -30.453  1.00  0.00     0.053 C 
BRANCH   5   6
ATOM      6  C   UNL     1      56.370  30.622 -29.129  1.00  0.00     0.041 C 
ATOM      7  O   UNL     1      56.521  31.274 -28.063  1.00  0.00    -0.550 OA
ATOM      8  O   UNL     1      55.920  29.309 -29.073  1.00  0.00    -0.550 OA
ENDBRANCH   5   6
ENDBRANCH   4   5
ENDBRANCH   3   4
ENDBRANCH   2   3
ENDBRANCH   1   2
BRANCH   1   9
ATOM      9  C   UNL     1      56.578  27.324 -34.204  1.00  0.00     0.000 C 
BRANCH   9  10
ATOM     10  C   UNL     1      55.762  27.652 -35.462  1.00  0.00    -0.000 C 
BRANCH  10  11
ATOM     11  C   UNL     1      56.353  28.859 -36.201  1.00  0.00    -0.000 C 
BRANCH  11  12
ATOM     12  C   UNL     1      55.284  29.559 -37.054  1.00  0.00    -0.000 C 
BRANCH  12  13
ATOM     13  C   UNL     1      55.299  29.094 -38.519  1.00  0.00    -0.003 C 
ATOM     14  C   UNL     1      54.200  28.078 -38.827  1.00  0.00     0.004 C 
ENDBRANCH  12  13
ENDBRANCH  11  12
ENDBRANCH  10  11
ENDBRANCH   9  10
ENDBRANCH   1   9
TORSDOF 10
ENDMDL
MODEL 9
REMARK VINA RESULT:    -3.487     20.098     21.821
REMARK INTER + INTRA:          -6.031
REMARK INTER:                  -5.365
REMARK INTRA:                  -0.666
REMARK UNBOUND:                -0.505
REMARK SMILES CCCCCCCCCCCC(=O)[O-]
REMARK SMILES IDX 7 1 8 2 9 3 10 4 11 5 12 6 13 7 14 8 6 9 5 10 4 11 3 12 2 13
REMARK SMILES IDX 1 14
REMARK H PARENT
REMARK Flexibility Score: inf
ROOT
ATOM      1  C   UNL     1      55.969  27.642 -33.031  1.00  0.00     0.000 C 
ENDROOT
BRANCH   1   2
ATOM      2  C   UNL     1      56.744  28.556 -32.061  1.00  0.00     0.000 C 
BRANCH   2   3
ATOM      3  C   UNL     1      55.882  29.276 -31.009  1.00  0.00     0.000 C 
BRANCH   3   4
ATOM      4  C   UNL     1      56.051  30.804 -31.043  1.00  0.00     0.006 C 
BRANCH   4   5
ATOM      5  C   UNL     1      56.237  31.335 -32.470  1.00  0.00     0.053 C 
BRANCH   5   6
ATOM      6  C   UNL     1      54.942  31.796 -33.065  1.00  0.00     0.041 C 
ATOM      7  O   UNL     1      54.870  32.075 -34.291  1.00  0.00    -0.550 OA
ATOM      8  O   UNL     1      53.806  31.891 -32.271  1.00  0.00    -0.550 OA
ENDBRANCH   5   6
ENDBRANCH   4   5
ENDBRANCH   3   4
ENDBRANCH   2   3
ENDBRANCH   1   2
BRANCH   1   9
ATOM      9  C   UNL     1      56.650  27.406 -34.392  1.00  0.00     0.000 C 
BRANCH   9  10
ATOM     10  C   UNL     1      55.674  27.509 -35.573  1.00  0.00    -0.000 C 
BRANCH  10  11
ATOM     11  C   UNL     1      55.524  28.963 -36.037  1.00  0.00    -0.000 C 
BRANCH  11  12
ATOM     12  C   UNL     1      55.762  29.085 -37.550  1.00  0.00    -0.000 C 
BRANCH  12  13
ATOM     13  C   UNL     1      54.452  29.185 -38.347  1.00  0.00    -0.003 C 
ATOM     14  C   UNL     1      54.061  27.865 -39.010  1.00  0.00     0.004 C 
ENDBRANCH  12  13
ENDBRANCH  11  12
ENDBRANCH  10  11
ENDBRANCH   9  10
ENDBRANCH   1   9
TORSDOF 10
ENDMDL
