MODEL 1
REMARK VINA RESULT:    -4.345      0.000      0.000
REMARK INTER + INTRA:         -16.086
REMARK INTER:                 -11.458
REMARK INTRA:                  -4.627
REMARK UNBOUND:                -4.627
REMARK SMILES CCCCCCCCCCCCCCCCCCCCCCCCCCCCCC(=O)[O-]
REMARK SMILES IDX 16 1 17 2 18 3 19 4 20 5 21 6 22 7 23 8 24 9 25 10 26 11
REMARK SMILES IDX 27 12 28 13 29 14 30 15 31 16 32 17 15 18 14 19 13 20 12 21
REMARK SMILES IDX 11 22 10 23 9 24 8 25 7 26 6 27 5 28 4 29 3 30 2 31 1 32
REMARK H PARENT
REMARK Flexibility Score: inf
ROOT
ATOM      1  C   UNL     1       0.523  -2.008   5.244  1.00  0.00     0.000 C 
ENDROOT
BRANCH   1   2
ATOM      2  C   UNL     1       1.831  -1.228   5.414  1.00  0.00     0.000 C 
BRANCH   2   3
ATOM      3  C   UNL     1       3.048  -2.165   5.364  1.00  0.00     0.000 C 
BRANCH   3   4
ATOM      4  C   UNL     1       4.069  -1.851   6.470  1.00  0.00     0.000 C 
BRANCH   4   5
ATOM      5  C   UNL     1       3.785  -2.629   7.767  1.00  0.00     0.000 C 
BRANCH   5   6
ATOM      6  C   UNL     1       3.322  -1.723   8.922  1.00  0.00     0.000 C 
BRANCH   6   7
ATOM      7  C   UNL     1       3.236  -0.221   8.585  1.00  0.00     0.000 C 
BRANCH   7   8
ATOM      8  C   UNL     1       2.169   0.521   9.409  1.00  0.00     0.000 C 
BRANCH   8   9
ATOM      9  C   UNL     1       1.338   1.500   8.565  1.00  0.00     0.000 C 
BRANCH   9  10
ATOM     10  C   UNL     1       1.811   1.583   7.105  1.00  0.00     0.000 C 
BRANCH  10  11
ATOM     11  C   UNL     1       1.397   2.919   6.472  1.00  0.00     0.000 C 
BRANCH  11  12
ATOM     12  C   UNL     1       0.626   3.831   7.443  1.00  0.00     0.000 C 
BRANCH  12  13
ATOM     13  C   UNL     1       0.608   5.324   7.053  1.00  0.00     0.006 C 
BRANCH  13  14
ATOM     14  C   UNL     1      -0.744   5.835   6.533  1.00  0.00     0.053 C 
BRANCH  14  15
ATOM     15  C   UNL     1      -0.716   6.094   5.057  1.00  0.00     0.041 C 
ATOM     16  O   UNL     1      -1.302   7.099   4.577  1.00  0.00    -0.550 OA
ATOM     17  O   UNL     1      -0.028   5.230   4.213  1.00  0.00    -0.550 OA
ENDBRANCH  14  15
ENDBRANCH  13  14
ENDBRANCH  12  13
ENDBRANCH  11  12
ENDBRANCH  10  11
ENDBRANCH   9  10
ENDBRANCH   8   9
ENDBRANCH   7   8
ENDBRANCH   6   7
ENDBRANCH   5   6
ENDBRANCH   4   5
ENDBRANCH   3   4
ENDBRANCH   2   3
ENDBRANCH   1   2
BRANCH   1  18
ATOM     18  C   UNL     1       0.204  -2.815   6.511  1.00  0.00     0.000 C 
BRANCH  18  19
ATOM     19  C   UNL     1      -0.034  -1.914   7.736  1.00  0.00     0.000 C 
BRANCH  19  20
ATOM     20  C   UNL     1      -0.398  -2.708   9.009  1.00  0.00     0.000 C 
BRANCH  20  21
ATOM     21  C   UNL     1      -1.737  -3.465   8.911  1.00  0.00     0.000 C 
BRANCH  21  22
ATOM     22  C   UNL     1      -2.985  -2.556   8.985  1.00  0.00     0.000 C 
BRANCH  22  23
ATOM     23  C   UNL     1      -3.999  -2.736   7.835  1.00  0.00     0.000 C 
BRANCH  23  24
ATOM     24  C   UNL     1      -3.541  -2.246   6.449  1.00  0.00    -0.000 C 
BRANCH  24  25
ATOM     25  C   UNL     1      -4.619  -1.453   5.697  1.00  0.00    -0.000 C 
BRANCH  25  26
ATOM     26  C   UNL     1      -4.195  -1.182   4.246  1.00  0.00    -0.000 C 
BRANCH  26  27
ATOM     27  C   UNL     1      -2.728  -1.564   3.970  1.00  0.00    -0.000 C 
BRANCH  27  28
ATOM     28  C   UNL     1      -2.537  -2.892   3.208  1.00  0.00    -0.000 C 
BRANCH  28  29
ATOM     29  C   UNL     1      -3.794  -3.782   3.160  1.00  0.00    -0.000 C 
BRANCH  29  30
ATOM     30  C   UNL     1      -3.553  -5.176   3.765  1.00  0.00    -0.000 C 
BRANCH  30  31
ATOM     31  C   UNL     1      -2.344  -5.196   4.712  1.00  0.00    -0.003 C 
ATOM     32  C   UNL     1      -2.677  -5.823   6.068  1.00  0.00     0.004 C 
ENDBRANCH  30  31
ENDBRANCH  29  30
ENDBRANCH  28  29
ENDBRANCH  27  28
ENDBRANCH  26  27
ENDBRANCH  25  26
ENDBRANCH  24  25
ENDBRANCH  23  24
ENDBRANCH  22  23
ENDBRANCH  21  22
ENDBRANCH  20  21
ENDBRANCH  19  20
ENDBRANCH  18  19
ENDBRANCH   1  18
TORSDOF 28
ENDMDL
MODEL 2
REMARK VINA RESULT:    -4.249      1.408      3.101
REMARK INTER + INTRA:         -15.833
REMARK INTER:                 -11.586
REMARK INTRA:                  -4.246
REMARK UNBOUND:                -4.627
REMARK SMILES CCCCCCCCCCCCCCCCCCCCCCCCCCCCCC(=O)[O-]
REMARK SMILES IDX 16 1 17 2 18 3 19 4 20 5 21 6 22 7 23 8 24 9 25 10 26 11
REMARK SMILES IDX 27 12 28 13 29 14 30 15 31 16 32 17 15 18 14 19 13 20 12 21
REMARK SMILES IDX 11 22 10 23 9 24 8 25 7 26 6 27 5 28 4 29 3 30 2 31 1 32
REMARK H PARENT
REMARK Flexibility Score: inf
ROOT
ATOM      1  C   UNL     1       1.567  -1.378   5.195  1.00  0.00     0.000 C 
ENDROOT
BRANCH   1   2
ATOM      2  C   UNL     1       2.410  -2.429   5.923  1.00  0.00     0.000 C 
BRANCH   2   3
ATOM      3  C   UNL     1       3.912  -2.169   5.729  1.00  0.00     0.000 C 
BRANCH   3   4
ATOM      4  C   UNL     1       4.621  -1.845   7.055  1.00  0.00     0.000 C 
BRANCH   4   5
ATOM      5  C   UNL     1       3.877  -2.422   8.272  1.00  0.00     0.000 C 
BRANCH   5   6
ATOM      6  C   UNL     1       3.288  -1.333   9.188  1.00  0.00     0.000 C 
BRANCH   6   7
ATOM      7  C   UNL     1       1.755  -1.365   9.345  1.00  0.00     0.000 C 
BRANCH   7   8
ATOM      8  C   UNL     1       1.054  -0.176   8.667  1.00  0.00     0.000 C 
BRANCH   8   9
ATOM      9  C   UNL     1       2.039   0.900   8.182  1.00  0.00     0.000 C 
BRANCH   9  10
ATOM     10  C   UNL     1       1.526   1.675   6.958  1.00  0.00     0.000 C 
BRANCH  10  11
ATOM     11  C   UNL     1       1.575   3.189   7.209  1.00  0.00     0.000 C 
BRANCH  11  12
ATOM     12  C   UNL     1       0.517   3.665   8.220  1.00  0.00     0.000 C 
BRANCH  12  13
ATOM     13  C   UNL     1      -0.208   4.971   7.832  1.00  0.00     0.006 C 
BRANCH  13  14
ATOM     14  C   UNL     1       0.195   5.546   6.465  1.00  0.00     0.053 C 
BRANCH  14  15
ATOM     15  C   UNL     1      -0.876   6.421   5.888  1.00  0.00     0.041 C 
ATOM     16  O   UNL     1      -1.513   6.053   4.866  1.00  0.00    -0.550 OA
ATOM     17  O   UNL     1      -1.180   7.637   6.488  1.00  0.00    -0.550 OA
ENDBRANCH  14  15
ENDBRANCH  13  14
ENDBRANCH  12  13
ENDBRANCH  11  12
ENDBRANCH  10  11
ENDBRANCH   9  10
ENDBRANCH   8   9
ENDBRANCH   7   8
ENDBRANCH   6   7
ENDBRANCH   5   6
ENDBRANCH   4   5
ENDBRANCH   3   4
ENDBRANCH   2   3
ENDBRANCH   1   2
BRANCH   1  18
ATOM     18  C   UNL     1       0.070  -1.688   5.342  1.00  0.00     0.000 C 
BRANCH  18  19
ATOM     19  C   UNL     1      -0.199  -2.828   6.341  1.00  0.00     0.000 C 
BRANCH  19  20
ATOM     20  C   UNL     1      -1.625  -2.793   6.931  1.00  0.00     0.000 C 
BRANCH  20  21
ATOM     21  C   UNL     1      -2.372  -4.138   6.839  1.00  0.00     0.000 C 
BRANCH  21  22
ATOM     22  C   UNL     1      -2.335  -4.788   5.437  1.00  0.00     0.000 C 
BRANCH  22  23
ATOM     23  C   UNL     1      -3.690  -4.839   4.699  1.00  0.00     0.000 C 
BRANCH  23  24
ATOM     24  C   UNL     1      -3.783  -4.012   3.404  1.00  0.00    -0.000 C 
BRANCH  24  25
ATOM     25  C   UNL     1      -2.552  -3.126   3.158  1.00  0.00    -0.000 C 
BRANCH  25  26
ATOM     26  C   UNL     1      -2.836  -1.667   3.541  1.00  0.00    -0.000 C 
BRANCH  26  27
ATOM     27  C   UNL     1      -4.309  -1.423   3.924  1.00  0.00    -0.000 C 
BRANCH  27  28
ATOM     28  C   UNL     1      -4.527  -0.894   5.357  1.00  0.00    -0.000 C 
BRANCH  28  29
ATOM     29  C   UNL     1      -5.602  -1.654   6.157  1.00  0.00    -0.000 C 
BRANCH  29  30
ATOM     30  C   UNL     1      -6.119  -0.850   7.362  1.00  0.00    -0.000 C 
BRANCH  30  31
ATOM     31  C   UNL     1      -6.267   0.645   7.042  1.00  0.00    -0.003 C 
ATOM     32  C   UNL     1      -6.759   1.451   8.246  1.00  0.00     0.004 C 
ENDBRANCH  30  31
ENDBRANCH  29  30
ENDBRANCH  28  29
ENDBRANCH  27  28
ENDBRANCH  26  27
ENDBRANCH  25  26
ENDBRANCH  24  25
ENDBRANCH  23  24
ENDBRANCH  22  23
ENDBRANCH  21  22
ENDBRANCH  20  21
ENDBRANCH  19  20
ENDBRANCH  18  19
ENDBRANCH   1  18
TORSDOF 28
ENDMDL
MODEL 3
REMARK VINA RESULT:    -4.192      1.822      4.111
REMARK INTER + INTRA:         -15.681
REMARK INTER:                 -11.591
REMARK INTRA:                  -4.090
REMARK UNBOUND:                -4.627
REMARK SMILES CCCCCCCCCCCCCCCCCCCCCCCCCCCCCC(=O)[O-]
REMARK SMILES IDX 16 1 17 2 18 3 19 4 20 5 21 6 22 7 23 8 24 9 25 10 26 11
REMARK SMILES IDX 27 12 28 13 29 14 30 15 31 16 32 17 15 18 14 19 13 20 12 21
REMARK SMILES IDX 11 22 10 23 9 24 8 25 7 26 6 27 5 28 4 29 3 30 2 31 1 32
REMARK H PARENT
REMARK Flexibility Score: inf
ROOT
ATOM      1  C   UNL     1       2.015  -1.585   5.559  1.00  0.00     0.000 C 
ENDROOT
BRANCH   1   2
ATOM      2  C   UNL     1       1.353  -0.274   5.997  1.00  0.00     0.000 C 
BRANCH   2   3
ATOM      3  C   UNL     1       1.510  -0.050   7.509  1.00  0.00     0.000 C 
BRANCH   3   4
ATOM      4  C   UNL     1       2.042   1.355   7.835  1.00  0.00     0.000 C 
BRANCH   4   5
ATOM      5  C   UNL     1       1.486   2.427   6.882  1.00  0.00     0.000 C 
BRANCH   5   6
ATOM      6  C   UNL     1       1.232   3.777   7.578  1.00  0.00     0.000 C 
BRANCH   6   7
ATOM      7  C   UNL     1       0.037   3.800   8.551  1.00  0.00     0.000 C 
BRANCH   7   8
ATOM      8  C   UNL     1      -0.469   5.222   8.851  1.00  0.00     0.000 C 
BRANCH   8   9
ATOM      9  C   UNL     1      -0.248   6.193   7.680  1.00  0.00     0.000 C 
BRANCH   9  10
ATOM     10  C   UNL     1      -1.524   6.442   6.860  1.00  0.00     0.000 C 
BRANCH  10  11
ATOM     11  C   UNL     1      -1.267   6.206   5.364  1.00  0.00     0.000 C 
BRANCH  11  12
ATOM     12  C   UNL     1       0.226   6.274   4.994  1.00  0.00     0.000 C 
BRANCH  12  13
ATOM     13  C   UNL     1       0.762   5.039   4.239  1.00  0.00     0.006 C 
BRANCH  13  14
ATOM     14  C   UNL     1       2.293   4.904   4.237  1.00  0.00     0.053 C 
BRANCH  14  15
ATOM     15  C   UNL     1       2.883   5.234   2.900  1.00  0.00     0.041 C 
ATOM     16  O   UNL     1       2.145   5.314   1.883  1.00  0.00    -0.550 OA
ATOM     17  O   UNL     1       4.247   5.468   2.780  1.00  0.00    -0.550 OA
ENDBRANCH  14  15
ENDBRANCH  13  14
ENDBRANCH  12  13
ENDBRANCH  11  12
ENDBRANCH  10  11
ENDBRANCH   9  10
ENDBRANCH   8   9
ENDBRANCH   7   8
ENDBRANCH   6   7
ENDBRANCH   5   6
ENDBRANCH   4   5
ENDBRANCH   3   4
ENDBRANCH   2   3
ENDBRANCH   1   2
BRANCH   1  18
ATOM     18  C   UNL     1       3.531  -1.534   5.801  1.00  0.00     0.000 C 
BRANCH  18  19
ATOM     19  C   UNL     1       3.999  -2.591   6.817  1.00  0.00     0.000 C 
BRANCH  19  20
ATOM     20  C   UNL     1       2.895  -3.604   7.190  1.00  0.00     0.000 C 
BRANCH  20  21
ATOM     21  C   UNL     1       2.623  -3.701   8.703  1.00  0.00     0.000 C 
BRANCH  21  22
ATOM     22  C   UNL     1       1.152  -3.441   9.100  1.00  0.00     0.000 C 
BRANCH  22  23
ATOM     23  C   UNL     1       0.129  -3.562   7.949  1.00  0.00     0.000 C 
BRANCH  23  24
ATOM     24  C   UNL     1      -0.951  -2.466   7.891  1.00  0.00    -0.000 C 
BRANCH  24  25
ATOM     25  C   UNL     1      -2.258  -2.935   7.234  1.00  0.00    -0.000 C 
BRANCH  25  26
ATOM     26  C   UNL     1      -1.994  -3.531   5.844  1.00  0.00    -0.000 C 
BRANCH  26  27
ATOM     27  C   UNL     1      -1.574  -2.472   4.807  1.00  0.00    -0.000 C 
BRANCH  27  28
ATOM     28  C   UNL     1      -2.580  -2.258   3.657  1.00  0.00    -0.000 C 
BRANCH  28  29
ATOM     29  C   UNL     1      -3.647  -1.182   3.940  1.00  0.00    -0.000 C 
BRANCH  29  30
ATOM     30  C   UNL     1      -5.064  -1.771   4.045  1.00  0.00    -0.000 C 
BRANCH  30  31
ATOM     31  C   UNL     1      -5.470  -2.050   5.500  1.00  0.00    -0.003 C 
ATOM     32  C   UNL     1      -5.310  -0.819   6.395  1.00  0.00     0.004 C 
ENDBRANCH  30  31
ENDBRANCH  29  30
ENDBRANCH  28  29
ENDBRANCH  27  28
ENDBRANCH  26  27
ENDBRANCH  25  26
ENDBRANCH  24  25
ENDBRANCH  23  24
ENDBRANCH  22  23
ENDBRANCH  21  22
ENDBRANCH  20  21
ENDBRANCH  19  20
ENDBRANCH  18  19
ENDBRANCH   1  18
TORSDOF 28
ENDMDL
MODEL 4
REMARK VINA RESULT:    -4.136      1.315      2.317
REMARK INTER + INTRA:         -15.532
REMARK INTER:                 -10.549
REMARK INTRA:                  -4.983
REMARK UNBOUND:                -4.627
REMARK SMILES CCCCCCCCCCCCCCCCCCCCCCCCCCCCCC(=O)[O-]
REMARK SMILES IDX 16 1 17 2 18 3 19 4 20 5 21 6 22 7 23 8 24 9 25 10 26 11
REMARK SMILES IDX 27 12 28 13 29 14 30 15 31 16 32 17 15 18 14 19 13 20 12 21
REMARK SMILES IDX 11 22 10 23 9 24 8 25 7 26 6 27 5 28 4 29 3 30 2 31 1 32
REMARK H PARENT
REMARK Flexibility Score: inf
ROOT
ATOM      1  C   UNL     1       2.696  -2.284   5.534  1.00  0.00     0.000 C 
ENDROOT
BRANCH   1   2
ATOM      2  C   UNL     1       1.270  -1.840   5.194  1.00  0.00     0.000 C 
BRANCH   2   3
ATOM      3  C   UNL     1       1.037  -0.372   5.585  1.00  0.00     0.000 C 
BRANCH   3   4
ATOM      4  C   UNL     1       1.926   0.064   6.761  1.00  0.00     0.000 C 
BRANCH   4   5
ATOM      5  C   UNL     1       1.183   0.010   8.108  1.00  0.00     0.000 C 
BRANCH   5   6
ATOM      6  C   UNL     1       2.133  -0.104   9.314  1.00  0.00     0.000 C 
BRANCH   6   7
ATOM      7  C   UNL     1       3.507   0.572   9.134  1.00  0.00     0.000 C 
BRANCH   7   8
ATOM      8  C   UNL     1       3.549   2.008   9.683  1.00  0.00     0.000 C 
BRANCH   8   9
ATOM      9  C   UNL     1       3.981   3.038   8.627  1.00  0.00     0.000 C 
BRANCH   9  10
ATOM     10  C   UNL     1       2.816   3.516   7.745  1.00  0.00     0.000 C 
BRANCH  10  11
ATOM     11  C   UNL     1       1.538   3.696   8.578  1.00  0.00     0.000 C 
BRANCH  11  12
ATOM     12  C   UNL     1       0.324   4.115   7.730  1.00  0.00     0.000 C 
BRANCH  12  13
ATOM     13  C   UNL     1       0.370   5.566   7.206  1.00  0.00     0.006 C 
BRANCH  13  14
ATOM     14  C   UNL     1      -0.923   6.043   6.526  1.00  0.00     0.053 C 
BRANCH  14  15
ATOM     15  C   UNL     1      -0.759   6.181   5.043  1.00  0.00     0.041 C 
ATOM     16  O   UNL     1      -0.233   5.254   4.374  1.00  0.00    -0.550 OA
ATOM     17  O   UNL     1      -1.202   7.329   4.398  1.00  0.00    -0.550 OA
ENDBRANCH  14  15
ENDBRANCH  13  14
ENDBRANCH  12  13
ENDBRANCH  11  12
ENDBRANCH  10  11
ENDBRANCH   9  10
ENDBRANCH   8   9
ENDBRANCH   7   8
ENDBRANCH   6   7
ENDBRANCH   5   6
ENDBRANCH   4   5
ENDBRANCH   3   4
ENDBRANCH   2   3
ENDBRANCH   1   2
BRANCH   1  18
ATOM     18  C   UNL     1       2.678  -3.583   6.353  1.00  0.00     0.000 C 
BRANCH  18  19
ATOM     19  C   UNL     1       2.942  -3.338   7.849  1.00  0.00     0.000 C 
BRANCH  19  20
ATOM     20  C   UNL     1       1.793  -3.829   8.755  1.00  0.00     0.000 C 
BRANCH  20  21
ATOM     21  C   UNL     1       0.462  -4.053   8.010  1.00  0.00     0.000 C 
BRANCH  21  22
ATOM     22  C   UNL     1      -0.625  -3.001   8.327  1.00  0.00     0.000 C 
BRANCH  22  23
ATOM     23  C   UNL     1      -1.649  -2.752   7.199  1.00  0.00     0.000 C 
BRANCH  23  24
ATOM     24  C   UNL     1      -2.668  -3.880   6.953  1.00  0.00    -0.000 C 
BRANCH  24  25
ATOM     25  C   UNL     1      -4.117  -3.380   6.857  1.00  0.00    -0.000 C 
BRANCH  25  26
ATOM     26  C   UNL     1      -4.163  -1.880   6.531  1.00  0.00    -0.000 C 
BRANCH  26  27
ATOM     27  C   UNL     1      -4.998  -1.564   5.275  1.00  0.00    -0.000 C 
BRANCH  27  28
ATOM     28  C   UNL     1      -4.304  -1.894   3.937  1.00  0.00    -0.000 C 
BRANCH  28  29
ATOM     29  C   UNL     1      -2.795  -1.579   3.910  1.00  0.00    -0.000 C 
BRANCH  29  30
ATOM     30  C   UNL     1      -1.949  -2.788   3.475  1.00  0.00    -0.000 C 
BRANCH  30  31
ATOM     31  C   UNL     1      -2.764  -3.806   2.664  1.00  0.00    -0.003 C 
ATOM     32  C   UNL     1      -2.929  -5.137   3.400  1.00  0.00     0.004 C 
ENDBRANCH  30  31
ENDBRANCH  29  30
ENDBRANCH  28  29
ENDBRANCH  27  28
ENDBRANCH  26  27
ENDBRANCH  25  26
ENDBRANCH  24  25
ENDBRANCH  23  24
ENDBRANCH  22  23
ENDBRANCH  21  22
ENDBRANCH  20  21
ENDBRANCH  19  20
ENDBRANCH  18  19
ENDBRANCH   1  18
TORSDOF 28
ENDMDL
MODEL 5
REMARK VINA RESULT:    -4.109      2.251      3.332
REMARK INTER + INTRA:         -15.463
REMARK INTER:                 -12.155
REMARK INTRA:                  -3.308
REMARK UNBOUND:                -4.627
REMARK SMILES CCCCCCCCCCCCCCCCCCCCCCCCCCCCCC(=O)[O-]
REMARK SMILES IDX 16 1 17 2 18 3 19 4 20 5 21 6 22 7 23 8 24 9 25 10 26 11
REMARK SMILES IDX 27 12 28 13 29 14 30 15 31 16 32 17 15 18 14 19 13 20 12 21
REMARK SMILES IDX 11 22 10 23 9 24 8 25 7 26 6 27 5 28 4 29 3 30 2 31 1 32
REMARK H PARENT
REMARK Flexibility Score: inf
ROOT
ATOM      1  C   UNL     1       0.168  -3.008   7.011  1.00  0.00     0.000 C 
ENDROOT
BRANCH   1   2
ATOM      2  C   UNL     1      -0.046  -2.311   5.664  1.00  0.00     0.000 C 
BRANCH   2   3
ATOM      3  C   UNL     1       1.152  -1.419   5.302  1.00  0.00     0.000 C 
BRANCH   3   4
ATOM      4  C   UNL     1       2.436  -2.234   5.080  1.00  0.00     0.000 C 
BRANCH   4   5
ATOM      5  C   UNL     1       3.551  -1.849   6.068  1.00  0.00     0.000 C 
BRANCH   5   6
ATOM      6  C   UNL     1       3.193  -0.626   6.932  1.00  0.00     0.000 C 
BRANCH   6   7
ATOM      7  C   UNL     1       3.428  -0.799   8.445  1.00  0.00     0.000 C 
BRANCH   7   8
ATOM      8  C   UNL     1       2.160  -0.563   9.283  1.00  0.00     0.000 C 
BRANCH   8   9
ATOM      9  C   UNL     1       1.113   0.294   8.554  1.00  0.00     0.000 C 
BRANCH   9  10
ATOM     10  C   UNL     1       1.202   1.785   8.917  1.00  0.00     0.000 C 
BRANCH  10  11
ATOM     11  C   UNL     1       1.022   2.663   7.670  1.00  0.00     0.000 C 
BRANCH  11  12
ATOM     12  C   UNL     1       0.574   4.097   8.005  1.00  0.00     0.000 C 
BRANCH  12  13
ATOM     13  C   UNL     1       0.231   4.971   6.780  1.00  0.00     0.006 C 
BRANCH  13  14
ATOM     14  C   UNL     1       1.445   5.419   5.951  1.00  0.00     0.053 C 
BRANCH  14  15
ATOM     15  C   UNL     1       1.065   5.767   4.544  1.00  0.00     0.041 C 
ATOM     16  O   UNL     1       0.286   5.022   3.893  1.00  0.00    -0.550 OA
ATOM     17  O   UNL     1       1.561   6.924   3.955  1.00  0.00    -0.550 OA
ENDBRANCH  14  15
ENDBRANCH  13  14
ENDBRANCH  12  13
ENDBRANCH  11  12
ENDBRANCH  10  11
ENDBRANCH   9  10
ENDBRANCH   8   9
ENDBRANCH   7   8
ENDBRANCH   6   7
ENDBRANCH   5   6
ENDBRANCH   4   5
ENDBRANCH   3   4
ENDBRANCH   2   3
ENDBRANCH   1   2
BRANCH   1  18
ATOM     18  C   UNL     1      -0.629  -4.319   7.077  1.00  0.00     0.000 C 
BRANCH  18  19
ATOM     19  C   UNL     1      -1.857  -4.307   6.149  1.00  0.00     0.000 C 
BRANCH  19  20
ATOM     20  C   UNL     1      -3.173  -3.990   6.891  1.00  0.00     0.000 C 
BRANCH  20  21
ATOM     21  C   UNL     1      -3.520  -2.489   6.935  1.00  0.00     0.000 C 
BRANCH  21  22
ATOM     22  C   UNL     1      -4.630  -2.066   5.946  1.00  0.00     0.000 C 
BRANCH  22  23
ATOM     23  C   UNL     1      -4.211  -1.014   4.896  1.00  0.00     0.000 C 
BRANCH  23  24
ATOM     24  C   UNL     1      -3.341  -1.531   3.736  1.00  0.00    -0.000 C 
BRANCH  24  25
ATOM     25  C   UNL     1      -3.740  -2.934   3.254  1.00  0.00    -0.000 C 
BRANCH  25  26
ATOM     26  C   UNL     1      -2.517  -3.711   2.745  1.00  0.00    -0.000 C 
BRANCH  26  27
ATOM     27  C   UNL     1      -2.889  -5.067   2.115  1.00  0.00    -0.000 C 
BRANCH  27  28
ATOM     28  C   UNL     1      -3.413  -4.986   0.666  1.00  0.00    -0.000 C 
BRANCH  28  29
ATOM     29  C   UNL     1      -2.402  -5.449  -0.401  1.00  0.00    -0.000 C 
BRANCH  29  30
ATOM     30  C   UNL     1      -1.401  -4.345  -0.783  1.00  0.00    -0.000 C 
BRANCH  30  31
ATOM     31  C   UNL     1      -1.198  -4.246  -2.303  1.00  0.00    -0.003 C 
ATOM     32  C   UNL     1       0.162  -4.792  -2.744  1.00  0.00     0.004 C 
ENDBRANCH  30  31
ENDBRANCH  29  30
ENDBRANCH  28  29
ENDBRANCH  27  28
ENDBRANCH  26  27
ENDBRANCH  25  26
ENDBRANCH  24  25
ENDBRANCH  23  24
ENDBRANCH  22  23
ENDBRANCH  21  22
ENDBRANCH  20  21
ENDBRANCH  19  20
ENDBRANCH  18  19
ENDBRANCH   1  18
TORSDOF 28
ENDMDL
MODEL 6
REMARK VINA RESULT:    -4.082      1.102      2.071
REMARK INTER + INTRA:         -15.392
REMARK INTER:                 -10.943
REMARK INTRA:                  -4.449
REMARK UNBOUND:                -4.627
REMARK SMILES CCCCCCCCCCCCCCCCCCCCCCCCCCCCCC(=O)[O-]
REMARK SMILES IDX 16 1 17 2 18 3 19 4 20 5 21 6 22 7 23 8 24 9 25 10 26 11
REMARK SMILES IDX 27 12 28 13 29 14 30 15 31 16 32 17 15 18 14 19 13 20 12 21
REMARK SMILES IDX 11 22 10 23 9 24 8 25 7 26 6 27 5 28 4 29 3 30 2 31 1 32
REMARK H PARENT
REMARK Flexibility Score: inf
ROOT
ATOM      1  C   UNL     1       2.956  -1.950   5.213  1.00  0.00     0.000 C 
ENDROOT
BRANCH   1   2
ATOM      2  C   UNL     1       3.930  -2.164   6.376  1.00  0.00     0.000 C 
BRANCH   2   3
ATOM      3  C   UNL     1       3.428  -3.261   7.328  1.00  0.00     0.000 C 
BRANCH   3   4
ATOM      4  C   UNL     1       4.084  -3.170   8.716  1.00  0.00     0.000 C 
BRANCH   4   5
ATOM      5  C   UNL     1       3.055  -2.941   9.836  1.00  0.00     0.000 C 
BRANCH   5   6
ATOM      6  C   UNL     1       1.599  -3.026   9.341  1.00  0.00     0.000 C 
BRANCH   6   7
ATOM      7  C   UNL     1       0.798  -1.712   9.428  1.00  0.00     0.000 C 
BRANCH   7   8
ATOM      8  C   UNL     1       1.694  -0.466   9.537  1.00  0.00     0.000 C 
BRANCH   8   9
ATOM      9  C   UNL     1       1.086   0.767   8.850  1.00  0.00     0.000 C 
BRANCH   9  10
ATOM     10  C   UNL     1       2.126   1.598   8.081  1.00  0.00     0.000 C 
BRANCH  10  11
ATOM     11  C   UNL     1       1.501   2.233   6.830  1.00  0.00     0.000 C 
BRANCH  11  12
ATOM     12  C   UNL     1       1.672   3.762   6.784  1.00  0.00     0.000 C 
BRANCH  12  13
ATOM     13  C   UNL     1       0.359   4.565   6.894  1.00  0.00     0.006 C 
BRANCH  13  14
ATOM     14  C   UNL     1       0.419   5.978   6.294  1.00  0.00     0.053 C 
BRANCH  14  15
ATOM     15  C   UNL     1      -0.200   6.036   4.931  1.00  0.00     0.041 C 
ATOM     16  O   UNL     1       0.052   5.143   4.080  1.00  0.00    -0.550 OA
ATOM     17  O   UNL     1      -1.070   7.069   4.605  1.00  0.00    -0.550 OA
ENDBRANCH  14  15
ENDBRANCH  13  14
ENDBRANCH  12  13
ENDBRANCH  11  12
ENDBRANCH  10  11
ENDBRANCH   9  10
ENDBRANCH   8   9
ENDBRANCH   7   8
ENDBRANCH   6   7
ENDBRANCH   5   6
ENDBRANCH   4   5
ENDBRANCH   3   4
ENDBRANCH   2   3
ENDBRANCH   1   2
BRANCH   1  18
ATOM     18  C   UNL     1       1.703  -1.198   5.687  1.00  0.00     0.000 C 
BRANCH  18  19
ATOM     19  C   UNL     1       0.403  -1.839   5.170  1.00  0.00     0.000 C 
BRANCH  19  20
ATOM     20  C   UNL     1      -0.618  -2.127   6.291  1.00  0.00     0.000 C 
BRANCH  20  21
ATOM     21  C   UNL     1      -0.795  -3.625   6.606  1.00  0.00     0.000 C 
BRANCH  21  22
ATOM     22  C   UNL     1      -2.210  -4.005   7.098  1.00  0.00     0.000 C 
BRANCH  22  23
ATOM     23  C   UNL     1      -2.883  -2.974   8.029  1.00  0.00     0.000 C 
BRANCH  23  24
ATOM     24  C   UNL     1      -4.345  -2.623   7.700  1.00  0.00    -0.000 C 
BRANCH  24  25
ATOM     25  C   UNL     1      -4.636  -2.582   6.193  1.00  0.00    -0.000 C 
BRANCH  25  26
ATOM     26  C   UNL     1      -4.576  -1.144   5.658  1.00  0.00    -0.000 C 
BRANCH  26  27
ATOM     27  C   UNL     1      -4.124  -1.069   4.187  1.00  0.00    -0.000 C 
BRANCH  27  28
ATOM     28  C   UNL     1      -4.031  -2.431   3.468  1.00  0.00    -0.000 C 
BRANCH  28  29
ATOM     29  C   UNL     1      -2.596  -2.974   3.319  1.00  0.00    -0.000 C 
BRANCH  29  30
ATOM     30  C   UNL     1      -2.534  -4.508   3.409  1.00  0.00    -0.000 C 
BRANCH  30  31
ATOM     31  C   UNL     1      -3.620  -5.184   2.559  1.00  0.00    -0.003 C 
ATOM     32  C   UNL     1      -3.031  -6.010   1.413  1.00  0.00     0.004 C 
ENDBRANCH  30  31
ENDBRANCH  29  30
ENDBRANCH  28  29
ENDBRANCH  27  28
ENDBRANCH  26  27
ENDBRANCH  25  26
ENDBRANCH  24  25
ENDBRANCH  23  24
ENDBRANCH  22  23
ENDBRANCH  21  22
ENDBRANCH  20  21
ENDBRANCH  19  20
ENDBRANCH  18  19
ENDBRANCH   1  18
TORSDOF 28
ENDMDL
MODEL 7
REMARK VINA RESULT:    -4.067      1.445      3.003
REMARK INTER + INTRA:         -15.352
REMARK INTER:                 -10.956
REMARK INTRA:                  -4.396
REMARK UNBOUND:                -4.627
REMARK SMILES CCCCCCCCCCCCCCCCCCCCCCCCCCCCCC(=O)[O-]
REMARK SMILES IDX 16 1 17 2 18 3 19 4 20 5 21 6 22 7 23 8 24 9 25 10 26 11
REMARK SMILES IDX 27 12 28 13 29 14 30 15 31 16 32 17 15 18 14 19 13 20 12 21
REMARK SMILES IDX 11 22 10 23 9 24 8 25 7 26 6 27 5 28 4 29 3 30 2 31 1 32
REMARK H PARENT
REMARK Flexibility Score: inf
ROOT
ATOM      1  C   UNL     1       2.987  -3.988   8.385  1.00  0.00     0.000 C 
ENDROOT
BRANCH   1   2
ATOM      2  C   UNL     1       2.980  -3.773   6.868  1.00  0.00     0.000 C 
BRANCH   2   3
ATOM      3  C   UNL     1       3.912  -2.619   6.466  1.00  0.00     0.000 C 
BRANCH   3   4
ATOM      4  C   UNL     1       3.331  -1.777   5.318  1.00  0.00     0.000 C 
BRANCH   4   5
ATOM      5  C   UNL     1       1.801  -1.904   5.216  1.00  0.00     0.000 C 
BRANCH   5   6
ATOM      6  C   UNL     1       1.055  -0.705   5.829  1.00  0.00     0.000 C 
BRANCH   6   7
ATOM      7  C   UNL     1       1.956   0.379   6.452  1.00  0.00     0.000 C 
BRANCH   7   8
ATOM      8  C   UNL     1       2.093   0.246   7.979  1.00  0.00     0.000 C 
BRANCH   8   9
ATOM      9  C   UNL     1       1.992   1.595   8.707  1.00  0.00     0.000 C 
BRANCH   9  10
ATOM     10  C   UNL     1       0.633   1.806   9.394  1.00  0.00     0.000 C 
BRANCH  10  11
ATOM     11  C   UNL     1       0.178   3.267   9.267  1.00  0.00     0.000 C 
BRANCH  11  12
ATOM     12  C   UNL     1       1.109   4.111   8.379  1.00  0.00     0.000 C 
BRANCH  12  13
ATOM     13  C   UNL     1       0.514   4.511   7.013  1.00  0.00     0.006 C 
BRANCH  13  14
ATOM     14  C   UNL     1       1.270   3.953   5.797  1.00  0.00     0.053 C 
BRANCH  14  15
ATOM     15  C   UNL     1       1.243   4.901   4.636  1.00  0.00     0.041 C 
ATOM     16  O   UNL     1       0.189   5.053   3.965  1.00  0.00    -0.550 OA
ATOM     17  O   UNL     1       2.379   5.629   4.306  1.00  0.00    -0.550 OA
ENDBRANCH  14  15
ENDBRANCH  13  14
ENDBRANCH  12  13
ENDBRANCH  11  12
ENDBRANCH  10  11
ENDBRANCH   9  10
ENDBRANCH   8   9
ENDBRANCH   7   8
ENDBRANCH   6   7
ENDBRANCH   5   6
ENDBRANCH   4   5
ENDBRANCH   3   4
ENDBRANCH   2   3
ENDBRANCH   1   2
BRANCH   1  18
ATOM     18  C   UNL     1       1.874  -3.168   9.054  1.00  0.00     0.000 C 
BRANCH  18  19
ATOM     19  C   UNL     1       0.517  -3.332   8.347  1.00  0.00     0.000 C 
BRANCH  19  20
ATOM     20  C   UNL     1      -0.509  -2.251   8.747  1.00  0.00     0.000 C 
BRANCH  20  21
ATOM     21  C   UNL     1      -1.934  -2.794   8.970  1.00  0.00     0.000 C 
BRANCH  21  22
ATOM     22  C   UNL     1      -2.850  -2.697   7.729  1.00  0.00     0.000 C 
BRANCH  22  23
ATOM     23  C   UNL     1      -2.922  -3.974   6.863  1.00  0.00     0.000 C 
BRANCH  23  24
ATOM     24  C   UNL     1      -1.888  -4.076   5.728  1.00  0.00    -0.000 C 
BRANCH  24  25
ATOM     25  C   UNL     1      -1.724  -2.771   4.935  1.00  0.00    -0.000 C 
BRANCH  25  26
ATOM     26  C   UNL     1      -2.407  -2.868   3.563  1.00  0.00    -0.000 C 
BRANCH  26  27
ATOM     27  C   UNL     1      -3.942  -2.757   3.649  1.00  0.00    -0.000 C 
BRANCH  27  28
ATOM     28  C   UNL     1      -4.486  -1.313   3.666  1.00  0.00    -0.000 C 
BRANCH  28  29
ATOM     29  C   UNL     1      -4.483  -0.651   5.058  1.00  0.00    -0.000 C 
BRANCH  29  30
ATOM     30  C   UNL     1      -5.704  -1.050   5.903  1.00  0.00    -0.000 C 
BRANCH  30  31
ATOM     31  C   UNL     1      -5.835  -0.197   7.174  1.00  0.00    -0.003 C 
ATOM     32  C   UNL     1      -6.081  -1.047   8.423  1.00  0.00     0.004 C 
ENDBRANCH  30  31
ENDBRANCH  29  30
ENDBRANCH  28  29
ENDBRANCH  27  28
ENDBRANCH  26  27
ENDBRANCH  25  26
ENDBRANCH  24  25
ENDBRANCH  23  24
ENDBRANCH  22  23
ENDBRANCH  21  22
ENDBRANCH  20  21
ENDBRANCH  19  20
ENDBRANCH  18  19
ENDBRANCH   1  18
TORSDOF 28
ENDMDL
MODEL 8
REMARK VINA RESULT:    -3.997      1.263      2.591
REMARK INTER + INTRA:         -15.166
REMARK INTER:                 -10.738
REMARK INTRA:                  -4.428
REMARK UNBOUND:                -4.627
REMARK SMILES CCCCCCCCCCCCCCCCCCCCCCCCCCCCCC(=O)[O-]
REMARK SMILES IDX 16 1 17 2 18 3 19 4 20 5 21 6 22 7 23 8 24 9 25 10 26 11
REMARK SMILES IDX 27 12 28 13 29 14 30 15 31 16 32 17 15 18 14 19 13 20 12 21
REMARK SMILES IDX 11 22 10 23 9 24 8 25 7 26 6 27 5 28 4 29 3 30 2 31 1 32
REMARK H PARENT
REMARK Flexibility Score: inf
ROOT
ATOM      1  C   UNL     1       1.224  -1.591   5.222  1.00  0.00     0.000 C 
ENDROOT
BRANCH   1   2
ATOM      2  C   UNL     1       2.371  -2.574   5.483  1.00  0.00     0.000 C 
BRANCH   2   3
ATOM      3  C   UNL     1       3.735  -1.924   5.203  1.00  0.00     0.000 C 
BRANCH   3   4
ATOM      4  C   UNL     1       4.568  -1.750   6.483  1.00  0.00     0.000 C 
BRANCH   4   5
ATOM      5  C   UNL     1       3.900  -2.396   7.709  1.00  0.00     0.000 C 
BRANCH   5   6
ATOM      6  C   UNL     1       3.606  -1.388   8.835  1.00  0.00     0.000 C 
BRANCH   6   7
ATOM      7  C   UNL     1       2.171  -1.428   9.394  1.00  0.00     0.000 C 
BRANCH   7   8
ATOM      8  C   UNL     1       1.329  -0.208   8.981  1.00  0.00     0.000 C 
BRANCH   8   9
ATOM      9  C   UNL     1       2.173   0.919   8.367  1.00  0.00     0.000 C 
BRANCH   9  10
ATOM     10  C   UNL     1       1.574   1.475   7.065  1.00  0.00     0.000 C 
BRANCH  10  11
ATOM     11  C   UNL     1       1.900   2.968   6.908  1.00  0.00     0.000 C 
BRANCH  11  12
ATOM     12  C   UNL     1       0.710   3.882   7.251  1.00  0.00     0.000 C 
BRANCH  12  13
ATOM     13  C   UNL     1       0.584   5.141   6.367  1.00  0.00     0.006 C 
BRANCH  13  14
ATOM     14  C   UNL     1       0.535   4.862   4.857  1.00  0.00     0.053 C 
BRANCH  14  15
ATOM     15  C   UNL     1       1.628   5.575   4.120  1.00  0.00     0.041 C 
ATOM     16  O   UNL     1       2.630   4.939   3.700  1.00  0.00    -0.550 OA
ATOM     17  O   UNL     1       1.532   6.941   3.884  1.00  0.00    -0.550 OA
ENDBRANCH  14  15
ENDBRANCH  13  14
ENDBRANCH  12  13
ENDBRANCH  11  12
ENDBRANCH  10  11
ENDBRANCH   9  10
ENDBRANCH   8   9
ENDBRANCH   7   8
ENDBRANCH   6   7
ENDBRANCH   5   6
ENDBRANCH   4   5
ENDBRANCH   3   4
ENDBRANCH   2   3
ENDBRANCH   1   2
BRANCH   1  18
ATOM     18  C   UNL     1       0.043  -1.874   6.162  1.00  0.00     0.000 C 
BRANCH  18  19
ATOM     19  C   UNL     1       0.096  -3.290   6.761  1.00  0.00     0.000 C 
BRANCH  19  20
ATOM     20  C   UNL     1      -0.745  -3.435   8.048  1.00  0.00     0.000 C 
BRANCH  20  21
ATOM     21  C   UNL     1      -1.889  -4.462   7.934  1.00  0.00     0.000 C 
BRANCH  21  22
ATOM     22  C   UNL     1      -2.505  -4.569   6.521  1.00  0.00     0.000 C 
BRANCH  22  23
ATOM     23  C   UNL     1      -2.030  -5.777   5.685  1.00  0.00     0.000 C 
BRANCH  23  24
ATOM     24  C   UNL     1      -2.561  -5.848   4.242  1.00  0.00    -0.000 C 
BRANCH  24  25
ATOM     25  C   UNL     1      -3.755  -4.916   3.987  1.00  0.00    -0.000 C 
BRANCH  25  26
ATOM     26  C   UNL     1      -3.425  -3.881   2.902  1.00  0.00    -0.000 C 
BRANCH  26  27
ATOM     27  C   UNL     1      -2.213  -3.001   3.261  1.00  0.00    -0.000 C 
BRANCH  27  28
ATOM     28  C   UNL     1      -2.568  -1.631   3.877  1.00  0.00    -0.000 C 
BRANCH  28  29
ATOM     29  C   UNL     1      -4.080  -1.357   3.987  1.00  0.00    -0.000 C 
BRANCH  29  30
ATOM     30  C   UNL     1      -4.555  -1.247   5.446  1.00  0.00    -0.000 C 
BRANCH  30  31
ATOM     31  C   UNL     1      -6.001  -1.731   5.625  1.00  0.00    -0.003 C 
ATOM     32  C   UNL     1      -6.530  -2.453   4.383  1.00  0.00     0.004 C 
ENDBRANCH  30  31
ENDBRANCH  29  30
ENDBRANCH  28  29
ENDBRANCH  27  28
ENDBRANCH  26  27
ENDBRANCH  25  26
ENDBRANCH  24  25
ENDBRANCH  23  24
ENDBRANCH  22  23
ENDBRANCH  21  22
ENDBRANCH  20  21
ENDBRANCH  19  20
ENDBRANCH  18  19
ENDBRANCH   1  18
TORSDOF 28
ENDMDL
MODEL 9
REMARK VINA RESULT:    -3.995      3.345      7.995
REMARK INTER + INTRA:         -15.162
REMARK INTER:                 -10.406
REMARK INTRA:                  -4.756
REMARK UNBOUND:                -4.627
REMARK SMILES CCCCCCCCCCCCCCCCCCCCCCCCCCCCCC(=O)[O-]
REMARK SMILES IDX 16 1 17 2 18 3 19 4 20 5 21 6 22 7 23 8 24 9 25 10 26 11
REMARK SMILES IDX 27 12 28 13 29 14 30 15 31 16 32 17 15 18 14 19 13 20 12 21
REMARK SMILES IDX 11 22 10 23 9 24 8 25 7 26 6 27 5 28 4 29 3 30 2 31 1 32
REMARK H PARENT
REMARK Flexibility Score: inf
ROOT
ATOM      1  C   UNL     1       2.252  -2.255   5.498  1.00  0.00     0.000 C 
ENDROOT
BRANCH   1   2
ATOM      2  C   UNL     1       1.132  -1.210   5.473  1.00  0.00     0.000 C 
BRANCH   2   3
ATOM      3  C   UNL     1      -0.235  -1.866   5.225  1.00  0.00     0.000 C 
BRANCH   3   4
ATOM      4  C   UNL     1      -0.513  -3.018   6.205  1.00  0.00     0.000 C 
BRANCH   4   5
ATOM      5  C   UNL     1      -1.804  -2.799   7.014  1.00  0.00     0.000 C 
BRANCH   5   6
ATOM      6  C   UNL     1      -2.814  -3.950   6.857  1.00  0.00     0.000 C 
BRANCH   6   7
ATOM      7  C   UNL     1      -4.280  -3.583   7.162  1.00  0.00     0.000 C 
BRANCH   7   8
ATOM      8  C   UNL     1      -4.434  -2.185   7.787  1.00  0.00     0.000 C 
BRANCH   8   9
ATOM      9  C   UNL     1      -5.284  -1.237   6.926  1.00  0.00     0.000 C 
BRANCH   9  10
ATOM     10  C   UNL     1      -5.314  -1.640   5.443  1.00  0.00     0.000 C 
BRANCH  10  11
ATOM     11  C   UNL     1      -4.418  -0.713   4.607  1.00  0.00     0.000 C 
BRANCH  11  12
ATOM     12  C   UNL     1      -3.349  -1.476   3.804  1.00  0.00     0.000 C 
BRANCH  12  13
ATOM     13  C   UNL     1      -3.724  -2.929   3.443  1.00  0.00     0.006 C 
BRANCH  13  14
ATOM     14  C   UNL     1      -2.529  -3.837   3.115  1.00  0.00     0.053 C 
BRANCH  14  15
ATOM     15  C   UNL     1      -2.942  -5.268   2.946  1.00  0.00     0.041 C 
ATOM     16  O   UNL     1      -3.282  -5.953   3.946  1.00  0.00    -0.550 OA
ATOM     17  O   UNL     1      -2.966  -5.840   1.680  1.00  0.00    -0.550 OA
ENDBRANCH  14  15
ENDBRANCH  13  14
ENDBRANCH  12  13
ENDBRANCH  11  12
ENDBRANCH  10  11
ENDBRANCH   9  10
ENDBRANCH   8   9
ENDBRANCH   7   8
ENDBRANCH   6   7
ENDBRANCH   5   6
ENDBRANCH   4   5
ENDBRANCH   3   4
ENDBRANCH   2   3
ENDBRANCH   1   2
BRANCH   1  18
ATOM     18  C   UNL     1       3.620  -1.578   5.667  1.00  0.00     0.000 C 
BRANCH  18  19
ATOM     19  C   UNL     1       4.207  -1.783   7.075  1.00  0.00     0.000 C 
BRANCH  19  20
ATOM     20  C   UNL     1       3.635  -3.024   7.795  1.00  0.00     0.000 C 
BRANCH  20  21
ATOM     21  C   UNL     1       3.208  -2.759   9.251  1.00  0.00     0.000 C 
BRANCH  21  22
ATOM     22  C   UNL     1       1.680  -2.802   9.480  1.00  0.00     0.000 C 
BRANCH  22  23
ATOM     23  C   UNL     1       0.932  -1.484   9.184  1.00  0.00     0.000 C 
BRANCH  23  24
ATOM     24  C   UNL     1       1.744  -0.191   9.379  1.00  0.00    -0.000 C 
BRANCH  24  25
ATOM     25  C   UNL     1       1.180   1.006   8.599  1.00  0.00    -0.000 C 
BRANCH  25  26
ATOM     26  C   UNL     1       2.181   1.500   7.545  1.00  0.00    -0.000 C 
BRANCH  26  27
ATOM     27  C   UNL     1       1.534   2.407   6.481  1.00  0.00    -0.000 C 
BRANCH  27  28
ATOM     28  C   UNL     1       1.732   3.920   6.713  1.00  0.00    -0.000 C 
BRANCH  28  29
ATOM     29  C   UNL     1       0.423   4.733   6.743  1.00  0.00    -0.000 C 
BRANCH  29  30
ATOM     30  C   UNL     1      -0.192   4.809   8.150  1.00  0.00    -0.000 C 
BRANCH  30  31
ATOM     31  C   UNL     1      -0.918   6.140   8.396  1.00  0.00    -0.003 C 
ATOM     32  C   UNL     1      -1.839   6.524   7.236  1.00  0.00     0.004 C 
ENDBRANCH  30  31
ENDBRANCH  29  30
ENDBRANCH  28  29
ENDBRANCH  27  28
ENDBRANCH  26  27
ENDBRANCH  25  26
ENDBRANCH  24  25
ENDBRANCH  23  24
ENDBRANCH  22  23
ENDBRANCH  21  22
ENDBRANCH  20  21
ENDBRANCH  19  20
ENDBRANCH  18  19
ENDBRANCH   1  18
TORSDOF 28
ENDMDL
