MODEL 1
REMARK VINA RESULT:    -5.456      0.000      0.000
REMARK INTER + INTRA:          -6.397
REMARK INTER:                  -6.253
REMARK INTRA:                  -0.144
REMARK UNBOUND:                -0.144
REMARK SMILES O=C([O-])C=Cc1ccc(O)cc1
REMARK SMILES IDX 6 1 7 2 12 3 8 4 11 5 9 6 5 7 4 8 2 9 1 10 3 11 10 12
REMARK H PARENT 10 13
REMARK Flexibility Score: inf
ROOT
ATOM      1  C   UNL     1      64.189  21.110  70.063  1.00  0.00    -0.025 A 
ATOM      2  C   UNL     1      64.854  21.469  68.873  1.00  0.00     0.012 A 
ATOM      3  C   UNL     1      64.362  21.913  71.203  1.00  0.00     0.012 A 
ATOM      4  C   UNL     1      65.691  22.589  68.839  1.00  0.00     0.047 A 
ATOM      5  C   UNL     1      65.198  23.032  71.166  1.00  0.00     0.047 A 
ATOM      6  C   UNL     1      65.866  23.372  69.987  1.00  0.00     0.115 A 
ENDROOT
BRANCH   1   7
ATOM      7  C   UNL     1      63.283  19.939  70.149  1.00  0.00     0.010 C 
ATOM      8  C   UNL     1      63.275  19.076  71.175  1.00  0.00     0.025 C 
BRANCH   8   9
ATOM      9  C   UNL     1      62.350  17.933  71.223  1.00  0.00     0.064 C 
ATOM     10  O   UNL     1      61.108  18.138  71.230  1.00  0.00    -0.545 OA
ATOM     11  O   UNL     1      62.825  16.627  71.263  1.00  0.00    -0.545 OA
ENDBRANCH   8   9
ENDBRANCH   1   7
BRANCH   6  12
ATOM     12  O   UNL     1      66.698  24.490  69.965  1.00  0.00    -0.508 OA
ATOM     13  H   UNL     1      67.153  24.794  69.112  1.00  0.00     0.293 HD
ENDBRANCH   6  12
TORSDOF 3
ENDMDL
MODEL 2
REMARK VINA RESULT:    -5.439      0.695      1.570
REMARK INTER + INTRA:          -6.378
REMARK INTER:                  -6.238
REMARK INTRA:                  -0.140
REMARK UNBOUND:                -0.144
REMARK SMILES O=C([O-])C=Cc1ccc(O)cc1
REMARK SMILES IDX 6 1 7 2 12 3 8 4 11 5 9 6 5 7 4 8 2 9 1 10 3 11 10 12
REMARK H PARENT 10 13
REMARK Flexibility Score: inf
ROOT
ATOM      1  C   UNL     1      64.070  21.204  70.014  1.00  0.00    -0.025 A 
ATOM      2  C   UNL     1      64.294  21.984  71.166  1.00  0.00     0.012 A 
ATOM      3  C   UNL     1      64.819  21.475  68.856  1.00  0.00     0.012 A 
ATOM      4  C   UNL     1      65.228  23.025  71.146  1.00  0.00     0.047 A 
ATOM      5  C   UNL     1      65.751  22.516  68.839  1.00  0.00     0.047 A 
ATOM      6  C   UNL     1      65.957  23.295  69.981  1.00  0.00     0.115 A 
ENDROOT
BRANCH   1   7
ATOM      7  C   UNL     1      63.099  20.082  69.985  1.00  0.00     0.010 C 
ATOM      8  C   UNL     1      62.516  19.572  71.079  1.00  0.00     0.025 C 
BRANCH   8   9
ATOM      9  C   UNL     1      61.550  18.465  71.002  1.00  0.00     0.064 C 
ATOM     10  O   UNL     1      60.672  18.468  70.099  1.00  0.00    -0.545 OA
ATOM     11  O   UNL     1      61.589  17.414  71.911  1.00  0.00    -0.545 OA
ENDBRANCH   8   9
ENDBRANCH   1   7
BRANCH   6  12
ATOM     12  O   UNL     1      66.890  24.329  69.949  1.00  0.00    -0.508 OA
ATOM     13  H   UNL     1      67.608  24.372  69.235  1.00  0.00     0.293 HD
ENDBRANCH   6  12
TORSDOF 3
ENDMDL
MODEL 3
REMARK VINA RESULT:    -5.387      1.785      5.897
REMARK INTER + INTRA:          -6.319
REMARK INTER:                  -6.167
REMARK INTRA:                  -0.151
REMARK UNBOUND:                -0.144
REMARK SMILES O=C([O-])C=Cc1ccc(O)cc1
REMARK SMILES IDX 6 1 7 2 12 3 8 4 11 5 9 6 5 7 4 8 2 9 1 10 3 11 10 12
REMARK H PARENT 10 13
REMARK Flexibility Score: inf
ROOT
ATOM      1  C   UNL     1      63.423  20.166  69.570  1.00  0.00    -0.025 A 
ATOM      2  C   UNL     1      62.986  19.076  70.351  1.00  0.00     0.012 A 
ATOM      3  C   UNL     1      62.800  20.405  68.333  1.00  0.00     0.012 A 
ATOM      4  C   UNL     1      61.967  18.237  69.888  1.00  0.00     0.047 A 
ATOM      5  C   UNL     1      61.783  19.564  67.874  1.00  0.00     0.047 A 
ATOM      6  C   UNL     1      61.365  18.478  68.647  1.00  0.00     0.115 A 
ENDROOT
BRANCH   1   7
ATOM      7  C   UNL     1      64.492  21.092  70.019  1.00  0.00     0.010 C 
ATOM      8  C   UNL     1      64.842  22.204  69.356  1.00  0.00     0.025 C 
BRANCH   8   9
ATOM      9  C   UNL     1      65.901  23.100  69.845  1.00  0.00     0.064 C 
ATOM     10  O   UNL     1      67.108  22.796  69.656  1.00  0.00    -0.545 OA
ATOM     11  O   UNL     1      65.592  24.278  70.514  1.00  0.00    -0.545 OA
ENDBRANCH   8   9
ENDBRANCH   1   7
BRANCH   6  12
ATOM     12  O   UNL     1      60.350  17.648  68.176  1.00  0.00    -0.508 OA
ATOM     13  H   UNL     1      60.417  16.639  68.246  1.00  0.00     0.293 HD
ENDBRANCH   6  12
TORSDOF 3
ENDMDL
MODEL 4
REMARK VINA RESULT:    -5.368      1.353      1.554
REMARK INTER + INTRA:          -6.297
REMARK INTER:                  -6.157
REMARK INTRA:                  -0.139
REMARK UNBOUND:                -0.144
REMARK SMILES O=C([O-])C=Cc1ccc(O)cc1
REMARK SMILES IDX 6 1 7 2 12 3 8 4 11 5 9 6 5 7 4 8 2 9 1 10 3 11 10 12
REMARK H PARENT 10 13
REMARK Flexibility Score: inf
ROOT
ATOM      1  C   UNL     1      64.127  21.193  69.946  1.00  0.00    -0.025 A 
ATOM      2  C   UNL     1      64.890  21.546  68.814  1.00  0.00     0.012 A 
ATOM      3  C   UNL     1      64.273  21.947  71.123  1.00  0.00     0.012 A 
ATOM      4  C   UNL     1      65.792  22.613  68.874  1.00  0.00     0.047 A 
ATOM      5  C   UNL     1      65.177  23.012  71.179  1.00  0.00     0.047 A 
ATOM      6  C   UNL     1      65.940  23.347  70.057  1.00  0.00     0.115 A 
ENDROOT
BRANCH   1   7
ATOM      7  C   UNL     1      63.148  20.078  69.934  1.00  0.00     0.010 C 
ATOM      8  C   UNL     1      62.303  19.839  68.922  1.00  0.00     0.025 C 
BRANCH   8   9
ATOM      9  C   UNL     1      61.356  18.714  68.949  1.00  0.00     0.064 C 
ATOM     10  O   UNL     1      60.427  18.663  68.100  1.00  0.00    -0.545 OA
ATOM     11  O   UNL     1      61.467  17.704  69.898  1.00  0.00    -0.545 OA
ENDBRANCH   8   9
ENDBRANCH   1   7
BRANCH   6  12
ATOM     12  O   UNL     1      66.836  24.411  70.127  1.00  0.00    -0.508 OA
ATOM     13  H   UNL     1      67.370  24.597  70.968  1.00  0.00     0.293 HD
ENDBRANCH   6  12
TORSDOF 3
ENDMDL
MODEL 5
REMARK VINA RESULT:    -5.299      1.366      5.802
REMARK INTER + INTRA:          -6.217
REMARK INTER:                  -6.064
REMARK INTRA:                  -0.153
REMARK UNBOUND:                -0.144
REMARK SMILES O=C([O-])C=Cc1ccc(O)cc1
REMARK SMILES IDX 6 1 7 2 12 3 8 4 11 5 9 6 5 7 4 8 2 9 1 10 3 11 10 12
REMARK H PARENT 10 13
REMARK Flexibility Score: inf
ROOT
ATOM      1  C   UNL     1      62.919  19.904  69.933  1.00  0.00    -0.025 A 
ATOM      2  C   UNL     1      61.866  19.294  69.223  1.00  0.00     0.012 A 
ATOM      3  C   UNL     1      63.122  19.551  71.278  1.00  0.00     0.012 A 
ATOM      4  C   UNL     1      61.025  18.373  69.856  1.00  0.00     0.047 A 
ATOM      5  C   UNL     1      62.279  18.631  71.908  1.00  0.00     0.047 A 
ATOM      6  C   UNL     1      61.228  18.042  71.201  1.00  0.00     0.115 A 
ENDROOT
BRANCH   1   7
ATOM      7  C   UNL     1      63.847  20.879  69.307  1.00  0.00     0.010 C 
ATOM      8  C   UNL     1      64.664  21.683  70.001  1.00  0.00     0.025 C 
BRANCH   8   9
ATOM      9  C   UNL     1      65.576  22.627  69.336  1.00  0.00     0.064 C 
ATOM     10  O   UNL     1      65.978  22.384  68.168  1.00  0.00    -0.545 OA
ATOM     11  O   UNL     1      66.003  23.783  69.977  1.00  0.00    -0.545 OA
ENDBRANCH   8   9
ENDBRANCH   1   7
BRANCH   6  12
ATOM     12  O   UNL     1      60.396  17.127  71.842  1.00  0.00    -0.508 OA
ATOM     13  H   UNL     1      60.567  16.835  72.797  1.00  0.00     0.293 HD
ENDBRANCH   6  12
TORSDOF 3
ENDMDL
MODEL 6
REMARK VINA RESULT:    -5.035      6.095      8.092
REMARK INTER + INTRA:          -5.914
REMARK INTER:                  -5.767
REMARK INTRA:                  -0.147
REMARK UNBOUND:                -0.144
REMARK SMILES O=C([O-])C=Cc1ccc(O)cc1
REMARK SMILES IDX 6 1 7 2 12 3 8 4 11 5 9 6 5 7 4 8 2 9 1 10 3 11 10 12
REMARK H PARENT 10 13
REMARK Flexibility Score: inf
ROOT
ATOM      1  C   UNL     1      66.493  14.903  74.119  1.00  0.00    -0.025 A 
ATOM      2  C   UNL     1      67.418  13.839  74.104  1.00  0.00     0.012 A 
ATOM      3  C   UNL     1      66.456  15.752  75.238  1.00  0.00     0.012 A 
ATOM      4  C   UNL     1      68.264  13.621  75.196  1.00  0.00     0.047 A 
ATOM      5  C   UNL     1      67.302  15.531  76.328  1.00  0.00     0.047 A 
ATOM      6  C   UNL     1      68.206  14.465  76.311  1.00  0.00     0.115 A 
ENDROOT
BRANCH   1   7
ATOM      7  C   UNL     1      65.581  15.185  72.983  1.00  0.00     0.010 C 
ATOM      8  C   UNL     1      65.207  16.419  72.615  1.00  0.00     0.025 C 
BRANCH   8   9
ATOM      9  C   UNL     1      64.308  16.652  71.474  1.00  0.00     0.064 C 
ATOM     10  O   UNL     1      64.763  17.168  70.420  1.00  0.00    -0.545 OA
ATOM     11  O   UNL     1      62.962  16.311  71.540  1.00  0.00    -0.545 OA
ENDBRANCH   8   9
ENDBRANCH   1   7
BRANCH   6  12
ATOM     12  O   UNL     1      69.043  14.256  77.405  1.00  0.00    -0.508 OA
ATOM     13  H   UNL     1      70.014  14.546  77.391  1.00  0.00     0.293 HD
ENDBRANCH   6  12
TORSDOF 3
ENDMDL
MODEL 7
REMARK VINA RESULT:    -4.976     10.597     11.786
REMARK INTER + INTRA:          -5.847
REMARK INTER:                  -5.708
REMARK INTRA:                  -0.139
REMARK UNBOUND:                -0.144
REMARK SMILES O=C([O-])C=Cc1ccc(O)cc1
REMARK SMILES IDX 6 1 7 2 12 3 8 4 11 5 9 6 5 7 4 8 2 9 1 10 3 11 10 12
REMARK H PARENT 10 13
REMARK Flexibility Score: inf
ROOT
ATOM      1  C   UNL     1      73.178  27.300  68.359  1.00  0.00    -0.025 A 
ATOM      2  C   UNL     1      74.509  27.346  68.822  1.00  0.00     0.012 A 
ATOM      3  C   UNL     1      72.845  26.384  67.346  1.00  0.00     0.012 A 
ATOM      4  C   UNL     1      75.483  26.512  68.263  1.00  0.00     0.047 A 
ATOM      5  C   UNL     1      73.821  25.552  66.790  1.00  0.00     0.047 A 
ATOM      6  C   UNL     1      75.141  25.615  67.244  1.00  0.00     0.115 A 
ENDROOT
BRANCH   1   7
ATOM      7  C   UNL     1      72.106  28.155  68.925  1.00  0.00     0.010 C 
ATOM      8  C   UNL     1      71.601  28.001  70.157  1.00  0.00     0.025 C 
BRANCH   8   9
ATOM      9  C   UNL     1      70.544  28.880  70.680  1.00  0.00     0.064 C 
ATOM     10  O   UNL     1      70.140  29.848  69.984  1.00  0.00    -0.545 OA
ATOM     11  O   UNL     1      69.984  28.660  71.933  1.00  0.00    -0.545 OA
ENDBRANCH   8   9
ENDBRANCH   1   7
BRANCH   6  12
ATOM     12  O   UNL     1      76.103  24.780  66.679  1.00  0.00    -0.508 OA
ATOM     13  H   UNL     1      77.069  24.805  66.983  1.00  0.00     0.293 HD
ENDBRANCH   6  12
TORSDOF 3
ENDMDL
MODEL 8
REMARK VINA RESULT:    -4.971      1.369      5.851
REMARK INTER + INTRA:          -5.841
REMARK INTER:                  -5.705
REMARK INTRA:                  -0.136
REMARK UNBOUND:                -0.144
REMARK SMILES O=C([O-])C=Cc1ccc(O)cc1
REMARK SMILES IDX 6 1 7 2 12 3 8 4 11 5 9 6 5 7 4 8 2 9 1 10 3 11 10 12
REMARK H PARENT 10 13
REMARK Flexibility Score: inf
ROOT
ATOM      1  C   UNL     1      63.691  19.778  70.593  1.00  0.00    -0.025 A 
ATOM      2  C   UNL     1      62.775  19.437  71.609  1.00  0.00     0.012 A 
ATOM      3  C   UNL     1      64.391  18.750  69.939  1.00  0.00     0.012 A 
ATOM      4  C   UNL     1      62.588  18.099  71.973  1.00  0.00     0.047 A 
ATOM      5  C   UNL     1      64.202  17.415  70.305  1.00  0.00     0.047 A 
ATOM      6  C   UNL     1      63.303  17.085  71.324  1.00  0.00     0.115 A 
ENDROOT
BRANCH   1   7
ATOM      7  C   UNL     1      63.919  21.179  70.162  1.00  0.00     0.010 C 
ATOM      8  C   UNL     1      64.991  21.903  70.513  1.00  0.00     0.025 C 
BRANCH   8   9
ATOM      9  C   UNL     1      65.181  23.287  70.052  1.00  0.00     0.064 C 
ATOM     10  O   UNL     1      65.002  23.567  68.837  1.00  0.00    -0.545 OA
ATOM     11  O   UNL     1      65.557  24.292  70.935  1.00  0.00    -0.545 OA
ENDBRANCH   8   9
ENDBRANCH   1   7
BRANCH   6  12
ATOM     12  O   UNL     1      63.125  15.750  71.678  1.00  0.00    -0.508 OA
ATOM     13  H   UNL     1      62.276  15.249  71.444  1.00  0.00     0.293 HD
ENDBRANCH   6  12
TORSDOF 3
ENDMDL
MODEL 9
REMARK VINA RESULT:    -4.957     10.677     11.903
REMARK INTER + INTRA:          -5.825
REMARK INTER:                  -5.691
REMARK INTRA:                  -0.134
REMARK UNBOUND:                -0.144
REMARK SMILES O=C([O-])C=Cc1ccc(O)cc1
REMARK SMILES IDX 6 1 7 2 12 3 8 4 11 5 9 6 5 7 4 8 2 9 1 10 3 11 10 12
REMARK H PARENT 10 13
REMARK Flexibility Score: inf
ROOT
ATOM      1  C   UNL     1      73.615  27.050  68.474  1.00  0.00    -0.025 A 
ATOM      2  C   UNL     1      73.097  26.387  67.344  1.00  0.00     0.012 A 
ATOM      3  C   UNL     1      74.949  26.811  68.847  1.00  0.00     0.012 A 
ATOM      4  C   UNL     1      73.891  25.489  66.624  1.00  0.00     0.047 A 
ATOM      5  C   UNL     1      75.740  25.913  68.126  1.00  0.00     0.047 A 
ATOM      6  C   UNL     1      75.214  25.248  67.014  1.00  0.00     0.115 A 
ENDROOT
BRANCH   1   7
ATOM      7  C   UNL     1      72.819  28.020  69.266  1.00  0.00     0.010 C 
ATOM      8  C   UNL     1      71.580  27.778  69.716  1.00  0.00     0.025 C 
BRANCH   8   9
ATOM      9  C   UNL     1      70.832  28.767  70.507  1.00  0.00     0.064 C 
ATOM     10  O   UNL     1      70.823  28.679  71.763  1.00  0.00    -0.545 OA
ATOM     11  O   UNL     1      70.131  29.797  69.891  1.00  0.00    -0.545 OA
ENDBRANCH   8   9
ENDBRANCH   1   7
BRANCH   6  12
ATOM     12  O   UNL     1      76.014  24.355  66.305  1.00  0.00    -0.508 OA
ATOM     13  H   UNL     1      76.884  24.004  66.690  1.00  0.00     0.293 HD
ENDBRANCH   6  12
TORSDOF 3
ENDMDL
