MODEL 1
REMARK VINA RESULT:    -8.192      0.000      0.000
REMARK INTER + INTRA:         -10.182
REMARK INTER:                  -9.868
REMARK INTRA:                  -0.313
REMARK UNBOUND:                -0.313
REMARK SMILES O=c1c(O)c(-c2ccc(O)c(O)c2)oc2cc(O)cc(O)c12
REMARK SMILES IDX 5 1 3 2 2 3 1 4 22 5 20 6 19 7 17 8 16 9 15 10 14 11 6 12
REMARK SMILES IDX 7 13 8 14 9 15 13 16 11 17 10 18 12 20 4 22 21 24 18 26
REMARK H PARENT 10 19 12 21 4 23 21 25 18 27
REMARK Flexibility Score: inf
ROOT
ATOM      1  C   UNL     1      13.397   9.929  81.979  1.00  0.00     0.180 A 
ATOM      2  C   UNL     1      14.050   8.883  82.651  1.00  0.00     0.208 A 
ATOM      3  C   UNL     1      15.174   8.287  82.056  1.00  0.00     0.238 A 
ATOM      4  O   UNL     1      15.721   7.315  82.637  1.00  0.00    -0.285 OA
ATOM      5  C   UNL     1      15.639   8.757  80.803  1.00  0.00     0.111 A 
ATOM      6  C   UNL     1      16.792   8.254  80.127  1.00  0.00     0.134 A 
ATOM      7  C   UNL     1      17.084   8.704  78.833  1.00  0.00     0.093 A 
ATOM      8  C   UNL     1      16.305   9.683  78.218  1.00  0.00     0.123 A 
ATOM      9  C   UNL     1      15.210  10.224  78.894  1.00  0.00     0.094 A 
ATOM     10  C   UNL     1      14.873   9.770  80.171  1.00  0.00     0.146 A 
ATOM     11  O   UNL     1      13.818  10.304  80.775  1.00  0.00    -0.452 OA
ENDROOT
BRANCH   1  12
ATOM     12  C   UNL     1      12.221  10.623  82.554  1.00  0.00     0.025 A 
ATOM     13  C   UNL     1      12.411  11.787  83.315  1.00  0.00     0.016 A 
ATOM     14  C   UNL     1      11.317  12.446  83.885  1.00  0.00     0.051 A 
ATOM     15  C   UNL     1      10.022  11.942  83.713  1.00  0.00     0.157 A 
ATOM     16  C   UNL     1      10.921  10.109  82.402  1.00  0.00     0.062 A 
ATOM     17  C   UNL     1       9.824  10.768  82.976  1.00  0.00     0.158 A 
BRANCH  15  18
ATOM     18  O   UNL     1       8.929  12.597  84.278  1.00  0.00    -0.504 OA
ATOM     19  H   UNL     1       8.245  13.077  83.704  1.00  0.00     0.293 HD
ENDBRANCH  15  18
BRANCH  17  20
ATOM     20  O   UNL     1       8.535  10.261  82.818  1.00  0.00    -0.504 OA
ATOM     21  H   UNL     1       8.246   9.805  81.961  1.00  0.00     0.293 HD
ENDBRANCH  17  20
ENDBRANCH   1  12
BRANCH   2  22
ATOM     22  O   UNL     1      13.561   8.420  83.875  1.00  0.00    -0.502 OA
ATOM     23  H   UNL     1      12.635   8.022  83.976  1.00  0.00     0.293 HD
ENDBRANCH   2  22
BRANCH   6  24
ATOM     24  O   UNL     1      17.690   7.342  80.688  1.00  0.00    -0.507 OA
ATOM     25  H   UNL     1      17.676   6.347  80.524  1.00  0.00     0.293 HD
ENDBRANCH   6  24
BRANCH   8  26
ATOM     26  O   UNL     1      16.633  10.118  76.936  1.00  0.00    -0.508 OA
ATOM     27  H   UNL     1      17.503  10.602  76.746  1.00  0.00     0.293 HD
ENDBRANCH   8  26
TORSDOF 6
ENDMDL
MODEL 2
REMARK VINA RESULT:    -8.071      6.111     11.348
REMARK INTER + INTRA:         -10.036
REMARK INTER:                  -9.739
REMARK INTRA:                  -0.297
REMARK UNBOUND:                -0.313
REMARK SMILES O=c1c(O)c(-c2ccc(O)c(O)c2)oc2cc(O)cc(O)c12
REMARK SMILES IDX 5 1 3 2 2 3 1 4 22 5 20 6 19 7 17 8 16 9 15 10 14 11 6 12
REMARK SMILES IDX 7 13 8 14 9 15 13 16 11 17 10 18 12 20 4 22 21 24 18 26
REMARK H PARENT 10 19 12 21 4 23 21 25 18 27
REMARK Flexibility Score: inf
ROOT
ATOM      1  C   UNL     1      19.801   5.800  75.995  1.00  0.00     0.180 A 
ATOM      2  C   UNL     1      19.174   6.758  75.179  1.00  0.00     0.208 A 
ATOM      3  C   UNL     1      18.560   7.868  75.781  1.00  0.00     0.238 A 
ATOM      4  O   UNL     1      17.953   8.693  75.050  1.00  0.00    -0.285 OA
ATOM      5  C   UNL     1      18.596   8.015  77.189  1.00  0.00     0.111 A 
ATOM      6  C   UNL     1      18.041   9.120  77.902  1.00  0.00     0.134 A 
ATOM      7  C   UNL     1      18.019   9.098  79.303  1.00  0.00     0.093 A 
ATOM      8  C   UNL     1      18.589   8.043  80.015  1.00  0.00     0.123 A 
ATOM      9  C   UNL     1      19.186   6.985  79.327  1.00  0.00     0.094 A 
ATOM     10  C   UNL     1      19.192   6.962  77.931  1.00  0.00     0.146 A 
ATOM     11  O   UNL     1      19.761   5.933  77.316  1.00  0.00    -0.452 OA
ENDROOT
BRANCH   1  12
ATOM     12  C   UNL     1      20.491   4.617  75.432  1.00  0.00     0.025 A 
ATOM     13  C   UNL     1      19.742   3.483  75.079  1.00  0.00     0.016 A 
ATOM     14  C   UNL     1      20.375   2.347  74.567  1.00  0.00     0.051 A 
ATOM     15  C   UNL     1      21.767   2.325  74.414  1.00  0.00     0.157 A 
ATOM     16  C   UNL     1      21.891   4.581  75.297  1.00  0.00     0.062 A 
ATOM     17  C   UNL     1      22.527   3.441  74.785  1.00  0.00     0.158 A 
BRANCH  15  18
ATOM     18  O   UNL     1      22.403   1.195  73.901  1.00  0.00    -0.504 OA
ATOM     19  H   UNL     1      23.024   1.253  73.103  1.00  0.00     0.293 HD
ENDBRANCH  15  18
BRANCH  17  20
ATOM     20  O   UNL     1      23.913   3.409  74.645  1.00  0.00    -0.504 OA
ATOM     21  H   UNL     1      24.432   2.540  74.692  1.00  0.00     0.293 HD
ENDBRANCH  17  20
ENDBRANCH   1  12
BRANCH   2  22
ATOM     22  O   UNL     1      19.131   6.582  73.794  1.00  0.00    -0.502 OA
ATOM     23  H   UNL     1      18.261   6.487  73.284  1.00  0.00     0.293 HD
ENDBRANCH   2  22
BRANCH   6  24
ATOM     24  O   UNL     1      17.529  10.268  77.289  1.00  0.00    -0.507 OA
ATOM     25  H   UNL     1      18.089  11.032  76.942  1.00  0.00     0.293 HD
ENDBRANCH   6  24
BRANCH   8  26
ATOM     26  O   UNL     1      18.562   8.060  81.407  1.00  0.00    -0.508 OA
ATOM     27  H   UNL     1      18.885   8.864  81.934  1.00  0.00     0.293 HD
ENDBRANCH   8  26
TORSDOF 6
ENDMDL
MODEL 3
REMARK VINA RESULT:    -7.949      2.641      4.509
REMARK INTER + INTRA:          -9.889
REMARK INTER:                  -9.610
REMARK INTRA:                  -0.279
REMARK UNBOUND:                -0.313
REMARK SMILES O=c1c(O)c(-c2ccc(O)c(O)c2)oc2cc(O)cc(O)c12
REMARK SMILES IDX 5 1 3 2 2 3 1 4 22 5 20 6 19 7 17 8 16 9 15 10 14 11 6 12
REMARK SMILES IDX 7 13 8 14 9 15 13 16 11 17 10 18 12 20 4 22 21 24 18 26
REMARK H PARENT 10 19 12 21 4 23 21 25 18 27
REMARK Flexibility Score: inf
ROOT
ATOM      1  C   UNL     1      17.063   9.452  79.433  1.00  0.00     0.180 A 
ATOM      2  C   UNL     1      18.022   8.585  79.984  1.00  0.00     0.208 A 
ATOM      3  C   UNL     1      18.991   8.017  79.141  1.00  0.00     0.238 A 
ATOM      4  O   UNL     1      19.812   7.200  79.630  1.00  0.00    -0.285 OA
ATOM      5  C   UNL     1      18.999   8.337  77.761  1.00  0.00     0.111 A 
ATOM      6  C   UNL     1      19.958   7.851  76.823  1.00  0.00     0.134 A 
ATOM      7  C   UNL     1      19.792   8.129  75.460  1.00  0.00     0.093 A 
ATOM      8  C   UNL     1      18.741   8.926  75.010  1.00  0.00     0.123 A 
ATOM      9  C   UNL     1      17.831   9.455  75.926  1.00  0.00     0.094 A 
ATOM     10  C   UNL     1      17.949   9.166  77.287  1.00  0.00     0.146 A 
ATOM     11  O   UNL     1      17.056   9.680  78.124  1.00  0.00    -0.452 OA
ENDROOT
BRANCH   1  12
ATOM     12  C   UNL     1      16.025  10.108  80.261  1.00  0.00     0.025 A 
ATOM     13  C   UNL     1      16.374  11.207  81.062  1.00  0.00     0.016 A 
ATOM     14  C   UNL     1      15.415  11.828  81.868  1.00  0.00     0.051 A 
ATOM     15  C   UNL     1      14.099  11.350  81.895  1.00  0.00     0.157 A 
ATOM     16  C   UNL     1      14.707   9.618  80.308  1.00  0.00     0.062 A 
ATOM     17  C   UNL     1      13.746  10.240  81.118  1.00  0.00     0.158 A 
BRANCH  15  18
ATOM     18  O   UNL     1      13.139  11.967  82.696  1.00  0.00    -0.504 OA
ATOM     19  H   UNL     1      12.963  12.963  82.637  1.00  0.00     0.293 HD
ENDBRANCH  15  18
BRANCH  17  20
ATOM     20  O   UNL     1      12.439   9.757  81.158  1.00  0.00    -0.504 OA
ATOM     21  H   UNL     1      11.816   9.975  81.927  1.00  0.00     0.293 HD
ENDBRANCH  17  20
ENDBRANCH   1  12
BRANCH   2  22
ATOM     22  O   UNL     1      17.982   8.266  81.343  1.00  0.00    -0.502 OA
ATOM     23  H   UNL     1      18.570   7.549  81.751  1.00  0.00     0.293 HD
ENDBRANCH   2  22
BRANCH   6  24
ATOM     24  O   UNL     1      21.098   7.123  77.177  1.00  0.00    -0.507 OA
ATOM     25  H   UNL     1      21.707   6.655  76.523  1.00  0.00     0.293 HD
ENDBRANCH   6  24
BRANCH   8  26
ATOM     26  O   UNL     1      18.615   9.193  73.648  1.00  0.00    -0.508 OA
ATOM     27  H   UNL     1      19.312   8.884  72.980  1.00  0.00     0.293 HD
ENDBRANCH   8  26
TORSDOF 6
ENDMDL
MODEL 4
REMARK VINA RESULT:    -7.916      3.793      5.767
REMARK INTER + INTRA:          -9.849
REMARK INTER:                  -9.655
REMARK INTRA:                  -0.195
REMARK UNBOUND:                -0.313
REMARK SMILES O=c1c(O)c(-c2ccc(O)c(O)c2)oc2cc(O)cc(O)c12
REMARK SMILES IDX 5 1 3 2 2 3 1 4 22 5 20 6 19 7 17 8 16 9 15 10 14 11 6 12
REMARK SMILES IDX 7 13 8 14 9 15 13 16 11 17 10 18 12 20 4 22 21 24 18 26
REMARK H PARENT 10 19 12 21 4 23 21 25 18 27
REMARK Flexibility Score: inf
ROOT
ATOM      1  C   UNL     1      15.665   7.131  81.675  1.00  0.00     0.180 A 
ATOM      2  C   UNL     1      15.675   8.168  82.624  1.00  0.00     0.208 A 
ATOM      3  C   UNL     1      15.859   9.489  82.187  1.00  0.00     0.238 A 
ATOM      4  O   UNL     1      15.922  10.406  83.046  1.00  0.00    -0.285 OA
ATOM      5  C   UNL     1      16.014   9.759  80.805  1.00  0.00     0.111 A 
ATOM      6  C   UNL     1      16.167  11.064  80.247  1.00  0.00     0.134 A 
ATOM      7  C   UNL     1      16.444  11.202  78.881  1.00  0.00     0.093 A 
ATOM      8  C   UNL     1      16.508  10.090  78.043  1.00  0.00     0.123 A 
ATOM      9  C   UNL     1      16.301   8.813  78.568  1.00  0.00     0.094 A 
ATOM     10  C   UNL     1      16.059   8.641  79.933  1.00  0.00     0.146 A 
ATOM     11  O   UNL     1      15.879   7.409  80.394  1.00  0.00    -0.452 OA
ENDROOT
BRANCH   1  12
ATOM     12  C   UNL     1      15.451   5.716  82.057  1.00  0.00     0.025 A 
ATOM     13  C   UNL     1      16.464   4.775  81.815  1.00  0.00     0.016 A 
ATOM     14  C   UNL     1      16.276   3.430  82.147  1.00  0.00     0.051 A 
ATOM     15  C   UNL     1      15.066   3.006  82.713  1.00  0.00     0.157 A 
ATOM     16  C   UNL     1      14.231   5.282  82.605  1.00  0.00     0.062 A 
ATOM     17  C   UNL     1      14.040   3.932  82.936  1.00  0.00     0.158 A 
BRANCH  15  18
ATOM     18  O   UNL     1      14.875   1.667  83.047  1.00  0.00    -0.504 OA
ATOM     19  H   UNL     1      15.608   1.120  83.483  1.00  0.00     0.293 HD
ENDBRANCH  15  18
BRANCH  17  20
ATOM     20  O   UNL     1      12.833   3.505  83.486  1.00  0.00    -0.504 OA
ATOM     21  H   UNL     1      12.804   2.850  84.259  1.00  0.00     0.293 HD
ENDBRANCH  17  20
ENDBRANCH   1  12
BRANCH   2  22
ATOM     22  O   UNL     1      15.542   7.877  83.984  1.00  0.00    -0.502 OA
ATOM     23  H   UNL     1      14.936   7.141  84.327  1.00  0.00     0.293 HD
ENDBRANCH   2  22
BRANCH   6  24
ATOM     24  O   UNL     1      16.030  12.247  80.978  1.00  0.00    -0.507 OA
ATOM     25  H   UNL     1      16.606  13.067  80.859  1.00  0.00     0.293 HD
ENDBRANCH   6  24
BRANCH   8  26
ATOM     26  O   UNL     1      16.771  10.265  76.686  1.00  0.00    -0.508 OA
ATOM     27  H   UNL     1      16.023  10.319  76.004  1.00  0.00     0.293 HD
ENDBRANCH   8  26
TORSDOF 6
ENDMDL
MODEL 5
REMARK VINA RESULT:    -7.707      1.270      1.985
REMARK INTER + INTRA:          -9.598
REMARK INTER:                  -9.446
REMARK INTRA:                  -0.152
REMARK UNBOUND:                -0.313
REMARK SMILES O=c1c(O)c(-c2ccc(O)c(O)c2)oc2cc(O)cc(O)c12
REMARK SMILES IDX 5 1 3 2 2 3 1 4 22 5 20 6 19 7 17 8 16 9 15 10 14 11 6 12
REMARK SMILES IDX 7 13 8 14 9 15 13 16 11 17 10 18 12 20 4 22 21 24 18 26
REMARK H PARENT 10 19 12 21 4 23 21 25 18 27
REMARK Flexibility Score: inf
ROOT
ATOM      1  C   UNL     1      13.715   9.236  81.242  1.00  0.00     0.180 A 
ATOM      2  C   UNL     1      14.454   8.662  82.290  1.00  0.00     0.208 A 
ATOM      3  C   UNL     1      15.828   8.434  82.110  1.00  0.00     0.238 A 
ATOM      4  O   UNL     1      16.473   7.870  83.031  1.00  0.00    -0.285 OA
ATOM      5  C   UNL     1      16.448   8.799  80.890  1.00  0.00     0.111 A 
ATOM      6  C   UNL     1      17.841   8.651  80.614  1.00  0.00     0.134 A 
ATOM      7  C   UNL     1      18.323   8.925  79.327  1.00  0.00     0.093 A 
ATOM      8  C   UNL     1      17.476   9.401  78.328  1.00  0.00     0.123 A 
ATOM      9  C   UNL     1      16.123   9.606  78.605  1.00  0.00     0.094 A 
ATOM     10  C   UNL     1      15.607   9.308  79.867  1.00  0.00     0.146 A 
ATOM     11  O   UNL     1      14.313   9.507  80.086  1.00  0.00    -0.452 OA
ENDROOT
BRANCH   1  12
ATOM     12  C   UNL     1      12.269   9.529  81.366  1.00  0.00     0.025 A 
ATOM     13  C   UNL     1      11.366   8.948  80.461  1.00  0.00     0.016 A 
ATOM     14  C   UNL     1       9.999   9.227  80.547  1.00  0.00     0.051 A 
ATOM     15  C   UNL     1       9.519  10.103  81.528  1.00  0.00     0.157 A 
ATOM     16  C   UNL     1      11.784  10.424  82.336  1.00  0.00     0.062 A 
ATOM     17  C   UNL     1      10.413  10.707  82.421  1.00  0.00     0.158 A 
BRANCH  15  18
ATOM     18  O   UNL     1       8.156  10.383  81.619  1.00  0.00    -0.504 OA
ATOM     19  H   UNL     1       7.820  11.306  81.868  1.00  0.00     0.293 HD
ENDBRANCH  15  18
BRANCH  17  20
ATOM     20  O   UNL     1       9.933  11.589  83.387  1.00  0.00    -0.504 OA
ATOM     21  H   UNL     1       9.004  11.492  83.780  1.00  0.00     0.293 HD
ENDBRANCH  17  20
ENDBRANCH   1  12
BRANCH   2  22
ATOM     22  O   UNL     1      13.818   8.289  83.477  1.00  0.00    -0.502 OA
ATOM     23  H   UNL     1      12.880   8.593  83.710  1.00  0.00     0.293 HD
ENDBRANCH   2  22
BRANCH   6  24
ATOM     24  O   UNL     1      18.790   8.270  81.567  1.00  0.00    -0.507 OA
ATOM     25  H   UNL     1      19.697   7.884  81.352  1.00  0.00     0.293 HD
ENDBRANCH   6  24
BRANCH   8  26
ATOM     26  O   UNL     1      17.991   9.677  77.064  1.00  0.00    -0.508 OA
ATOM     27  H   UNL     1      17.387   9.894  76.279  1.00  0.00     0.293 HD
ENDBRANCH   8  26
TORSDOF 6
ENDMDL
MODEL 6
REMARK VINA RESULT:    -7.670      4.146      6.081
REMARK INTER + INTRA:          -9.553
REMARK INTER:                  -9.440
REMARK INTRA:                  -0.112
REMARK UNBOUND:                -0.313
REMARK SMILES O=c1c(O)c(-c2ccc(O)c(O)c2)oc2cc(O)cc(O)c12
REMARK SMILES IDX 5 1 3 2 2 3 1 4 22 5 20 6 19 7 17 8 16 9 15 10 14 11 6 12
REMARK SMILES IDX 7 13 8 14 9 15 13 16 11 17 10 18 12 20 4 22 21 24 18 26
REMARK H PARENT 10 19 12 21 4 23 21 25 18 27
REMARK Flexibility Score: inf
ROOT
ATOM      1  C   UNL     1      17.253   8.678  78.231  1.00  0.00     0.180 A 
ATOM      2  C   UNL     1      17.027   7.291  78.194  1.00  0.00     0.208 A 
ATOM      3  C   UNL     1      17.198   6.606  76.981  1.00  0.00     0.238 A 
ATOM      4  O   UNL     1      16.941   5.375  76.941  1.00  0.00    -0.285 OA
ATOM      5  C   UNL     1      17.608   7.313  75.824  1.00  0.00     0.111 A 
ATOM      6  C   UNL     1      17.850   6.713  74.551  1.00  0.00     0.134 A 
ATOM      7  C   UNL     1      18.126   7.528  73.445  1.00  0.00     0.093 A 
ATOM      8  C   UNL     1      18.232   8.911  73.579  1.00  0.00     0.123 A 
ATOM      9  C   UNL     1      18.056   9.503  74.831  1.00  0.00     0.094 A 
ATOM     10  C   UNL     1      17.744   8.721  75.944  1.00  0.00     0.146 A 
ATOM     11  O   UNL     1      17.574   9.323  77.115  1.00  0.00    -0.452 OA
ENDROOT
BRANCH   1  12
ATOM     12  C   UNL     1      17.118   9.465  79.479  1.00  0.00     0.025 A 
ATOM     13  C   UNL     1      17.917   9.145  80.588  1.00  0.00     0.016 A 
ATOM     14  C   UNL     1      17.792   9.861  81.781  1.00  0.00     0.051 A 
ATOM     15  C   UNL     1      16.855  10.897  81.887  1.00  0.00     0.157 A 
ATOM     16  C   UNL     1      16.165  10.493  79.596  1.00  0.00     0.062 A 
ATOM     17  C   UNL     1      16.037  11.210  80.795  1.00  0.00     0.158 A 
BRANCH  15  18
ATOM     18  O   UNL     1      16.728  11.615  83.075  1.00  0.00    -0.504 OA
ATOM     19  H   UNL     1      17.156  12.526  83.191  1.00  0.00     0.293 HD
ENDBRANCH  15  18
BRANCH  17  20
ATOM     20  O   UNL     1      15.096  12.232  80.908  1.00  0.00    -0.504 OA
ATOM     21  H   UNL     1      14.257  12.122  81.466  1.00  0.00     0.293 HD
ENDBRANCH  17  20
ENDBRANCH   1  12
BRANCH   2  22
ATOM     22  O   UNL     1      16.602   6.618  79.341  1.00  0.00    -0.502 OA
ATOM     23  H   UNL     1      17.221   6.033  79.891  1.00  0.00     0.293 HD
ENDBRANCH   2  22
BRANCH   6  24
ATOM     24  O   UNL     1      17.860   5.334  74.328  1.00  0.00    -0.507 OA
ATOM     25  H   UNL     1      18.600   4.710  74.614  1.00  0.00     0.293 HD
ENDBRANCH   6  24
BRANCH   8  26
ATOM     26  O   UNL     1      18.522   9.689  72.460  1.00  0.00    -0.508 OA
ATOM     27  H   UNL     1      19.451  10.064  72.301  1.00  0.00     0.293 HD
ENDBRANCH   8  26
TORSDOF 6
ENDMDL
MODEL 7
REMARK VINA RESULT:    -7.621      4.404      6.763
REMARK INTER + INTRA:          -9.494
REMARK INTER:                  -9.496
REMARK INTRA:                   0.002
REMARK UNBOUND:                -0.313
REMARK SMILES O=c1c(O)c(-c2ccc(O)c(O)c2)oc2cc(O)cc(O)c12
REMARK SMILES IDX 5 1 3 2 2 3 1 4 22 5 20 6 19 7 17 8 16 9 15 10 14 11 6 12
REMARK SMILES IDX 7 13 8 14 9 15 13 16 11 17 10 18 12 20 4 22 21 24 18 26
REMARK H PARENT 10 19 12 21 4 23 21 25 18 27
REMARK Flexibility Score: inf
ROOT
ATOM      1  C   UNL     1      17.827   7.982  79.012  1.00  0.00     0.180 A 
ATOM      2  C   UNL     1      18.368   8.306  77.756  1.00  0.00     0.208 A 
ATOM      3  C   UNL     1      18.706   7.268  76.872  1.00  0.00     0.238 A 
ATOM      4  O   UNL     1      19.240   7.562  75.771  1.00  0.00    -0.285 OA
ATOM      5  C   UNL     1      18.482   5.921  77.248  1.00  0.00     0.111 A 
ATOM      6  C   UNL     1      18.749   4.793  76.416  1.00  0.00     0.134 A 
ATOM      7  C   UNL     1      18.612   3.501  76.939  1.00  0.00     0.093 A 
ATOM      8  C   UNL     1      18.157   3.296  78.240  1.00  0.00     0.123 A 
ATOM      9  C   UNL     1      17.836   4.392  79.043  1.00  0.00     0.094 A 
ATOM     10  C   UNL     1      17.997   5.692  78.562  1.00  0.00     0.146 A 
ATOM     11  O   UNL     1      17.690   6.707  79.361  1.00  0.00    -0.452 OA
ENDROOT
BRANCH   1  12
ATOM     12  C   UNL     1      17.424   9.020  79.987  1.00  0.00     0.025 A 
ATOM     13  C   UNL     1      16.582  10.065  79.575  1.00  0.00     0.016 A 
ATOM     14  C   UNL     1      16.205  11.068  80.474  1.00  0.00     0.051 A 
ATOM     15  C   UNL     1      16.678  11.046  81.793  1.00  0.00     0.157 A 
ATOM     16  C   UNL     1      17.912   9.015  81.306  1.00  0.00     0.062 A 
ATOM     17  C   UNL     1      17.537  10.022  82.208  1.00  0.00     0.158 A 
BRANCH  15  18
ATOM     18  O   UNL     1      16.304  12.043  82.693  1.00  0.00    -0.504 OA
ATOM     19  H   UNL     1      16.494  13.021  82.509  1.00  0.00     0.293 HD
ENDBRANCH  15  18
BRANCH  17  20
ATOM     20  O   UNL     1      18.017  10.011  83.516  1.00  0.00    -0.504 OA
ATOM     21  H   UNL     1      17.490  10.423  84.278  1.00  0.00     0.293 HD
ENDBRANCH  17  20
ENDBRANCH   1  12
BRANCH   2  22
ATOM     22  O   UNL     1      18.601   9.640  77.413  1.00  0.00    -0.502 OA
ATOM     23  H   UNL     1      18.405  10.406  78.046  1.00  0.00     0.293 HD
ENDBRANCH   2  22
BRANCH   6  24
ATOM     24  O   UNL     1      19.121   4.885  75.071  1.00  0.00    -0.507 OA
ATOM     25  H   UNL     1      19.553   4.142  74.542  1.00  0.00     0.293 HD
ENDBRANCH   6  24
BRANCH   8  26
ATOM     26  O   UNL     1      18.018   1.997  78.724  1.00  0.00    -0.508 OA
ATOM     27  H   UNL     1      18.706   1.585  79.345  1.00  0.00     0.293 HD
ENDBRANCH   8  26
TORSDOF 6
ENDMDL
MODEL 8
REMARK VINA RESULT:    -7.601      4.353      6.252
REMARK INTER + INTRA:          -9.470
REMARK INTER:                  -9.219
REMARK INTRA:                  -0.251
REMARK UNBOUND:                -0.313
REMARK SMILES O=c1c(O)c(-c2ccc(O)c(O)c2)oc2cc(O)cc(O)c12
REMARK SMILES IDX 5 1 3 2 2 3 1 4 22 5 20 6 19 7 17 8 16 9 15 10 14 11 6 12
REMARK SMILES IDX 7 13 8 14 9 15 13 16 11 17 10 18 12 20 4 22 21 24 18 26
REMARK H PARENT 10 19 12 21 4 23 21 25 18 27
REMARK Flexibility Score: inf
ROOT
ATOM      1  C   UNL     1      17.217   8.616  78.397  1.00  0.00     0.180 A 
ATOM      2  C   UNL     1      16.212   7.809  77.837  1.00  0.00     0.208 A 
ATOM      3  C   UNL     1      16.514   7.032  76.707  1.00  0.00     0.238 A 
ATOM      4  O   UNL     1      15.596   6.354  76.177  1.00  0.00    -0.285 OA
ATOM      5  C   UNL     1      17.821   7.058  76.162  1.00  0.00     0.111 A 
ATOM      6  C   UNL     1      18.249   6.281  75.044  1.00  0.00     0.134 A 
ATOM      7  C   UNL     1      19.528   6.485  74.510  1.00  0.00     0.093 A 
ATOM      8  C   UNL     1      20.415   7.388  75.092  1.00  0.00     0.123 A 
ATOM      9  C   UNL     1      20.028   8.111  76.221  1.00  0.00     0.094 A 
ATOM     10  C   UNL     1      18.747   7.956  76.755  1.00  0.00     0.146 A 
ATOM     11  O   UNL     1      18.414   8.669  77.824  1.00  0.00    -0.452 OA
ENDROOT
BRANCH   1  12
ATOM     12  C   UNL     1      16.982   9.444  79.602  1.00  0.00     0.025 A 
ATOM     13  C   UNL     1      16.250  10.637  79.489  1.00  0.00     0.016 A 
ATOM     14  C   UNL     1      16.034  11.444  80.610  1.00  0.00     0.051 A 
ATOM     15  C   UNL     1      16.560  11.077  81.855  1.00  0.00     0.157 A 
ATOM     16  C   UNL     1      17.525   9.090  80.851  1.00  0.00     0.062 A 
ATOM     17  C   UNL     1      17.311   9.901  81.974  1.00  0.00     0.158 A 
BRANCH  15  18
ATOM     18  O   UNL     1      16.345  11.878  82.976  1.00  0.00    -0.504 OA
ATOM     19  H   UNL     1      16.098  11.478  83.873  1.00  0.00     0.293 HD
ENDBRANCH  15  18
BRANCH  17  20
ATOM     20  O   UNL     1      17.844   9.546  83.212  1.00  0.00    -0.504 OA
ATOM     21  H   UNL     1      18.647  10.026  83.602  1.00  0.00     0.293 HD
ENDBRANCH  17  20
ENDBRANCH   1  12
BRANCH   2  22
ATOM     22  O   UNL     1      14.924   7.814  78.376  1.00  0.00    -0.502 OA
ATOM     23  H   UNL     1      14.222   8.493  78.104  1.00  0.00     0.293 HD
ENDBRANCH   2  22
BRANCH   6  24
ATOM     24  O   UNL     1      17.474   5.284  74.444  1.00  0.00    -0.507 OA
ATOM     25  H   UNL     1      17.817   4.618  73.768  1.00  0.00     0.293 HD
ENDBRANCH   6  24
BRANCH   8  26
ATOM     26  O   UNL     1      21.685   7.555  74.543  1.00  0.00    -0.508 OA
ATOM     27  H   UNL     1      22.168   8.445  74.585  1.00  0.00     0.293 HD
ENDBRANCH   8  26
TORSDOF 6
ENDMDL
MODEL 9
REMARK VINA RESULT:    -7.553      4.177      6.634
REMARK INTER + INTRA:          -9.412
REMARK INTER:                  -9.130
REMARK INTRA:                  -0.283
REMARK UNBOUND:                -0.313
REMARK SMILES O=c1c(O)c(-c2ccc(O)c(O)c2)oc2cc(O)cc(O)c12
REMARK SMILES IDX 5 1 3 2 2 3 1 4 22 5 20 6 19 7 17 8 16 9 15 10 14 11 6 12
REMARK SMILES IDX 7 13 8 14 9 15 13 16 11 17 10 18 12 20 4 22 21 24 18 26
REMARK H PARENT 10 19 12 21 4 23 21 25 18 27
REMARK Flexibility Score: inf
ROOT
ATOM      1  C   UNL     1      17.924   8.612  78.965  1.00  0.00     0.180 A 
ATOM      2  C   UNL     1      17.457   9.391  77.892  1.00  0.00     0.208 A 
ATOM      3  C   UNL     1      17.982   9.167  76.610  1.00  0.00     0.238 A 
ATOM      4  O   UNL     1      17.600   9.904  75.664  1.00  0.00    -0.285 OA
ATOM      5  C   UNL     1      18.956   8.157  76.413  1.00  0.00     0.111 A 
ATOM      6  C   UNL     1      19.527   7.818  75.149  1.00  0.00     0.134 A 
ATOM      7  C   UNL     1      20.576   6.892  75.092  1.00  0.00     0.093 A 
ATOM      8  C   UNL     1      21.029   6.246  76.241  1.00  0.00     0.123 A 
ATOM      9  C   UNL     1      20.438   6.527  77.474  1.00  0.00     0.094 A 
ATOM     10  C   UNL     1      19.414   7.472  77.568  1.00  0.00     0.146 A 
ATOM     11  O   UNL     1      18.885   7.718  78.760  1.00  0.00    -0.452 OA
ENDROOT
BRANCH   1  12
ATOM     12  C   UNL     1      17.401   8.772  80.341  1.00  0.00     0.025 A 
ATOM     13  C   UNL     1      16.429   7.878  80.819  1.00  0.00     0.016 A 
ATOM     14  C   UNL     1      15.906   8.023  82.107  1.00  0.00     0.051 A 
ATOM     15  C   UNL     1      16.336   9.072  82.929  1.00  0.00     0.157 A 
ATOM     16  C   UNL     1      17.814   9.836  81.163  1.00  0.00     0.062 A 
ATOM     17  C   UNL     1      17.287   9.983  82.454  1.00  0.00     0.158 A 
BRANCH  15  18
ATOM     18  O   UNL     1      15.819   9.219  84.215  1.00  0.00    -0.504 OA
ATOM     19  H   UNL     1      15.862   8.467  84.893  1.00  0.00     0.293 HD
ENDBRANCH  15  18
BRANCH  17  20
ATOM     20  O   UNL     1      17.703  11.034  83.270  1.00  0.00    -0.504 OA
ATOM     21  H   UNL     1      18.478  10.931  83.915  1.00  0.00     0.293 HD
ENDBRANCH  17  20
ENDBRANCH   1  12
BRANCH   2  22
ATOM     22  O   UNL     1      16.513  10.396  78.113  1.00  0.00    -0.502 OA
ATOM     23  H   UNL     1      16.716  11.377  77.960  1.00  0.00     0.293 HD
ENDBRANCH   2  22
BRANCH   6  24
ATOM     24  O   UNL     1      19.085   8.336  73.928  1.00  0.00    -0.507 OA
ATOM     25  H   UNL     1      19.466   9.156  73.481  1.00  0.00     0.293 HD
ENDBRANCH   6  24
BRANCH   8  26
ATOM     26  O   UNL     1      22.065   5.319  76.146  1.00  0.00    -0.508 OA
ATOM     27  H   UNL     1      21.883   4.323  76.096  1.00  0.00     0.293 HD
ENDBRANCH   8  26
TORSDOF 6
ENDMDL
