MODEL 1
REMARK VINA RESULT:    -4.515      0.000      0.000
REMARK INTER + INTRA:         -16.784
REMARK INTER:                 -11.905
REMARK INTRA:                  -4.879
REMARK UNBOUND:                -4.879
REMARK SMILES CCCCCCCCCCCCCCCCCCCCCCCCCCCCCC(=O)[O-]
REMARK SMILES IDX 16 1 17 2 18 3 19 4 20 5 21 6 22 7 23 8 24 9 25 10 26 11
REMARK SMILES IDX 27 12 28 13 29 14 30 15 31 16 32 17 15 18 14 19 13 20 12 21
REMARK SMILES IDX 11 22 10 23 9 24 8 25 7 26 6 27 5 28 4 29 3 30 2 31 1 32
REMARK H PARENT
REMARK Flexibility Score: inf
ROOT
ATOM      1  C   UNL     1      -8.684  -2.376 -28.418  1.00  0.00     0.000 C 
ENDROOT
BRANCH   1   2
ATOM      2  C   UNL     1      -8.384  -2.898 -27.008  1.00  0.00     0.000 C 
BRANCH   2   3
ATOM      3  C   UNL     1      -9.438  -2.407 -26.004  1.00  0.00     0.000 C 
BRANCH   3   4
ATOM      4  C   UNL     1      -9.274  -3.055 -24.619  1.00  0.00     0.000 C 
BRANCH   4   5
ATOM      5  C   UNL     1      -9.825  -4.493 -24.585  1.00  0.00     0.000 C 
BRANCH   5   6
ATOM      6  C   UNL     1     -11.198  -4.622 -25.275  1.00  0.00     0.000 C 
BRANCH   6   7
ATOM      7  C   UNL     1     -12.390  -4.343 -24.341  1.00  0.00     0.000 C 
BRANCH   7   8
ATOM      8  C   UNL     1     -12.820  -2.870 -24.348  1.00  0.00     0.000 C 
BRANCH   8   9
ATOM      9  C   UNL     1     -13.036  -2.297 -22.938  1.00  0.00     0.000 C 
BRANCH   9  10
ATOM     10  C   UNL     1     -11.730  -2.032 -22.161  1.00  0.00     0.000 C 
BRANCH  10  11
ATOM     11  C   UNL     1     -11.502  -0.542 -21.864  1.00  0.00     0.000 C 
BRANCH  11  12
ATOM     12  C   UNL     1     -10.558   0.081 -22.905  1.00  0.00     0.000 C 
BRANCH  12  13
ATOM     13  C   UNL     1      -9.458   0.949 -22.275  1.00  0.00     0.006 C 
BRANCH  13  14
ATOM     14  C   UNL     1      -9.078   0.488 -20.862  1.00  0.00     0.053 C 
BRANCH  14  15
ATOM     15  C   UNL     1      -8.366   1.580 -20.127  1.00  0.00     0.041 C 
ATOM     16  O   UNL     1      -7.122   1.519 -19.951  1.00  0.00    -0.550 OA
ATOM     17  O   UNL     1      -9.081   2.651 -19.610  1.00  0.00    -0.550 OA
ENDBRANCH  14  15
ENDBRANCH  13  14
ENDBRANCH  12  13
ENDBRANCH  11  12
ENDBRANCH  10  11
ENDBRANCH   9  10
ENDBRANCH   8   9
ENDBRANCH   7   8
ENDBRANCH   6   7
ENDBRANCH   5   6
ENDBRANCH   4   5
ENDBRANCH   3   4
ENDBRANCH   2   3
ENDBRANCH   1   2
BRANCH   1  18
ATOM     18  C   UNL     1      -8.315  -3.418 -29.484  1.00  0.00     0.000 C 
BRANCH  18  19
ATOM     19  C   UNL     1      -9.545  -4.119 -30.090  1.00  0.00     0.000 C 
BRANCH  19  20
ATOM     20  C   UNL     1     -10.180  -5.217 -29.207  1.00  0.00     0.000 C 
BRANCH  20  21
ATOM     21  C   UNL     1     -11.670  -5.010 -28.861  1.00  0.00     0.000 C 
BRANCH  21  22
ATOM     22  C   UNL     1     -12.031  -3.550 -28.528  1.00  0.00     0.000 C 
BRANCH  22  23
ATOM     23  C   UNL     1     -13.550  -3.344 -28.353  1.00  0.00     0.000 C 
BRANCH  23  24
ATOM     24  C   UNL     1     -14.348  -4.653 -28.503  1.00  0.00    -0.000 C 
BRANCH  24  25
ATOM     25  C   UNL     1     -15.398  -4.620 -29.631  1.00  0.00    -0.000 C 
BRANCH  25  26
ATOM     26  C   UNL     1     -14.904  -4.066 -30.984  1.00  0.00    -0.000 C 
BRANCH  26  27
ATOM     27  C   UNL     1     -13.990  -5.031 -31.764  1.00  0.00    -0.000 C 
BRANCH  27  28
ATOM     28  C   UNL     1     -12.712  -4.347 -32.289  1.00  0.00    -0.000 C 
BRANCH  28  29
ATOM     29  C   UNL     1     -12.736  -2.825 -32.063  1.00  0.00    -0.000 C 
BRANCH  29  30
ATOM     30  C   UNL     1     -11.481  -2.133 -32.611  1.00  0.00    -0.000 C 
BRANCH  30  31
ATOM     31  C   UNL     1     -10.630  -3.112 -33.428  1.00  0.00    -0.003 C 
ATOM     32  C   UNL     1      -9.174  -2.658 -33.493  1.00  0.00     0.004 C 
ENDBRANCH  30  31
ENDBRANCH  29  30
ENDBRANCH  28  29
ENDBRANCH  27  28
ENDBRANCH  26  27
ENDBRANCH  25  26
ENDBRANCH  24  25
ENDBRANCH  23  24
ENDBRANCH  22  23
ENDBRANCH  21  22
ENDBRANCH  20  21
ENDBRANCH  19  20
ENDBRANCH  18  19
ENDBRANCH   1  18
TORSDOF 28
ENDMDL
MODEL 2
REMARK VINA RESULT:    -4.491      1.219      1.734
REMARK INTER + INTRA:         -16.722
REMARK INTER:                 -11.351
REMARK INTRA:                  -5.371
REMARK UNBOUND:                -4.879
REMARK SMILES CCCCCCCCCCCCCCCCCCCCCCCCCCCCCC(=O)[O-]
REMARK SMILES IDX 16 1 17 2 18 3 19 4 20 5 21 6 22 7 23 8 24 9 25 10 26 11
REMARK SMILES IDX 27 12 28 13 29 14 30 15 31 16 32 17 15 18 14 19 13 20 12 21
REMARK SMILES IDX 11 22 10 23 9 24 8 25 7 26 6 27 5 28 4 29 3 30 2 31 1 32
REMARK H PARENT
REMARK Flexibility Score: inf
ROOT
ATOM      1  C   UNL     1      -8.520  -2.592 -28.466  1.00  0.00     0.000 C 
ENDROOT
BRANCH   1   2
ATOM      2  C   UNL     1      -7.594  -3.502 -27.651  1.00  0.00     0.000 C 
BRANCH   2   3
ATOM      3  C   UNL     1      -8.263  -3.930 -26.336  1.00  0.00     0.000 C 
BRANCH   3   4
ATOM      4  C   UNL     1      -8.826  -2.735 -25.549  1.00  0.00     0.000 C 
BRANCH   4   5
ATOM      5  C   UNL     1     -10.343  -2.862 -25.313  1.00  0.00     0.000 C 
BRANCH   5   6
ATOM      6  C   UNL     1     -10.743  -4.233 -24.732  1.00  0.00     0.000 C 
BRANCH   6   7
ATOM      7  C   UNL     1     -12.209  -4.304 -24.264  1.00  0.00     0.000 C 
BRANCH   7   8
ATOM      8  C   UNL     1     -12.914  -2.941 -24.309  1.00  0.00     0.000 C 
BRANCH   8   9
ATOM      9  C   UNL     1     -13.182  -2.354 -22.913  1.00  0.00     0.000 C 
BRANCH   9  10
ATOM     10  C   UNL     1     -12.771  -3.283 -21.752  1.00  0.00     0.000 C 
BRANCH  10  11
ATOM     11  C   UNL     1     -11.399  -2.927 -21.157  1.00  0.00     0.000 C 
BRANCH  11  12
ATOM     12  C   UNL     1     -11.135  -1.418 -21.267  1.00  0.00     0.000 C 
BRANCH  12  13
ATOM     13  C   UNL     1      -9.921  -1.083 -22.148  1.00  0.00     0.006 C 
BRANCH  13  14
ATOM     14  C   UNL     1     -10.113   0.210 -22.953  1.00  0.00     0.053 C 
BRANCH  14  15
ATOM     15  C   UNL     1      -9.789   1.404 -22.112  1.00  0.00     0.041 C 
ATOM     16  O   UNL     1      -8.592   1.692 -21.853  1.00  0.00    -0.550 OA
ATOM     17  O   UNL     1     -10.811   2.182 -21.587  1.00  0.00    -0.550 OA
ENDBRANCH  14  15
ENDBRANCH  13  14
ENDBRANCH  12  13
ENDBRANCH  11  12
ENDBRANCH  10  11
ENDBRANCH   9  10
ENDBRANCH   8   9
ENDBRANCH   7   8
ENDBRANCH   6   7
ENDBRANCH   5   6
ENDBRANCH   4   5
ENDBRANCH   3   4
ENDBRANCH   2   3
ENDBRANCH   1   2
BRANCH   1  18
ATOM     18  C   UNL     1      -8.783  -3.177 -29.861  1.00  0.00     0.000 C 
BRANCH  18  19
ATOM     19  C   UNL     1      -8.235  -4.608 -30.024  1.00  0.00     0.000 C 
BRANCH  19  20
ATOM     20  C   UNL     1      -9.303  -5.724 -30.053  1.00  0.00     0.000 C 
BRANCH  20  21
ATOM     21  C   UNL     1     -10.754  -5.259 -29.803  1.00  0.00     0.000 C 
BRANCH  21  22
ATOM     22  C   UNL     1     -11.262  -5.555 -28.379  1.00  0.00     0.000 C 
BRANCH  22  23
ATOM     23  C   UNL     1     -12.397  -4.602 -27.949  1.00  0.00     0.000 C 
BRANCH  23  24
ATOM     24  C   UNL     1     -12.143  -3.145 -28.376  1.00  0.00    -0.000 C 
BRANCH  24  25
ATOM     25  C   UNL     1     -13.207  -2.580 -29.339  1.00  0.00    -0.000 C 
BRANCH  25  26
ATOM     26  C   UNL     1     -14.207  -3.610 -29.904  1.00  0.00    -0.000 C 
BRANCH  26  27
ATOM     27  C   UNL     1     -14.028  -3.902 -31.407  1.00  0.00    -0.000 C 
BRANCH  27  28
ATOM     28  C   UNL     1     -12.852  -3.122 -32.028  1.00  0.00    -0.000 C 
BRANCH  28  29
ATOM     29  C   UNL     1     -12.122  -3.939 -33.108  1.00  0.00    -0.000 C 
BRANCH  29  30
ATOM     30  C   UNL     1     -10.596  -3.808 -33.009  1.00  0.00    -0.000 C 
BRANCH  30  31
ATOM     31  C   UNL     1     -10.138  -2.412 -33.450  1.00  0.00    -0.003 C 
ATOM     32  C   UNL     1      -8.770  -2.467 -34.124  1.00  0.00     0.004 C 
ENDBRANCH  30  31
ENDBRANCH  29  30
ENDBRANCH  28  29
ENDBRANCH  27  28
ENDBRANCH  26  27
ENDBRANCH  25  26
ENDBRANCH  24  25
ENDBRANCH  23  24
ENDBRANCH  22  23
ENDBRANCH  21  22
ENDBRANCH  20  21
ENDBRANCH  19  20
ENDBRANCH  18  19
ENDBRANCH   1  18
TORSDOF 28
ENDMDL
MODEL 3
REMARK VINA RESULT:    -4.401      5.194      9.968
REMARK INTER + INTRA:         -16.485
REMARK INTER:                 -12.969
REMARK INTRA:                  -3.517
REMARK UNBOUND:                -4.879
REMARK SMILES CCCCCCCCCCCCCCCCCCCCCCCCCCCCCC(=O)[O-]
REMARK SMILES IDX 16 1 17 2 18 3 19 4 20 5 21 6 22 7 23 8 24 9 25 10 26 11
REMARK SMILES IDX 27 12 28 13 29 14 30 15 31 16 32 17 15 18 14 19 13 20 12 21
REMARK SMILES IDX 11 22 10 23 9 24 8 25 7 26 6 27 5 28 4 29 3 30 2 31 1 32
REMARK H PARENT
REMARK Flexibility Score: inf
ROOT
ATOM      1  C   UNL     1     -10.566  -1.225 -22.471  1.00  0.00     0.000 C 
ENDROOT
BRANCH   1   2
ATOM      2  C   UNL     1     -12.077  -1.327 -22.233  1.00  0.00     0.000 C 
BRANCH   2   3
ATOM      3  C   UNL     1     -12.470  -2.743 -21.787  1.00  0.00     0.000 C 
BRANCH   3   4
ATOM      4  C   UNL     1     -13.356  -3.458 -22.820  1.00  0.00     0.000 C 
BRANCH   4   5
ATOM      5  C   UNL     1     -12.580  -4.536 -23.599  1.00  0.00     0.000 C 
BRANCH   5   6
ATOM      6  C   UNL     1     -12.508  -4.243 -25.112  1.00  0.00     0.000 C 
BRANCH   6   7
ATOM      7  C   UNL     1     -11.536  -3.106 -25.477  1.00  0.00     0.000 C 
BRANCH   7   8
ATOM      8  C   UNL     1     -10.267  -3.610 -26.178  1.00  0.00     0.000 C 
BRANCH   8   9
ATOM      9  C   UNL     1      -9.232  -2.501 -26.425  1.00  0.00     0.000 C 
BRANCH   9  10
ATOM     10  C   UNL     1      -9.128  -2.056 -27.898  1.00  0.00     0.000 C 
BRANCH  10  11
ATOM     11  C   UNL     1      -9.109  -3.238 -28.881  1.00  0.00     0.000 C 
BRANCH  11  12
ATOM     12  C   UNL     1     -10.102  -3.004 -30.030  1.00  0.00     0.000 C 
BRANCH  12  13
ATOM     13  C   UNL     1     -11.550  -3.358 -29.655  1.00  0.00     0.006 C 
BRANCH  13  14
ATOM     14  C   UNL     1     -12.581  -2.505 -30.406  1.00  0.00     0.053 C 
BRANCH  14  15
ATOM     15  C   UNL     1     -12.433  -2.685 -31.884  1.00  0.00     0.041 C 
ATOM     16  O   UNL     1     -12.569  -3.824 -32.401  1.00  0.00    -0.550 OA
ATOM     17  O   UNL     1     -12.114  -1.600 -32.689  1.00  0.00    -0.550 OA
ENDBRANCH  14  15
ENDBRANCH  13  14
ENDBRANCH  12  13
ENDBRANCH  11  12
ENDBRANCH  10  11
ENDBRANCH   9  10
ENDBRANCH   8   9
ENDBRANCH   7   8
ENDBRANCH   6   7
ENDBRANCH   5   6
ENDBRANCH   4   5
ENDBRANCH   3   4
ENDBRANCH   2   3
ENDBRANCH   1   2
BRANCH   1  18
ATOM     18  C   UNL     1     -10.245  -0.192 -23.560  1.00  0.00     0.000 C 
BRANCH  18  19
ATOM     19  C   UNL     1      -9.463   1.022 -23.022  1.00  0.00     0.000 C 
BRANCH  19  20
ATOM     20  C   UNL     1      -9.200   1.016 -21.500  1.00  0.00     0.000 C 
BRANCH  20  21
ATOM     21  C   UNL     1     -10.011   2.045 -20.683  1.00  0.00     0.000 C 
BRANCH  21  22
ATOM     22  C   UNL     1     -11.100   1.411 -19.797  1.00  0.00     0.000 C 
BRANCH  22  23
ATOM     23  C   UNL     1     -12.524   1.770 -20.267  1.00  0.00     0.000 C 
BRANCH  23  24
ATOM     24  C   UNL     1     -12.572   2.194 -21.746  1.00  0.00    -0.000 C 
BRANCH  24  25
ATOM     25  C   UNL     1     -13.898   2.862 -22.164  1.00  0.00    -0.000 C 
BRANCH  25  26
ATOM     26  C   UNL     1     -14.675   3.564 -21.030  1.00  0.00    -0.000 C 
BRANCH  26  27
ATOM     27  C   UNL     1     -16.178   3.746 -21.317  1.00  0.00    -0.000 C 
BRANCH  27  28
ATOM     28  C   UNL     1     -16.651   5.199 -21.109  1.00  0.00    -0.000 C 
BRANCH  28  29
ATOM     29  C   UNL     1     -15.994   6.169 -22.106  1.00  0.00    -0.000 C 
BRANCH  29  30
ATOM     30  C   UNL     1     -16.737   6.221 -23.448  1.00  0.00    -0.000 C 
BRANCH  30  31
ATOM     31  C   UNL     1     -15.757   6.447 -24.606  1.00  0.00    -0.003 C 
ATOM     32  C   UNL     1     -14.838   5.243 -24.795  1.00  0.00     0.004 C 
ENDBRANCH  30  31
ENDBRANCH  29  30
ENDBRANCH  28  29
ENDBRANCH  27  28
ENDBRANCH  26  27
ENDBRANCH  25  26
ENDBRANCH  24  25
ENDBRANCH  23  24
ENDBRANCH  22  23
ENDBRANCH  21  22
ENDBRANCH  20  21
ENDBRANCH  19  20
ENDBRANCH  18  19
ENDBRANCH   1  18
TORSDOF 28
ENDMDL
MODEL 4
REMARK VINA RESULT:    -4.364      4.069      9.413
REMARK INTER + INTRA:         -16.386
REMARK INTER:                 -10.795
REMARK INTRA:                  -5.591
REMARK UNBOUND:                -4.879
REMARK SMILES CCCCCCCCCCCCCCCCCCCCCCCCCCCCCC(=O)[O-]
REMARK SMILES IDX 16 1 17 2 18 3 19 4 20 5 21 6 22 7 23 8 24 9 25 10 26 11
REMARK SMILES IDX 27 12 28 13 29 14 30 15 31 16 32 17 15 18 14 19 13 20 12 21
REMARK SMILES IDX 11 22 10 23 9 24 8 25 7 26 6 27 5 28 4 29 3 30 2 31 1 32
REMARK H PARENT
REMARK Flexibility Score: inf
ROOT
ATOM      1  C   UNL     1     -10.249  -1.073 -24.473  1.00  0.00     0.000 C 
ENDROOT
BRANCH   1   2
ATOM      2  C   UNL     1      -9.794  -2.091 -25.524  1.00  0.00     0.000 C 
BRANCH   2   3
ATOM      3  C   UNL     1      -9.469  -3.444 -24.874  1.00  0.00     0.000 C 
BRANCH   3   4
ATOM      4  C   UNL     1      -9.953  -4.633 -25.721  1.00  0.00     0.000 C 
BRANCH   4   5
ATOM      5  C   UNL     1     -11.288  -5.203 -25.207  1.00  0.00     0.000 C 
BRANCH   5   6
ATOM      6  C   UNL     1     -12.423  -5.096 -26.246  1.00  0.00     0.000 C 
BRANCH   6   7
ATOM      7  C   UNL     1     -12.864  -3.649 -26.535  1.00  0.00     0.000 C 
BRANCH   7   8
ATOM      8  C   UNL     1     -13.023  -3.363 -28.034  1.00  0.00     0.000 C 
BRANCH   8   9
ATOM      9  C   UNL     1     -11.814  -3.819 -28.868  1.00  0.00     0.000 C 
BRANCH   9  10
ATOM     10  C   UNL     1     -10.766  -2.714 -29.111  1.00  0.00     0.000 C 
BRANCH  10  11
ATOM     11  C   UNL     1      -9.321  -3.232 -29.036  1.00  0.00     0.000 C 
BRANCH  11  12
ATOM     12  C   UNL     1      -8.676  -3.247 -30.430  1.00  0.00     0.000 C 
BRANCH  12  13
ATOM     13  C   UNL     1      -9.677  -3.565 -31.552  1.00  0.00     0.006 C 
BRANCH  13  14
ATOM     14  C   UNL     1      -9.511  -2.646 -32.771  1.00  0.00     0.053 C 
BRANCH  14  15
ATOM     15  C   UNL     1     -10.845  -2.179 -33.261  1.00  0.00     0.041 C 
ATOM     16  O   UNL     1     -10.995  -1.842 -34.464  1.00  0.00    -0.550 OA
ATOM     17  O   UNL     1     -11.916  -2.088 -32.383  1.00  0.00    -0.550 OA
ENDBRANCH  14  15
ENDBRANCH  13  14
ENDBRANCH  12  13
ENDBRANCH  11  12
ENDBRANCH  10  11
ENDBRANCH   9  10
ENDBRANCH   8   9
ENDBRANCH   7   8
ENDBRANCH   6   7
ENDBRANCH   5   6
ENDBRANCH   4   5
ENDBRANCH   3   4
ENDBRANCH   2   3
ENDBRANCH   1   2
BRANCH   1  18
ATOM     18  C   UNL     1     -10.497  -1.750 -23.117  1.00  0.00     0.000 C 
BRANCH  18  19
ATOM     19  C   UNL     1     -11.942  -1.573 -22.614  1.00  0.00     0.000 C 
BRANCH  19  20
ATOM     20  C   UNL     1     -12.968  -2.574 -23.189  1.00  0.00     0.000 C 
BRANCH  20  21
ATOM     21  C   UNL     1     -13.179  -3.858 -22.358  1.00  0.00     0.000 C 
BRANCH  21  22
ATOM     22  C   UNL     1     -12.757  -3.717 -20.884  1.00  0.00     0.000 C 
BRANCH  22  23
ATOM     23  C   UNL     1     -11.742  -4.798 -20.456  1.00  0.00     0.000 C 
BRANCH  23  24
ATOM     24  C   UNL     1     -10.726  -5.130 -21.564  1.00  0.00    -0.000 C 
BRANCH  24  25
ATOM     25  C   UNL     1      -9.314  -4.564 -21.308  1.00  0.00    -0.000 C 
BRANCH  25  26
ATOM     26  C   UNL     1      -9.126  -3.827 -19.965  1.00  0.00    -0.000 C 
BRANCH  26  27
ATOM     27  C   UNL     1      -8.972  -2.299 -20.103  1.00  0.00    -0.000 C 
BRANCH  27  28
ATOM     28  C   UNL     1     -10.089  -1.522 -19.379  1.00  0.00    -0.000 C 
BRANCH  28  29
ATOM     29  C   UNL     1     -10.065  -0.022 -19.721  1.00  0.00    -0.000 C 
BRANCH  29  30
ATOM     30  C   UNL     1      -8.739   0.411 -20.360  1.00  0.00    -0.000 C 
BRANCH  30  31
ATOM     31  C   UNL     1      -8.987   1.334 -21.560  1.00  0.00    -0.003 C 
ATOM     32  C   UNL     1     -10.378   1.961 -21.495  1.00  0.00     0.004 C 
ENDBRANCH  30  31
ENDBRANCH  29  30
ENDBRANCH  28  29
ENDBRANCH  27  28
ENDBRANCH  26  27
ENDBRANCH  25  26
ENDBRANCH  24  25
ENDBRANCH  23  24
ENDBRANCH  22  23
ENDBRANCH  21  22
ENDBRANCH  20  21
ENDBRANCH  19  20
ENDBRANCH  18  19
ENDBRANCH   1  18
TORSDOF 28
ENDMDL
MODEL 5
REMARK VINA RESULT:    -4.350      3.793      9.263
REMARK INTER + INTRA:         -16.351
REMARK INTER:                 -11.560
REMARK INTRA:                  -4.791
REMARK UNBOUND:                -4.879
REMARK SMILES CCCCCCCCCCCCCCCCCCCCCCCCCCCCCC(=O)[O-]
REMARK SMILES IDX 16 1 17 2 18 3 19 4 20 5 21 6 22 7 23 8 24 9 25 10 26 11
REMARK SMILES IDX 27 12 28 13 29 14 30 15 31 16 32 17 15 18 14 19 13 20 12 21
REMARK SMILES IDX 11 22 10 23 9 24 8 25 7 26 6 27 5 28 4 29 3 30 2 31 1 32
REMARK H PARENT
REMARK Flexibility Score: inf
ROOT
ATOM      1  C   UNL     1      -9.500  -2.120 -26.573  1.00  0.00     0.000 C 
ENDROOT
BRANCH   1   2
ATOM      2  C   UNL     1      -8.809  -2.386 -27.916  1.00  0.00     0.000 C 
BRANCH   2   3
ATOM      3  C   UNL     1      -9.785  -3.018 -28.920  1.00  0.00     0.000 C 
BRANCH   3   4
ATOM      4  C   UNL     1      -9.589  -4.538 -29.049  1.00  0.00     0.000 C 
BRANCH   4   5
ATOM      5  C   UNL     1     -10.915  -5.306 -28.894  1.00  0.00     0.000 C 
BRANCH   5   6
ATOM      6  C   UNL     1     -11.490  -5.220 -27.465  1.00  0.00     0.000 C 
BRANCH   6   7
ATOM      7  C   UNL     1     -12.986  -4.855 -27.420  1.00  0.00     0.000 C 
BRANCH   7   8
ATOM      8  C   UNL     1     -13.231  -3.341 -27.470  1.00  0.00     0.000 C 
BRANCH   8   9
ATOM      9  C   UNL     1     -13.485  -2.816 -28.892  1.00  0.00     0.000 C 
BRANCH   9  10
ATOM     10  C   UNL     1     -14.313  -3.772 -29.775  1.00  0.00     0.000 C 
BRANCH  10  11
ATOM     11  C   UNL     1     -13.994  -3.632 -31.272  1.00  0.00     0.000 C 
BRANCH  11  12
ATOM     12  C   UNL     1     -12.866  -2.612 -31.493  1.00  0.00     0.000 C 
BRANCH  12  13
ATOM     13  C   UNL     1     -11.627  -3.222 -32.166  1.00  0.00     0.006 C 
BRANCH  13  14
ATOM     14  C   UNL     1     -10.882  -2.218 -33.056  1.00  0.00     0.053 C 
BRANCH  14  15
ATOM     15  C   UNL     1      -9.436  -2.587 -33.168  1.00  0.00     0.041 C 
ATOM     16  O   UNL     1      -8.816  -3.032 -32.167  1.00  0.00    -0.550 OA
ATOM     17  O   UNL     1      -8.765  -2.413 -34.369  1.00  0.00    -0.550 OA
ENDBRANCH  14  15
ENDBRANCH  13  14
ENDBRANCH  12  13
ENDBRANCH  11  12
ENDBRANCH  10  11
ENDBRANCH   9  10
ENDBRANCH   8   9
ENDBRANCH   7   8
ENDBRANCH   6   7
ENDBRANCH   5   6
ENDBRANCH   4   5
ENDBRANCH   3   4
ENDBRANCH   2   3
ENDBRANCH   1   2
BRANCH   1  18
ATOM     18  C   UNL     1      -9.199  -3.239 -25.565  1.00  0.00     0.000 C 
BRANCH  18  19
ATOM     19  C   UNL     1     -10.253  -3.338 -24.446  1.00  0.00     0.000 C 
BRANCH  19  20
ATOM     20  C   UNL     1     -11.355  -2.255 -24.481  1.00  0.00     0.000 C 
BRANCH  20  21
ATOM     21  C   UNL     1     -12.751  -2.715 -24.007  1.00  0.00     0.000 C 
BRANCH  21  22
ATOM     22  C   UNL     1     -12.735  -4.051 -23.242  1.00  0.00     0.000 C 
BRANCH  22  23
ATOM     23  C   UNL     1     -13.756  -4.079 -22.085  1.00  0.00     0.000 C 
BRANCH  23  24
ATOM     24  C   UNL     1     -13.126  -4.510 -20.748  1.00  0.00    -0.000 C 
BRANCH  24  25
ATOM     25  C   UNL     1     -11.586  -4.439 -20.729  1.00  0.00    -0.000 C 
BRANCH  25  26
ATOM     26  C   UNL     1     -10.983  -3.282 -19.904  1.00  0.00    -0.000 C 
BRANCH  26  27
ATOM     27  C   UNL     1     -10.117  -2.307 -20.726  1.00  0.00    -0.000 C 
BRANCH  27  28
ATOM     28  C   UNL     1     -10.893  -1.049 -21.164  1.00  0.00    -0.000 C 
BRANCH  28  29
ATOM     29  C   UNL     1     -10.004   0.207 -21.165  1.00  0.00    -0.000 C 
BRANCH  29  30
ATOM     30  C   UNL     1      -9.831   0.802 -19.761  1.00  0.00    -0.000 C 
BRANCH  30  31
ATOM     31  C   UNL     1      -8.885   2.009 -19.792  1.00  0.00    -0.003 C 
ATOM     32  C   UNL     1      -7.445   1.575 -20.056  1.00  0.00     0.004 C 
ENDBRANCH  30  31
ENDBRANCH  29  30
ENDBRANCH  28  29
ENDBRANCH  27  28
ENDBRANCH  26  27
ENDBRANCH  25  26
ENDBRANCH  24  25
ENDBRANCH  23  24
ENDBRANCH  22  23
ENDBRANCH  21  22
ENDBRANCH  20  21
ENDBRANCH  19  20
ENDBRANCH  18  19
ENDBRANCH   1  18
TORSDOF 28
ENDMDL
MODEL 6
REMARK VINA RESULT:    -4.327      1.580      3.193
REMARK INTER + INTRA:         -16.290
REMARK INTER:                 -11.098
REMARK INTRA:                  -5.192
REMARK UNBOUND:                -4.879
REMARK SMILES CCCCCCCCCCCCCCCCCCCCCCCCCCCCCC(=O)[O-]
REMARK SMILES IDX 16 1 17 2 18 3 19 4 20 5 21 6 22 7 23 8 24 9 25 10 26 11
REMARK SMILES IDX 27 12 28 13 29 14 30 15 31 16 32 17 15 18 14 19 13 20 12 21
REMARK SMILES IDX 11 22 10 23 9 24 8 25 7 26 6 27 5 28 4 29 3 30 2 31 1 32
REMARK H PARENT
REMARK Flexibility Score: inf
ROOT
ATOM      1  C   UNL     1      -9.856  -3.134 -28.248  1.00  0.00     0.000 C 
ENDROOT
BRANCH   1   2
ATOM      2  C   UNL     1      -8.383  -2.729 -28.370  1.00  0.00     0.000 C 
BRANCH   2   3
ATOM      3  C   UNL     1      -7.541  -3.881 -28.937  1.00  0.00     0.000 C 
BRANCH   3   4
ATOM      4  C   UNL     1      -6.169  -3.997 -28.252  1.00  0.00     0.000 C 
BRANCH   4   5
ATOM      5  C   UNL     1      -6.292  -4.046 -26.718  1.00  0.00     0.000 C 
BRANCH   5   6
ATOM      6  C   UNL     1      -6.932  -5.355 -26.212  1.00  0.00     0.000 C 
BRANCH   6   7
ATOM      7  C   UNL     1      -8.092  -5.137 -25.224  1.00  0.00     0.000 C 
BRANCH   7   8
ATOM      8  C   UNL     1      -8.246  -3.669 -24.802  1.00  0.00     0.000 C 
BRANCH   8   9
ATOM      9  C   UNL     1      -9.675  -3.316 -24.357  1.00  0.00     0.000 C 
BRANCH   9  10
ATOM     10  C   UNL     1     -10.131  -1.903 -24.775  1.00  0.00     0.000 C 
BRANCH  10  11
ATOM     11  C   UNL     1     -10.250  -0.936 -23.586  1.00  0.00     0.000 C 
BRANCH  11  12
ATOM     12  C   UNL     1      -9.883  -1.644 -22.272  1.00  0.00     0.000 C 
BRANCH  12  13
ATOM     13  C   UNL     1     -10.345  -0.873 -21.025  1.00  0.00     0.006 C 
BRANCH  13  14
ATOM     14  C   UNL     1      -9.172  -0.377 -20.169  1.00  0.00     0.053 C 
BRANCH  14  15
ATOM     15  C   UNL     1      -9.099   1.117 -20.193  1.00  0.00     0.041 C 
ATOM     16  O   UNL     1     -10.046   1.805 -19.730  1.00  0.00    -0.550 OA
ATOM     17  O   UNL     1      -8.000   1.751 -20.754  1.00  0.00    -0.550 OA
ENDBRANCH  14  15
ENDBRANCH  13  14
ENDBRANCH  12  13
ENDBRANCH  11  12
ENDBRANCH  10  11
ENDBRANCH   9  10
ENDBRANCH   8   9
ENDBRANCH   7   8
ENDBRANCH   6   7
ENDBRANCH   5   6
ENDBRANCH   4   5
ENDBRANCH   3   4
ENDBRANCH   2   3
ENDBRANCH   1   2
BRANCH   1  18
ATOM     18  C   UNL     1     -10.010  -4.662 -28.229  1.00  0.00     0.000 C 
BRANCH  18  19
ATOM     19  C   UNL     1     -11.388  -5.119 -27.714  1.00  0.00     0.000 C 
BRANCH  19  20
ATOM     20  C   UNL     1     -12.205  -4.041 -26.967  1.00  0.00     0.000 C 
BRANCH  20  21
ATOM     21  C   UNL     1     -13.439  -3.504 -27.723  1.00  0.00     0.000 C 
BRANCH  21  22
ATOM     22  C   UNL     1     -14.011  -4.492 -28.756  1.00  0.00     0.000 C 
BRANCH  22  23
ATOM     23  C   UNL     1     -13.999  -3.919 -30.188  1.00  0.00     0.000 C 
BRANCH  23  24
ATOM     24  C   UNL     1     -13.171  -2.626 -30.304  1.00  0.00    -0.000 C 
BRANCH  24  25
ATOM     25  C   UNL     1     -11.968  -2.737 -31.262  1.00  0.00    -0.000 C 
BRANCH  25  26
ATOM     26  C   UNL     1     -11.414  -4.162 -31.474  1.00  0.00    -0.000 C 
BRANCH  26  27
ATOM     27  C   UNL     1     -10.049  -4.207 -32.187  1.00  0.00    -0.000 C 
BRANCH  27  28
ATOM     28  C   UNL     1      -9.478  -2.803 -32.468  1.00  0.00    -0.000 C 
BRANCH  28  29
ATOM     29  C   UNL     1      -8.749  -2.735 -33.821  1.00  0.00    -0.000 C 
BRANCH  29  30
ATOM     30  C   UNL     1      -9.712  -2.501 -34.993  1.00  0.00    -0.000 C 
BRANCH  30  31
ATOM     31  C   UNL     1     -10.786  -1.472 -34.620  1.00  0.00    -0.003 C 
ATOM     32  C   UNL     1     -12.187  -2.009 -34.902  1.00  0.00     0.004 C 
ENDBRANCH  30  31
ENDBRANCH  29  30
ENDBRANCH  28  29
ENDBRANCH  27  28
ENDBRANCH  26  27
ENDBRANCH  25  26
ENDBRANCH  24  25
ENDBRANCH  23  24
ENDBRANCH  22  23
ENDBRANCH  21  22
ENDBRANCH  20  21
ENDBRANCH  19  20
ENDBRANCH  18  19
ENDBRANCH   1  18
TORSDOF 28
ENDMDL
MODEL 7
REMARK VINA RESULT:    -4.308      1.225      2.101
REMARK INTER + INTRA:         -16.238
REMARK INTER:                 -11.823
REMARK INTRA:                  -4.415
REMARK UNBOUND:                -4.879
REMARK SMILES CCCCCCCCCCCCCCCCCCCCCCCCCCCCCC(=O)[O-]
REMARK SMILES IDX 16 1 17 2 18 3 19 4 20 5 21 6 22 7 23 8 24 9 25 10 26 11
REMARK SMILES IDX 27 12 28 13 29 14 30 15 31 16 32 17 15 18 14 19 13 20 12 21
REMARK SMILES IDX 11 22 10 23 9 24 8 25 7 26 6 27 5 28 4 29 3 30 2 31 1 32
REMARK H PARENT
REMARK Flexibility Score: inf
ROOT
ATOM      1  C   UNL     1      -9.524  -3.127 -29.401  1.00  0.00     0.000 C 
ENDROOT
BRANCH   1   2
ATOM      2  C   UNL     1      -8.953  -2.440 -28.155  1.00  0.00     0.000 C 
BRANCH   2   3
ATOM      3  C   UNL     1      -8.843  -3.428 -26.984  1.00  0.00     0.000 C 
BRANCH   3   4
ATOM      4  C   UNL     1      -9.102  -2.758 -25.625  1.00  0.00     0.000 C 
BRANCH   4   5
ATOM      5  C   UNL     1     -10.591  -2.419 -25.422  1.00  0.00     0.000 C 
BRANCH   5   6
ATOM      6  C   UNL     1     -11.413  -3.623 -24.917  1.00  0.00     0.000 C 
BRANCH   6   7
ATOM      7  C   UNL     1     -12.821  -3.247 -24.421  1.00  0.00     0.000 C 
BRANCH   7   8
ATOM      8  C   UNL     1     -13.130  -3.806 -23.026  1.00  0.00     0.000 C 
BRANCH   8   9
ATOM      9  C   UNL     1     -12.845  -2.802 -21.896  1.00  0.00     0.000 C 
BRANCH   9  10
ATOM     10  C   UNL     1     -12.514  -1.379 -22.390  1.00  0.00     0.000 C 
BRANCH  10  11
ATOM     11  C   UNL     1     -11.156  -0.869 -21.880  1.00  0.00     0.000 C 
BRANCH  11  12
ATOM     12  C   UNL     1     -10.657  -1.732 -20.711  1.00  0.00     0.000 C 
BRANCH  12  13
ATOM     13  C   UNL     1      -9.785  -0.950 -19.717  1.00  0.00     0.006 C 
BRANCH  13  14
ATOM     14  C   UNL     1      -8.524  -0.367 -20.370  1.00  0.00     0.053 C 
BRANCH  14  15
ATOM     15  C   UNL     1      -8.448   1.110 -20.137  1.00  0.00     0.041 C 
ATOM     16  O   UNL     1      -7.332   1.672 -19.992  1.00  0.00    -0.550 OA
ATOM     17  O   UNL     1      -9.612   1.861 -20.051  1.00  0.00    -0.550 OA
ENDBRANCH  14  15
ENDBRANCH  13  14
ENDBRANCH  12  13
ENDBRANCH  11  12
ENDBRANCH  10  11
ENDBRANCH   9  10
ENDBRANCH   8   9
ENDBRANCH   7   8
ENDBRANCH   6   7
ENDBRANCH   5   6
ENDBRANCH   4   5
ENDBRANCH   3   4
ENDBRANCH   2   3
ENDBRANCH   1   2
BRANCH   1  18
ATOM     18  C   UNL     1     -10.882  -3.777 -29.101  1.00  0.00     0.000 C 
BRANCH  18  19
ATOM     19  C   UNL     1     -12.034  -2.756 -29.035  1.00  0.00     0.000 C 
BRANCH  19  20
ATOM     20  C   UNL     1     -13.224  -3.162 -28.137  1.00  0.00     0.000 C 
BRANCH  20  21
ATOM     21  C   UNL     1     -13.344  -4.672 -27.839  1.00  0.00     0.000 C 
BRANCH  21  22
ATOM     22  C   UNL     1     -14.322  -5.411 -28.772  1.00  0.00     0.000 C 
BRANCH  22  23
ATOM     23  C   UNL     1     -15.462  -4.499 -29.271  1.00  0.00     0.000 C 
BRANCH  23  24
ATOM     24  C   UNL     1     -15.500  -4.381 -30.805  1.00  0.00    -0.000 C 
BRANCH  24  25
ATOM     25  C   UNL     1     -14.225  -4.893 -31.505  1.00  0.00    -0.000 C 
BRANCH  25  26
ATOM     26  C   UNL     1     -13.448  -3.841 -32.326  1.00  0.00    -0.000 C 
BRANCH  26  27
ATOM     27  C   UNL     1     -11.990  -4.234 -32.633  1.00  0.00    -0.000 C 
BRANCH  27  28
ATOM     28  C   UNL     1     -11.062  -3.011 -32.775  1.00  0.00    -0.000 C 
BRANCH  28  29
ATOM     29  C   UNL     1     -11.840  -1.685 -32.719  1.00  0.00    -0.000 C 
BRANCH  29  30
ATOM     30  C   UNL     1     -11.927  -0.999 -34.089  1.00  0.00    -0.000 C 
BRANCH  30  31
ATOM     31  C   UNL     1     -10.673  -1.288 -34.924  1.00  0.00    -0.003 C 
ATOM     32  C   UNL     1     -11.041  -1.767 -36.326  1.00  0.00     0.004 C 
ENDBRANCH  30  31
ENDBRANCH  29  30
ENDBRANCH  28  29
ENDBRANCH  27  28
ENDBRANCH  26  27
ENDBRANCH  25  26
ENDBRANCH  24  25
ENDBRANCH  23  24
ENDBRANCH  22  23
ENDBRANCH  21  22
ENDBRANCH  20  21
ENDBRANCH  19  20
ENDBRANCH  18  19
ENDBRANCH   1  18
TORSDOF 28
ENDMDL
MODEL 8
REMARK VINA RESULT:    -4.296      3.424      6.164
REMARK INTER + INTRA:         -16.206
REMARK INTER:                 -11.992
REMARK INTRA:                  -4.214
REMARK UNBOUND:                -4.879
REMARK SMILES CCCCCCCCCCCCCCCCCCCCCCCCCCCCCC(=O)[O-]
REMARK SMILES IDX 16 1 17 2 18 3 19 4 20 5 21 6 22 7 23 8 24 9 25 10 26 11
REMARK SMILES IDX 27 12 28 13 29 14 30 15 31 16 32 17 15 18 14 19 13 20 12 21
REMARK SMILES IDX 11 22 10 23 9 24 8 25 7 26 6 27 5 28 4 29 3 30 2 31 1 32
REMARK H PARENT
REMARK Flexibility Score: inf
ROOT
ATOM      1  C   UNL     1     -11.967  -1.856 -22.290  1.00  0.00     0.000 C 
ENDROOT
BRANCH   1   2
ATOM      2  C   UNL     1     -10.874  -1.578 -23.329  1.00  0.00     0.000 C 
BRANCH   2   3
ATOM      3  C   UNL     1      -9.572  -2.307 -22.966  1.00  0.00     0.000 C 
BRANCH   3   4
ATOM      4  C   UNL     1      -9.539  -2.750 -21.494  1.00  0.00     0.000 C 
BRANCH   4   5
ATOM      5  C   UNL     1      -8.520  -1.942 -20.670  1.00  0.00     0.000 C 
BRANCH   5   6
ATOM      6  C   UNL     1      -9.152  -0.717 -19.976  1.00  0.00     0.000 C 
BRANCH   6   7
ATOM      7  C   UNL     1      -8.649   0.632 -20.522  1.00  0.00     0.000 C 
BRANCH   7   8
ATOM      8  C   UNL     1      -9.649   1.774 -20.300  1.00  0.00     0.000 C 
BRANCH   8   9
ATOM      9  C   UNL     1     -10.635   1.951 -21.467  1.00  0.00     0.000 C 
BRANCH   9  10
ATOM     10  C   UNL     1     -12.110   1.715 -21.083  1.00  0.00     0.000 C 
BRANCH  10  11
ATOM     11  C   UNL     1     -13.096   2.290 -22.113  1.00  0.00     0.000 C 
BRANCH  11  12
ATOM     12  C   UNL     1     -14.241   3.036 -21.411  1.00  0.00     0.000 C 
BRANCH  12  13
ATOM     13  C   UNL     1     -14.394   4.488 -21.889  1.00  0.00     0.006 C 
BRANCH  13  14
ATOM     14  C   UNL     1     -15.756   4.754 -22.546  1.00  0.00     0.053 C 
BRANCH  14  15
ATOM     15  C   UNL     1     -15.589   5.578 -23.783  1.00  0.00     0.041 C 
ATOM     16  O   UNL     1     -16.184   6.681 -23.895  1.00  0.00    -0.550 OA
ATOM     17  O   UNL     1     -14.800   5.115 -24.826  1.00  0.00    -0.550 OA
ENDBRANCH  14  15
ENDBRANCH  13  14
ENDBRANCH  12  13
ENDBRANCH  11  12
ENDBRANCH  10  11
ENDBRANCH   9  10
ENDBRANCH   8   9
ENDBRANCH   7   8
ENDBRANCH   6   7
ENDBRANCH   5   6
ENDBRANCH   4   5
ENDBRANCH   3   4
ENDBRANCH   2   3
ENDBRANCH   1   2
BRANCH   1  18
ATOM     18  C   UNL     1     -13.229  -2.425 -22.953  1.00  0.00     0.000 C 
BRANCH  18  19
ATOM     19  C   UNL     1     -13.626  -3.807 -22.400  1.00  0.00     0.000 C 
BRANCH  19  20
ATOM     20  C   UNL     1     -12.466  -4.817 -22.255  1.00  0.00     0.000 C 
BRANCH  20  21
ATOM     21  C   UNL     1     -12.240  -5.745 -23.468  1.00  0.00     0.000 C 
BRANCH  21  22
ATOM     22  C   UNL     1     -11.364  -5.120 -24.570  1.00  0.00     0.000 C 
BRANCH  22  23
ATOM     23  C   UNL     1     -12.124  -4.954 -25.902  1.00  0.00     0.000 C 
BRANCH  23  24
ATOM     24  C   UNL     1     -12.500  -3.489 -26.192  1.00  0.00    -0.000 C 
BRANCH  24  25
ATOM     25  C   UNL     1     -13.134  -3.269 -27.581  1.00  0.00    -0.000 C 
BRANCH  25  26
ATOM     26  C   UNL     1     -12.292  -3.750 -28.781  1.00  0.00    -0.000 C 
BRANCH  26  27
ATOM     27  C   UNL     1     -11.249  -2.725 -29.269  1.00  0.00    -0.000 C 
BRANCH  27  28
ATOM     28  C   UNL     1      -9.804  -3.252 -29.164  1.00  0.00    -0.000 C 
BRANCH  28  29
ATOM     29  C   UNL     1      -8.931  -2.371 -28.253  1.00  0.00    -0.000 C 
BRANCH  29  30
ATOM     30  C   UNL     1      -9.216  -2.608 -26.764  1.00  0.00    -0.000 C 
BRANCH  30  31
ATOM     31  C   UNL     1      -8.155  -3.524 -26.144  1.00  0.00    -0.003 C 
ATOM     32  C   UNL     1      -6.954  -3.685 -27.073  1.00  0.00     0.004 C 
ENDBRANCH  30  31
ENDBRANCH  29  30
ENDBRANCH  28  29
ENDBRANCH  27  28
ENDBRANCH  26  27
ENDBRANCH  25  26
ENDBRANCH  24  25
ENDBRANCH  23  24
ENDBRANCH  22  23
ENDBRANCH  21  22
ENDBRANCH  20  21
ENDBRANCH  19  20
ENDBRANCH  18  19
ENDBRANCH   1  18
TORSDOF 28
ENDMDL
MODEL 9
REMARK VINA RESULT:    -4.275      4.513      9.786
REMARK INTER + INTRA:         -16.152
REMARK INTER:                 -11.245
REMARK INTRA:                  -4.907
REMARK UNBOUND:                -4.879
REMARK SMILES CCCCCCCCCCCCCCCCCCCCCCCCCCCCCC(=O)[O-]
REMARK SMILES IDX 16 1 17 2 18 3 19 4 20 5 21 6 22 7 23 8 24 9 25 10 26 11
REMARK SMILES IDX 27 12 28 13 29 14 30 15 31 16 32 17 15 18 14 19 13 20 12 21
REMARK SMILES IDX 11 22 10 23 9 24 8 25 7 26 6 27 5 28 4 29 3 30 2 31 1 32
REMARK H PARENT
REMARK Flexibility Score: inf
ROOT
ATOM      1  C   UNL     1      -9.980  -2.672 -28.567  1.00  0.00     0.000 C 
ENDROOT
BRANCH   1   2
ATOM      2  C   UNL     1     -10.346  -4.160 -28.532  1.00  0.00     0.000 C 
BRANCH   2   3
ATOM      3  C   UNL     1     -11.770  -4.364 -27.994  1.00  0.00     0.000 C 
BRANCH   3   4
ATOM      4  C   UNL     1     -12.633  -3.098 -28.128  1.00  0.00     0.000 C 
BRANCH   4   5
ATOM      5  C   UNL     1     -13.542  -3.148 -29.370  1.00  0.00     0.000 C 
BRANCH   5   6
ATOM      6  C   UNL     1     -12.895  -2.494 -30.609  1.00  0.00     0.000 C 
BRANCH   6   7
ATOM      7  C   UNL     1     -13.129  -3.275 -31.915  1.00  0.00     0.000 C 
BRANCH   7   8
ATOM      8  C   UNL     1     -13.155  -4.795 -31.703  1.00  0.00     0.000 C 
BRANCH   8   9
ATOM      9  C   UNL     1     -11.752  -5.420 -31.634  1.00  0.00     0.000 C 
BRANCH   9  10
ATOM     10  C   UNL     1     -10.782  -4.907 -32.718  1.00  0.00     0.000 C 
BRANCH  10  11
ATOM     11  C   UNL     1      -9.514  -4.266 -32.131  1.00  0.00     0.000 C 
BRANCH  11  12
ATOM     12  C   UNL     1      -9.447  -2.772 -32.486  1.00  0.00     0.000 C 
BRANCH  12  13
ATOM     13  C   UNL     1      -9.338  -2.518 -33.998  1.00  0.00     0.006 C 
BRANCH  13  14
ATOM     14  C   UNL     1     -10.319  -1.444 -34.489  1.00  0.00     0.053 C 
BRANCH  14  15
ATOM     15  C   UNL     1     -11.198  -1.992 -35.569  1.00  0.00     0.041 C 
ATOM     16  O   UNL     1     -11.993  -2.935 -35.322  1.00  0.00    -0.550 OA
ATOM     17  O   UNL     1     -11.118  -1.481 -36.857  1.00  0.00    -0.550 OA
ENDBRANCH  14  15
ENDBRANCH  13  14
ENDBRANCH  12  13
ENDBRANCH  11  12
ENDBRANCH  10  11
ENDBRANCH   9  10
ENDBRANCH   8   9
ENDBRANCH   7   8
ENDBRANCH   6   7
ENDBRANCH   5   6
ENDBRANCH   4   5
ENDBRANCH   3   4
ENDBRANCH   2   3
ENDBRANCH   1   2
BRANCH   1  18
ATOM     18  C   UNL     1      -8.458  -2.477 -28.628  1.00  0.00     0.000 C 
BRANCH  18  19
ATOM     19  C   UNL     1      -7.698  -3.784 -28.926  1.00  0.00     0.000 C 
BRANCH  19  20
ATOM     20  C   UNL     1      -6.667  -4.206 -27.855  1.00  0.00     0.000 C 
BRANCH  20  21
ATOM     21  C   UNL     1      -7.088  -3.950 -26.392  1.00  0.00     0.000 C 
BRANCH  21  22
ATOM     22  C   UNL     1      -8.017  -5.035 -25.817  1.00  0.00     0.000 C 
BRANCH  22  23
ATOM     23  C   UNL     1      -9.135  -4.445 -24.932  1.00  0.00     0.000 C 
BRANCH  23  24
ATOM     24  C   UNL     1      -9.189  -2.908 -24.990  1.00  0.00    -0.000 C 
BRANCH  24  25
ATOM     25  C   UNL     1     -10.607  -2.325 -24.824  1.00  0.00    -0.000 C 
BRANCH  25  26
ATOM     26  C   UNL     1     -10.928  -1.743 -23.430  1.00  0.00    -0.000 C 
BRANCH  26  27
ATOM     27  C   UNL     1      -9.804  -1.937 -22.394  1.00  0.00    -0.000 C 
BRANCH  27  28
ATOM     28  C   UNL     1      -9.848  -0.886 -21.266  1.00  0.00    -0.000 C 
BRANCH  28  29
ATOM     29  C   UNL     1     -10.306   0.491 -21.776  1.00  0.00    -0.000 C 
BRANCH  29  30
ATOM     30  C   UNL     1      -9.131   1.453 -21.999  1.00  0.00    -0.000 C 
BRANCH  30  31
ATOM     31  C   UNL     1      -8.327   1.640 -20.706  1.00  0.00    -0.003 C 
ATOM     32  C   UNL     1      -9.136   2.402 -19.658  1.00  0.00     0.004 C 
ENDBRANCH  30  31
ENDBRANCH  29  30
ENDBRANCH  28  29
ENDBRANCH  27  28
ENDBRANCH  26  27
ENDBRANCH  25  26
ENDBRANCH  24  25
ENDBRANCH  23  24
ENDBRANCH  22  23
ENDBRANCH  21  22
ENDBRANCH  20  21
ENDBRANCH  19  20
ENDBRANCH  18  19
ENDBRANCH   1  18
TORSDOF 28
ENDMDL
