MODEL 1
REMARK VINA RESULT:    -5.370      0.000      0.000
REMARK INTER + INTRA:         -17.345
REMARK INTER:                 -14.161
REMARK INTRA:                  -3.184
REMARK UNBOUND:                -3.184
REMARK SMILES CCCCCCCCCCCCCCCCCCCCCCCCCCCCCC(=O)[O-]
REMARK SMILES IDX 16 1 17 2 18 3 19 4 20 5 21 6 22 7 23 8 24 9 25 10 26 11
REMARK SMILES IDX 27 12 28 13 29 14 30 15 31 16 32 17 15 18 14 19 13 20 12 21
REMARK SMILES IDX 11 22 10 23 9 24 8 25 7 26 6 27 5 28 4 29 3 30 2 31 1 32
REMARK H PARENT
REMARK Flexibility Score: inf
ROOT
ATOM      1  C   UNL     1      24.671 -14.336  25.924  1.00  0.00     0.000 C 
ENDROOT
BRANCH   1   2
ATOM      2  C   UNL     1      25.824 -13.429  26.391  1.00  0.00     0.000 C 
BRANCH   2   3
ATOM      3  C   UNL     1      26.078 -12.249  25.438  1.00  0.00     0.000 C 
BRANCH   3   4
ATOM      4  C   UNL     1      27.541 -12.156  24.967  1.00  0.00     0.000 C 
BRANCH   4   5
ATOM      5  C   UNL     1      28.450 -11.232  25.799  1.00  0.00     0.000 C 
BRANCH   5   6
ATOM      6  C   UNL     1      29.189 -11.970  26.927  1.00  0.00     0.000 C 
BRANCH   6   7
ATOM      7  C   UNL     1      29.010 -11.299  28.302  1.00  0.00     0.000 C 
BRANCH   7   8
ATOM      8  C   UNL     1      27.703 -10.505  28.482  1.00  0.00     0.000 C 
BRANCH   8   9
ATOM      9  C   UNL     1      26.602 -11.311  29.188  1.00  0.00     0.000 C 
BRANCH   9  10
ATOM     10  C   UNL     1      25.770 -10.408  30.112  1.00  0.00     0.000 C 
BRANCH  10  11
ATOM     11  C   UNL     1      24.519  -9.842  29.421  1.00  0.00     0.000 C 
BRANCH  11  12
ATOM     12  C   UNL     1      23.678 -10.933  28.733  1.00  0.00     0.000 C 
BRANCH  12  13
ATOM     13  C   UNL     1      22.898 -10.404  27.515  1.00  0.00     0.006 C 
BRANCH  13  14
ATOM     14  C   UNL     1      22.127  -9.099  27.769  1.00  0.00     0.053 C 
BRANCH  14  15
ATOM     15  C   UNL     1      20.701  -9.190  27.320  1.00  0.00     0.041 C 
ATOM     16  O   UNL     1      20.429  -9.327  26.099  1.00  0.00    -0.550 OA
ATOM     17  O   UNL     1      19.672  -9.088  28.247  1.00  0.00    -0.550 OA
ENDBRANCH  14  15
ENDBRANCH  13  14
ENDBRANCH  12  13
ENDBRANCH  11  12
ENDBRANCH  10  11
ENDBRANCH   9  10
ENDBRANCH   8   9
ENDBRANCH   7   8
ENDBRANCH   6   7
ENDBRANCH   5   6
ENDBRANCH   4   5
ENDBRANCH   3   4
ENDBRANCH   2   3
ENDBRANCH   1   2
BRANCH   1  18
ATOM     18  C   UNL     1      25.097 -15.722  25.400  1.00  0.00     0.000 C 
BRANCH  18  19
ATOM     19  C   UNL     1      26.488 -15.775  24.737  1.00  0.00     0.000 C 
BRANCH  19  20
ATOM     20  C   UNL     1      26.510 -15.416  23.238  1.00  0.00     0.000 C 
BRANCH  20  21
ATOM     21  C   UNL     1      27.623 -16.096  22.420  1.00  0.00     0.000 C 
BRANCH  21  22
ATOM     22  C   UNL     1      27.727 -17.620  22.647  1.00  0.00     0.000 C 
BRANCH  22  23
ATOM     23  C   UNL     1      27.199 -18.432  21.450  1.00  0.00     0.000 C 
BRANCH  23  24
ATOM     24  C   UNL     1      27.568 -17.796  20.100  1.00  0.00    -0.000 C 
BRANCH  24  25
ATOM     25  C   UNL     1      28.836 -18.412  19.485  1.00  0.00    -0.000 C 
BRANCH  25  26
ATOM     26  C   UNL     1      28.612 -19.847  18.979  1.00  0.00    -0.000 C 
BRANCH  26  27
ATOM     27  C   UNL     1      29.380 -20.935  19.757  1.00  0.00    -0.000 C 
BRANCH  27  28
ATOM     28  C   UNL     1      30.735 -20.489  20.341  1.00  0.00    -0.000 C 
BRANCH  28  29
ATOM     29  C   UNL     1      30.737 -20.247  21.861  1.00  0.00    -0.000 C 
BRANCH  29  30
ATOM     30  C   UNL     1      31.169 -21.487  22.661  1.00  0.00    -0.000 C 
BRANCH  30  31
ATOM     31  C   UNL     1      30.547 -21.527  24.067  1.00  0.00    -0.003 C 
ATOM     32  C   UNL     1      29.538 -20.402  24.296  1.00  0.00     0.004 C 
ENDBRANCH  30  31
ENDBRANCH  29  30
ENDBRANCH  28  29
ENDBRANCH  27  28
ENDBRANCH  26  27
ENDBRANCH  25  26
ENDBRANCH  24  25
ENDBRANCH  23  24
ENDBRANCH  22  23
ENDBRANCH  21  22
ENDBRANCH  20  21
ENDBRANCH  19  20
ENDBRANCH  18  19
ENDBRANCH   1  18
TORSDOF 28
ENDMDL
MODEL 2
REMARK VINA RESULT:    -5.368      3.756     10.543
REMARK INTER + INTRA:         -17.339
REMARK INTER:                 -13.323
REMARK INTRA:                  -4.017
REMARK UNBOUND:                -3.184
REMARK SMILES CCCCCCCCCCCCCCCCCCCCCCCCCCCCCC(=O)[O-]
REMARK SMILES IDX 16 1 17 2 18 3 19 4 20 5 21 6 22 7 23 8 24 9 25 10 26 11
REMARK SMILES IDX 27 12 28 13 29 14 30 15 31 16 32 17 15 18 14 19 13 20 12 21
REMARK SMILES IDX 11 22 10 23 9 24 8 25 7 26 6 27 5 28 4 29 3 30 2 31 1 32
REMARK H PARENT
REMARK Flexibility Score: inf
ROOT
ATOM      1  C   UNL     1      25.108 -14.913  25.517  1.00  0.00     0.000 C 
ENDROOT
BRANCH   1   2
ATOM      2  C   UNL     1      26.142 -15.797  24.795  1.00  0.00     0.000 C 
BRANCH   2   3
ATOM      3  C   UNL     1      26.331 -15.409  23.319  1.00  0.00     0.000 C 
BRANCH   3   4
ATOM      4  C   UNL     1      27.329 -16.318  22.578  1.00  0.00     0.000 C 
BRANCH   4   5
ATOM      5  C   UNL     1      27.441 -17.757  23.114  1.00  0.00     0.000 C 
BRANCH   5   6
ATOM      6  C   UNL     1      28.690 -18.495  22.603  1.00  0.00     0.000 C 
BRANCH   6   7
ATOM      7  C   UNL     1      29.273 -19.476  23.637  1.00  0.00     0.000 C 
BRANCH   7   8
ATOM      8  C   UNL     1      30.806 -19.619  23.617  1.00  0.00     0.000 C 
BRANCH   8   9
ATOM      9  C   UNL     1      31.337 -20.212  22.304  1.00  0.00     0.000 C 
BRANCH   9  10
ATOM     10  C   UNL     1      30.617 -21.527  21.967  1.00  0.00     0.000 C 
BRANCH  10  11
ATOM     11  C   UNL     1      30.251 -21.640  20.478  1.00  0.00     0.000 C 
BRANCH  11  12
ATOM     12  C   UNL     1      30.178 -20.269  19.782  1.00  0.00     0.000 C 
BRANCH  12  13
ATOM     13  C   UNL     1      28.919 -20.110  18.908  1.00  0.00     0.006 C 
BRANCH  13  14
ATOM     14  C   UNL     1      28.274 -18.717  18.968  1.00  0.00     0.053 C 
BRANCH  14  15
ATOM     15  C   UNL     1      26.781 -18.782  18.865  1.00  0.00     0.041 C 
ATOM     16  O   UNL     1      26.237 -19.318  17.865  1.00  0.00    -0.550 OA
ATOM     17  O   UNL     1      25.991 -18.219  19.859  1.00  0.00    -0.550 OA
ENDBRANCH  14  15
ENDBRANCH  13  14
ENDBRANCH  12  13
ENDBRANCH  11  12
ENDBRANCH  10  11
ENDBRANCH   9  10
ENDBRANCH   8   9
ENDBRANCH   7   8
ENDBRANCH   6   7
ENDBRANCH   5   6
ENDBRANCH   4   5
ENDBRANCH   3   4
ENDBRANCH   2   3
ENDBRANCH   1   2
BRANCH   1  18
ATOM     18  C   UNL     1      25.701 -13.832  26.442  1.00  0.00     0.000 C 
BRANCH  18  19
ATOM     19  C   UNL     1      25.643 -12.392  25.892  1.00  0.00     0.000 C 
BRANCH  19  20
ATOM     20  C   UNL     1      26.755 -12.034  24.888  1.00  0.00     0.000 C 
BRANCH  20  21
ATOM     21  C   UNL     1      28.110 -12.720  25.143  1.00  0.00     0.000 C 
BRANCH  21  22
ATOM     22  C   UNL     1      28.975 -12.894  23.875  1.00  0.00     0.000 C 
BRANCH  22  23
ATOM     23  C   UNL     1      30.095 -11.843  23.777  1.00  0.00     0.000 C 
BRANCH  23  24
ATOM     24  C   UNL     1      29.653 -10.582  23.017  1.00  0.00    -0.000 C 
BRANCH  24  25
ATOM     25  C   UNL     1      29.959  -9.290  23.793  1.00  0.00    -0.000 C 
BRANCH  25  26
ATOM     26  C   UNL     1      30.414  -9.559  25.237  1.00  0.00    -0.000 C 
BRANCH  26  27
ATOM     27  C   UNL     1      29.754  -8.661  26.302  1.00  0.00    -0.000 C 
BRANCH  27  28
ATOM     28  C   UNL     1      28.958  -9.409  27.390  1.00  0.00    -0.000 C 
BRANCH  28  29
ATOM     29  C   UNL     1      29.499 -10.805  27.744  1.00  0.00    -0.000 C 
BRANCH  29  30
ATOM     30  C   UNL     1      28.529 -11.615  28.620  1.00  0.00    -0.000 C 
BRANCH  30  31
ATOM     31  C   UNL     1      27.561 -10.720  29.410  1.00  0.00    -0.003 C 
ATOM     32  C   UNL     1      26.099 -11.129  29.230  1.00  0.00     0.004 C 
ENDBRANCH  30  31
ENDBRANCH  29  30
ENDBRANCH  28  29
ENDBRANCH  27  28
ENDBRANCH  26  27
ENDBRANCH  25  26
ENDBRANCH  24  25
ENDBRANCH  23  24
ENDBRANCH  22  23
ENDBRANCH  21  22
ENDBRANCH  20  21
ENDBRANCH  19  20
ENDBRANCH  18  19
ENDBRANCH   1  18
TORSDOF 28
ENDMDL
MODEL 3
REMARK VINA RESULT:    -5.312      2.085      3.635
REMARK INTER + INTRA:         -17.193
REMARK INTER:                 -14.365
REMARK INTRA:                  -2.828
REMARK UNBOUND:                -3.184
REMARK SMILES CCCCCCCCCCCCCCCCCCCCCCCCCCCCCC(=O)[O-]
REMARK SMILES IDX 16 1 17 2 18 3 19 4 20 5 21 6 22 7 23 8 24 9 25 10 26 11
REMARK SMILES IDX 27 12 28 13 29 14 30 15 31 16 32 17 15 18 14 19 13 20 12 21
REMARK SMILES IDX 11 22 10 23 9 24 8 25 7 26 6 27 5 28 4 29 3 30 2 31 1 32
REMARK H PARENT
REMARK Flexibility Score: inf
ROOT
ATOM      1  C   UNL     1      26.129 -15.410  25.278  1.00  0.00     0.000 C 
ENDROOT
BRANCH   1   2
ATOM      2  C   UNL     1      24.838 -14.697  25.718  1.00  0.00     0.000 C 
BRANCH   2   3
ATOM      3  C   UNL     1      25.006 -13.172  25.824  1.00  0.00     0.000 C 
BRANCH   3   4
ATOM      4  C   UNL     1      25.869 -12.741  27.025  1.00  0.00     0.000 C 
BRANCH   4   5
ATOM      5  C   UNL     1      25.215 -11.729  27.984  1.00  0.00     0.000 C 
BRANCH   5   6
ATOM      6  C   UNL     1      23.681 -11.701  27.877  1.00  0.00     0.000 C 
BRANCH   6   7
ATOM      7  C   UNL     1      23.026 -10.732  28.879  1.00  0.00     0.000 C 
BRANCH   7   8
ATOM      8  C   UNL     1      22.744  -9.318  28.338  1.00  0.00     0.000 C 
BRANCH   8   9
ATOM      9  C   UNL     1      21.993  -9.327  26.998  1.00  0.00     0.000 C 
BRANCH   9  10
ATOM     10  C   UNL     1      20.473  -9.353  27.221  1.00  0.00     0.000 C 
BRANCH  10  11
ATOM     11  C   UNL     1      20.011  -8.336  28.278  1.00  0.00     0.000 C 
BRANCH  11  12
ATOM     12  C   UNL     1      19.290  -9.002  29.463  1.00  0.00     0.000 C 
BRANCH  12  13
ATOM     13  C   UNL     1      19.946  -8.674  30.818  1.00  0.00     0.006 C 
BRANCH  13  14
ATOM     14  C   UNL     1      20.628  -9.870  31.501  1.00  0.00     0.053 C 
BRANCH  14  15
ATOM     15  C   UNL     1      19.809 -11.120  31.402  1.00  0.00     0.041 C 
ATOM     16  O   UNL     1      18.722 -11.216  32.029  1.00  0.00    -0.550 OA
ATOM     17  O   UNL     1      20.263 -12.191  30.644  1.00  0.00    -0.550 OA
ENDBRANCH  14  15
ENDBRANCH  13  14
ENDBRANCH  12  13
ENDBRANCH  11  12
ENDBRANCH  10  11
ENDBRANCH   9  10
ENDBRANCH   8   9
ENDBRANCH   7   8
ENDBRANCH   6   7
ENDBRANCH   5   6
ENDBRANCH   4   5
ENDBRANCH   3   4
ENDBRANCH   2   3
ENDBRANCH   1   2
BRANCH   1  18
ATOM     18  C   UNL     1      26.812 -14.820  24.027  1.00  0.00     0.000 C 
BRANCH  18  19
ATOM     19  C   UNL     1      26.795 -15.726  22.780  1.00  0.00     0.000 C 
BRANCH  19  20
ATOM     20  C   UNL     1      27.244 -17.180  23.025  1.00  0.00     0.000 C 
BRANCH  20  21
ATOM     21  C   UNL     1      28.370 -17.679  22.100  1.00  0.00     0.000 C 
BRANCH  21  22
ATOM     22  C   UNL     1      29.080 -16.557  21.313  1.00  0.00     0.000 C 
BRANCH  22  23
ATOM     23  C   UNL     1      30.437 -17.004  20.741  1.00  0.00     0.000 C 
BRANCH  23  24
ATOM     24  C   UNL     1      30.541 -16.773  19.225  1.00  0.00    -0.000 C 
BRANCH  24  25
ATOM     25  C   UNL     1      30.989 -18.034  18.466  1.00  0.00    -0.000 C 
BRANCH  25  26
ATOM     26  C   UNL     1      30.253 -19.301  18.935  1.00  0.00    -0.000 C 
BRANCH  26  27
ATOM     27  C   UNL     1      31.038 -20.170  19.938  1.00  0.00    -0.000 C 
BRANCH  27  28
ATOM     28  C   UNL     1      30.239 -21.329  20.566  1.00  0.00    -0.000 C 
BRANCH  28  29
ATOM     29  C   UNL     1      30.292 -21.396  22.103  1.00  0.00    -0.000 C 
BRANCH  29  30
ATOM     30  C   UNL     1      31.346 -20.451  22.704  1.00  0.00    -0.000 C 
BRANCH  30  31
ATOM     31  C   UNL     1      30.801 -19.641  23.891  1.00  0.00    -0.003 C 
ATOM     32  C   UNL     1      29.535 -20.253  24.490  1.00  0.00     0.004 C 
ENDBRANCH  30  31
ENDBRANCH  29  30
ENDBRANCH  28  29
ENDBRANCH  27  28
ENDBRANCH  26  27
ENDBRANCH  25  26
ENDBRANCH  24  25
ENDBRANCH  23  24
ENDBRANCH  22  23
ENDBRANCH  21  22
ENDBRANCH  20  21
ENDBRANCH  19  20
ENDBRANCH  18  19
ENDBRANCH   1  18
TORSDOF 28
ENDMDL
MODEL 4
REMARK VINA RESULT:    -5.286      2.452      4.680
REMARK INTER + INTRA:         -17.124
REMARK INTER:                 -14.266
REMARK INTRA:                  -2.857
REMARK UNBOUND:                -3.184
REMARK SMILES CCCCCCCCCCCCCCCCCCCCCCCCCCCCCC(=O)[O-]
REMARK SMILES IDX 16 1 17 2 18 3 19 4 20 5 21 6 22 7 23 8 24 9 25 10 26 11
REMARK SMILES IDX 27 12 28 13 29 14 30 15 31 16 32 17 15 18 14 19 13 20 12 21
REMARK SMILES IDX 11 22 10 23 9 24 8 25 7 26 6 27 5 28 4 29 3 30 2 31 1 32
REMARK H PARENT
REMARK Flexibility Score: inf
ROOT
ATOM      1  C   UNL     1      25.983 -12.409  25.615  1.00  0.00     0.000 C 
ENDROOT
BRANCH   1   2
ATOM      2  C   UNL     1      26.287 -12.517  27.120  1.00  0.00     0.000 C 
BRANCH   2   3
ATOM      3  C   UNL     1      25.328 -11.679  27.983  1.00  0.00     0.000 C 
BRANCH   3   4
ATOM      4  C   UNL     1      23.845 -11.905  27.633  1.00  0.00     0.000 C 
BRANCH   4   5
ATOM      5  C   UNL     1      22.830 -11.210  28.559  1.00  0.00     0.000 C 
BRANCH   5   6
ATOM      6  C   UNL     1      23.307  -9.834  29.051  1.00  0.00     0.000 C 
BRANCH   6   7
ATOM      7  C   UNL     1      22.555  -8.664  28.388  1.00  0.00     0.000 C 
BRANCH   7   8
ATOM      8  C   UNL     1      21.753  -9.029  27.126  1.00  0.00     0.000 C 
BRANCH   8   9
ATOM      9  C   UNL     1      20.262  -8.676  27.238  1.00  0.00     0.000 C 
BRANCH   9  10
ATOM     10  C   UNL     1      19.945  -8.071  28.615  1.00  0.00     0.000 C 
BRANCH  10  11
ATOM     11  C   UNL     1      18.994  -8.947  29.445  1.00  0.00     0.000 C 
BRANCH  11  12
ATOM     12  C   UNL     1      19.563  -9.286  30.834  1.00  0.00     0.000 C 
BRANCH  12  13
ATOM     13  C   UNL     1      19.285 -10.743  31.253  1.00  0.00     0.006 C 
BRANCH  13  14
ATOM     14  C   UNL     1      20.538 -11.627  31.355  1.00  0.00     0.053 C 
BRANCH  14  15
ATOM     15  C   UNL     1      20.876 -11.965  32.775  1.00  0.00     0.041 C 
ATOM     16  O   UNL     1      21.766 -11.317  33.386  1.00  0.00    -0.550 OA
ATOM     17  O   UNL     1      20.230 -13.017  33.411  1.00  0.00    -0.550 OA
ENDBRANCH  14  15
ENDBRANCH  13  14
ENDBRANCH  12  13
ENDBRANCH  11  12
ENDBRANCH  10  11
ENDBRANCH   9  10
ENDBRANCH   8   9
ENDBRANCH   7   8
ENDBRANCH   6   7
ENDBRANCH   5   6
ENDBRANCH   4   5
ENDBRANCH   3   4
ENDBRANCH   2   3
ENDBRANCH   1   2
BRANCH   1  18
ATOM     18  C   UNL     1      25.373 -13.673  24.976  1.00  0.00     0.000 C 
BRANCH  18  19
ATOM     19  C   UNL     1      25.777 -15.006  25.638  1.00  0.00     0.000 C 
BRANCH  19  20
ATOM     20  C   UNL     1      26.474 -16.012  24.702  1.00  0.00     0.000 C 
BRANCH  20  21
ATOM     21  C   UNL     1      26.847 -15.461  23.313  1.00  0.00     0.000 C 
BRANCH  21  22
ATOM     22  C   UNL     1      27.594 -16.472  22.416  1.00  0.00     0.000 C 
BRANCH  22  23
ATOM     23  C   UNL     1      27.461 -17.920  22.921  1.00  0.00     0.000 C 
BRANCH  23  24
ATOM     24  C   UNL     1      28.773 -18.710  22.795  1.00  0.00    -0.000 C 
BRANCH  24  25
ATOM     25  C   UNL     1      29.117 -19.489  24.076  1.00  0.00    -0.000 C 
BRANCH  25  26
ATOM     26  C   UNL     1      30.433 -20.277  23.954  1.00  0.00    -0.000 C 
BRANCH  26  27
ATOM     27  C   UNL     1      30.382 -21.478  22.989  1.00  0.00    -0.000 C 
BRANCH  27  28
ATOM     28  C   UNL     1      30.968 -21.218  21.587  1.00  0.00    -0.000 C 
BRANCH  28  29
ATOM     29  C   UNL     1      30.002 -21.488  20.420  1.00  0.00    -0.000 C 
BRANCH  29  30
ATOM     30  C   UNL     1      29.841 -20.276  19.487  1.00  0.00    -0.000 C 
BRANCH  30  31
ATOM     31  C   UNL     1      30.906 -19.196  19.736  1.00  0.00    -0.003 C 
ATOM     32  C   UNL     1      30.330 -17.781  19.702  1.00  0.00     0.004 C 
ENDBRANCH  30  31
ENDBRANCH  29  30
ENDBRANCH  28  29
ENDBRANCH  27  28
ENDBRANCH  26  27
ENDBRANCH  25  26
ENDBRANCH  24  25
ENDBRANCH  23  24
ENDBRANCH  22  23
ENDBRANCH  21  22
ENDBRANCH  20  21
ENDBRANCH  19  20
ENDBRANCH  18  19
ENDBRANCH   1  18
TORSDOF 28
ENDMDL
MODEL 5
REMARK VINA RESULT:    -5.234      4.019     12.626
REMARK INTER + INTRA:         -16.986
REMARK INTER:                 -13.747
REMARK INTRA:                  -3.239
REMARK UNBOUND:                -3.184
REMARK SMILES CCCCCCCCCCCCCCCCCCCCCCCCCCCCCC(=O)[O-]
REMARK SMILES IDX 16 1 17 2 18 3 19 4 20 5 21 6 22 7 23 8 24 9 25 10 26 11
REMARK SMILES IDX 27 12 28 13 29 14 30 15 31 16 32 17 15 18 14 19 13 20 12 21
REMARK SMILES IDX 11 22 10 23 9 24 8 25 7 26 6 27 5 28 4 29 3 30 2 31 1 32
REMARK H PARENT
REMARK Flexibility Score: inf
ROOT
ATOM      1  C   UNL     1      26.499 -16.012  24.566  1.00  0.00     0.000 C 
ENDROOT
BRANCH   1   2
ATOM      2  C   UNL     1      26.707 -15.420  23.159  1.00  0.00     0.000 C 
BRANCH   2   3
ATOM      3  C   UNL     1      27.841 -16.112  22.383  1.00  0.00     0.000 C 
BRANCH   3   4
ATOM      4  C   UNL     1      27.371 -17.357  21.609  1.00  0.00     0.000 C 
BRANCH   4   5
ATOM      5  C   UNL     1      27.781 -18.711  22.218  1.00  0.00     0.000 C 
BRANCH   5   6
ATOM      6  C   UNL     1      28.878 -18.584  23.288  1.00  0.00     0.000 C 
BRANCH   6   7
ATOM      7  C   UNL     1      29.310 -19.942  23.871  1.00  0.00     0.000 C 
BRANCH   7   8
ATOM      8  C   UNL     1      30.726 -20.406  23.481  1.00  0.00     0.000 C 
BRANCH   8   9
ATOM      9  C   UNL     1      30.723 -21.636  22.561  1.00  0.00     0.000 C 
BRANCH   9  10
ATOM     10  C   UNL     1      30.381 -21.240  21.117  1.00  0.00     0.000 C 
BRANCH  10  11
ATOM     11  C   UNL     1      31.209 -20.045  20.616  1.00  0.00     0.000 C 
BRANCH  11  12
ATOM     12  C   UNL     1      30.431 -19.159  19.627  1.00  0.00     0.000 C 
BRANCH  12  13
ATOM     13  C   UNL     1      29.177 -19.855  19.064  1.00  0.00     0.006 C 
BRANCH  13  14
ATOM     14  C   UNL     1      28.847 -19.492  17.608  1.00  0.00     0.053 C 
BRANCH  14  15
ATOM     15  C   UNL     1      28.596 -18.025  17.435  1.00  0.00     0.041 C 
ATOM     16  O   UNL     1      27.702 -17.452  18.111  1.00  0.00    -0.550 OA
ATOM     17  O   UNL     1      29.326 -17.300  16.502  1.00  0.00    -0.550 OA
ENDBRANCH  14  15
ENDBRANCH  13  14
ENDBRANCH  12  13
ENDBRANCH  11  12
ENDBRANCH  10  11
ENDBRANCH   9  10
ENDBRANCH   8   9
ENDBRANCH   7   8
ENDBRANCH   6   7
ENDBRANCH   5   6
ENDBRANCH   4   5
ENDBRANCH   3   4
ENDBRANCH   2   3
ENDBRANCH   1   2
BRANCH   1  18
ATOM     18  C   UNL     1      25.367 -15.366  25.390  1.00  0.00     0.000 C 
BRANCH  18  19
ATOM     19  C   UNL     1      25.037 -13.905  25.021  1.00  0.00     0.000 C 
BRANCH  19  20
ATOM     20  C   UNL     1      25.390 -12.866  26.102  1.00  0.00     0.000 C 
BRANCH  20  21
ATOM     21  C   UNL     1      24.241 -12.507  27.063  1.00  0.00     0.000 C 
BRANCH  21  22
ATOM     22  C   UNL     1      24.634 -11.497  28.163  1.00  0.00     0.000 C 
BRANCH  22  23
ATOM     23  C   UNL     1      23.411 -10.826  28.812  1.00  0.00     0.000 C 
BRANCH  23  24
ATOM     24  C   UNL     1      23.617  -9.319  29.037  1.00  0.00    -0.000 C 
BRANCH  24  25
ATOM     25  C   UNL     1      22.540  -8.467  28.345  1.00  0.00    -0.000 C 
BRANCH  25  26
ATOM     26  C   UNL     1      21.518  -9.318  27.572  1.00  0.00    -0.000 C 
BRANCH  26  27
ATOM     27  C   UNL     1      20.205  -8.589  27.221  1.00  0.00    -0.000 C 
BRANCH  27  28
ATOM     28  C   UNL     1      19.275  -8.302  28.416  1.00  0.00    -0.000 C 
BRANCH  28  29
ATOM     29  C   UNL     1      19.223  -9.413  29.479  1.00  0.00    -0.000 C 
BRANCH  29  30
ATOM     30  C   UNL     1      19.905  -9.009  30.797  1.00  0.00    -0.000 C 
BRANCH  30  31
ATOM     31  C   UNL     1      20.475 -10.217  31.559  1.00  0.00    -0.003 C 
ATOM     32  C   UNL     1      20.427 -11.506  30.740  1.00  0.00     0.004 C 
ENDBRANCH  30  31
ENDBRANCH  29  30
ENDBRANCH  28  29
ENDBRANCH  27  28
ENDBRANCH  26  27
ENDBRANCH  25  26
ENDBRANCH  24  25
ENDBRANCH  23  24
ENDBRANCH  22  23
ENDBRANCH  21  22
ENDBRANCH  20  21
ENDBRANCH  19  20
ENDBRANCH  18  19
ENDBRANCH   1  18
TORSDOF 28
ENDMDL
MODEL 6
REMARK VINA RESULT:    -5.225      4.607     12.967
REMARK INTER + INTRA:         -16.963
REMARK INTER:                 -14.374
REMARK INTRA:                  -2.589
REMARK UNBOUND:                -3.184
REMARK SMILES CCCCCCCCCCCCCCCCCCCCCCCCCCCCCC(=O)[O-]
REMARK SMILES IDX 16 1 17 2 18 3 19 4 20 5 21 6 22 7 23 8 24 9 25 10 26 11
REMARK SMILES IDX 27 12 28 13 29 14 30 15 31 16 32 17 15 18 14 19 13 20 12 21
REMARK SMILES IDX 11 22 10 23 9 24 8 25 7 26 6 27 5 28 4 29 3 30 2 31 1 32
REMARK H PARENT
REMARK Flexibility Score: inf
ROOT
ATOM      1  C   UNL     1      24.952 -14.039  25.949  1.00  0.00     0.000 C 
ENDROOT
BRANCH   1   2
ATOM      2  C   UNL     1      26.303 -14.725  25.675  1.00  0.00     0.000 C 
BRANCH   2   3
ATOM      3  C   UNL     1      26.195 -15.862  24.645  1.00  0.00     0.000 C 
BRANCH   3   4
ATOM      4  C   UNL     1      26.491 -15.404  23.205  1.00  0.00     0.000 C 
BRANCH   4   5
ATOM      5  C   UNL     1      27.574 -16.208  22.461  1.00  0.00     0.000 C 
BRANCH   5   6
ATOM      6  C   UNL     1      27.540 -17.710  22.788  1.00  0.00     0.000 C 
BRANCH   6   7
ATOM      7  C   UNL     1      28.930 -18.372  22.722  1.00  0.00     0.000 C 
BRANCH   7   8
ATOM      8  C   UNL     1      29.168 -19.505  23.736  1.00  0.00     0.000 C 
BRANCH   8   9
ATOM      9  C   UNL     1      30.652 -19.868  23.895  1.00  0.00     0.000 C 
BRANCH   9  10
ATOM     10  C   UNL     1      31.216 -20.449  22.589  1.00  0.00     0.000 C 
BRANCH  10  11
ATOM     11  C   UNL     1      30.360 -21.597  22.031  1.00  0.00     0.000 C 
BRANCH  11  12
ATOM     12  C   UNL     1      30.323 -21.613  20.492  1.00  0.00     0.000 C 
BRANCH  12  13
ATOM     13  C   UNL     1      30.562 -20.221  19.876  1.00  0.00     0.006 C 
BRANCH  13  14
ATOM     14  C   UNL     1      29.301 -19.552  19.306  1.00  0.00     0.053 C 
BRANCH  14  15
ATOM     15  C   UNL     1      29.485 -19.124  17.883  1.00  0.00     0.041 C 
ATOM     16  O   UNL     1      30.505 -18.466  17.546  1.00  0.00    -0.550 OA
ATOM     17  O   UNL     1      28.514 -19.421  16.936  1.00  0.00    -0.550 OA
ENDBRANCH  14  15
ENDBRANCH  13  14
ENDBRANCH  12  13
ENDBRANCH  11  12
ENDBRANCH  10  11
ENDBRANCH   9  10
ENDBRANCH   8   9
ENDBRANCH   7   8
ENDBRANCH   6   7
ENDBRANCH   5   6
ENDBRANCH   4   5
ENDBRANCH   3   4
ENDBRANCH   2   3
ENDBRANCH   1   2
BRANCH   1  18
ATOM     18  C   UNL     1      25.016 -12.508  26.123  1.00  0.00     0.000 C 
BRANCH  18  19
ATOM     19  C   UNL     1      24.890 -12.005  27.575  1.00  0.00     0.000 C 
BRANCH  19  20
ATOM     20  C   UNL     1      23.448 -11.750  28.053  1.00  0.00     0.000 C 
BRANCH  20  21
ATOM     21  C   UNL     1      23.093 -10.271  28.298  1.00  0.00     0.000 C 
BRANCH  21  22
ATOM     22  C   UNL     1      22.119  -9.679  27.257  1.00  0.00     0.000 C 
BRANCH  22  23
ATOM     23  C   UNL     1      21.357  -8.454  27.793  1.00  0.00     0.000 C 
BRANCH  23  24
ATOM     24  C   UNL     1      19.871  -8.466  27.398  1.00  0.00    -0.000 C 
BRANCH  24  25
ATOM     25  C   UNL     1      18.938  -8.289  28.608  1.00  0.00    -0.000 C 
BRANCH  25  26
ATOM     26  C   UNL     1      19.613  -8.670  29.937  1.00  0.00    -0.000 C 
BRANCH  26  27
ATOM     27  C   UNL     1      18.713  -9.446  30.920  1.00  0.00    -0.000 C 
BRANCH  27  28
ATOM     28  C   UNL     1      18.690 -10.974  30.721  1.00  0.00    -0.000 C 
BRANCH  28  29
ATOM     29  C   UNL     1      20.015 -11.584  30.231  1.00  0.00    -0.000 C 
BRANCH  29  30
ATOM     30  C   UNL     1      20.997 -11.875  31.379  1.00  0.00    -0.000 C 
BRANCH  30  31
ATOM     31  C   UNL     1      20.283 -12.299  32.672  1.00  0.00    -0.003 C 
ATOM     32  C   UNL     1      20.553 -11.345  33.834  1.00  0.00     0.004 C 
ENDBRANCH  30  31
ENDBRANCH  29  30
ENDBRANCH  28  29
ENDBRANCH  27  28
ENDBRANCH  26  27
ENDBRANCH  25  26
ENDBRANCH  24  25
ENDBRANCH  23  24
ENDBRANCH  22  23
ENDBRANCH  21  22
ENDBRANCH  20  21
ENDBRANCH  19  20
ENDBRANCH  18  19
ENDBRANCH   1  18
TORSDOF 28
ENDMDL
MODEL 7
REMARK VINA RESULT:    -5.219      2.116      4.106
REMARK INTER + INTRA:         -16.946
REMARK INTER:                 -13.477
REMARK INTRA:                  -3.469
REMARK UNBOUND:                -3.184
REMARK SMILES CCCCCCCCCCCCCCCCCCCCCCCCCCCCCC(=O)[O-]
REMARK SMILES IDX 16 1 17 2 18 3 19 4 20 5 21 6 22 7 23 8 24 9 25 10 26 11
REMARK SMILES IDX 27 12 28 13 29 14 30 15 31 16 32 17 15 18 14 19 13 20 12 21
REMARK SMILES IDX 11 22 10 23 9 24 8 25 7 26 6 27 5 28 4 29 3 30 2 31 1 32
REMARK H PARENT
REMARK Flexibility Score: inf
ROOT
ATOM      1  C   UNL     1      26.416 -15.757  24.883  1.00  0.00     0.000 C 
ENDROOT
BRANCH   1   2
ATOM      2  C   UNL     1      25.375 -14.973  25.702  1.00  0.00     0.000 C 
BRANCH   2   3
ATOM      3  C   UNL     1      24.980 -13.640  25.044  1.00  0.00     0.000 C 
BRANCH   3   4
ATOM      4  C   UNL     1      25.561 -12.412  25.769  1.00  0.00     0.000 C 
BRANCH   4   5
ATOM      5  C   UNL     1      25.288 -12.344  27.283  1.00  0.00     0.000 C 
BRANCH   5   6
ATOM      6  C   UNL     1      23.853 -11.903  27.617  1.00  0.00     0.000 C 
BRANCH   6   7
ATOM      7  C   UNL     1      23.795 -10.828  28.718  1.00  0.00     0.000 C 
BRANCH   7   8
ATOM      8  C   UNL     1      22.878  -9.628  28.419  1.00  0.00     0.000 C 
BRANCH   8   9
ATOM      9  C   UNL     1      22.109  -9.774  27.097  1.00  0.00     0.000 C 
BRANCH   9  10
ATOM     10  C   UNL     1      20.801  -8.970  27.133  1.00  0.00     0.000 C 
BRANCH  10  11
ATOM     11  C   UNL     1      20.531  -8.334  28.506  1.00  0.00     0.000 C 
BRANCH  11  12
ATOM     12  C   UNL     1      19.137  -8.684  29.056  1.00  0.00     0.000 C 
BRANCH  12  13
ATOM     13  C   UNL     1      19.196  -9.628  30.272  1.00  0.00     0.006 C 
BRANCH  13  14
ATOM     14  C   UNL     1      19.716 -11.040  29.958  1.00  0.00     0.053 C 
BRANCH  14  15
ATOM     15  C   UNL     1      20.607 -11.566  31.042  1.00  0.00     0.041 C 
ATOM     16  O   UNL     1      21.545 -10.857  31.491  1.00  0.00    -0.550 OA
ATOM     17  O   UNL     1      20.421 -12.853  31.530  1.00  0.00    -0.550 OA
ENDBRANCH  14  15
ENDBRANCH  13  14
ENDBRANCH  12  13
ENDBRANCH  11  12
ENDBRANCH  10  11
ENDBRANCH   9  10
ENDBRANCH   8   9
ENDBRANCH   7   8
ENDBRANCH   6   7
ENDBRANCH   5   6
ENDBRANCH   4   5
ENDBRANCH   3   4
ENDBRANCH   2   3
ENDBRANCH   1   2
BRANCH   1  18
ATOM     18  C   UNL     1      26.428 -15.452  23.371  1.00  0.00     0.000 C 
BRANCH  18  19
ATOM     19  C   UNL     1      27.773 -15.702  22.660  1.00  0.00     0.000 C 
BRANCH  19  20
ATOM     20  C   UNL     1      27.799 -16.934  21.734  1.00  0.00     0.000 C 
BRANCH  20  21
ATOM     21  C   UNL     1      27.645 -18.290  22.447  1.00  0.00     0.000 C 
BRANCH  21  22
ATOM     22  C   UNL     1      28.578 -18.469  23.664  1.00  0.00     0.000 C 
BRANCH  22  23
ATOM     23  C   UNL     1      29.416 -19.758  23.580  1.00  0.00     0.000 C 
BRANCH  23  24
ATOM     24  C   UNL     1      30.871 -19.488  23.165  1.00  0.00    -0.000 C 
BRANCH  24  25
ATOM     25  C   UNL     1      31.336 -20.401  22.019  1.00  0.00    -0.000 C 
BRANCH  25  26
ATOM     26  C   UNL     1      30.211 -21.307  21.489  1.00  0.00    -0.000 C 
BRANCH  26  27
ATOM     27  C   UNL     1      29.991 -21.241  19.965  1.00  0.00    -0.000 C 
BRANCH  27  28
ATOM     28  C   UNL     1      28.956 -20.199  19.496  1.00  0.00    -0.000 C 
BRANCH  28  29
ATOM     29  C   UNL     1      29.468 -19.207  18.437  1.00  0.00    -0.000 C 
BRANCH  29  30
ATOM     30  C   UNL     1      30.821 -18.580  18.813  1.00  0.00    -0.000 C 
BRANCH  30  31
ATOM     31  C   UNL     1      30.692 -17.521  19.919  1.00  0.00    -0.003 C 
ATOM     32  C   UNL     1      30.618 -16.098  19.366  1.00  0.00     0.004 C 
ENDBRANCH  30  31
ENDBRANCH  29  30
ENDBRANCH  28  29
ENDBRANCH  27  28
ENDBRANCH  26  27
ENDBRANCH  25  26
ENDBRANCH  24  25
ENDBRANCH  23  24
ENDBRANCH  22  23
ENDBRANCH  21  22
ENDBRANCH  20  21
ENDBRANCH  19  20
ENDBRANCH  18  19
ENDBRANCH   1  18
TORSDOF 28
ENDMDL
MODEL 8
REMARK VINA RESULT:    -5.178      4.049     10.697
REMARK INTER + INTRA:         -16.839
REMARK INTER:                 -12.987
REMARK INTRA:                  -3.852
REMARK UNBOUND:                -3.184
REMARK SMILES CCCCCCCCCCCCCCCCCCCCCCCCCCCCCC(=O)[O-]
REMARK SMILES IDX 16 1 17 2 18 3 19 4 20 5 21 6 22 7 23 8 24 9 25 10 26 11
REMARK SMILES IDX 27 12 28 13 29 14 30 15 31 16 32 17 15 18 14 19 13 20 12 21
REMARK SMILES IDX 11 22 10 23 9 24 8 25 7 26 6 27 5 28 4 29 3 30 2 31 1 32
REMARK H PARENT
REMARK Flexibility Score: inf
ROOT
ATOM      1  C   UNL     1      20.389 -10.358  28.756  1.00  0.00     0.000 C 
ENDROOT
BRANCH   1   2
ATOM      2  C   UNL     1      21.127  -9.710  27.569  1.00  0.00     0.000 C 
BRANCH   2   3
ATOM      3  C   UNL     1      22.649  -9.921  27.628  1.00  0.00     0.000 C 
BRANCH   3   4
ATOM      4  C   UNL     1      23.046 -11.336  28.088  1.00  0.00     0.000 C 
BRANCH   4   5
ATOM      5  C   UNL     1      24.493 -11.757  27.771  1.00  0.00     0.000 C 
BRANCH   5   6
ATOM      6  C   UNL     1      24.639 -12.424  26.393  1.00  0.00     0.000 C 
BRANCH   6   7
ATOM      7  C   UNL     1      24.772 -13.956  26.478  1.00  0.00     0.000 C 
BRANCH   7   8
ATOM      8  C   UNL     1      26.042 -14.543  25.835  1.00  0.00     0.000 C 
BRANCH   8   9
ATOM      9  C   UNL     1      25.857 -14.894  24.351  1.00  0.00     0.000 C 
BRANCH   9  10
ATOM     10  C   UNL     1      26.824 -16.011  23.928  1.00  0.00     0.000 C 
BRANCH  10  11
ATOM     11  C   UNL     1      26.907 -16.179  22.402  1.00  0.00     0.000 C 
BRANCH  11  12
ATOM     12  C   UNL     1      28.250 -16.777  21.946  1.00  0.00     0.000 C 
BRANCH  12  13
ATOM     13  C   UNL     1      28.402 -18.261  22.329  1.00  0.00     0.006 C 
BRANCH  13  14
ATOM     14  C   UNL     1      29.854 -18.764  22.366  1.00  0.00     0.053 C 
BRANCH  14  15
ATOM     15  C   UNL     1      30.096 -19.703  23.508  1.00  0.00     0.041 C 
ATOM     16  O   UNL     1      31.177 -20.344  23.582  1.00  0.00    -0.550 OA
ATOM     17  O   UNL     1      29.114 -19.894  24.471  1.00  0.00    -0.550 OA
ENDBRANCH  14  15
ENDBRANCH  13  14
ENDBRANCH  12  13
ENDBRANCH  11  12
ENDBRANCH  10  11
ENDBRANCH   9  10
ENDBRANCH   8   9
ENDBRANCH   7   8
ENDBRANCH   6   7
ENDBRANCH   5   6
ENDBRANCH   4   5
ENDBRANCH   3   4
ENDBRANCH   2   3
ENDBRANCH   1   2
BRANCH   1  18
ATOM     18  C   UNL     1      19.365  -9.451  29.466  1.00  0.00     0.000 C 
BRANCH  18  19
ATOM     19  C   UNL     1      19.765  -8.991  30.883  1.00  0.00     0.000 C 
BRANCH  19  20
ATOM     20  C   UNL     1      21.118  -8.260  30.972  1.00  0.00     0.000 C 
BRANCH  20  21
ATOM     21  C   UNL     1      22.110  -8.845  31.994  1.00  0.00     0.000 C 
BRANCH  21  22
ATOM     22  C   UNL     1      23.232  -9.698  31.363  1.00  0.00     0.000 C 
BRANCH  22  23
ATOM     23  C   UNL     1      24.377  -8.841  30.797  1.00  0.00     0.000 C 
BRANCH  23  24
ATOM     24  C   UNL     1      25.603  -9.681  30.404  1.00  0.00    -0.000 C 
BRANCH  24  25
ATOM     25  C   UNL     1      26.685  -8.850  29.695  1.00  0.00    -0.000 C 
BRANCH  25  26
ATOM     26  C   UNL     1      27.860  -9.709  29.196  1.00  0.00    -0.000 C 
BRANCH  26  27
ATOM     27  C   UNL     1      27.630 -11.231  29.282  1.00  0.00    -0.000 C 
BRANCH  27  28
ATOM     28  C   UNL     1      28.093 -12.035  28.051  1.00  0.00    -0.000 C 
BRANCH  28  29
ATOM     29  C   UNL     1      28.130 -11.239  26.734  1.00  0.00    -0.000 C 
BRANCH  29  30
ATOM     30  C   UNL     1      29.093 -11.845  25.699  1.00  0.00    -0.000 C 
BRANCH  30  31
ATOM     31  C   UNL     1      28.399 -12.164  24.365  1.00  0.00    -0.003 C 
ATOM     32  C   UNL     1      29.202 -13.136  23.501  1.00  0.00     0.004 C 
ENDBRANCH  30  31
ENDBRANCH  29  30
ENDBRANCH  28  29
ENDBRANCH  27  28
ENDBRANCH  26  27
ENDBRANCH  25  26
ENDBRANCH  24  25
ENDBRANCH  23  24
ENDBRANCH  22  23
ENDBRANCH  21  22
ENDBRANCH  20  21
ENDBRANCH  19  20
ENDBRANCH  18  19
ENDBRANCH   1  18
TORSDOF 28
ENDMDL
MODEL 9
REMARK VINA RESULT:    -5.133      4.120     12.607
REMARK INTER + INTRA:         -16.719
REMARK INTER:                 -13.408
REMARK INTRA:                  -3.311
REMARK UNBOUND:                -3.184
REMARK SMILES CCCCCCCCCCCCCCCCCCCCCCCCCCCCCC(=O)[O-]
REMARK SMILES IDX 16 1 17 2 18 3 19 4 20 5 21 6 22 7 23 8 24 9 25 10 26 11
REMARK SMILES IDX 27 12 28 13 29 14 30 15 31 16 32 17 15 18 14 19 13 20 12 21
REMARK SMILES IDX 11 22 10 23 9 24 8 25 7 26 6 27 5 28 4 29 3 30 2 31 1 32
REMARK H PARENT
REMARK Flexibility Score: inf
ROOT
ATOM      1  C   UNL     1      26.462 -15.042  24.946  1.00  0.00     0.000 C 
ENDROOT
BRANCH   1   2
ATOM      2  C   UNL     1      26.464 -15.673  23.542  1.00  0.00     0.000 C 
BRANCH   2   3
ATOM      3  C   UNL     1      27.737 -15.345  22.743  1.00  0.00     0.000 C 
BRANCH   3   4
ATOM      4  C   UNL     1      28.315 -16.563  21.999  1.00  0.00     0.000 C 
BRANCH   4   5
ATOM      5  C   UNL     1      27.602 -17.902  22.264  1.00  0.00     0.000 C 
BRANCH   5   6
ATOM      6  C   UNL     1      27.588 -18.831  21.038  1.00  0.00     0.000 C 
BRANCH   6   7
ATOM      7  C   UNL     1      26.910 -18.195  19.810  1.00  0.00     0.000 C 
BRANCH   7   8
ATOM      8  C   UNL     1      27.010 -19.011  18.508  1.00  0.00     0.000 C 
BRANCH   8   9
ATOM      9  C   UNL     1      28.312 -19.821  18.405  1.00  0.00     0.000 C 
BRANCH   9  10
ATOM     10  C   UNL     1      29.436 -18.973  17.789  1.00  0.00     0.000 C 
BRANCH  10  11
ATOM     11  C   UNL     1      30.591 -18.714  18.771  1.00  0.00     0.000 C 
BRANCH  11  12
ATOM     12  C   UNL     1      30.998 -19.977  19.550  1.00  0.00     0.000 C 
BRANCH  12  13
ATOM     13  C   UNL     1      31.125 -19.728  21.065  1.00  0.00     0.006 C 
BRANCH  13  14
ATOM     14  C   UNL     1      30.537 -20.842  21.946  1.00  0.00     0.053 C 
BRANCH  14  15
ATOM     15  C   UNL     1      30.554 -20.481  23.399  1.00  0.00     0.041 C 
ATOM     16  O   UNL     1      31.644 -20.230  23.977  1.00  0.00    -0.550 OA
ATOM     17  O   UNL     1      29.369 -20.454  24.123  1.00  0.00    -0.550 OA
ENDBRANCH  14  15
ENDBRANCH  13  14
ENDBRANCH  12  13
ENDBRANCH  11  12
ENDBRANCH  10  11
ENDBRANCH   9  10
ENDBRANCH   8   9
ENDBRANCH   7   8
ENDBRANCH   6   7
ENDBRANCH   5   6
ENDBRANCH   4   5
ENDBRANCH   3   4
ENDBRANCH   2   3
ENDBRANCH   1   2
BRANCH   1  18
ATOM     18  C   UNL     1      25.971 -13.582  25.008  1.00  0.00     0.000 C 
BRANCH  18  19
ATOM     19  C   UNL     1      27.085 -12.516  25.053  1.00  0.00     0.000 C 
BRANCH  19  20
ATOM     20  C   UNL     1      27.236 -11.789  26.403  1.00  0.00     0.000 C 
BRANCH  20  21
ATOM     21  C   UNL     1      26.437 -12.403  27.568  1.00  0.00     0.000 C 
BRANCH  21  22
ATOM     22  C   UNL     1      25.281 -11.512  28.074  1.00  0.00     0.000 C 
BRANCH  22  23
ATOM     23  C   UNL     1      23.897 -12.075  27.705  1.00  0.00     0.000 C 
BRANCH  23  24
ATOM     24  C   UNL     1      22.750 -11.300  28.373  1.00  0.00    -0.000 C 
BRANCH  24  25
ATOM     25  C   UNL     1      23.054  -9.798  28.507  1.00  0.00    -0.000 C 
BRANCH  25  26
ATOM     26  C   UNL     1      22.316  -8.948  27.458  1.00  0.00    -0.000 C 
BRANCH  26  27
ATOM     27  C   UNL     1      20.847  -9.350  27.218  1.00  0.00    -0.000 C 
BRANCH  27  28
ATOM     28  C   UNL     1      19.807  -8.537  28.014  1.00  0.00    -0.000 C 
BRANCH  28  29
ATOM     29  C   UNL     1      19.246  -9.245  29.260  1.00  0.00    -0.000 C 
BRANCH  29  30
ATOM     30  C   UNL     1      20.038  -8.918  30.537  1.00  0.00    -0.000 C 
BRANCH  30  31
ATOM     31  C   UNL     1      20.376 -10.173  31.358  1.00  0.00    -0.003 C 
ATOM     32  C   UNL     1      19.867 -11.458  30.705  1.00  0.00     0.004 C 
ENDBRANCH  30  31
ENDBRANCH  29  30
ENDBRANCH  28  29
ENDBRANCH  27  28
ENDBRANCH  26  27
ENDBRANCH  25  26
ENDBRANCH  24  25
ENDBRANCH  23  24
ENDBRANCH  22  23
ENDBRANCH  21  22
ENDBRANCH  20  21
ENDBRANCH  19  20
ENDBRANCH  18  19
ENDBRANCH   1  18
TORSDOF 28
ENDMDL
