MODEL 1
REMARK VINA RESULT:    -3.287      0.000      0.000
REMARK INTER + INTRA:          -7.508
REMARK INTER:                  -5.593
REMARK INTRA:                  -1.914
REMARK UNBOUND:                -1.914
REMARK SMILES CCCCCCCCCCCCCC(=O)[O-]
REMARK SMILES IDX 8 1 9 2 10 3 11 4 12 5 13 6 14 7 15 8 16 9 7 10 6 11 5 12
REMARK SMILES IDX 4 13 3 14 2 15 1 16
REMARK H PARENT
REMARK Flexibility Score: inf
ROOT
ATOM      1  C   UNL     1      33.907 -44.599   2.623  1.00  0.00     0.000 C 
ENDROOT
BRANCH   1   2
ATOM      2  C   UNL     1      34.810 -45.813   2.901  1.00  0.00     0.000 C 
BRANCH   2   3
ATOM      3  C   UNL     1      36.164 -45.729   2.173  1.00  0.00     0.000 C 
BRANCH   3   4
ATOM      4  C   UNL     1      36.389 -46.795   1.081  1.00  0.00     0.000 C 
BRANCH   4   5
ATOM      5  C   UNL     1      35.159 -47.666   0.753  1.00  0.00     0.006 C 
BRANCH   5   6
ATOM      6  C   UNL     1      35.165 -49.050   1.422  1.00  0.00     0.053 C 
BRANCH   6   7
ATOM      7  C   UNL     1      33.804 -49.675   1.426  1.00  0.00     0.041 C 
ATOM      8  O   UNL     1      32.852 -49.123   0.815  1.00  0.00    -0.550 OA
ATOM      9  O   UNL     1      33.579 -50.850   2.133  1.00  0.00    -0.550 OA
ENDBRANCH   6   7
ENDBRANCH   5   6
ENDBRANCH   4   5
ENDBRANCH   3   4
ENDBRANCH   2   3
ENDBRANCH   1   2
BRANCH   1  10
ATOM     10  C   UNL     1      32.821 -44.901   1.577  1.00  0.00     0.000 C 
BRANCH  10  11
ATOM     11  C   UNL     1      32.906 -43.970   0.355  1.00  0.00    -0.000 C 
BRANCH  11  12
ATOM     12  C   UNL     1      33.972 -44.414  -0.663  1.00  0.00    -0.000 C 
BRANCH  12  13
ATOM     13  C   UNL     1      35.222 -43.515  -0.733  1.00  0.00    -0.000 C 
BRANCH  13  14
ATOM     14  C   UNL     1      35.137 -42.212   0.083  1.00  0.00    -0.000 C 
BRANCH  14  15
ATOM     15  C   UNL     1      36.230 -42.081   1.164  1.00  0.00    -0.003 C 
ATOM     16  C   UNL     1      35.742 -41.339   2.408  1.00  0.00     0.004 C 
ENDBRANCH  14  15
ENDBRANCH  13  14
ENDBRANCH  12  13
ENDBRANCH  11  12
ENDBRANCH  10  11
ENDBRANCH   1  10
TORSDOF 12
ENDMDL
MODEL 2
REMARK VINA RESULT:    -3.276      2.871      4.433
REMARK INTER + INTRA:          -7.489
REMARK INTER:                  -6.028
REMARK INTRA:                  -1.461
REMARK UNBOUND:                -1.914
REMARK SMILES CCCCCCCCCCCCCC(=O)[O-]
REMARK SMILES IDX 8 1 9 2 10 3 11 4 12 5 13 6 14 7 15 8 16 9 7 10 6 11 5 12
REMARK SMILES IDX 4 13 3 14 2 15 1 16
REMARK H PARENT
REMARK Flexibility Score: inf
ROOT
ATOM      1  C   UNL     1      35.984 -46.115   2.442  1.00  0.00     0.000 C 
ENDROOT
BRANCH   1   2
ATOM      2  C   UNL     1      35.159 -46.930   3.453  1.00  0.00     0.000 C 
BRANCH   2   3
ATOM      3  C   UNL     1      35.289 -48.449   3.244  1.00  0.00     0.000 C 
BRANCH   3   4
ATOM      4  C   UNL     1      36.735 -48.986   3.219  1.00  0.00     0.000 C 
BRANCH   4   5
ATOM      5  C   UNL     1      37.373 -49.213   4.605  1.00  0.00     0.006 C 
BRANCH   5   6
ATOM      6  C   UNL     1      36.637 -50.238   5.482  1.00  0.00     0.053 C 
BRANCH   6   7
ATOM      7  C   UNL     1      37.001 -51.646   5.124  1.00  0.00     0.041 C 
ATOM      8  O   UNL     1      38.176 -51.925   4.770  1.00  0.00    -0.550 OA
ATOM      9  O   UNL     1      36.035 -52.643   5.150  1.00  0.00    -0.550 OA
ENDBRANCH   6   7
ENDBRANCH   5   6
ENDBRANCH   4   5
ENDBRANCH   3   4
ENDBRANCH   2   3
ENDBRANCH   1   2
BRANCH   1  10
ATOM     10  C   UNL     1      35.330 -44.766   2.100  1.00  0.00     0.000 C 
BRANCH  10  11
ATOM     11  C   UNL     1      33.836 -44.727   2.465  1.00  0.00    -0.000 C 
BRANCH  11  12
ATOM     12  C   UNL     1      32.921 -44.641   1.230  1.00  0.00    -0.000 C 
BRANCH  12  13
ATOM     13  C   UNL     1      33.568 -45.088  -0.095  1.00  0.00    -0.000 C 
BRANCH  13  14
ATOM     14  C   UNL     1      33.022 -46.406  -0.677  1.00  0.00    -0.000 C 
BRANCH  14  15
ATOM     15  C   UNL     1      33.280 -47.636   0.217  1.00  0.00    -0.003 C 
ATOM     16  C   UNL     1      34.387 -48.539  -0.328  1.00  0.00     0.004 C 
ENDBRANCH  14  15
ENDBRANCH  13  14
ENDBRANCH  12  13
ENDBRANCH  11  12
ENDBRANCH  10  11
ENDBRANCH   1  10
TORSDOF 12
ENDMDL
MODEL 3
REMARK VINA RESULT:    -3.265      2.190      4.776
REMARK INTER + INTRA:          -7.471
REMARK INTER:                  -5.649
REMARK INTRA:                  -1.822
REMARK UNBOUND:                -1.914
REMARK SMILES CCCCCCCCCCCCCC(=O)[O-]
REMARK SMILES IDX 8 1 9 2 10 3 11 4 12 5 13 6 14 7 15 8 16 9 7 10 6 11 5 12
REMARK SMILES IDX 4 13 3 14 2 15 1 16
REMARK H PARENT
REMARK Flexibility Score: inf
ROOT
ATOM      1  C   UNL     1      32.716 -43.981   0.419  1.00  0.00     0.000 C 
ENDROOT
BRANCH   1   2
ATOM      2  C   UNL     1      34.107 -43.466   0.009  1.00  0.00     0.000 C 
BRANCH   2   3
ATOM      3  C   UNL     1      34.695 -44.227  -1.193  1.00  0.00     0.000 C 
BRANCH   3   4
ATOM      4  C   UNL     1      35.566 -45.448  -0.833  1.00  0.00     0.000 C 
BRANCH   4   5
ATOM      5  C   UNL     1      35.207 -46.751  -1.578  1.00  0.00     0.006 C 
BRANCH   5   6
ATOM      6  C   UNL     1      33.707 -47.083  -1.589  1.00  0.00     0.053 C 
BRANCH   6   7
ATOM      7  C   UNL     1      33.350 -48.018  -2.703  1.00  0.00     0.041 C 
ATOM      8  O   UNL     1      33.738 -47.782  -3.877  1.00  0.00    -0.550 OA
ATOM      9  O   UNL     1      32.561 -49.134  -2.449  1.00  0.00    -0.550 OA
ENDBRANCH   6   7
ENDBRANCH   5   6
ENDBRANCH   4   5
ENDBRANCH   3   4
ENDBRANCH   2   3
ENDBRANCH   1   2
BRANCH   1  10
ATOM     10  C   UNL     1      32.745 -44.760   1.745  1.00  0.00     0.000 C 
BRANCH  10  11
ATOM     11  C   UNL     1      34.086 -44.612   2.485  1.00  0.00    -0.000 C 
BRANCH  11  12
ATOM     12  C   UNL     1      34.765 -45.964   2.769  1.00  0.00    -0.000 C 
BRANCH  12  13
ATOM     13  C   UNL     1      34.093 -47.184   2.108  1.00  0.00    -0.000 C 
BRANCH  13  14
ATOM     14  C   UNL     1      34.718 -48.546   2.465  1.00  0.00    -0.000 C 
BRANCH  14  15
ATOM     15  C   UNL     1      34.519 -49.625   1.380  1.00  0.00    -0.003 C 
ATOM     16  C   UNL     1      33.050 -49.831   1.015  1.00  0.00     0.004 C 
ENDBRANCH  14  15
ENDBRANCH  13  14
ENDBRANCH  12  13
ENDBRANCH  11  12
ENDBRANCH  10  11
ENDBRANCH   1  10
TORSDOF 12
ENDMDL
MODEL 4
REMARK VINA RESULT:    -3.226      1.951      2.498
REMARK INTER + INTRA:          -7.403
REMARK INTER:                  -5.858
REMARK INTRA:                  -1.546
REMARK UNBOUND:                -1.914
REMARK SMILES CCCCCCCCCCCCCC(=O)[O-]
REMARK SMILES IDX 8 1 9 2 10 3 11 4 12 5 13 6 14 7 15 8 16 9 7 10 6 11 5 12
REMARK SMILES IDX 4 13 3 14 2 15 1 16
REMARK H PARENT
REMARK Flexibility Score: inf
ROOT
ATOM      1  C   UNL     1      35.078 -45.581   2.317  1.00  0.00     0.000 C 
ENDROOT
BRANCH   1   2
ATOM      2  C   UNL     1      35.143 -46.823   3.223  1.00  0.00     0.000 C 
BRANCH   2   3
ATOM      3  C   UNL     1      34.550 -48.078   2.558  1.00  0.00     0.000 C 
BRANCH   3   4
ATOM      4  C   UNL     1      34.762 -48.174   1.033  1.00  0.00     0.000 C 
BRANCH   4   5
ATOM      5  C   UNL     1      33.533 -48.648   0.229  1.00  0.00     0.006 C 
BRANCH   5   6
ATOM      6  C   UNL     1      33.271 -47.850  -1.057  1.00  0.00     0.053 C 
BRANCH   6   7
ATOM      7  C   UNL     1      33.337 -48.718  -2.277  1.00  0.00     0.041 C 
ATOM      8  O   UNL     1      34.421 -49.268  -2.604  1.00  0.00    -0.550 OA
ATOM      9  O   UNL     1      32.210 -48.892  -3.070  1.00  0.00    -0.550 OA
ENDBRANCH   6   7
ENDBRANCH   5   6
ENDBRANCH   4   5
ENDBRANCH   3   4
ENDBRANCH   2   3
ENDBRANCH   1   2
BRANCH   1  10
ATOM     10  C   UNL     1      33.778 -44.782   2.506  1.00  0.00     0.000 C 
BRANCH  10  11
ATOM     11  C   UNL     1      32.952 -44.685   1.211  1.00  0.00    -0.000 C 
BRANCH  11  12
ATOM     12  C   UNL     1      33.812 -44.365  -0.024  1.00  0.00    -0.000 C 
BRANCH  12  13
ATOM     13  C   UNL     1      34.205 -42.883  -0.180  1.00  0.00    -0.000 C 
BRANCH  13  14
ATOM     14  C   UNL     1      35.715 -42.593  -0.073  1.00  0.00    -0.000 C 
BRANCH  14  15
ATOM     15  C   UNL     1      36.052 -41.362   0.795  1.00  0.00    -0.003 C 
ATOM     16  C   UNL     1      35.681 -41.558   2.265  1.00  0.00     0.004 C 
ENDBRANCH  14  15
ENDBRANCH  13  14
ENDBRANCH  12  13
ENDBRANCH  11  12
ENDBRANCH  10  11
ENDBRANCH   1  10
TORSDOF 12
ENDMDL
MODEL 5
REMARK VINA RESULT:    -3.219      2.338      4.116
REMARK INTER + INTRA:          -7.391
REMARK INTER:                  -5.800
REMARK INTRA:                  -1.591
REMARK UNBOUND:                -1.914
REMARK SMILES CCCCCCCCCCCCCC(=O)[O-]
REMARK SMILES IDX 8 1 9 2 10 3 11 4 12 5 13 6 14 7 15 8 16 9 7 10 6 11 5 12
REMARK SMILES IDX 4 13 3 14 2 15 1 16
REMARK H PARENT
REMARK Flexibility Score: inf
ROOT
ATOM      1  C   UNL     1      34.033 -47.766  -0.014  1.00  0.00     0.000 C 
ENDROOT
BRANCH   1   2
ATOM      2  C   UNL     1      34.368 -49.248   0.228  1.00  0.00     0.000 C 
BRANCH   2   3
ATOM      3  C   UNL     1      33.470 -49.896   1.297  1.00  0.00     0.000 C 
BRANCH   3   4
ATOM      4  C   UNL     1      34.222 -50.624   2.430  1.00  0.00     0.000 C 
BRANCH   4   5
ATOM      5  C   UNL     1      35.703 -50.225   2.597  1.00  0.00     0.006 C 
BRANCH   5   6
ATOM      6  C   UNL     1      36.077 -49.748   4.008  1.00  0.00     0.053 C 
BRANCH   6   7
ATOM      7  C   UNL     1      36.789 -50.810   4.788  1.00  0.00     0.041 C 
ATOM      8  O   UNL     1      36.222 -51.908   5.025  1.00  0.00    -0.550 OA
ATOM      9  O   UNL     1      38.067 -50.574   5.279  1.00  0.00    -0.550 OA
ENDBRANCH   6   7
ENDBRANCH   5   6
ENDBRANCH   4   5
ENDBRANCH   3   4
ENDBRANCH   2   3
ENDBRANCH   1   2
BRANCH   1  10
ATOM     10  C   UNL     1      35.253 -46.849   0.172  1.00  0.00     0.000 C 
BRANCH  10  11
ATOM     11  C   UNL     1      35.617 -46.646   1.654  1.00  0.00    -0.000 C 
BRANCH  11  12
ATOM     12  C   UNL     1      34.389 -46.359   2.537  1.00  0.00    -0.000 C 
BRANCH  12  13
ATOM     13  C   UNL     1      33.740 -44.977   2.325  1.00  0.00    -0.000 C 
BRANCH  13  14
ATOM     14  C   UNL     1      34.727 -43.797   2.243  1.00  0.00    -0.000 C 
BRANCH  14  15
ATOM     15  C   UNL     1      34.756 -43.103   0.866  1.00  0.00    -0.003 C 
ATOM     16  C   UNL     1      33.568 -43.491  -0.015  1.00  0.00     0.004 C 
ENDBRANCH  14  15
ENDBRANCH  13  14
ENDBRANCH  12  13
ENDBRANCH  11  12
ENDBRANCH  10  11
ENDBRANCH   1  10
TORSDOF 12
ENDMDL
MODEL 6
REMARK VINA RESULT:    -3.182      2.991      5.410
REMARK INTER + INTRA:          -7.328
REMARK INTER:                  -5.539
REMARK INTRA:                  -1.789
REMARK UNBOUND:                -1.914
REMARK SMILES CCCCCCCCCCCCCC(=O)[O-]
REMARK SMILES IDX 8 1 9 2 10 3 11 4 12 5 13 6 14 7 15 8 16 9 7 10 6 11 5 12
REMARK SMILES IDX 4 13 3 14 2 15 1 16
REMARK H PARENT
REMARK Flexibility Score: inf
ROOT
ATOM      1  C   UNL     1      35.688 -49.558   3.448  1.00  0.00     0.000 C 
ENDROOT
BRANCH   1   2
ATOM      2  C   UNL     1      35.556 -48.033   3.601  1.00  0.00     0.000 C 
BRANCH   2   3
ATOM      3  C   UNL     1      36.487 -47.255   2.654  1.00  0.00     0.000 C 
BRANCH   3   4
ATOM      4  C   UNL     1      36.044 -45.812   2.339  1.00  0.00     0.000 C 
BRANCH   4   5
ATOM      5  C   UNL     1      34.622 -45.445   2.810  1.00  0.00     0.006 C 
BRANCH   5   6
ATOM      6  C   UNL     1      33.755 -44.762   1.741  1.00  0.00     0.053 C 
BRANCH   6   7
ATOM      7  C   UNL     1      34.347 -43.463   1.287  1.00  0.00     0.041 C 
ATOM      8  O   UNL     1      34.204 -43.085   0.095  1.00  0.00    -0.550 OA
ATOM      9  O   UNL     1      35.084 -42.686   2.172  1.00  0.00    -0.550 OA
ENDBRANCH   6   7
ENDBRANCH   5   6
ENDBRANCH   4   5
ENDBRANCH   3   4
ENDBRANCH   2   3
ENDBRANCH   1   2
BRANCH   1  10
ATOM     10  C   UNL     1      35.194 -50.057   2.080  1.00  0.00     0.000 C 
BRANCH  10  11
ATOM     11  C   UNL     1      33.715 -50.480   2.107  1.00  0.00    -0.000 C 
BRANCH  11  12
ATOM     12  C   UNL     1      32.883 -49.819   0.993  1.00  0.00    -0.000 C 
BRANCH  12  13
ATOM     13  C   UNL     1      33.303 -48.381   0.630  1.00  0.00    -0.000 C 
BRANCH  13  14
ATOM     14  C   UNL     1      33.849 -48.200  -0.799  1.00  0.00    -0.000 C 
BRANCH  14  15
ATOM     15  C   UNL     1      35.214 -47.484  -0.858  1.00  0.00    -0.003 C 
ATOM     16  C   UNL     1      35.128 -46.105  -1.512  1.00  0.00     0.004 C 
ENDBRANCH  14  15
ENDBRANCH  13  14
ENDBRANCH  12  13
ENDBRANCH  11  12
ENDBRANCH  10  11
ENDBRANCH   1  10
TORSDOF 12
ENDMDL
MODEL 7
REMARK VINA RESULT:    -3.173      1.624      3.197
REMARK INTER + INTRA:          -7.313
REMARK INTER:                  -5.410
REMARK INTRA:                  -1.903
REMARK UNBOUND:                -1.914
REMARK SMILES CCCCCCCCCCCCCC(=O)[O-]
REMARK SMILES IDX 8 1 9 2 10 3 11 4 12 5 13 6 14 7 15 8 16 9 7 10 6 11 5 12
REMARK SMILES IDX 4 13 3 14 2 15 1 16
REMARK H PARENT
REMARK Flexibility Score: inf
ROOT
ATOM      1  C   UNL     1      32.804 -44.609   1.618  1.00  0.00     0.000 C 
ENDROOT
BRANCH   1   2
ATOM      2  C   UNL     1      34.198 -44.413   2.239  1.00  0.00     0.000 C 
BRANCH   2   3
ATOM      3  C   UNL     1      34.742 -45.693   2.900  1.00  0.00     0.000 C 
BRANCH   3   4
ATOM      4  C   UNL     1      36.169 -46.095   2.473  1.00  0.00     0.000 C 
BRANCH   4   5
ATOM      5  C   UNL     1      36.725 -47.361   3.157  1.00  0.00     0.006 C 
BRANCH   5   6
ATOM      6  C   UNL     1      35.648 -48.335   3.659  1.00  0.00     0.053 C 
BRANCH   6   7
ATOM      7  C   UNL     1      35.455 -49.488   2.722  1.00  0.00     0.041 C 
ATOM      8  O   UNL     1      36.448 -50.013   2.153  1.00  0.00    -0.550 OA
ATOM      9  O   UNL     1      34.177 -49.961   2.453  1.00  0.00    -0.550 OA
ENDBRANCH   6   7
ENDBRANCH   5   6
ENDBRANCH   4   5
ENDBRANCH   3   4
ENDBRANCH   2   3
ENDBRANCH   1   2
BRANCH   1  10
ATOM     10  C   UNL     1      32.726 -44.091   0.172  1.00  0.00     0.000 C 
BRANCH  10  11
ATOM     11  C   UNL     1      33.925 -43.202  -0.200  1.00  0.00    -0.000 C 
BRANCH  11  12
ATOM     12  C   UNL     1      34.894 -43.883  -1.183  1.00  0.00    -0.000 C 
BRANCH  12  13
ATOM     13  C   UNL     1      34.507 -45.317  -1.593  1.00  0.00    -0.000 C 
BRANCH  13  14
ATOM     14  C   UNL     1      35.528 -46.405  -1.209  1.00  0.00    -0.000 C 
BRANCH  14  15
ATOM     15  C   UNL     1      34.908 -47.608  -0.468  1.00  0.00    -0.003 C 
ATOM     16  C   UNL     1      33.380 -47.605  -0.513  1.00  0.00     0.004 C 
ENDBRANCH  14  15
ENDBRANCH  13  14
ENDBRANCH  12  13
ENDBRANCH  11  12
ENDBRANCH  10  11
ENDBRANCH   1  10
TORSDOF 12
ENDMDL
MODEL 8
REMARK VINA RESULT:    -3.140      2.003      3.846
REMARK INTER + INTRA:          -7.258
REMARK INTER:                  -5.360
REMARK INTRA:                  -1.898
REMARK UNBOUND:                -1.914
REMARK SMILES CCCCCCCCCCCCCC(=O)[O-]
REMARK SMILES IDX 8 1 9 2 10 3 11 4 12 5 13 6 14 7 15 8 16 9 7 10 6 11 5 12
REMARK SMILES IDX 4 13 3 14 2 15 1 16
REMARK H PARENT
REMARK Flexibility Score: inf
ROOT
ATOM      1  C   UNL     1      33.402 -43.859  -0.354  1.00  0.00     0.000 C 
ENDROOT
BRANCH   1   2
ATOM      2  C   UNL     1      32.798 -44.227   1.013  1.00  0.00     0.000 C 
BRANCH   2   3
ATOM      3  C   UNL     1      33.372 -45.535   1.586  1.00  0.00     0.000 C 
BRANCH   3   4
ATOM      4  C   UNL     1      33.216 -46.772   0.678  1.00  0.00     0.000 C 
BRANCH   4   5
ATOM      5  C   UNL     1      34.478 -47.650   0.545  1.00  0.00     0.006 C 
BRANCH   5   6
ATOM      6  C   UNL     1      34.204 -49.085   0.067  1.00  0.00     0.053 C 
BRANCH   6   7
ATOM      7  C   UNL     1      33.490 -49.894   1.106  1.00  0.00     0.041 C 
ATOM      8  O   UNL     1      34.099 -50.279   2.138  1.00  0.00    -0.550 OA
ATOM      9  O   UNL     1      32.160 -50.250   0.918  1.00  0.00    -0.550 OA
ENDBRANCH   6   7
ENDBRANCH   5   6
ENDBRANCH   4   5
ENDBRANCH   3   4
ENDBRANCH   2   3
ENDBRANCH   1   2
BRANCH   1  10
ATOM     10  C   UNL     1      34.880 -43.448  -0.252  1.00  0.00     0.000 C 
BRANCH  10  11
ATOM     11  C   UNL     1      35.747 -44.088  -1.351  1.00  0.00    -0.000 C 
BRANCH  11  12
ATOM     12  C   UNL     1      34.922 -44.575  -2.555  1.00  0.00    -0.000 C 
BRANCH  12  13
ATOM     13  C   UNL     1      35.023 -46.085  -2.850  1.00  0.00    -0.000 C 
BRANCH  13  14
ATOM     14  C   UNL     1      33.674 -46.817  -2.982  1.00  0.00    -0.000 C 
BRANCH  14  15
ATOM     15  C   UNL     1      32.580 -45.985  -3.682  1.00  0.00    -0.003 C 
ATOM     16  C   UNL     1      31.371 -45.726  -2.784  1.00  0.00     0.004 C 
ENDBRANCH  14  15
ENDBRANCH  13  14
ENDBRANCH  12  13
ENDBRANCH  11  12
ENDBRANCH  10  11
ENDBRANCH   1  10
TORSDOF 12
ENDMDL
MODEL 9
REMARK VINA RESULT:    -3.110      2.299      4.274
REMARK INTER + INTRA:          -7.207
REMARK INTER:                  -5.566
REMARK INTRA:                  -1.641
REMARK UNBOUND:                -1.914
REMARK SMILES CCCCCCCCCCCCCC(=O)[O-]
REMARK SMILES IDX 8 1 9 2 10 3 11 4 12 5 13 6 14 7 15 8 16 9 7 10 6 11 5 12
REMARK SMILES IDX 4 13 3 14 2 15 1 16
REMARK H PARENT
REMARK Flexibility Score: inf
ROOT
ATOM      1  C   UNL     1      35.877 -49.079   3.563  1.00  0.00     0.000 C 
ENDROOT
BRANCH   1   2
ATOM      2  C   UNL     1      35.353 -50.245   2.707  1.00  0.00     0.000 C 
BRANCH   2   3
ATOM      3  C   UNL     1      33.994 -49.941   2.051  1.00  0.00     0.000 C 
BRANCH   3   4
ATOM      4  C   UNL     1      34.066 -49.470   0.584  1.00  0.00     0.000 C 
BRANCH   4   5
ATOM      5  C   UNL     1      33.223 -48.220   0.256  1.00  0.00     0.006 C 
BRANCH   5   6
ATOM      6  C   UNL     1      33.857 -47.284  -0.785  1.00  0.00     0.053 C 
BRANCH   6   7
ATOM      7  C   UNL     1      32.916 -46.980  -1.911  1.00  0.00     0.041 C 
ATOM      8  O   UNL     1      32.732 -47.824  -2.827  1.00  0.00    -0.550 OA
ATOM      9  O   UNL     1      32.268 -45.753  -1.965  1.00  0.00    -0.550 OA
ENDBRANCH   6   7
ENDBRANCH   5   6
ENDBRANCH   4   5
ENDBRANCH   3   4
ENDBRANCH   2   3
ENDBRANCH   1   2
BRANCH   1  10
ATOM     10  C   UNL     1      36.894 -48.206   2.808  1.00  0.00     0.000 C 
BRANCH  10  11
ATOM     11  C   UNL     1      36.294 -46.865   2.351  1.00  0.00    -0.000 C 
BRANCH  11  12
ATOM     12  C   UNL     1      35.153 -46.378   3.262  1.00  0.00    -0.000 C 
BRANCH  12  13
ATOM     13  C   UNL     1      34.023 -45.616   2.543  1.00  0.00    -0.000 C 
BRANCH  13  14
ATOM     14  C   UNL     1      34.408 -44.220   2.016  1.00  0.00    -0.000 C 
BRANCH  14  15
ATOM     15  C   UNL     1      33.622 -43.789   0.761  1.00  0.00    -0.003 C 
ATOM     16  C   UNL     1      34.471 -42.980  -0.218  1.00  0.00     0.004 C 
ENDBRANCH  14  15
ENDBRANCH  13  14
ENDBRANCH  12  13
ENDBRANCH  11  12
ENDBRANCH  10  11
ENDBRANCH   1  10
TORSDOF 12
ENDMDL
