MODEL 1
REMARK VINA RESULT:    -2.959      0.000      0.000
REMARK INTER + INTRA:          -7.029
REMARK INTER:                  -5.035
REMARK INTRA:                  -1.994
REMARK UNBOUND:                -1.994
REMARK SMILES CCCCCCCCCCCCCC(=O)[O-]
REMARK SMILES IDX 8 1 9 2 10 3 11 4 12 5 13 6 14 7 15 8 16 9 7 10 6 11 5 12
REMARK SMILES IDX 4 13 3 14 2 15 1 16
REMARK H PARENT
REMARK Flexibility Score: inf
ROOT
ATOM      1  C   UNL     1      16.198  20.230  49.362  1.00  0.00     0.000 C 
ENDROOT
BRANCH   1   2
ATOM      2  C   UNL     1      17.538  20.796  48.865  1.00  0.00     0.000 C 
BRANCH   2   3
ATOM      3  C   UNL     1      18.328  19.791  48.014  1.00  0.00     0.000 C 
BRANCH   3   4
ATOM      4  C   UNL     1      17.569  18.461  47.892  1.00  0.00     0.000 C 
BRANCH   4   5
ATOM      5  C   UNL     1      17.207  18.111  46.436  1.00  0.00     0.006 C 
BRANCH   5   6
ATOM      6  C   UNL     1      15.861  18.685  45.964  1.00  0.00     0.053 C 
BRANCH   6   7
ATOM      7  C   UNL     1      14.702  17.857  46.428  1.00  0.00     0.041 C 
ATOM      8  O   UNL     1      14.496  16.721  45.925  1.00  0.00    -0.550 OA
ATOM      9  O   UNL     1      13.873  18.325  47.439  1.00  0.00    -0.550 OA
ENDBRANCH   6   7
ENDBRANCH   5   6
ENDBRANCH   4   5
ENDBRANCH   3   4
ENDBRANCH   2   3
ENDBRANCH   1   2
BRANCH   1  10
ATOM     10  C   UNL     1      15.884  20.634  50.811  1.00  0.00     0.000 C 
BRANCH  10  11
ATOM     11  C   UNL     1      15.312  19.446  51.599  1.00  0.00    -0.000 C 
BRANCH  11  12
ATOM     12  C   UNL     1      15.427  18.118  50.835  1.00  0.00    -0.000 C 
BRANCH  12  13
ATOM     13  C   UNL     1      16.015  16.988  51.697  1.00  0.00    -0.000 C 
BRANCH  13  14
ATOM     14  C   UNL     1      17.349  17.377  52.351  1.00  0.00    -0.000 C 
BRANCH  14  15
ATOM     15  C   UNL     1      18.502  17.450  51.339  1.00  0.00    -0.003 C 
ATOM     16  C   UNL     1      19.289  18.749  51.495  1.00  0.00     0.004 C 
ENDBRANCH  14  15
ENDBRANCH  13  14
ENDBRANCH  12  13
ENDBRANCH  11  12
ENDBRANCH  10  11
ENDBRANCH   1  10
TORSDOF 12
ENDMDL
MODEL 2
REMARK VINA RESULT:    -2.837      3.582      6.143
REMARK INTER + INTRA:          -6.822
REMARK INTER:                  -5.310
REMARK INTRA:                  -1.512
REMARK UNBOUND:                -1.994
REMARK SMILES CCCCCCCCCCCCCC(=O)[O-]
REMARK SMILES IDX 8 1 9 2 10 3 11 4 12 5 13 6 14 7 15 8 16 9 7 10 6 11 5 12
REMARK SMILES IDX 4 13 3 14 2 15 1 16
REMARK H PARENT
REMARK Flexibility Score: inf
ROOT
ATOM      1  C   UNL     1      17.671  19.406  49.922  1.00  0.00     0.000 C 
ENDROOT
BRANCH   1   2
ATOM      2  C   UNL     1      17.701  17.869  49.917  1.00  0.00     0.000 C 
BRANCH   2   3
ATOM      3  C   UNL     1      17.904  17.275  51.318  1.00  0.00     0.000 C 
BRANCH   3   4
ATOM      4  C   UNL     1      16.555  17.028  52.009  1.00  0.00     0.000 C 
BRANCH   4   5
ATOM      5  C   UNL     1      16.245  18.069  53.102  1.00  0.00     0.006 C 
BRANCH   5   6
ATOM      6  C   UNL     1      17.343  18.212  54.168  1.00  0.00     0.053 C 
BRANCH   6   7
ATOM      7  C   UNL     1      16.809  18.029  55.555  1.00  0.00     0.041 C 
ATOM      8  O   UNL     1      15.593  18.247  55.798  1.00  0.00    -0.550 OA
ATOM      9  O   UNL     1      17.646  17.586  56.570  1.00  0.00    -0.550 OA
ENDBRANCH   6   7
ENDBRANCH   5   6
ENDBRANCH   4   5
ENDBRANCH   3   4
ENDBRANCH   2   3
ENDBRANCH   1   2
BRANCH   1  10
ATOM     10  C   UNL     1      16.318  19.973  49.465  1.00  0.00     0.000 C 
BRANCH  10  11
ATOM     11  C   UNL     1      15.349  18.841  49.088  1.00  0.00    -0.000 C 
BRANCH  11  12
ATOM     12  C   UNL     1      14.620  19.105  47.762  1.00  0.00    -0.000 C 
BRANCH  12  13
ATOM     13  C   UNL     1      14.638  17.886  46.823  1.00  0.00    -0.000 C 
BRANCH  13  14
ATOM     14  C   UNL     1      16.051  17.546  46.324  1.00  0.00    -0.000 C 
BRANCH  14  15
ATOM     15  C   UNL     1      16.732  18.736  45.631  1.00  0.00    -0.003 C 
ATOM     16  C   UNL     1      18.117  18.994  46.218  1.00  0.00     0.004 C 
ENDBRANCH  14  15
ENDBRANCH  13  14
ENDBRANCH  12  13
ENDBRANCH  11  12
ENDBRANCH  10  11
ENDBRANCH   1  10
TORSDOF 12
ENDMDL
MODEL 3
REMARK VINA RESULT:    -2.820     11.128     13.329
REMARK INTER + INTRA:          -6.792
REMARK INTER:                  -4.763
REMARK INTRA:                  -2.030
REMARK UNBOUND:                -1.994
REMARK SMILES CCCCCCCCCCCCCC(=O)[O-]
REMARK SMILES IDX 8 1 9 2 10 3 11 4 12 5 13 6 14 7 15 8 16 9 7 10 6 11 5 12
REMARK SMILES IDX 4 13 3 14 2 15 1 16
REMARK H PARENT
REMARK Flexibility Score: inf
ROOT
ATOM      1  C   UNL     1      19.085  27.697  55.508  1.00  0.00     0.000 C 
ENDROOT
BRANCH   1   2
ATOM      2  C   UNL     1      20.126  27.544  54.387  1.00  0.00     0.000 C 
BRANCH   2   3
ATOM      3  C   UNL     1      20.946  28.823  54.161  1.00  0.00     0.000 C 
BRANCH   3   4
ATOM      4  C   UNL     1      20.471  29.950  55.090  1.00  0.00     0.000 C 
BRANCH   4   5
ATOM      5  C   UNL     1      21.544  30.377  56.109  1.00  0.00     0.006 C 
BRANCH   5   6
ATOM      6  C   UNL     1      21.218  30.006  57.564  1.00  0.00     0.053 C 
BRANCH   6   7
ATOM      7  C   UNL     1      21.795  28.678  57.949  1.00  0.00     0.041 C 
ATOM      8  O   UNL     1      21.392  28.090  58.987  1.00  0.00    -0.550 OA
ATOM      9  O   UNL     1      22.750  28.075  57.142  1.00  0.00    -0.550 OA
ENDBRANCH   6   7
ENDBRANCH   5   6
ENDBRANCH   4   5
ENDBRANCH   3   4
ENDBRANCH   2   3
ENDBRANCH   1   2
BRANCH   1  10
ATOM     10  C   UNL     1      17.901  26.729  55.353  1.00  0.00     0.000 C 
BRANCH  10  11
ATOM     11  C   UNL     1      16.564  27.483  55.427  1.00  0.00    -0.000 C 
BRANCH  11  12
ATOM     12  C   UNL     1      16.746  29.009  55.433  1.00  0.00    -0.000 C 
BRANCH  12  13
ATOM     13  C   UNL     1      16.259  29.669  54.131  1.00  0.00    -0.000 C 
BRANCH  13  14
ATOM     14  C   UNL     1      17.387  30.391  53.378  1.00  0.00    -0.000 C 
BRANCH  14  15
ATOM     15  C   UNL     1      17.891  29.595  52.165  1.00  0.00    -0.003 C 
ATOM     16  C   UNL     1      16.940  28.450  51.826  1.00  0.00     0.004 C 
ENDBRANCH  14  15
ENDBRANCH  13  14
ENDBRANCH  12  13
ENDBRANCH  11  12
ENDBRANCH  10  11
ENDBRANCH   1  10
TORSDOF 12
ENDMDL
MODEL 4
REMARK VINA RESULT:    -2.786     17.025     18.853
REMARK INTER + INTRA:          -6.736
REMARK INTER:                  -4.626
REMARK INTRA:                  -2.109
REMARK UNBOUND:                -1.994
REMARK SMILES CCCCCCCCCCCCCC(=O)[O-]
REMARK SMILES IDX 8 1 9 2 10 3 11 4 12 5 13 6 14 7 15 8 16 9 7 10 6 11 5 12
REMARK SMILES IDX 4 13 3 14 2 15 1 16
REMARK H PARENT
REMARK Flexibility Score: inf
ROOT
ATOM      1  C   UNL     1      29.866  33.735  52.782  1.00  0.00     0.000 C 
ENDROOT
BRANCH   1   2
ATOM      2  C   UNL     1      28.732  34.443  53.541  1.00  0.00     0.000 C 
BRANCH   2   3
ATOM      3  C   UNL     1      27.338  34.020  53.055  1.00  0.00     0.000 C 
BRANCH   3   4
ATOM      4  C   UNL     1      27.437  33.166  51.783  1.00  0.00     0.000 C 
BRANCH   4   5
ATOM      5  C   UNL     1      26.301  32.132  51.667  1.00  0.00     0.006 C 
BRANCH   5   6
ATOM      6  C   UNL     1      25.205  32.275  52.736  1.00  0.00     0.053 C 
BRANCH   6   7
ATOM      7  C   UNL     1      24.998  31.004  53.502  1.00  0.00     0.041 C 
ATOM      8  O   UNL     1      25.430  29.913  53.047  1.00  0.00    -0.550 OA
ATOM      9  O   UNL     1      24.358  31.032  54.735  1.00  0.00    -0.550 OA
ENDBRANCH   6   7
ENDBRANCH   5   6
ENDBRANCH   4   5
ENDBRANCH   3   4
ENDBRANCH   2   3
ENDBRANCH   1   2
BRANCH   1  10
ATOM     10  C   UNL     1      31.138  33.580  53.629  1.00  0.00     0.000 C 
BRANCH  10  11
ATOM     11  C   UNL     1      30.912  34.097  55.058  1.00  0.00    -0.000 C 
BRANCH  11  12
ATOM     12  C   UNL     1      31.243  33.044  56.127  1.00  0.00    -0.000 C 
BRANCH  12  13
ATOM     13  C   UNL     1      30.577  31.686  55.845  1.00  0.00    -0.000 C 
BRANCH  13  14
ATOM     14  C   UNL     1      29.132  31.618  56.362  1.00  0.00    -0.000 C 
BRANCH  14  15
ATOM     15  C   UNL     1      28.166  31.011  55.334  1.00  0.00    -0.003 C 
ATOM     16  C   UNL     1      28.922  30.459  54.128  1.00  0.00     0.004 C 
ENDBRANCH  14  15
ENDBRANCH  13  14
ENDBRANCH  12  13
ENDBRANCH  11  12
ENDBRANCH  10  11
ENDBRANCH   1  10
TORSDOF 12
ENDMDL
MODEL 5
REMARK VINA RESULT:    -2.771     11.280     13.488
REMARK INTER + INTRA:          -6.709
REMARK INTER:                  -5.094
REMARK INTRA:                  -1.615
REMARK UNBOUND:                -1.994
REMARK SMILES CCCCCCCCCCCCCC(=O)[O-]
REMARK SMILES IDX 8 1 9 2 10 3 11 4 12 5 13 6 14 7 15 8 16 9 7 10 6 11 5 12
REMARK SMILES IDX 4 13 3 14 2 15 1 16
REMARK H PARENT
REMARK Flexibility Score: inf
ROOT
ATOM      1  C   UNL     1      21.474  29.027  54.584  1.00  0.00     0.000 C 
ENDROOT
BRANCH   1   2
ATOM      2  C   UNL     1      21.571  30.309  55.427  1.00  0.00     0.000 C 
BRANCH   2   3
ATOM      3  C   UNL     1      22.382  30.112  56.716  1.00  0.00     0.000 C 
BRANCH   3   4
ATOM      4  C   UNL     1      21.530  30.431  57.953  1.00  0.00     0.000 C 
BRANCH   4   5
ATOM      5  C   UNL     1      21.028  29.166  58.675  1.00  0.00     0.006 C 
BRANCH   5   6
ATOM      6  C   UNL     1      19.732  28.578  58.092  1.00  0.00     0.053 C 
BRANCH   6   7
ATOM      7  C   UNL     1      19.899  27.148  57.678  1.00  0.00     0.041 C 
ATOM      8  O   UNL     1      18.918  26.361  57.715  1.00  0.00    -0.550 OA
ATOM      9  O   UNL     1      21.130  26.696  57.220  1.00  0.00    -0.550 OA
ENDBRANCH   6   7
ENDBRANCH   5   6
ENDBRANCH   4   5
ENDBRANCH   3   4
ENDBRANCH   2   3
ENDBRANCH   1   2
BRANCH   1  10
ATOM     10  C   UNL     1      20.022  28.621  54.289  1.00  0.00     0.000 C 
BRANCH  10  11
ATOM     11  C   UNL     1      19.047  29.739  54.691  1.00  0.00    -0.000 C 
BRANCH  11  12
ATOM     12  C   UNL     1      18.173  30.211  53.519  1.00  0.00    -0.000 C 
BRANCH  12  13
ATOM     13  C   UNL     1      16.681  29.898  53.730  1.00  0.00    -0.000 C 
BRANCH  13  14
ATOM     14  C   UNL     1      16.404  29.229  55.085  1.00  0.00    -0.000 C 
BRANCH  14  15
ATOM     15  C   UNL     1      15.758  27.844  54.937  1.00  0.00    -0.003 C 
ATOM     16  C   UNL     1      16.819  26.754  54.807  1.00  0.00     0.004 C 
ENDBRANCH  14  15
ENDBRANCH  13  14
ENDBRANCH  12  13
ENDBRANCH  11  12
ENDBRANCH  10  11
ENDBRANCH   1  10
TORSDOF 12
ENDMDL
MODEL 6
REMARK VINA RESULT:    -2.758     10.997     13.208
REMARK INTER + INTRA:          -6.687
REMARK INTER:                  -4.565
REMARK INTRA:                  -2.122
REMARK UNBOUND:                -1.994
REMARK SMILES CCCCCCCCCCCCCC(=O)[O-]
REMARK SMILES IDX 8 1 9 2 10 3 11 4 12 5 13 6 14 7 15 8 16 9 7 10 6 11 5 12
REMARK SMILES IDX 4 13 3 14 2 15 1 16
REMARK H PARENT
REMARK Flexibility Score: inf
ROOT
ATOM      1  C   UNL     1      16.888  27.686  55.722  1.00  0.00     0.000 C 
ENDROOT
BRANCH   1   2
ATOM      2  C   UNL     1      18.051  26.702  55.519  1.00  0.00     0.000 C 
BRANCH   2   3
ATOM      3  C   UNL     1      19.412  27.305  55.897  1.00  0.00     0.000 C 
BRANCH   3   4
ATOM      4  C   UNL     1      19.248  28.739  56.422  1.00  0.00     0.000 C 
BRANCH   4   5
ATOM      5  C   UNL     1      20.121  29.757  55.662  1.00  0.00     0.006 C 
BRANCH   5   6
ATOM      6  C   UNL     1      21.604  29.366  55.562  1.00  0.00     0.053 C 
BRANCH   6   7
ATOM      7  C   UNL     1      22.444  30.079  56.577  1.00  0.00     0.041 C 
ATOM      8  O   UNL     1      21.908  30.583  57.599  1.00  0.00    -0.550 OA
ATOM      9  O   UNL     1      23.821  30.156  56.410  1.00  0.00    -0.550 OA
ENDBRANCH   6   7
ENDBRANCH   5   6
ENDBRANCH   4   5
ENDBRANCH   3   4
ENDBRANCH   2   3
ENDBRANCH   1   2
BRANCH   1  10
ATOM     10  C   UNL     1      15.784  27.523  54.666  1.00  0.00     0.000 C 
BRANCH  10  11
ATOM     11  C   UNL     1      15.704  28.763  53.762  1.00  0.00    -0.000 C 
BRANCH  11  12
ATOM     12  C   UNL     1      16.594  29.914  54.255  1.00  0.00    -0.000 C 
BRANCH  12  13
ATOM     13  C   UNL     1      17.548  30.433  53.166  1.00  0.00    -0.000 C 
BRANCH  13  14
ATOM     14  C   UNL     1      17.788  29.405  52.051  1.00  0.00    -0.000 C 
BRANCH  14  15
ATOM     15  C   UNL     1      19.044  28.555  52.292  1.00  0.00    -0.003 C 
ATOM     16  C   UNL     1      18.762  27.075  52.051  1.00  0.00     0.004 C 
ENDBRANCH  14  15
ENDBRANCH  13  14
ENDBRANCH  12  13
ENDBRANCH  11  12
ENDBRANCH  10  11
ENDBRANCH   1  10
TORSDOF 12
ENDMDL
MODEL 7
REMARK VINA RESULT:    -2.744     17.825     19.798
REMARK INTER + INTRA:          -6.663
REMARK INTER:                  -4.609
REMARK INTRA:                  -2.054
REMARK UNBOUND:                -1.994
REMARK SMILES CCCCCCCCCCCCCC(=O)[O-]
REMARK SMILES IDX 8 1 9 2 10 3 11 4 12 5 13 6 14 7 15 8 16 9 7 10 6 11 5 12
REMARK SMILES IDX 4 13 3 14 2 15 1 16
REMARK H PARENT
REMARK Flexibility Score: inf
ROOT
ATOM      1  C   UNL     1      31.556  30.941  52.661  1.00  0.00     0.000 C 
ENDROOT
BRANCH   1   2
ATOM      2  C   UNL     1      31.610  32.474  52.758  1.00  0.00     0.000 C 
BRANCH   2   3
ATOM      3  C   UNL     1      30.262  33.136  52.436  1.00  0.00     0.000 C 
BRANCH   3   4
ATOM      4  C   UNL     1      29.940  34.244  53.450  1.00  0.00     0.000 C 
BRANCH   4   5
ATOM      5  C   UNL     1      28.436  34.572  53.520  1.00  0.00     0.006 C 
BRANCH   5   6
ATOM      6  C   UNL     1      27.548  33.644  52.676  1.00  0.00     0.053 C 
BRANCH   6   7
ATOM      7  C   UNL     1      26.095  33.801  53.007  1.00  0.00     0.041 C 
ATOM      8  O   UNL     1      25.596  34.950  53.130  1.00  0.00    -0.550 OA
ATOM      9  O   UNL     1      25.288  32.679  53.145  1.00  0.00    -0.550 OA
ENDBRANCH   6   7
ENDBRANCH   5   6
ENDBRANCH   4   5
ENDBRANCH   3   4
ENDBRANCH   2   3
ENDBRANCH   1   2
BRANCH   1  10
ATOM     10  C   UNL     1      32.159  30.248  53.893  1.00  0.00     0.000 C 
BRANCH  10  11
ATOM     11  C   UNL     1      32.665  31.282  54.911  1.00  0.00    -0.000 C 
BRANCH  11  12
ATOM     12  C   UNL     1      31.911  31.214  56.248  1.00  0.00    -0.000 C 
BRANCH  12  13
ATOM     13  C   UNL     1      30.597  32.015  56.229  1.00  0.00    -0.000 C 
BRANCH  13  14
ATOM     14  C   UNL     1      29.363  31.129  56.454  1.00  0.00    -0.000 C 
BRANCH  14  15
ATOM     15  C   UNL     1      28.282  31.340  55.383  1.00  0.00    -0.003 C 
ATOM     16  C   UNL     1      28.436  30.338  54.243  1.00  0.00     0.004 C 
ENDBRANCH  14  15
ENDBRANCH  13  14
ENDBRANCH  12  13
ENDBRANCH  11  12
ENDBRANCH  10  11
ENDBRANCH   1  10
TORSDOF 12
ENDMDL
MODEL 8
REMARK VINA RESULT:    -2.687     11.000     12.868
REMARK INTER + INTRA:          -6.566
REMARK INTER:                  -4.867
REMARK INTRA:                  -1.699
REMARK UNBOUND:                -1.994
REMARK SMILES CCCCCCCCCCCCCC(=O)[O-]
REMARK SMILES IDX 8 1 9 2 10 3 11 4 12 5 13 6 14 7 15 8 16 9 7 10 6 11 5 12
REMARK SMILES IDX 4 13 3 14 2 15 1 16
REMARK H PARENT
REMARK Flexibility Score: inf
ROOT
ATOM      1  C   UNL     1      20.199  27.941  57.416  1.00  0.00     0.000 C 
ENDROOT
BRANCH   1   2
ATOM      2  C   UNL     1      18.963  28.712  56.927  1.00  0.00     0.000 C 
BRANCH   2   3
ATOM      3  C   UNL     1      18.648  28.453  55.446  1.00  0.00     0.000 C 
BRANCH   3   4
ATOM      4  C   UNL     1      18.871  29.721  54.609  1.00  0.00     0.000 C 
BRANCH   4   5
ATOM      5  C   UNL     1      17.639  30.107  53.769  1.00  0.00     0.006 C 
BRANCH   5   6
ATOM      6  C   UNL     1      16.310  29.551  54.305  1.00  0.00     0.053 C 
BRANCH   6   7
ATOM      7  C   UNL     1      15.593  28.722  53.284  1.00  0.00     0.041 C 
ATOM      8  O   UNL     1      16.191  28.350  52.240  1.00  0.00    -0.550 OA
ATOM      9  O   UNL     1      14.278  28.333  53.502  1.00  0.00    -0.550 OA
ENDBRANCH   6   7
ENDBRANCH   5   6
ENDBRANCH   4   5
ENDBRANCH   3   4
ENDBRANCH   2   3
ENDBRANCH   1   2
BRANCH   1  10
ATOM     10  C   UNL     1      21.102  28.785  58.329  1.00  0.00     0.000 C 
BRANCH  10  11
ATOM     11  C   UNL     1      21.344  30.176  57.724  1.00  0.00    -0.000 C 
BRANCH  11  12
ATOM     12  C   UNL     1      22.633  30.242  56.890  1.00  0.00    -0.000 C 
BRANCH  12  13
ATOM     13  C   UNL     1      22.359  30.252  55.376  1.00  0.00    -0.000 C 
BRANCH  13  14
ATOM     14  C   UNL     1      23.235  29.248  54.611  1.00  0.00    -0.000 C 
BRANCH  14  15
ATOM     15  C   UNL     1      22.850  27.789  54.900  1.00  0.00    -0.003 C 
ATOM     16  C   UNL     1      21.816  27.285  53.897  1.00  0.00     0.004 C 
ENDBRANCH  14  15
ENDBRANCH  13  14
ENDBRANCH  12  13
ENDBRANCH  11  12
ENDBRANCH  10  11
ENDBRANCH   1  10
TORSDOF 12
ENDMDL
MODEL 9
REMARK VINA RESULT:    -2.667     11.231     13.495
REMARK INTER + INTRA:          -6.533
REMARK INTER:                  -4.938
REMARK INTRA:                  -1.595
REMARK UNBOUND:                -1.994
REMARK SMILES CCCCCCCCCCCCCC(=O)[O-]
REMARK SMILES IDX 8 1 9 2 10 3 11 4 12 5 13 6 14 7 15 8 16 9 7 10 6 11 5 12
REMARK SMILES IDX 4 13 3 14 2 15 1 16
REMARK H PARENT
REMARK Flexibility Score: inf
ROOT
ATOM      1  C   UNL     1      18.617  29.081  55.582  1.00  0.00     0.000 C 
ENDROOT
BRANCH   1   2
ATOM      2  C   UNL     1      19.336  27.723  55.607  1.00  0.00     0.000 C 
BRANCH   2   3
ATOM      3  C   UNL     1      19.866  27.357  57.001  1.00  0.00     0.000 C 
BRANCH   3   4
ATOM      4  C   UNL     1      19.642  28.509  57.992  1.00  0.00     0.000 C 
BRANCH   4   5
ATOM      5  C   UNL     1      20.959  29.126  58.500  1.00  0.00     0.006 C 
BRANCH   5   6
ATOM      6  C   UNL     1      21.486  30.286  57.640  1.00  0.00     0.053 C 
BRANCH   6   7
ATOM      7  C   UNL     1      22.611  29.859  56.747  1.00  0.00     0.041 C 
ATOM      8  O   UNL     1      23.179  28.751  56.932  1.00  0.00    -0.550 OA
ATOM      9  O   UNL     1      23.006  30.669  55.690  1.00  0.00    -0.550 OA
ENDBRANCH   6   7
ENDBRANCH   5   6
ENDBRANCH   4   5
ENDBRANCH   3   4
ENDBRANCH   2   3
ENDBRANCH   1   2
BRANCH   1  10
ATOM     10  C   UNL     1      18.884  29.870  54.292  1.00  0.00     0.000 C 
BRANCH  10  11
ATOM     11  C   UNL     1      17.585  30.082  53.499  1.00  0.00    -0.000 C 
BRANCH  11  12
ATOM     12  C   UNL     1      16.328  29.898  54.365  1.00  0.00    -0.000 C 
BRANCH  12  13
ATOM     13  C   UNL     1      15.417  28.768  53.854  1.00  0.00    -0.000 C 
BRANCH  13  14
ATOM     14  C   UNL     1      16.090  27.911  52.771  1.00  0.00    -0.000 C 
BRANCH  14  15
ATOM     15  C   UNL     1      16.552  26.546  53.302  1.00  0.00    -0.003 C 
ATOM     16  C   UNL     1      15.934  26.249  54.665  1.00  0.00     0.004 C 
ENDBRANCH  14  15
ENDBRANCH  13  14
ENDBRANCH  12  13
ENDBRANCH  11  12
ENDBRANCH  10  11
ENDBRANCH   1  10
TORSDOF 12
ENDMDL
