MODEL 1
REMARK VINA RESULT:    -6.611      0.000      0.000
REMARK INTER + INTRA:          -7.692
REMARK INTER:                  -7.964
REMARK INTRA:                   0.271
REMARK UNBOUND:                 0.271
REMARK SMILES O=c1c(O)c(-c2ccc(O)c(O)c2)oc2cc(O)cc(O)c12
REMARK SMILES IDX 5 1 3 2 2 3 1 4 22 5 20 6 19 7 17 8 16 9 15 10 14 11 6 12
REMARK SMILES IDX 7 13 8 14 9 15 13 16 11 17 10 18 12 20 4 22 21 24 18 26
REMARK H PARENT 10 19 12 21 4 23 21 25 18 27
REMARK Flexibility Score: inf
ROOT
ATOM      1  C   UNL     1     173.221 175.178 176.657  1.00  0.00     0.180 A 
ATOM      2  C   UNL     1     174.256 175.804 175.943  1.00  0.00     0.208 A 
ATOM      3  C   UNL     1     173.940 176.552 174.797  1.00  0.00     0.238 A 
ATOM      4  O   UNL     1     174.877 177.065 174.132  1.00  0.00    -0.285 OA
ATOM      5  C   UNL     1     172.591 176.676 174.388  1.00  0.00     0.111 A 
ATOM      6  C   UNL     1     172.151 177.442 173.267  1.00  0.00     0.134 A 
ATOM      7  C   UNL     1     170.806 177.388 172.878  1.00  0.00     0.093 A 
ATOM      8  C   UNL     1     169.874 176.648 173.610  1.00  0.00     0.123 A 
ATOM      9  C   UNL     1     170.283 175.946 174.741  1.00  0.00     0.094 A 
ATOM     10  C   UNL     1     171.624 175.951 175.133  1.00  0.00     0.146 A 
ATOM     11  O   UNL     1     171.973 175.259 176.210  1.00  0.00    -0.452 OA
ENDROOT
BRANCH   1  12
ATOM     12  C   UNL     1     173.474 174.394 177.888  1.00  0.00     0.025 A 
ATOM     13  C   UNL     1     174.679 173.695 178.075  1.00  0.00     0.016 A 
ATOM     14  C   UNL     1     174.905 172.982 179.255  1.00  0.00     0.051 A 
ATOM     15  C   UNL     1     173.939 172.968 180.270  1.00  0.00     0.157 A 
ATOM     16  C   UNL     1     172.517 174.395 178.917  1.00  0.00     0.062 A 
ATOM     17  C   UNL     1     172.741 173.682 180.100  1.00  0.00     0.158 A 
BRANCH  15  18
ATOM     18  O   UNL     1     174.168 172.255 181.445  1.00  0.00    -0.504 OA
ATOM     19  H   UNL     1     174.932 171.594 181.525  1.00  0.00     0.293 HD
ENDBRANCH  15  18
BRANCH  17  20
ATOM     20  O   UNL     1     171.763 173.694 181.093  1.00  0.00    -0.504 OA
ATOM     21  H   UNL     1     171.337 172.843 181.439  1.00  0.00     0.293 HD
ENDBRANCH  17  20
ENDBRANCH   1  12
BRANCH   2  22
ATOM     22  O   UNL     1     175.585 175.650 176.352  1.00  0.00    -0.502 OA
ATOM     23  H   UNL     1     175.957 176.110 177.174  1.00  0.00     0.293 HD
ENDBRANCH   2  22
BRANCH   6  24
ATOM     24  O   UNL     1     172.981 178.286 172.524  1.00  0.00    -0.507 OA
ATOM     25  H   UNL     1     173.520 177.999 171.720  1.00  0.00     0.293 HD
ENDBRANCH   6  24
BRANCH   8  26
ATOM     26  O   UNL     1     168.535 176.613 173.226  1.00  0.00    -0.508 OA
ATOM     27  H   UNL     1     168.266 176.520 172.253  1.00  0.00     0.293 HD
ENDBRANCH   8  26
TORSDOF 6
ENDMDL
MODEL 2
REMARK VINA RESULT:    -6.548      4.233      7.040
REMARK INTER + INTRA:          -7.616
REMARK INTER:                  -7.302
REMARK INTRA:                  -0.314
REMARK UNBOUND:                 0.271
REMARK SMILES O=c1c(O)c(-c2ccc(O)c(O)c2)oc2cc(O)cc(O)c12
REMARK SMILES IDX 5 1 3 2 2 3 1 4 22 5 20 6 19 7 17 8 16 9 15 10 14 11 6 12
REMARK SMILES IDX 7 13 8 14 9 15 13 16 11 17 10 18 12 20 4 22 21 24 18 26
REMARK H PARENT 10 19 12 21 4 23 21 25 18 27
REMARK Flexibility Score: inf
ROOT
ATOM      1  C   UNL     1     174.524 171.665 175.785  1.00  0.00     0.180 A 
ATOM      2  C   UNL     1     173.192 171.452 175.390  1.00  0.00     0.208 A 
ATOM      3  C   UNL     1     172.155 171.853 176.247  1.00  0.00     0.238 A 
ATOM      4  O   UNL     1     170.966 171.611 175.911  1.00  0.00    -0.285 OA
ATOM      5  C   UNL     1     172.461 172.475 177.480  1.00  0.00     0.111 A 
ATOM      6  C   UNL     1     171.489 172.959 178.407  1.00  0.00     0.134 A 
ATOM      7  C   UNL     1     171.905 173.440 179.655  1.00  0.00     0.093 A 
ATOM      8  C   UNL     1     173.261 173.516 179.983  1.00  0.00     0.123 A 
ATOM      9  C   UNL     1     174.220 173.102 179.060  1.00  0.00     0.094 A 
ATOM     10  C   UNL     1     173.835 172.584 177.822  1.00  0.00     0.146 A 
ATOM     11  O   UNL     1     174.780 172.192 176.977  1.00  0.00    -0.452 OA
ENDROOT
BRANCH   1  12
ATOM     12  C   UNL     1     175.671 171.292 174.925  1.00  0.00     0.025 A 
ATOM     13  C   UNL     1     176.190 169.985 174.924  1.00  0.00     0.016 A 
ATOM     14  C   UNL     1     177.256 169.651 174.086  1.00  0.00     0.051 A 
ATOM     15  C   UNL     1     177.810 170.609 173.227  1.00  0.00     0.157 A 
ATOM     16  C   UNL     1     176.215 172.244 174.047  1.00  0.00     0.062 A 
ATOM     17  C   UNL     1     177.283 171.912 173.207  1.00  0.00     0.158 A 
BRANCH  15  18
ATOM     18  O   UNL     1     178.875 170.271 172.394  1.00  0.00    -0.504 OA
ATOM     19  H   UNL     1     178.727 169.816 171.502  1.00  0.00     0.293 HD
ENDBRANCH  15  18
BRANCH  17  20
ATOM     20  O   UNL     1     177.808 172.887 172.359  1.00  0.00    -0.504 OA
ATOM     21  H   UNL     1     178.803 173.054 172.282  1.00  0.00     0.293 HD
ENDBRANCH  17  20
ENDBRANCH   1  12
BRANCH   2  22
ATOM     22  O   UNL     1     172.913 170.815 174.177  1.00  0.00    -0.502 OA
ATOM     23  H   UNL     1     172.157 170.148 174.075  1.00  0.00     0.293 HD
ENDBRANCH   2  22
BRANCH   6  24
ATOM     24  O   UNL     1     170.118 173.014 178.144  1.00  0.00    -0.507 OA
ATOM     25  H   UNL     1     169.420 172.454 178.611  1.00  0.00     0.293 HD
ENDBRANCH   6  24
BRANCH   8  26
ATOM     26  O   UNL     1     173.667 174.011 181.220  1.00  0.00    -0.508 OA
ATOM     27  H   UNL     1     173.186 174.784 181.665  1.00  0.00     0.293 HD
ENDBRANCH   8  26
TORSDOF 6
ENDMDL
MODEL 3
REMARK VINA RESULT:    -6.539      1.559      6.679
REMARK INTER + INTRA:          -7.606
REMARK INTER:                  -7.296
REMARK INTRA:                  -0.309
REMARK UNBOUND:                 0.271
REMARK SMILES O=c1c(O)c(-c2ccc(O)c(O)c2)oc2cc(O)cc(O)c12
REMARK SMILES IDX 5 1 3 2 2 3 1 4 22 5 20 6 19 7 17 8 16 9 15 10 14 11 6 12
REMARK SMILES IDX 7 13 8 14 9 15 13 16 11 17 10 18 12 20 4 22 21 24 18 26
REMARK H PARENT 10 19 12 21 4 23 21 25 18 27
REMARK Flexibility Score: inf
ROOT
ATOM      1  C   UNL     1     171.907 174.742 175.803  1.00  0.00     0.180 A 
ATOM      2  C   UNL     1     173.232 175.006 175.416  1.00  0.00     0.208 A 
ATOM      3  C   UNL     1     174.281 174.610 176.261  1.00  0.00     0.238 A 
ATOM      4  O   UNL     1     175.462 174.898 175.934  1.00  0.00    -0.285 OA
ATOM      5  C   UNL     1     173.993 173.941 177.474  1.00  0.00     0.111 A 
ATOM      6  C   UNL     1     174.979 173.458 178.388  1.00  0.00     0.134 A 
ATOM      7  C   UNL     1     174.577 172.927 179.620  1.00  0.00     0.093 A 
ATOM      8  C   UNL     1     173.223 172.801 179.943  1.00  0.00     0.123 A 
ATOM      9  C   UNL     1     172.253 173.215 179.033  1.00  0.00     0.094 A 
ATOM     10  C   UNL     1     172.623 173.782 177.811  1.00  0.00     0.146 A 
ATOM     11  O   UNL     1     171.667 174.172 176.977  1.00  0.00    -0.452 OA
ENDROOT
BRANCH   1  12
ATOM     12  C   UNL     1     170.750 175.108 174.953  1.00  0.00     0.025 A 
ATOM     13  C   UNL     1     170.208 176.404 174.975  1.00  0.00     0.016 A 
ATOM     14  C   UNL     1     169.131 176.732 174.147  1.00  0.00     0.051 A 
ATOM     15  C   UNL     1     168.591 175.777 173.275  1.00  0.00     0.157 A 
ATOM     16  C   UNL     1     170.219 174.159 174.063  1.00  0.00     0.062 A 
ATOM     17  C   UNL     1     169.142 174.485 173.232  1.00  0.00     0.158 A 
BRANCH  15  18
ATOM     18  O   UNL     1     167.517 176.108 172.452  1.00  0.00    -0.504 OA
ATOM     19  H   UNL     1     166.950 175.397 172.006  1.00  0.00     0.293 HD
ENDBRANCH  15  18
BRANCH  17  20
ATOM     20  O   UNL     1     168.631 173.514 172.372  1.00  0.00    -0.504 OA
ATOM     21  H   UNL     1     169.140 173.196 171.557  1.00  0.00     0.293 HD
ENDBRANCH  17  20
ENDBRANCH   1  12
BRANCH   2  22
ATOM     22  O   UNL     1     173.493 175.688 174.223  1.00  0.00    -0.502 OA
ATOM     23  H   UNL     1     173.098 175.401 173.336  1.00  0.00     0.293 HD
ENDBRANCH   2  22
BRANCH   6  24
ATOM     24  O   UNL     1     176.351 173.452 178.124  1.00  0.00    -0.507 OA
ATOM     25  H   UNL     1     176.831 172.743 177.590  1.00  0.00     0.293 HD
ENDBRANCH   6  24
BRANCH   8  26
ATOM     26  O   UNL     1     172.832 172.257 181.164  1.00  0.00    -0.508 OA
ATOM     27  H   UNL     1     173.269 172.540 182.035  1.00  0.00     0.293 HD
ENDBRANCH   8  26
TORSDOF 6
ENDMDL
MODEL 4
REMARK VINA RESULT:    -6.421      4.459      6.028
REMARK INTER + INTRA:          -7.464
REMARK INTER:                  -7.316
REMARK INTRA:                  -0.147
REMARK UNBOUND:                 0.271
REMARK SMILES O=c1c(O)c(-c2ccc(O)c(O)c2)oc2cc(O)cc(O)c12
REMARK SMILES IDX 5 1 3 2 2 3 1 4 22 5 20 6 19 7 17 8 16 9 15 10 14 11 6 12
REMARK SMILES IDX 7 13 8 14 9 15 13 16 11 17 10 18 12 20 4 22 21 24 18 26
REMARK H PARENT 10 19 12 21 4 23 21 25 18 27
REMARK Flexibility Score: inf
ROOT
ATOM      1  C   UNL     1     173.666 171.637 176.633  1.00  0.00     0.180 A 
ATOM      2  C   UNL     1     173.041 170.530 176.033  1.00  0.00     0.208 A 
ATOM      3  C   UNL     1     173.577 170.005 174.846  1.00  0.00     0.238 A 
ATOM      4  O   UNL     1     172.981 169.048 174.285  1.00  0.00    -0.285 OA
ATOM      5  C   UNL     1     174.739 170.583 174.282  1.00  0.00     0.111 A 
ATOM      6  C   UNL     1     175.392 170.107 173.105  1.00  0.00     0.134 A 
ATOM      7  C   UNL     1     176.460 170.835 172.565  1.00  0.00     0.093 A 
ATOM      8  C   UNL     1     176.939 171.985 173.197  1.00  0.00     0.123 A 
ATOM      9  C   UNL     1     176.347 172.423 174.379  1.00  0.00     0.094 A 
ATOM     10  C   UNL     1     175.257 171.739 174.922  1.00  0.00     0.146 A 
ATOM     11  O   UNL     1     174.717 172.197 176.044  1.00  0.00    -0.452 OA
ENDROOT
BRANCH   1  12
ATOM     12  C   UNL     1     173.174 172.230 177.897  1.00  0.00     0.025 A 
ATOM     13  C   UNL     1     171.901 172.821 177.982  1.00  0.00     0.016 A 
ATOM     14  C   UNL     1     171.449 173.353 179.192  1.00  0.00     0.051 A 
ATOM     15  C   UNL     1     172.253 173.289 180.338  1.00  0.00     0.157 A 
ATOM     16  C   UNL     1     173.968 172.150 179.054  1.00  0.00     0.062 A 
ATOM     17  C   UNL     1     173.518 172.681 180.267  1.00  0.00     0.158 A 
BRANCH  15  18
ATOM     18  O   UNL     1     171.799 173.822 181.543  1.00  0.00    -0.504 OA
ATOM     19  H   UNL     1     170.815 173.999 181.707  1.00  0.00     0.293 HD
ENDBRANCH  15  18
BRANCH  17  20
ATOM     20  O   UNL     1     174.339 172.597 181.390  1.00  0.00    -0.504 OA
ATOM     21  H   UNL     1     175.184 172.039 181.399  1.00  0.00     0.293 HD
ENDBRANCH  17  20
ENDBRANCH   1  12
BRANCH   2  22
ATOM     22  O   UNL     1     171.881 169.989 176.595  1.00  0.00    -0.502 OA
ATOM     23  H   UNL     1     171.534 169.070 176.346  1.00  0.00     0.293 HD
ENDBRANCH   2  22
BRANCH   6  24
ATOM     24  O   UNL     1     175.051 168.921 172.449  1.00  0.00    -0.507 OA
ATOM     25  H   UNL     1     175.713 168.227 172.136  1.00  0.00     0.293 HD
ENDBRANCH   6  24
BRANCH   8  26
ATOM     26  O   UNL     1     178.012 172.695 172.661  1.00  0.00    -0.508 OA
ATOM     27  H   UNL     1     178.366 173.535 173.105  1.00  0.00     0.293 HD
ENDBRANCH   8  26
TORSDOF 6
ENDMDL
MODEL 5
REMARK VINA RESULT:    -6.413      1.648      2.011
REMARK INTER + INTRA:          -7.454
REMARK INTER:                  -7.134
REMARK INTRA:                  -0.320
REMARK UNBOUND:                 0.271
REMARK SMILES O=c1c(O)c(-c2ccc(O)c(O)c2)oc2cc(O)cc(O)c12
REMARK SMILES IDX 5 1 3 2 2 3 1 4 22 5 20 6 19 7 17 8 16 9 15 10 14 11 6 12
REMARK SMILES IDX 7 13 8 14 9 15 13 16 11 17 10 18 12 20 4 22 21 24 18 26
REMARK H PARENT 10 19 12 21 4 23 21 25 18 27
REMARK Flexibility Score: inf
ROOT
ATOM      1  C   UNL     1     172.289 174.848 176.626  1.00  0.00     0.180 A 
ATOM      2  C   UNL     1     172.355 176.229 176.374  1.00  0.00     0.208 A 
ATOM      3  C   UNL     1     171.698 176.750 175.247  1.00  0.00     0.238 A 
ATOM      4  O   UNL     1     171.806 177.979 174.999  1.00  0.00    -0.285 OA
ATOM      5  C   UNL     1     170.971 175.885 174.395  1.00  0.00     0.111 A 
ATOM      6  C   UNL     1     170.233 176.309 173.248  1.00  0.00     0.134 A 
ATOM      7  C   UNL     1     169.659 175.350 172.404  1.00  0.00     0.093 A 
ATOM      8  C   UNL     1     169.740 173.988 172.700  1.00  0.00     0.123 A 
ATOM      9  C   UNL     1     170.407 173.568 173.850  1.00  0.00     0.094 A 
ATOM     10  C   UNL     1     171.021 174.498 174.692  1.00  0.00     0.146 A 
ATOM     11  O   UNL     1     171.654 174.055 175.771  1.00  0.00    -0.452 OA
ENDROOT
BRANCH   1  12
ATOM     12  C   UNL     1     172.935 174.230 177.806  1.00  0.00     0.025 A 
ATOM     13  C   UNL     1     174.281 173.826 177.776  1.00  0.00     0.016 A 
ATOM     14  C   UNL     1     174.876 173.267 178.909  1.00  0.00     0.051 A 
ATOM     15  C   UNL     1     174.141 173.118 180.094  1.00  0.00     0.157 A 
ATOM     16  C   UNL     1     172.209 174.098 179.002  1.00  0.00     0.062 A 
ATOM     17  C   UNL     1     172.802 173.539 180.139  1.00  0.00     0.158 A 
BRANCH  15  18
ATOM     18  O   UNL     1     174.738 172.559 181.222  1.00  0.00    -0.504 OA
ATOM     19  H   UNL     1     175.725 172.682 181.417  1.00  0.00     0.293 HD
ENDBRANCH  15  18
BRANCH  17  20
ATOM     20  O   UNL     1     172.046 173.410 181.303  1.00  0.00    -0.504 OA
ATOM     21  H   UNL     1     171.819 172.507 181.700  1.00  0.00     0.293 HD
ENDBRANCH  17  20
ENDBRANCH   1  12
BRANCH   2  22
ATOM     22  O   UNL     1     173.097 177.062 177.217  1.00  0.00    -0.502 OA
ATOM     23  H   UNL     1     174.109 177.037 177.252  1.00  0.00     0.293 HD
ENDBRANCH   2  22
BRANCH   6  24
ATOM     24  O   UNL     1     170.014 177.648 172.912  1.00  0.00    -0.507 OA
ATOM     25  H   UNL     1     169.793 177.979 171.986  1.00  0.00     0.293 HD
ENDBRANCH   6  24
BRANCH   8  26
ATOM     26  O   UNL     1     169.153 173.042 171.863  1.00  0.00    -0.508 OA
ATOM     27  H   UNL     1     169.044 173.209 170.869  1.00  0.00     0.293 HD
ENDBRANCH   8  26
TORSDOF 6
ENDMDL
MODEL 6
REMARK VINA RESULT:    -6.309      1.521      6.712
REMARK INTER + INTRA:          -7.329
REMARK INTER:                  -7.007
REMARK INTRA:                  -0.322
REMARK UNBOUND:                 0.271
REMARK SMILES O=c1c(O)c(-c2ccc(O)c(O)c2)oc2cc(O)cc(O)c12
REMARK SMILES IDX 5 1 3 2 2 3 1 4 22 5 20 6 19 7 17 8 16 9 15 10 14 11 6 12
REMARK SMILES IDX 7 13 8 14 9 15 13 16 11 17 10 18 12 20 4 22 21 24 18 26
REMARK H PARENT 10 19 12 21 4 23 21 25 18 27
REMARK Flexibility Score: inf
ROOT
ATOM      1  C   UNL     1     173.338 174.781 176.105  1.00  0.00     0.180 A 
ATOM      2  C   UNL     1     174.704 174.511 176.297  1.00  0.00     0.208 A 
ATOM      3  C   UNL     1     175.128 173.979 177.526  1.00  0.00     0.238 A 
ATOM      4  O   UNL     1     176.359 173.790 177.710  1.00  0.00    -0.285 OA
ATOM      5  C   UNL     1     174.180 173.710 178.541  1.00  0.00     0.111 A 
ATOM      6  C   UNL     1     174.492 173.132 179.809  1.00  0.00     0.134 A 
ATOM      7  C   UNL     1     173.494 173.031 180.786  1.00  0.00     0.093 A 
ATOM      8  C   UNL     1     172.180 173.424 180.517  1.00  0.00     0.123 A 
ATOM      9  C   UNL     1     171.853 173.933 179.262  1.00  0.00     0.094 A 
ATOM     10  C   UNL     1     172.835 174.080 178.279  1.00  0.00     0.146 A 
ATOM     11  O   UNL     1     172.482 174.578 177.101  1.00  0.00    -0.452 OA
ENDROOT
BRANCH   1  12
ATOM     12  C   UNL     1     172.812 175.319 174.830  1.00  0.00     0.025 A 
ATOM     13  C   UNL     1     172.300 174.470 173.834  1.00  0.00     0.016 A 
ATOM     14  C   UNL     1     171.787 175.002 172.648  1.00  0.00     0.051 A 
ATOM     15  C   UNL     1     171.764 176.389 172.446  1.00  0.00     0.157 A 
ATOM     16  C   UNL     1     172.767 176.709 174.632  1.00  0.00     0.062 A 
ATOM     17  C   UNL     1     172.254 177.245 173.446  1.00  0.00     0.158 A 
BRANCH  15  18
ATOM     18  O   UNL     1     171.253 176.915 171.261  1.00  0.00    -0.504 OA
ATOM     19  H   UNL     1     171.078 177.907 171.153  1.00  0.00     0.293 HD
ENDBRANCH  15  18
BRANCH  17  20
ATOM     20  O   UNL     1     172.239 178.629 173.278  1.00  0.00    -0.504 OA
ATOM     21  H   UNL     1     171.487 179.206 173.633  1.00  0.00     0.293 HD
ENDBRANCH  17  20
ENDBRANCH   1  12
BRANCH   2  22
ATOM     22  O   UNL     1     175.626 174.806 175.288  1.00  0.00    -0.502 OA
ATOM     23  H   UNL     1     176.627 174.793 175.446  1.00  0.00     0.293 HD
ENDBRANCH   2  22
BRANCH   6  24
ATOM     24  O   UNL     1     175.749 172.624 180.147  1.00  0.00    -0.507 OA
ATOM     25  H   UNL     1     175.971 171.643 180.222  1.00  0.00     0.293 HD
ENDBRANCH   6  24
BRANCH   8  26
ATOM     26  O   UNL     1     171.190 173.305 181.490  1.00  0.00    -0.508 OA
ATOM     27  H   UNL     1     171.420 173.223 182.474  1.00  0.00     0.293 HD
ENDBRANCH   8  26
TORSDOF 6
ENDMDL
MODEL 7
REMARK VINA RESULT:    -6.303      1.593      2.811
REMARK INTER + INTRA:          -7.321
REMARK INTER:                  -7.066
REMARK INTRA:                  -0.255
REMARK UNBOUND:                 0.271
REMARK SMILES O=c1c(O)c(-c2ccc(O)c(O)c2)oc2cc(O)cc(O)c12
REMARK SMILES IDX 5 1 3 2 2 3 1 4 22 5 20 6 19 7 17 8 16 9 15 10 14 11 6 12
REMARK SMILES IDX 7 13 8 14 9 15 13 16 11 17 10 18 12 20 4 22 21 24 18 26
REMARK H PARENT 10 19 12 21 4 23 21 25 18 27
REMARK Flexibility Score: inf
ROOT
ATOM      1  C   UNL     1     172.155 174.163 176.753  1.00  0.00     0.180 A 
ATOM      2  C   UNL     1     171.292 173.330 176.020  1.00  0.00     0.208 A 
ATOM      3  C   UNL     1     170.791 173.783 174.789  1.00  0.00     0.238 A 
ATOM      4  O   UNL     1     169.976 173.055 174.164  1.00  0.00    -0.285 OA
ATOM      5  C   UNL     1     171.171 175.054 174.299  1.00  0.00     0.111 A 
ATOM      6  C   UNL     1     170.758 175.597 173.044  1.00  0.00     0.134 A 
ATOM      7  C   UNL     1     171.090 176.918 172.720  1.00  0.00     0.093 A 
ATOM      8  C   UNL     1     171.877 177.693 173.575  1.00  0.00     0.123 A 
ATOM      9  C   UNL     1     172.336 177.152 174.774  1.00  0.00     0.094 A 
ATOM     10  C   UNL     1     171.991 175.849 175.142  1.00  0.00     0.146 A 
ATOM     11  O   UNL     1     172.441 175.377 176.297  1.00  0.00    -0.452 OA
ENDROOT
BRANCH   1  12
ATOM     12  C   UNL     1     172.742 173.745 178.047  1.00  0.00     0.025 A 
ATOM     13  C   UNL     1     174.099 173.394 178.156  1.00  0.00     0.016 A 
ATOM     14  C   UNL     1     174.636 173.027 179.391  1.00  0.00     0.051 A 
ATOM     15  C   UNL     1     173.831 173.018 180.539  1.00  0.00     0.157 A 
ATOM     16  C   UNL     1     171.944 173.756 179.204  1.00  0.00     0.062 A 
ATOM     17  C   UNL     1     172.479 173.389 180.443  1.00  0.00     0.158 A 
BRANCH  15  18
ATOM     18  O   UNL     1     174.371 172.650 181.770  1.00  0.00    -0.504 OA
ATOM     19  H   UNL     1     173.829 172.700 182.624  1.00  0.00     0.293 HD
ENDBRANCH  15  18
BRANCH  17  20
ATOM     20  O   UNL     1     171.654 173.397 181.567  1.00  0.00    -0.504 OA
ATOM     21  H   UNL     1     171.117 172.585 181.847  1.00  0.00     0.293 HD
ENDBRANCH  17  20
ENDBRANCH   1  12
BRANCH   2  22
ATOM     22  O   UNL     1     170.911 172.087 176.534  1.00  0.00    -0.502 OA
ATOM     23  H   UNL     1     171.375 171.662 177.328  1.00  0.00     0.293 HD
ENDBRANCH   2  22
BRANCH   6  24
ATOM     24  O   UNL     1     170.047 174.877 172.079  1.00  0.00    -0.507 OA
ATOM     25  H   UNL     1     169.284 174.249 172.278  1.00  0.00     0.293 HD
ENDBRANCH   6  24
BRANCH   8  26
ATOM     26  O   UNL     1     172.217 179.001 173.237  1.00  0.00    -0.508 OA
ATOM     27  H   UNL     1     171.630 179.786 173.498  1.00  0.00     0.293 HD
ENDBRANCH   8  26
TORSDOF 6
ENDMDL
MODEL 8
REMARK VINA RESULT:    -6.209      2.582      3.819
REMARK INTER + INTRA:          -7.208
REMARK INTER:                  -6.888
REMARK INTRA:                  -0.320
REMARK UNBOUND:                 0.271
REMARK SMILES O=c1c(O)c(-c2ccc(O)c(O)c2)oc2cc(O)cc(O)c12
REMARK SMILES IDX 5 1 3 2 2 3 1 4 22 5 20 6 19 7 17 8 16 9 15 10 14 11 6 12
REMARK SMILES IDX 7 13 8 14 9 15 13 16 11 17 10 18 12 20 4 22 21 24 18 26
REMARK H PARENT 10 19 12 21 4 23 21 25 18 27
REMARK Flexibility Score: inf
ROOT
ATOM      1  C   UNL     1     173.821 173.597 176.424  1.00  0.00     0.180 A 
ATOM      2  C   UNL     1     174.024 172.457 175.627  1.00  0.00     0.208 A 
ATOM      3  C   UNL     1     174.468 172.619 174.305  1.00  0.00     0.238 A 
ATOM      4  O   UNL     1     174.596 171.597 173.581  1.00  0.00    -0.285 OA
ATOM      5  C   UNL     1     174.718 173.917 173.801  1.00  0.00     0.111 A 
ATOM      6  C   UNL     1     175.210 174.197 172.490  1.00  0.00     0.134 A 
ATOM      7  C   UNL     1     175.297 175.525 172.054  1.00  0.00     0.093 A 
ATOM      8  C   UNL     1     174.973 176.585 172.904  1.00  0.00     0.123 A 
ATOM      9  C   UNL     1     174.549 176.324 174.205  1.00  0.00     0.094 A 
ATOM     10  C   UNL     1     174.418 175.009 174.657  1.00  0.00     0.146 A 
ATOM     11  O   UNL     1     174.002 174.804 175.901  1.00  0.00    -0.452 OA
ENDROOT
BRANCH   1  12
ATOM     12  C   UNL     1     173.377 173.505 177.834  1.00  0.00     0.025 A 
ATOM     13  C   UNL     1     172.015 173.551 178.177  1.00  0.00     0.016 A 
ATOM     14  C   UNL     1     171.619 173.438 179.511  1.00  0.00     0.051 A 
ATOM     15  C   UNL     1     172.575 173.263 180.521  1.00  0.00     0.157 A 
ATOM     16  C   UNL     1     174.330 173.308 178.847  1.00  0.00     0.062 A 
ATOM     17  C   UNL     1     173.937 173.194 180.184  1.00  0.00     0.158 A 
BRANCH  15  18
ATOM     18  O   UNL     1     172.176 173.151 181.852  1.00  0.00    -0.504 OA
ATOM     19  H   UNL     1     172.412 173.858 182.538  1.00  0.00     0.293 HD
ENDBRANCH  15  18
BRANCH  17  20
ATOM     20  O   UNL     1     174.912 173.013 181.165  1.00  0.00    -0.504 OA
ATOM     21  H   UNL     1     175.842 172.680 180.944  1.00  0.00     0.293 HD
ENDBRANCH  17  20
ENDBRANCH   1  12
BRANCH   2  22
ATOM     22  O   UNL     1     173.749 171.185 176.139  1.00  0.00    -0.502 OA
ATOM     23  H   UNL     1     174.193 170.829 176.977  1.00  0.00     0.293 HD
ENDBRANCH   2  22
BRANCH   6  24
ATOM     24  O   UNL     1     175.647 173.216 171.595  1.00  0.00    -0.507 OA
ATOM     25  H   UNL     1     176.169 173.400 170.751  1.00  0.00     0.293 HD
ENDBRANCH   6  24
BRANCH   8  26
ATOM     26  O   UNL     1     175.077 177.904 172.467  1.00  0.00    -0.508 OA
ATOM     27  H   UNL     1     174.431 178.619 172.782  1.00  0.00     0.293 HD
ENDBRANCH   8  26
TORSDOF 6
ENDMDL
MODEL 9
REMARK VINA RESULT:    -6.197      3.901      5.480
REMARK INTER + INTRA:          -7.194
REMARK INTER:                  -6.915
REMARK INTRA:                  -0.279
REMARK UNBOUND:                 0.271
REMARK SMILES O=c1c(O)c(-c2ccc(O)c(O)c2)oc2cc(O)cc(O)c12
REMARK SMILES IDX 5 1 3 2 2 3 1 4 22 5 20 6 19 7 17 8 16 9 15 10 14 11 6 12
REMARK SMILES IDX 7 13 8 14 9 15 13 16 11 17 10 18 12 20 4 22 21 24 18 26
REMARK H PARENT 10 19 12 21 4 23 21 25 18 27
REMARK Flexibility Score: inf
ROOT
ATOM      1  C   UNL     1     174.141 172.558 176.619  1.00  0.00     0.180 A 
ATOM      2  C   UNL     1     174.371 173.550 175.651  1.00  0.00     0.208 A 
ATOM      3  C   UNL     1     174.956 173.186 174.427  1.00  0.00     0.238 A 
ATOM      4  O   UNL     1     175.209 174.088 173.586  1.00  0.00    -0.285 OA
ATOM      5  C   UNL     1     175.289 171.833 174.182  1.00  0.00     0.111 A 
ATOM      6  C   UNL     1     175.848 171.344 172.962  1.00  0.00     0.134 A 
ATOM      7  C   UNL     1     176.259 170.008 172.877  1.00  0.00     0.093 A 
ATOM      8  C   UNL     1     176.069 169.127 173.945  1.00  0.00     0.123 A 
ATOM      9  C   UNL     1     175.470 169.581 175.118  1.00  0.00     0.094 A 
ATOM     10  C   UNL     1     175.083 170.917 175.246  1.00  0.00     0.146 A 
ATOM     11  O   UNL     1     174.524 171.309 176.384  1.00  0.00    -0.452 OA
ENDROOT
BRANCH   1  12
ATOM     12  C   UNL     1     173.506 172.861 177.923  1.00  0.00     0.025 A 
ATOM     13  C   UNL     1     172.126 173.108 178.024  1.00  0.00     0.016 A 
ATOM     14  C   UNL     1     171.545 173.368 179.268  1.00  0.00     0.051 A 
ATOM     15  C   UNL     1     172.330 173.371 180.429  1.00  0.00     0.157 A 
ATOM     16  C   UNL     1     174.285 172.845 179.092  1.00  0.00     0.062 A 
ATOM     17  C   UNL     1     173.707 173.104 180.339  1.00  0.00     0.158 A 
BRANCH  15  18
ATOM     18  O   UNL     1     171.747 173.632 181.668  1.00  0.00    -0.504 OA
ATOM     19  H   UNL     1     172.306 173.745 182.505  1.00  0.00     0.293 HD
ENDBRANCH  15  18
BRANCH  17  20
ATOM     20  O   UNL     1     174.513 173.094 181.476  1.00  0.00    -0.504 OA
ATOM     21  H   UNL     1     174.224 173.525 182.345  1.00  0.00     0.293 HD
ENDBRANCH  17  20
ENDBRANCH   1  12
BRANCH   2  22
ATOM     22  O   UNL     1     174.055 174.885 175.923  1.00  0.00    -0.502 OA
ATOM     23  H   UNL     1     173.790 175.540 175.197  1.00  0.00     0.293 HD
ENDBRANCH   2  22
BRANCH   6  24
ATOM     24  O   UNL     1     175.996 172.117 171.806  1.00  0.00    -0.507 OA
ATOM     25  H   UNL     1     176.794 172.699 171.603  1.00  0.00     0.293 HD
ENDBRANCH   6  24
BRANCH   8  26
ATOM     26  O   UNL     1     176.466 167.796 173.847  1.00  0.00    -0.508 OA
ATOM     27  H   UNL     1     177.437 167.522 173.953  1.00  0.00     0.293 HD
ENDBRANCH   8  26
TORSDOF 6
ENDMDL
