MODEL 1
REMARK VINA RESULT:    13.433      0.000      0.000
REMARK INTER + INTRA:          15.494
REMARK INTER:                  15.788
REMARK INTRA:                  -0.294
REMARK UNBOUND:                -0.294
REMARK SMILES O=c1cc(-c2ccc(O)c(O)c2)oc2cc(O)cc(O)c12
REMARK SMILES IDX 4 1 3 2 2 3 1 4 21 5 19 6 18 7 16 8 15 9 14 10 13 11 5 12
REMARK SMILES IDX 6 13 7 14 8 15 12 16 10 17 9 18 11 20 20 22 17 24
REMARK H PARENT 9 19 11 21 20 23 17 25
REMARK Flexibility Score: inf
ROOT
ATOM      1  C   UNL     1     104.052 104.209 106.764  1.00  0.00     0.138 A 
ATOM      2  C   UNL     1     103.666 102.919 107.156  1.00  0.00     0.100 A 
ATOM      3  C   UNL     1     103.561 102.612 108.512  1.00  0.00     0.197 A 
ATOM      4  O   UNL     1     103.152 101.466 108.832  1.00  0.00    -0.289 OA
ATOM      5  C   UNL     1     103.876 103.594 109.482  1.00  0.00     0.107 A 
ATOM      6  C   UNL     1     103.846 103.382 110.893  1.00  0.00     0.134 A 
ATOM      7  C   UNL     1     104.066 104.461 111.757  1.00  0.00     0.093 A 
ATOM      8  C   UNL     1     104.374 105.728 111.265  1.00  0.00     0.123 A 
ATOM      9  C   UNL     1     104.460 105.935 109.887  1.00  0.00     0.094 A 
ATOM     10  C   UNL     1     104.212 104.886 108.999  1.00  0.00     0.146 A 
ATOM     11  O   UNL     1     104.290 105.127 107.694  1.00  0.00    -0.456 OA
ENDROOT
BRANCH   1  12
ATOM     12  C   UNL     1     104.180 104.588 105.334  1.00  0.00     0.021 A 
ATOM     13  C   UNL     1     104.645 105.859 104.945  1.00  0.00     0.016 A 
ATOM     14  C   UNL     1     104.745 106.192 103.592  1.00  0.00     0.051 A 
ATOM     15  C   UNL     1     104.379 105.272 102.606  1.00  0.00     0.157 A 
ATOM     16  C   UNL     1     103.801 103.671 104.337  1.00  0.00     0.062 A 
ATOM     17  C   UNL     1     103.903 104.005 102.979  1.00  0.00     0.158 A 
BRANCH  15  18
ATOM     18  O   UNL     1     104.493 105.633 101.264  1.00  0.00    -0.504 OA
ATOM     19  H   UNL     1     105.389 105.696 100.797  1.00  0.00     0.293 HD
ENDBRANCH  15  18
BRANCH  17  20
ATOM     20  O   UNL     1     103.531 103.083 102.001  1.00  0.00    -0.504 OA
ATOM     21  H   UNL     1     104.221 102.546 101.489  1.00  0.00     0.293 HD
ENDBRANCH  17  20
ENDBRANCH   1  12
BRANCH   6  22
ATOM     22  O   UNL     1     103.631 102.137 111.491  1.00  0.00    -0.507 OA
ATOM     23  H   UNL     1     103.276 101.999 112.425  1.00  0.00     0.293 HD
ENDBRANCH   6  22
BRANCH   8  24
ATOM     24  O   UNL     1     104.601 106.776 112.156  1.00  0.00    -0.508 OA
ATOM     25  H   UNL     1     103.854 107.162 112.721  1.00  0.00     0.293 HD
ENDBRANCH   8  24
TORSDOF 5
ENDMDL
MODEL 2
REMARK VINA RESULT:    13.449      2.675      4.657
REMARK INTER + INTRA:          15.514
REMARK INTER:                  15.808
REMARK INTRA:                  -0.294
REMARK UNBOUND:                -0.294
REMARK SMILES O=c1cc(-c2ccc(O)c(O)c2)oc2cc(O)cc(O)c12
REMARK SMILES IDX 4 1 3 2 2 3 1 4 21 5 19 6 18 7 16 8 15 9 14 10 13 11 5 12
REMARK SMILES IDX 6 13 7 14 8 15 12 16 10 17 9 18 11 20 20 22 17 24
REMARK H PARENT 9 19 11 21 20 23 17 25
REMARK Flexibility Score: inf
ROOT
ATOM      1  C   UNL     1     104.051 104.182 102.108  1.00  0.00     0.138 A 
ATOM      2  C   UNL     1     103.677 102.893 102.512  1.00  0.00     0.100 A 
ATOM      3  C   UNL     1     103.579 102.597 103.872  1.00  0.00     0.197 A 
ATOM      4  O   UNL     1     103.181 101.451 104.203  1.00  0.00    -0.289 OA
ATOM      5  C   UNL     1     103.890 103.590 104.832  1.00  0.00     0.107 A 
ATOM      6  C   UNL     1     103.866 103.390 106.245  1.00  0.00     0.134 A 
ATOM      7  C   UNL     1     104.080 104.478 107.099  1.00  0.00     0.093 A 
ATOM      8  C   UNL     1     104.375 105.743 106.595  1.00  0.00     0.123 A 
ATOM      9  C   UNL     1     104.455 105.939 105.215  1.00  0.00     0.094 A 
ATOM     10  C   UNL     1     104.213 104.881 104.336  1.00  0.00     0.146 A 
ATOM     11  O   UNL     1     104.284 105.111 103.030  1.00  0.00    -0.456 OA
ENDROOT
BRANCH   1  12
ATOM     12  C   UNL     1     104.171 104.551 100.675  1.00  0.00     0.021 A 
ATOM     13  C   UNL     1     104.631 105.819 100.273  1.00  0.00     0.016 A 
ATOM     14  C   UNL     1     104.724 106.142  98.917  1.00  0.00     0.051 A 
ATOM     15  C   UNL     1     104.354 105.213  97.940  1.00  0.00     0.157 A 
ATOM     16  C   UNL     1     103.789 103.625  99.687  1.00  0.00     0.062 A 
ATOM     17  C   UNL     1     103.882 103.948  98.326  1.00  0.00     0.158 A 
BRANCH  15  18
ATOM     18  O   UNL     1     104.460 105.564  96.595  1.00  0.00    -0.504 OA
ATOM     19  H   UNL     1     104.405 104.877  95.853  1.00  0.00     0.293 HD
ENDBRANCH  15  18
BRANCH  17  20
ATOM     20  O   UNL     1     103.508 103.018  97.358  1.00  0.00    -0.504 OA
ATOM     21  H   UNL     1     102.545 102.924  97.056  1.00  0.00     0.293 HD
ENDBRANCH  17  20
ENDBRANCH   1  12
BRANCH   6  22
ATOM     22  O   UNL     1     103.664 102.148 106.855  1.00  0.00    -0.507 OA
ATOM     23  H   UNL     1     103.139 101.387 106.453  1.00  0.00     0.293 HD
ENDBRANCH   6  22
BRANCH   8  24
ATOM     24  O   UNL     1     104.597 106.801 107.476  1.00  0.00    -0.508 OA
ATOM     25  H   UNL     1     105.243 107.550 107.253  1.00  0.00     0.293 HD
ENDBRANCH   8  24
TORSDOF 5
ENDMDL
MODEL 3
REMARK VINA RESULT:    13.458      2.727      5.516
REMARK INTER + INTRA:          15.523
REMARK INTER:                  15.817
REMARK INTRA:                  -0.294
REMARK UNBOUND:                -0.294
REMARK SMILES O=c1cc(-c2ccc(O)c(O)c2)oc2cc(O)cc(O)c12
REMARK SMILES IDX 4 1 3 2 2 3 1 4 21 5 19 6 18 7 16 8 15 9 14 10 13 11 5 12
REMARK SMILES IDX 6 13 7 14 8 15 12 16 10 17 9 18 11 20 20 22 17 24
REMARK H PARENT 9 19 11 21 20 23 17 25
REMARK Flexibility Score: inf
ROOT
ATOM      1  C   UNL     1     103.921 104.055 102.114  1.00  0.00     0.138 A 
ATOM      2  C   UNL     1     104.279 105.345 102.530  1.00  0.00     0.100 A 
ATOM      3  C   UNL     1     104.375 105.629 103.893  1.00  0.00     0.197 A 
ATOM      4  O   UNL     1     104.759 106.777 104.235  1.00  0.00    -0.289 OA
ATOM      5  C   UNL     1     104.079 104.622 104.843  1.00  0.00     0.107 A 
ATOM      6  C   UNL     1     104.103 104.809 106.258  1.00  0.00     0.134 A 
ATOM      7  C   UNL     1     103.905 103.710 107.102  1.00  0.00     0.093 A 
ATOM      8  C   UNL     1     103.625 102.446 106.585  1.00  0.00     0.123 A 
ATOM      9  C   UNL     1     103.545 102.262 105.204  1.00  0.00     0.094 A 
ATOM     10  C   UNL     1     103.772 103.333 104.335  1.00  0.00     0.146 A 
ATOM     11  O   UNL     1     103.702 103.114 103.027  1.00  0.00    -0.456 OA
ENDROOT
BRANCH   1  12
ATOM     12  C   UNL     1     103.804 103.699 100.677  1.00  0.00     0.021 A 
ATOM     13  C   UNL     1     103.340 102.436 100.264  1.00  0.00     0.016 A 
ATOM     14  C   UNL     1     103.250 102.125  98.904  1.00  0.00     0.051 A 
ATOM     15  C   UNL     1     103.625 103.061  97.937  1.00  0.00     0.157 A 
ATOM     16  C   UNL     1     104.192 104.632  99.699  1.00  0.00     0.062 A 
ATOM     17  C   UNL     1     104.101 104.321  98.334  1.00  0.00     0.158 A 
BRANCH  15  18
ATOM     18  O   UNL     1     103.521 102.722  96.588  1.00  0.00    -0.504 OA
ATOM     19  H   UNL     1     104.322 102.427  96.044  1.00  0.00     0.293 HD
ENDBRANCH  15  18
BRANCH  17  20
ATOM     20  O   UNL     1     104.481 105.258  97.375  1.00  0.00    -0.504 OA
ATOM     21  H   UNL     1     104.998 104.989  96.545  1.00  0.00     0.293 HD
ENDBRANCH  17  20
ENDBRANCH   1  12
BRANCH   6  22
ATOM     22  O   UNL     1     104.290 106.047 106.880  1.00  0.00    -0.507 OA
ATOM     23  H   UNL     1     104.913 106.769 106.552  1.00  0.00     0.293 HD
ENDBRANCH   6  22
BRANCH   8  24
ATOM     24  O   UNL     1     103.419 101.377 107.456  1.00  0.00    -0.508 OA
ATOM     25  H   UNL     1     102.938 101.499 108.340  1.00  0.00     0.293 HD
ENDBRANCH   8  24
TORSDOF 5
ENDMDL
MODEL 4
REMARK VINA RESULT:    13.487      1.174      2.983
REMARK INTER + INTRA:          15.558
REMARK INTER:                  15.853
REMARK INTRA:                  -0.295
REMARK UNBOUND:                -0.294
REMARK SMILES O=c1cc(-c2ccc(O)c(O)c2)oc2cc(O)cc(O)c12
REMARK SMILES IDX 4 1 3 2 2 3 1 4 21 5 19 6 18 7 16 8 15 9 14 10 13 11 5 12
REMARK SMILES IDX 6 13 7 14 8 15 12 16 10 17 9 18 11 20 20 22 17 24
REMARK H PARENT 9 19 11 21 20 23 17 25
REMARK Flexibility Score: inf
ROOT
ATOM      1  C   UNL     1     103.903 103.947 106.746  1.00  0.00     0.138 A 
ATOM      2  C   UNL     1     104.302 105.225 107.164  1.00  0.00     0.100 A 
ATOM      3  C   UNL     1     104.399 105.506 108.527  1.00  0.00     0.197 A 
ATOM      4  O   UNL     1     104.820 106.641 108.870  1.00  0.00    -0.289 OA
ATOM      5  C   UNL     1     104.064 104.511 109.476  1.00  0.00     0.107 A 
ATOM      6  C   UNL     1     104.086 104.699 110.891  1.00  0.00     0.134 A 
ATOM      7  C   UNL     1     103.846 103.607 111.734  1.00  0.00     0.093 A 
ATOM      8  C   UNL     1     103.527 102.353 111.217  1.00  0.00     0.123 A 
ATOM      9  C   UNL     1     103.449 102.171 109.835  1.00  0.00     0.094 A 
ATOM     10  C   UNL     1     103.717 103.232 108.967  1.00  0.00     0.146 A 
ATOM     11  O   UNL     1     103.647 103.015 107.658  1.00  0.00    -0.456 OA
ENDROOT
BRANCH   1  12
ATOM     12  C   UNL     1     103.782 103.595 105.309  1.00  0.00     0.021 A 
ATOM     13  C   UNL     1     103.335 102.326 104.894  1.00  0.00     0.016 A 
ATOM     14  C   UNL     1     103.241 102.018 103.534  1.00  0.00     0.051 A 
ATOM     15  C   UNL     1     103.596 102.963 102.568  1.00  0.00     0.157 A 
ATOM     16  C   UNL     1     104.150 104.536 104.331  1.00  0.00     0.062 A 
ATOM     17  C   UNL     1     104.055 104.228 102.966  1.00  0.00     0.158 A 
BRANCH  15  18
ATOM     18  O   UNL     1     103.489 102.626 101.218  1.00  0.00    -0.504 OA
ATOM     19  H   UNL     1     103.414 101.666 100.907  1.00  0.00     0.293 HD
ENDBRANCH  15  18
BRANCH  17  20
ATOM     20  O   UNL     1     104.415 105.174 102.008  1.00  0.00    -0.504 OA
ATOM     21  H   UNL     1     105.246 105.062 101.437  1.00  0.00     0.293 HD
ENDBRANCH  17  20
ENDBRANCH   1  12
BRANCH   6  22
ATOM     22  O   UNL     1     104.311 105.930 111.513  1.00  0.00    -0.507 OA
ATOM     23  H   UNL     1     104.017 106.823 111.148  1.00  0.00     0.293 HD
ENDBRANCH   6  22
BRANCH   8  24
ATOM     24  O   UNL     1     103.280 101.292 112.087  1.00  0.00    -0.508 OA
ATOM     25  H   UNL     1     103.988 100.596 112.289  1.00  0.00     0.293 HD
ENDBRANCH   8  24
TORSDOF 5
ENDMDL
MODEL 5
REMARK VINA RESULT:    13.816      2.469      8.840
REMARK INTER + INTRA:          15.945
REMARK INTER:                  16.238
REMARK INTRA:                  -0.294
REMARK UNBOUND:                -0.294
REMARK SMILES O=c1cc(-c2ccc(O)c(O)c2)oc2cc(O)cc(O)c12
REMARK SMILES IDX 4 1 3 2 2 3 1 4 21 5 19 6 18 7 16 8 15 9 14 10 13 11 5 12
REMARK SMILES IDX 6 13 7 14 8 15 12 16 10 17 9 18 11 20 20 22 17 24
REMARK H PARENT 9 19 11 21 20 23 17 25
REMARK Flexibility Score: inf
ROOT
ATOM      1  C   UNL     1     103.972 104.207 102.930  1.00  0.00     0.138 A 
ATOM      2  C   UNL     1     104.299 105.497 102.486  1.00  0.00     0.100 A 
ATOM      3  C   UNL     1     104.387 105.754 101.118  1.00  0.00     0.197 A 
ATOM      4  O   UNL     1     104.620 106.934 100.750  1.00  0.00    -0.289 OA
ATOM      5  C   UNL     1     104.177 104.705 100.191  1.00  0.00     0.107 A 
ATOM      6  C   UNL     1     104.282 104.842  98.773  1.00  0.00     0.134 A 
ATOM      7  C   UNL     1     103.939 103.763  97.950  1.00  0.00     0.093 A 
ATOM      8  C   UNL     1     103.555 102.537  98.491  1.00  0.00     0.123 A 
ATOM      9  C   UNL     1     103.501 102.375  99.876  1.00  0.00     0.094 A 
ATOM     10  C   UNL     1     103.805 103.444 100.724  1.00  0.00     0.146 A 
ATOM     11  O   UNL     1     103.727 103.254 102.037  1.00  0.00    -0.456 OA
ENDROOT
BRANCH   1  12
ATOM     12  C   UNL     1     103.867 103.878 104.374  1.00  0.00     0.021 A 
ATOM     13  C   UNL     1     103.324 102.657 104.817  1.00  0.00     0.016 A 
ATOM     14  C   UNL     1     103.228 102.379 106.183  1.00  0.00     0.051 A 
ATOM     15  C   UNL     1     103.661 103.312 107.128  1.00  0.00     0.157 A 
ATOM     16  C   UNL     1     104.289 104.818 105.331  1.00  0.00     0.062 A 
ATOM     17  C   UNL     1     104.193 104.539 106.702  1.00  0.00     0.158 A 
BRANCH  15  18
ATOM     18  O   UNL     1     103.554 103.004 108.484  1.00  0.00    -0.504 OA
ATOM     19  H   UNL     1     104.292 103.214 109.145  1.00  0.00     0.293 HD
ENDBRANCH  15  18
BRANCH  17  20
ATOM     20  O   UNL     1     104.623 105.476 107.640  1.00  0.00    -0.504 OA
ATOM     21  H   UNL     1     104.310 105.446 108.604  1.00  0.00     0.293 HD
ENDBRANCH  17  20
ENDBRANCH   1  12
BRANCH   6  22
ATOM     22  O   UNL     1     104.738 105.997  98.131  1.00  0.00    -0.507 OA
ATOM     23  H   UNL     1     105.023 106.046  97.166  1.00  0.00     0.293 HD
ENDBRANCH   6  22
BRANCH   8  24
ATOM     24  O   UNL     1     103.235 101.480  97.640  1.00  0.00    -0.508 OA
ATOM     25  H   UNL     1     102.509 101.566  96.938  1.00  0.00     0.293 HD
ENDBRANCH   8  24
TORSDOF 5
ENDMDL
MODEL 6
REMARK VINA RESULT:    13.924      2.493      8.328
REMARK INTER + INTRA:          16.071
REMARK INTER:                  16.365
REMARK INTRA:                  -0.294
REMARK UNBOUND:                -0.294
REMARK SMILES O=c1cc(-c2ccc(O)c(O)c2)oc2cc(O)cc(O)c12
REMARK SMILES IDX 4 1 3 2 2 3 1 4 21 5 19 6 18 7 16 8 15 9 14 10 13 11 5 12
REMARK SMILES IDX 6 13 7 14 8 15 12 16 10 17 9 18 11 20 20 22 17 24
REMARK H PARENT 9 19 11 21 20 23 17 25
REMARK Flexibility Score: inf
ROOT
ATOM      1  C   UNL     1     103.991 103.942 102.960  1.00  0.00     0.138 A 
ATOM      2  C   UNL     1     103.660 102.637 102.567  1.00  0.00     0.100 A 
ATOM      3  C   UNL     1     103.566 102.327 101.211  1.00  0.00     0.197 A 
ATOM      4  O   UNL     1     103.330 101.134 100.889  1.00  0.00    -0.289 OA
ATOM      5  C   UNL     1     103.774 103.338 100.242  1.00  0.00     0.107 A 
ATOM      6  C   UNL     1     103.664 103.147  98.832  1.00  0.00     0.134 A 
ATOM      7  C   UNL     1     104.005 104.192  97.966  1.00  0.00     0.093 A 
ATOM      8  C   UNL     1     104.394 105.438  98.457  1.00  0.00     0.123 A 
ATOM      9  C   UNL     1     104.453 105.653  99.835  1.00  0.00     0.094 A 
ATOM     10  C   UNL     1     104.151 104.619 100.724  1.00  0.00     0.146 A 
ATOM     11  O   UNL     1     104.234 104.859 102.029  1.00  0.00    -0.456 OA
ENDROOT
BRANCH   1  12
ATOM     12  C   UNL     1     104.103 104.327 104.389  1.00  0.00     0.021 A 
ATOM     13  C   UNL     1     104.639 105.568 104.781  1.00  0.00     0.016 A 
ATOM     14  C   UNL     1     104.741 105.899 106.135  1.00  0.00     0.051 A 
ATOM     15  C   UNL     1     104.321 105.000 107.118  1.00  0.00     0.157 A 
ATOM     16  C   UNL     1     103.694 103.421 105.384  1.00  0.00     0.062 A 
ATOM     17  C   UNL     1     103.796 103.753 106.743  1.00  0.00     0.158 A 
BRANCH  15  18
ATOM     18  O   UNL     1     104.435 105.360 108.461  1.00  0.00    -0.504 OA
ATOM     19  H   UNL     1     104.733 104.703 109.171  1.00  0.00     0.293 HD
ENDBRANCH  15  18
BRANCH  17  20
ATOM     20  O   UNL     1     103.379 102.849 107.718  1.00  0.00    -0.504 OA
ATOM     21  H   UNL     1     103.785 101.923 107.793  1.00  0.00     0.293 HD
ENDBRANCH  17  20
ENDBRANCH   1  12
BRANCH   6  22
ATOM     22  O   UNL     1     103.203 101.968  98.237  1.00  0.00    -0.507 OA
ATOM     23  H   UNL     1     102.347 101.496  98.479  1.00  0.00     0.293 HD
ENDBRANCH   6  22
BRANCH   8  24
ATOM     24  O   UNL     1     104.712 106.460  97.565  1.00  0.00    -0.508 OA
ATOM     25  H   UNL     1     104.577 106.353  96.566  1.00  0.00     0.293 HD
ENDBRANCH   8  24
TORSDOF 5
ENDMDL
MODEL 7
REMARK VINA RESULT:    13.945      1.355      7.445
REMARK INTER + INTRA:          16.096
REMARK INTER:                  16.390
REMARK INTRA:                  -0.294
REMARK UNBOUND:                -0.294
REMARK SMILES O=c1cc(-c2ccc(O)c(O)c2)oc2cc(O)cc(O)c12
REMARK SMILES IDX 4 1 3 2 2 3 1 4 21 5 19 6 18 7 16 8 15 9 14 10 13 11 5 12
REMARK SMILES IDX 6 13 7 14 8 15 12 16 10 17 9 18 11 20 20 22 17 24
REMARK H PARENT 9 19 11 21 20 23 17 25
REMARK Flexibility Score: inf
ROOT
ATOM      1  C   UNL     1     103.961 104.174 107.577  1.00  0.00     0.138 A 
ATOM      2  C   UNL     1     104.297 105.463 107.140  1.00  0.00     0.100 A 
ATOM      3  C   UNL     1     104.389 105.727 105.773  1.00  0.00     0.197 A 
ATOM      4  O   UNL     1     104.630 106.907 105.411  1.00  0.00    -0.289 OA
ATOM      5  C   UNL     1     104.174 104.684 104.840  1.00  0.00     0.107 A 
ATOM      6  C   UNL     1     104.281 104.827 103.424  1.00  0.00     0.134 A 
ATOM      7  C   UNL     1     103.932 103.754 102.594  1.00  0.00     0.093 A 
ATOM      8  C   UNL     1     103.539 102.528 103.129  1.00  0.00     0.123 A 
ATOM      9  C   UNL     1     103.482 102.361 104.513  1.00  0.00     0.094 A 
ATOM     10  C   UNL     1     103.791 103.423 105.366  1.00  0.00     0.146 A 
ATOM     11  O   UNL     1     103.711 103.227 106.678  1.00  0.00    -0.456 OA
ENDROOT
BRANCH   1  12
ATOM     12  C   UNL     1     103.851 103.839 109.019  1.00  0.00     0.021 A 
ATOM     13  C   UNL     1     103.299 102.619 109.455  1.00  0.00     0.016 A 
ATOM     14  C   UNL     1     103.198 102.335 110.819  1.00  0.00     0.051 A 
ATOM     15  C   UNL     1     103.637 103.260 111.770  1.00  0.00     0.157 A 
ATOM     16  C   UNL     1     104.278 104.771 109.981  1.00  0.00     0.062 A 
ATOM     17  C   UNL     1     104.178 104.486 111.351  1.00  0.00     0.158 A 
BRANCH  15  18
ATOM     18  O   UNL     1     103.525 102.947 113.124  1.00  0.00    -0.504 OA
ATOM     19  H   UNL     1     102.648 103.023 113.624  1.00  0.00     0.293 HD
ENDBRANCH  15  18
BRANCH  17  20
ATOM     20  O   UNL     1     104.614 105.415 112.294  1.00  0.00    -0.504 OA
ATOM     21  H   UNL     1     104.148 105.523 113.188  1.00  0.00     0.293 HD
ENDBRANCH  17  20
ENDBRANCH   1  12
BRANCH   6  22
ATOM     22  O   UNL     1     104.746 105.982 102.788  1.00  0.00    -0.507 OA
ATOM     23  H   UNL     1     105.634 106.065 102.319  1.00  0.00     0.293 HD
ENDBRANCH   6  22
BRANCH   8  24
ATOM     24  O   UNL     1     103.213 101.478 102.272  1.00  0.00    -0.508 OA
ATOM     25  H   UNL     1     103.710 100.595 102.304  1.00  0.00     0.293 HD
ENDBRANCH   8  24
TORSDOF 5
ENDMDL
MODEL 8
REMARK VINA RESULT:    13.970      1.152      6.844
REMARK INTER + INTRA:          16.126
REMARK INTER:                  16.420
REMARK INTRA:                  -0.294
REMARK UNBOUND:                -0.294
REMARK SMILES O=c1cc(-c2ccc(O)c(O)c2)oc2cc(O)cc(O)c12
REMARK SMILES IDX 4 1 3 2 2 3 1 4 21 5 19 6 18 7 16 8 15 9 14 10 13 11 5 12
REMARK SMILES IDX 6 13 7 14 8 15 12 16 10 17 9 18 11 20 20 22 17 24
REMARK H PARENT 9 19 11 21 20 23 17 25
REMARK Flexibility Score: inf
ROOT
ATOM      1  C   UNL     1     103.998 104.109 107.568  1.00  0.00     0.138 A 
ATOM      2  C   UNL     1     103.669 102.821 107.122  1.00  0.00     0.100 A 
ATOM      3  C   UNL     1     103.592 102.563 105.753  1.00  0.00     0.197 A 
ATOM      4  O   UNL     1     103.357 101.384 105.384  1.00  0.00    -0.289 OA
ATOM      5  C   UNL     1     103.814 103.610 104.827  1.00  0.00     0.107 A 
ATOM      6  C   UNL     1     103.721 103.473 103.409  1.00  0.00     0.134 A 
ATOM      7  C   UNL     1     104.075 104.550 102.588  1.00  0.00     0.093 A 
ATOM      8  C   UNL     1     104.461 105.775 103.131  1.00  0.00     0.123 A 
ATOM      9  C   UNL     1     104.503 105.937 104.517  1.00  0.00     0.094 A 
ATOM     10  C   UNL     1     104.188 104.871 105.363  1.00  0.00     0.146 A 
ATOM     11  O   UNL     1     104.255 105.061 106.676  1.00  0.00    -0.456 OA
ENDROOT
BRANCH   1  12
ATOM     12  C   UNL     1     104.093 104.438 109.012  1.00  0.00     0.021 A 
ATOM     13  C   UNL     1     104.660 105.647 109.460  1.00  0.00     0.016 A 
ATOM     14  C   UNL     1     104.746 105.926 110.827  1.00  0.00     0.051 A 
ATOM     15  C   UNL     1     104.277 105.006 111.768  1.00  0.00     0.157 A 
ATOM     16  C   UNL     1     103.635 103.512 109.966  1.00  0.00     0.062 A 
ATOM     17  C   UNL     1     103.720 103.791 111.337  1.00  0.00     0.158 A 
BRANCH  15  18
ATOM     18  O   UNL     1     104.374 105.314 113.125  1.00  0.00    -0.504 OA
ATOM     19  H   UNL     1     105.237 105.198 113.643  1.00  0.00     0.293 HD
ENDBRANCH  15  18
BRANCH  17  20
ATOM     20  O   UNL     1     103.254 102.867 112.271  1.00  0.00    -0.504 OA
ATOM     21  H   UNL     1     102.862 101.976 111.987  1.00  0.00     0.293 HD
ENDBRANCH  17  20
ENDBRANCH   1  12
BRANCH   6  22
ATOM     22  O   UNL     1     103.265 102.320 102.764  1.00  0.00    -0.507 OA
ATOM     23  H   UNL     1     103.273 101.394 103.163  1.00  0.00     0.293 HD
ENDBRANCH   6  22
BRANCH   8  24
ATOM     24  O   UNL     1     104.792 106.830 102.283  1.00  0.00    -0.508 OA
ATOM     25  H   UNL     1     104.096 107.496 101.968  1.00  0.00     0.293 HD
ENDBRANCH   8  24
TORSDOF 5
ENDMDL
