MODEL 1
REMARK VINA RESULT:     3.867      0.000      0.000
REMARK INTER + INTRA:           8.215
REMARK INTER:                   9.746
REMARK INTRA:                  -1.531
REMARK UNBOUND:                -1.531
REMARK SMILES CCCCCCCCCCCCCCCCCCCCCCCCCCCC(=O)[O-]
REMARK SMILES IDX 15 1 16 2 17 3 18 4 19 5 20 6 21 7 22 8 23 9 24 10 25 11
REMARK SMILES IDX 26 12 27 13 28 14 29 15 30 16 14 17 13 18 12 19 11 20 10 21
REMARK SMILES IDX 9 22 8 23 7 24 6 25 5 26 4 27 3 28 2 29 1 30
REMARK H PARENT
REMARK Flexibility Score: inf
ROOT
ATOM      1  C   UNL     1       7.295  13.044  15.796  1.00  0.00     0.000 C 
ENDROOT
BRANCH   1   2
ATOM      2  C   UNL     1       6.980  14.003  14.637  1.00  0.00     0.000 C 
BRANCH   2   3
ATOM      3  C   UNL     1       5.485  14.002  14.267  1.00  0.00     0.000 C 
BRANCH   3   4
ATOM      4  C   UNL     1       5.212  13.370  12.893  1.00  0.00     0.000 C 
BRANCH   4   5
ATOM      5  C   UNL     1       3.811  13.703  12.356  1.00  0.00     0.000 C 
BRANCH   5   6
ATOM      6  C   UNL     1       3.281  15.007  12.964  1.00  0.00     0.000 C 
BRANCH   6   7
ATOM      7  C   UNL     1       1.968  14.763  13.720  1.00  0.00     0.000 C 
BRANCH   7   8
ATOM      8  C   UNL     1       1.938  13.411  14.455  1.00  0.00     0.000 C 
BRANCH   8   9
ATOM      9  C   UNL     1       0.695  13.173  15.332  1.00  0.00     0.000 C 
BRANCH   9  10
ATOM     10  C   UNL     1      -0.587  13.775  14.733  1.00  0.00     0.000 C 
BRANCH  10  11
ATOM     11  C   UNL     1      -1.388  14.541  15.793  1.00  0.00     0.000 C 
BRANCH  11  12
ATOM     12  C   UNL     1      -2.895  14.338  15.594  1.00  0.00     0.006 C 
BRANCH  12  13
ATOM     13  C   UNL     1      -3.702  15.123  16.633  1.00  0.00     0.053 C 
BRANCH  13  14
ATOM     14  C   UNL     1      -3.021  16.412  16.967  1.00  0.00     0.041 C 
ATOM     15  O   UNL     1      -3.023  17.364  16.141  1.00  0.00    -0.550 OA
ATOM     16  O   UNL     1      -2.398  16.571  18.201  1.00  0.00    -0.550 OA
ENDBRANCH  13  14
ENDBRANCH  12  13
ENDBRANCH  11  12
ENDBRANCH  10  11
ENDBRANCH   9  10
ENDBRANCH   8   9
ENDBRANCH   7   8
ENDBRANCH   6   7
ENDBRANCH   5   6
ENDBRANCH   4   5
ENDBRANCH   3   4
ENDBRANCH   2   3
ENDBRANCH   1   2
BRANCH   1  17
ATOM     17  C   UNL     1       7.234  13.735  17.169  1.00  0.00     0.000 C 
BRANCH  17  18
ATOM     18  C   UNL     1       5.802  13.826  17.724  1.00  0.00     0.000 C 
BRANCH  18  19
ATOM     19  C   UNL     1       5.708  14.128  19.235  1.00  0.00     0.000 C 
BRANCH  19  20
ATOM     20  C   UNL     1       5.435  15.601  19.591  1.00  0.00     0.000 C 
BRANCH  20  21
ATOM     21  C   UNL     1       6.663  16.305  20.184  1.00  0.00     0.000 C 
BRANCH  21  22
ATOM     22  C   UNL     1       6.245  17.342  21.238  1.00  0.00    -0.000 C 
BRANCH  22  23
ATOM     23  C   UNL     1       4.911  16.994  21.920  1.00  0.00    -0.000 C 
BRANCH  23  24
ATOM     24  C   UNL     1       4.304  18.118  22.783  1.00  0.00    -0.000 C 
BRANCH  24  25
ATOM     25  C   UNL     1       5.297  19.250  23.127  1.00  0.00    -0.000 C 
BRANCH  25  26
ATOM     26  C   UNL     1       5.630  19.299  24.627  1.00  0.00    -0.000 C 
BRANCH  26  27
ATOM     27  C   UNL     1       6.338  18.013  25.077  1.00  0.00    -0.000 C 
BRANCH  27  28
ATOM     28  C   UNL     1       7.849  18.040  24.792  1.00  0.00    -0.000 C 
BRANCH  28  29
ATOM     29  C   UNL     1       8.669  17.273  25.843  1.00  0.00    -0.003 C 
ATOM     30  C   UNL     1       8.600  17.959  27.205  1.00  0.00     0.004 C 
ENDBRANCH  28  29
ENDBRANCH  27  28
ENDBRANCH  26  27
ENDBRANCH  25  26
ENDBRANCH  24  25
ENDBRANCH  23  24
ENDBRANCH  22  23
ENDBRANCH  21  22
ENDBRANCH  20  21
ENDBRANCH  19  20
ENDBRANCH  18  19
ENDBRANCH  17  18
ENDBRANCH   1  17
TORSDOF 26
ENDMDL
MODEL 2
REMARK VINA RESULT:     4.151     12.643     16.734
REMARK INTER + INTRA:           8.930
REMARK INTER:                   8.209
REMARK INTRA:                   0.721
REMARK UNBOUND:                -1.531
REMARK SMILES CCCCCCCCCCCCCCCCCCCCCCCCCCCC(=O)[O-]
REMARK SMILES IDX 15 1 16 2 17 3 18 4 19 5 20 6 21 7 22 8 23 9 24 10 25 11
REMARK SMILES IDX 26 12 27 13 28 14 29 15 30 16 14 17 13 18 12 19 11 20 10 21
REMARK SMILES IDX 9 22 8 23 7 24 6 25 5 26 4 27 3 28 2 29 1 30
REMARK H PARENT
REMARK Flexibility Score: inf
ROOT
ATOM      1  C   UNL     1       1.752  28.929  27.559  1.00  0.00     0.000 C 
ENDROOT
BRANCH   1   2
ATOM      2  C   UNL     1       2.529  27.732  28.128  1.00  0.00     0.000 C 
BRANCH   2   3
ATOM      3  C   UNL     1       1.740  26.414  28.012  1.00  0.00     0.000 C 
BRANCH   3   4
ATOM      4  C   UNL     1       2.555  25.288  27.356  1.00  0.00     0.000 C 
BRANCH   4   5
ATOM      5  C   UNL     1       1.724  24.019  27.115  1.00  0.00     0.000 C 
BRANCH   5   6
ATOM      6  C   UNL     1       0.438  24.032  27.951  1.00  0.00     0.000 C 
BRANCH   6   7
ATOM      7  C   UNL     1      -0.169  22.625  28.041  1.00  0.00     0.000 C 
BRANCH   7   8
ATOM      8  C   UNL     1      -0.585  22.060  26.671  1.00  0.00     0.000 C 
BRANCH   8   9
ATOM      9  C   UNL     1      -2.101  22.066  26.397  1.00  0.00     0.000 C 
BRANCH   9  10
ATOM     10  C   UNL     1      -2.942  21.843  27.665  1.00  0.00     0.000 C 
BRANCH  10  11
ATOM     11  C   UNL     1      -4.149  20.941  27.378  1.00  0.00     0.000 C 
BRANCH  11  12
ATOM     12  C   UNL     1      -5.276  21.197  28.386  1.00  0.00     0.006 C 
BRANCH  12  13
ATOM     13  C   UNL     1      -5.926  19.885  28.835  1.00  0.00     0.053 C 
BRANCH  13  14
ATOM     14  C   UNL     1      -5.884  18.871  27.736  1.00  0.00     0.041 C 
ATOM     15  O   UNL     1      -6.125  19.213  26.547  1.00  0.00    -0.550 OA
ATOM     16  O   UNL     1      -5.558  17.548  28.021  1.00  0.00    -0.550 OA
ENDBRANCH  13  14
ENDBRANCH  12  13
ENDBRANCH  11  12
ENDBRANCH  10  11
ENDBRANCH   9  10
ENDBRANCH   8   9
ENDBRANCH   7   8
ENDBRANCH   6   7
ENDBRANCH   5   6
ENDBRANCH   4   5
ENDBRANCH   3   4
ENDBRANCH   2   3
ENDBRANCH   1   2
BRANCH   1  17
ATOM     17  C   UNL     1       2.657  30.139  27.270  1.00  0.00     0.000 C 
BRANCH  17  18
ATOM     18  C   UNL     1       2.858  31.038  28.502  1.00  0.00     0.000 C 
BRANCH  18  19
ATOM     19  C   UNL     1       1.560  31.600  29.118  1.00  0.00     0.000 C 
BRANCH  19  20
ATOM     20  C   UNL     1       0.683  32.421  28.154  1.00  0.00     0.000 C 
BRANCH  20  21
ATOM     21  C   UNL     1      -0.624  32.898  28.802  1.00  0.00     0.000 C 
BRANCH  21  22
ATOM     22  C   UNL     1      -1.788  32.834  27.801  1.00  0.00    -0.000 C 
BRANCH  22  23
ATOM     23  C   UNL     1      -3.094  32.328  28.437  1.00  0.00    -0.000 C 
BRANCH  23  24
ATOM     24  C   UNL     1      -3.788  31.177  27.680  1.00  0.00    -0.000 C 
BRANCH  24  25
ATOM     25  C   UNL     1      -3.600  31.233  26.148  1.00  0.00    -0.000 C 
BRANCH  25  26
ATOM     26  C   UNL     1      -2.267  31.885  25.747  1.00  0.00    -0.000 C 
BRANCH  26  27
ATOM     27  C   UNL     1      -1.217  30.821  25.393  1.00  0.00    -0.000 C 
BRANCH  27  28
ATOM     28  C   UNL     1      -0.758  30.910  23.927  1.00  0.00    -0.000 C 
BRANCH  28  29
ATOM     29  C   UNL     1       0.725  30.548  23.743  1.00  0.00    -0.003 C 
ATOM     30  C   UNL     1       0.966  29.876  22.393  1.00  0.00     0.004 C 
ENDBRANCH  28  29
ENDBRANCH  27  28
ENDBRANCH  26  27
ENDBRANCH  25  26
ENDBRANCH  24  25
ENDBRANCH  23  24
ENDBRANCH  22  23
ENDBRANCH  21  22
ENDBRANCH  20  21
ENDBRANCH  19  20
ENDBRANCH  18  19
ENDBRANCH  17  18
ENDBRANCH   1  17
TORSDOF 26
ENDMDL
MODEL 3
REMARK VINA RESULT:     4.372      3.641     10.320
REMARK INTER + INTRA:           9.486
REMARK INTER:                  11.146
REMARK INTRA:                  -1.660
REMARK UNBOUND:                -1.531
REMARK SMILES CCCCCCCCCCCCCCCCCCCCCCCCCCCC(=O)[O-]
REMARK SMILES IDX 15 1 16 2 17 3 18 4 19 5 20 6 21 7 22 8 23 9 24 10 25 11
REMARK SMILES IDX 26 12 27 13 28 14 29 15 30 16 14 17 13 18 12 19 11 20 10 21
REMARK SMILES IDX 9 22 8 23 7 24 6 25 5 26 4 27 3 28 2 29 1 30
REMARK H PARENT
REMARK Flexibility Score: inf
ROOT
ATOM      1  C   UNL     1       7.885  13.737  15.689  1.00  0.00     0.000 C 
ENDROOT
BRANCH   1   2
ATOM      2  C   UNL     1       7.105  13.067  16.831  1.00  0.00     0.000 C 
BRANCH   2   3
ATOM      3  C   UNL     1       6.854  14.026  18.010  1.00  0.00     0.000 C 
BRANCH   3   4
ATOM      4  C   UNL     1       5.374  14.095  18.417  1.00  0.00     0.000 C 
BRANCH   4   5
ATOM      5  C   UNL     1       5.118  15.102  19.549  1.00  0.00     0.000 C 
BRANCH   5   6
ATOM      6  C   UNL     1       6.401  15.856  19.919  1.00  0.00     0.000 C 
BRANCH   6   7
ATOM      7  C   UNL     1       6.121  16.914  20.997  1.00  0.00     0.000 C 
BRANCH   7   8
ATOM      8  C   UNL     1       4.650  16.936  21.451  1.00  0.00     0.000 C 
BRANCH   8   9
ATOM      9  C   UNL     1       4.383  17.710  22.755  1.00  0.00     0.000 C 
BRANCH   9  10
ATOM     10  C   UNL     1       4.729  19.204  22.648  1.00  0.00     0.000 C 
BRANCH  10  11
ATOM     11  C   UNL     1       5.864  19.581  23.608  1.00  0.00     0.000 C 
BRANCH  11  12
ATOM     12  C   UNL     1       6.247  18.393  24.498  1.00  0.00     0.006 C 
BRANCH  12  13
ATOM     13  C   UNL     1       7.752  18.115  24.436  1.00  0.00     0.053 C 
BRANCH  13  14
ATOM     14  C   UNL     1       8.171  17.219  25.558  1.00  0.00     0.041 C 
ATOM     15  O   UNL     1       8.505  17.709  26.670  1.00  0.00    -0.550 OA
ATOM     16  O   UNL     1       8.174  15.839  25.383  1.00  0.00    -0.550 OA
ENDBRANCH  13  14
ENDBRANCH  12  13
ENDBRANCH  11  12
ENDBRANCH  10  11
ENDBRANCH   9  10
ENDBRANCH   8   9
ENDBRANCH   7   8
ENDBRANCH   6   7
ENDBRANCH   5   6
ENDBRANCH   4   5
ENDBRANCH   3   4
ENDBRANCH   2   3
ENDBRANCH   1   2
BRANCH   1  17
ATOM     17  C   UNL     1       7.006  14.023  14.459  1.00  0.00     0.000 C 
BRANCH  17  18
ATOM     18  C   UNL     1       5.530  13.654  14.687  1.00  0.00     0.000 C 
BRANCH  18  19
ATOM     19  C   UNL     1       4.529  14.371  13.756  1.00  0.00     0.000 C 
BRANCH  19  20
ATOM     20  C   UNL     1       3.182  13.649  13.566  1.00  0.00     0.000 C 
BRANCH  20  21
ATOM     21  C   UNL     1       2.054  14.268  14.404  1.00  0.00     0.000 C 
BRANCH  21  22
ATOM     22  C   UNL     1       1.092  13.184  14.914  1.00  0.00    -0.000 C 
BRANCH  22  23
ATOM     23  C   UNL     1      -0.365  13.432  14.490  1.00  0.00    -0.000 C 
BRANCH  23  24
ATOM     24  C   UNL     1      -1.191  14.299  15.462  1.00  0.00    -0.000 C 
BRANCH  24  25
ATOM     25  C   UNL     1      -2.711  14.033  15.400  1.00  0.00    -0.000 C 
BRANCH  25  26
ATOM     26  C   UNL     1      -3.502  14.940  16.358  1.00  0.00    -0.000 C 
BRANCH  26  27
ATOM     27  C   UNL     1      -2.664  15.301  17.593  1.00  0.00    -0.000 C 
BRANCH  27  28
ATOM     28  C   UNL     1      -2.604  16.817  17.844  1.00  0.00    -0.000 C 
BRANCH  28  29
ATOM     29  C   UNL     1      -3.531  17.614  16.910  1.00  0.00    -0.003 C 
ATOM     30  C   UNL     1      -2.790  18.073  15.657  1.00  0.00     0.004 C 
ENDBRANCH  28  29
ENDBRANCH  27  28
ENDBRANCH  26  27
ENDBRANCH  25  26
ENDBRANCH  24  25
ENDBRANCH  23  24
ENDBRANCH  22  23
ENDBRANCH  21  22
ENDBRANCH  20  21
ENDBRANCH  19  20
ENDBRANCH  18  19
ENDBRANCH  17  18
ENDBRANCH   1  17
TORSDOF 26
ENDMDL
MODEL 4
REMARK VINA RESULT:     4.598      3.792     10.651
REMARK INTER + INTRA:          10.056
REMARK INTER:                  10.616
REMARK INTRA:                  -0.560
REMARK UNBOUND:                -1.531
REMARK SMILES CCCCCCCCCCCCCCCCCCCCCCCCCCCC(=O)[O-]
REMARK SMILES IDX 15 1 16 2 17 3 18 4 19 5 20 6 21 7 22 8 23 9 24 10 25 11
REMARK SMILES IDX 26 12 27 13 28 14 29 15 30 16 14 17 13 18 12 19 11 20 10 21
REMARK SMILES IDX 9 22 8 23 7 24 6 25 5 26 4 27 3 28 2 29 1 30
REMARK H PARENT
REMARK Flexibility Score: inf
ROOT
ATOM      1  C   UNL     1       5.787  14.011  17.379  1.00  0.00     0.000 C 
ENDROOT
BRANCH   1   2
ATOM      2  C   UNL     1       5.627  13.565  18.841  1.00  0.00     0.000 C 
BRANCH   2   3
ATOM      3  C   UNL     1       5.937  14.699  19.836  1.00  0.00     0.000 C 
BRANCH   3   4
ATOM      4  C   UNL     1       5.042  15.932  19.632  1.00  0.00     0.000 C 
BRANCH   4   5
ATOM      5  C   UNL     1       5.438  17.108  20.538  1.00  0.00     0.000 C 
BRANCH   5   6
ATOM      6  C   UNL     1       6.962  17.262  20.610  1.00  0.00     0.000 C 
BRANCH   6   7
ATOM      7  C   UNL     1       7.438  17.315  22.069  1.00  0.00     0.000 C 
BRANCH   7   8
ATOM      8  C   UNL     1       7.551  18.750  22.612  1.00  0.00     0.000 C 
BRANCH   8   9
ATOM      9  C   UNL     1       6.253  19.578  22.544  1.00  0.00     0.000 C 
BRANCH   9  10
ATOM     10  C   UNL     1       5.264  19.237  23.671  1.00  0.00     0.000 C 
BRANCH  10  11
ATOM     11  C   UNL     1       5.998  18.726  24.917  1.00  0.00     0.000 C 
BRANCH  11  12
ATOM     12  C   UNL     1       5.775  17.220  25.106  1.00  0.00     0.006 C 
BRANCH  12  13
ATOM     13  C   UNL     1       7.100  16.490  25.344  1.00  0.00     0.053 C 
BRANCH  13  14
ATOM     14  C   UNL     1       8.120  17.420  25.920  1.00  0.00     0.041 C 
ATOM     15  O   UNL     1       8.138  17.656  27.158  1.00  0.00    -0.550 OA
ATOM     16  O   UNL     1       9.067  18.014  25.091  1.00  0.00    -0.550 OA
ENDBRANCH  13  14
ENDBRANCH  12  13
ENDBRANCH  11  12
ENDBRANCH  10  11
ENDBRANCH   9  10
ENDBRANCH   8   9
ENDBRANCH   7   8
ENDBRANCH   6   7
ENDBRANCH   5   6
ENDBRANCH   4   5
ENDBRANCH   3   4
ENDBRANCH   2   3
ENDBRANCH   1   2
BRANCH   1  17
ATOM     17  C   UNL     1       7.053  13.437  16.720  1.00  0.00     0.000 C 
BRANCH  17  18
ATOM     18  C   UNL     1       7.261  13.953  15.286  1.00  0.00     0.000 C 
BRANCH  18  19
ATOM     19  C   UNL     1       6.181  13.516  14.274  1.00  0.00     0.000 C 
BRANCH  19  20
ATOM     20  C   UNL     1       4.912  14.390  14.256  1.00  0.00     0.000 C 
BRANCH  20  21
ATOM     21  C   UNL     1       4.015  14.107  13.043  1.00  0.00     0.000 C 
BRANCH  21  22
ATOM     22  C   UNL     1       2.542  14.397  13.372  1.00  0.00    -0.000 C 
BRANCH  22  23
ATOM     23  C   UNL     1       2.149  13.953  14.791  1.00  0.00    -0.000 C 
BRANCH  23  24
ATOM     24  C   UNL     1       1.047  12.876  14.859  1.00  0.00    -0.000 C 
BRANCH  24  25
ATOM     25  C   UNL     1      -0.350  13.383  14.441  1.00  0.00    -0.000 C 
BRANCH  25  26
ATOM     26  C   UNL     1      -0.958  14.340  15.479  1.00  0.00    -0.000 C 
BRANCH  26  27
ATOM     27  C   UNL     1      -2.474  14.129  15.601  1.00  0.00    -0.000 C 
BRANCH  27  28
ATOM     28  C   UNL     1      -3.192  15.343  16.215  1.00  0.00    -0.000 C 
BRANCH  28  29
ATOM     29  C   UNL     1      -2.516  15.849  17.501  1.00  0.00    -0.003 C 
ATOM     30  C   UNL     1      -3.197  17.113  18.022  1.00  0.00     0.004 C 
ENDBRANCH  28  29
ENDBRANCH  27  28
ENDBRANCH  26  27
ENDBRANCH  25  26
ENDBRANCH  24  25
ENDBRANCH  23  24
ENDBRANCH  22  23
ENDBRANCH  21  22
ENDBRANCH  20  21
ENDBRANCH  19  20
ENDBRANCH  18  19
ENDBRANCH  17  18
ENDBRANCH   1  17
TORSDOF 26
ENDMDL
MODEL 5
REMARK VINA RESULT:     4.607     10.100     15.796
REMARK INTER + INTRA:          10.078
REMARK INTER:                  10.199
REMARK INTRA:                  -0.120
REMARK UNBOUND:                -1.531
REMARK SMILES CCCCCCCCCCCCCCCCCCCCCCCCCCCC(=O)[O-]
REMARK SMILES IDX 15 1 16 2 17 3 18 4 19 5 20 6 21 7 22 8 23 9 24 10 25 11
REMARK SMILES IDX 26 12 27 13 28 14 29 15 30 16 14 17 13 18 12 19 11 20 10 21
REMARK SMILES IDX 9 22 8 23 7 24 6 25 5 26 4 27 3 28 2 29 1 30
REMARK H PARENT
REMARK Flexibility Score: inf
ROOT
ATOM      1  C   UNL     1       3.419  25.630  26.734  1.00  0.00     0.000 C 
ENDROOT
BRANCH   1   2
ATOM      2  C   UNL     1       2.253  26.005  27.662  1.00  0.00     0.000 C 
BRANCH   2   3
ATOM      3  C   UNL     1       2.522  27.306  28.442  1.00  0.00     0.000 C 
BRANCH   3   4
ATOM      4  C   UNL     1       2.268  28.567  27.601  1.00  0.00     0.000 C 
BRANCH   4   5
ATOM      5  C   UNL     1       2.440  29.862  28.410  1.00  0.00     0.000 C 
BRANCH   5   6
ATOM      6  C   UNL     1       3.293  30.882  27.646  1.00  0.00     0.000 C 
BRANCH   6   7
ATOM      7  C   UNL     1       2.414  31.775  26.759  1.00  0.00     0.000 C 
BRANCH   7   8
ATOM      8  C   UNL     1       0.918  31.689  27.113  1.00  0.00     0.000 C 
BRANCH   8   9
ATOM      9  C   UNL     1       0.010  31.162  25.986  1.00  0.00     0.000 C 
BRANCH   9  10
ATOM     10  C   UNL     1      -1.455  31.601  26.142  1.00  0.00     0.000 C 
BRANCH  10  11
ATOM     11  C   UNL     1      -1.579  32.791  27.101  1.00  0.00     0.000 C 
BRANCH  11  12
ATOM     12  C   UNL     1      -2.489  32.448  28.287  1.00  0.00     0.006 C 
BRANCH  12  13
ATOM     13  C   UNL     1      -3.966  32.595  27.913  1.00  0.00     0.053 C 
BRANCH  13  14
ATOM     14  C   UNL     1      -4.700  31.311  28.141  1.00  0.00     0.041 C 
ATOM     15  O   UNL     1      -5.743  31.292  28.848  1.00  0.00    -0.550 OA
ATOM     16  O   UNL     1      -4.241  30.134  27.556  1.00  0.00    -0.550 OA
ENDBRANCH  13  14
ENDBRANCH  12  13
ENDBRANCH  11  12
ENDBRANCH  10  11
ENDBRANCH   9  10
ENDBRANCH   8   9
ENDBRANCH   7   8
ENDBRANCH   6   7
ENDBRANCH   5   6
ENDBRANCH   4   5
ENDBRANCH   3   4
ENDBRANCH   2   3
ENDBRANCH   1   2
BRANCH   1  17
ATOM     17  C   UNL     1       3.359  24.164  26.272  1.00  0.00     0.000 C 
BRANCH  17  18
ATOM     18  C   UNL     1       4.617  23.367  26.660  1.00  0.00     0.000 C 
BRANCH  18  19
ATOM     19  C   UNL     1       4.400  21.849  26.827  1.00  0.00     0.000 C 
BRANCH  19  20
ATOM     20  C   UNL     1       4.709  21.003  25.578  1.00  0.00     0.000 C 
BRANCH  20  21
ATOM     21  C   UNL     1       5.162  19.578  25.923  1.00  0.00     0.000 C 
BRANCH  21  22
ATOM     22  C   UNL     1       5.589  18.817  24.658  1.00  0.00    -0.000 C 
BRANCH  22  23
ATOM     23  C   UNL     1       5.954  17.349  24.940  1.00  0.00    -0.000 C 
BRANCH  23  24
ATOM     24  C   UNL     1       7.465  17.051  25.003  1.00  0.00    -0.000 C 
BRANCH  24  25
ATOM     25  C   UNL     1       8.346  18.136  24.346  1.00  0.00    -0.000 C 
BRANCH  25  26
ATOM     26  C   UNL     1       8.152  18.201  22.822  1.00  0.00    -0.000 C 
BRANCH  26  27
ATOM     27  C   UNL     1       7.143  17.145  22.349  1.00  0.00    -0.000 C 
BRANCH  27  28
ATOM     28  C   UNL     1       7.013  17.097  20.817  1.00  0.00    -0.000 C 
BRANCH  28  29
ATOM     29  C   UNL     1       5.947  16.096  20.339  1.00  0.00    -0.003 C 
ATOM     30  C   UNL     1       4.954  16.759  19.388  1.00  0.00     0.004 C 
ENDBRANCH  28  29
ENDBRANCH  27  28
ENDBRANCH  26  27
ENDBRANCH  25  26
ENDBRANCH  24  25
ENDBRANCH  23  24
ENDBRANCH  22  23
ENDBRANCH  21  22
ENDBRANCH  20  21
ENDBRANCH  19  20
ENDBRANCH  18  19
ENDBRANCH  17  18
ENDBRANCH   1  17
TORSDOF 26
ENDMDL
MODEL 6
REMARK VINA RESULT:     4.709      2.568     10.584
REMARK INTER + INTRA:          10.335
REMARK INTER:                  11.371
REMARK INTRA:                  -1.036
REMARK UNBOUND:                -1.531
REMARK SMILES CCCCCCCCCCCCCCCCCCCCCCCCCCCC(=O)[O-]
REMARK SMILES IDX 15 1 16 2 17 3 18 4 19 5 20 6 21 7 22 8 23 9 24 10 25 11
REMARK SMILES IDX 26 12 27 13 28 14 29 15 30 16 14 17 13 18 12 19 11 20 10 21
REMARK SMILES IDX 9 22 8 23 7 24 6 25 5 26 4 27 3 28 2 29 1 30
REMARK H PARENT
REMARK Flexibility Score: inf
ROOT
ATOM      1  C   UNL     1       5.969  13.632  17.418  1.00  0.00     0.000 C 
ENDROOT
BRANCH   1   2
ATOM      2  C   UNL     1       6.116  14.116  18.869  1.00  0.00     0.000 C 
BRANCH   2   3
ATOM      3  C   UNL     1       5.505  15.513  19.085  1.00  0.00     0.000 C 
BRANCH   3   4
ATOM      4  C   UNL     1       5.511  15.944  20.560  1.00  0.00     0.000 C 
BRANCH   4   5
ATOM      5  C   UNL     1       6.466  17.118  20.830  1.00  0.00     0.000 C 
BRANCH   5   6
ATOM      6  C   UNL     1       7.155  16.969  22.192  1.00  0.00     0.000 C 
BRANCH   6   7
ATOM      7  C   UNL     1       8.165  18.102  22.420  1.00  0.00     0.000 C 
BRANCH   7   8
ATOM      8  C   UNL     1       8.706  18.146  23.860  1.00  0.00     0.000 C 
BRANCH   8   9
ATOM      9  C   UNL     1       8.608  16.817  24.633  1.00  0.00     0.000 C 
BRANCH   9  10
ATOM     10  C   UNL     1       8.078  16.994  26.065  1.00  0.00     0.000 C 
BRANCH  10  11
ATOM     11  C   UNL     1       7.221  18.260  26.187  1.00  0.00     0.000 C 
BRANCH  11  12
ATOM     12  C   UNL     1       5.872  18.080  25.479  1.00  0.00     0.006 C 
BRANCH  12  13
ATOM     13  C   UNL     1       5.435  19.372  24.783  1.00  0.00     0.053 C 
BRANCH  13  14
ATOM     14  C   UNL     1       4.988  19.093  23.383  1.00  0.00     0.041 C 
ATOM     15  O   UNL     1       4.359  18.034  23.116  1.00  0.00    -0.550 OA
ATOM     16  O   UNL     1       5.249  20.014  22.373  1.00  0.00    -0.550 OA
ENDBRANCH  13  14
ENDBRANCH  12  13
ENDBRANCH  11  12
ENDBRANCH  10  11
ENDBRANCH   9  10
ENDBRANCH   8   9
ENDBRANCH   7   8
ENDBRANCH   6   7
ENDBRANCH   5   6
ENDBRANCH   4   5
ENDBRANCH   3   4
ENDBRANCH   2   3
ENDBRANCH   1   2
BRANCH   1  17
ATOM     17  C   UNL     1       7.319  13.536  16.687  1.00  0.00     0.000 C 
BRANCH  17  18
ATOM     18  C   UNL     1       7.236  14.002  15.223  1.00  0.00     0.000 C 
BRANCH  18  19
ATOM     19  C   UNL     1       6.057  13.416  14.419  1.00  0.00     0.000 C 
BRANCH  19  20
ATOM     20  C   UNL     1       4.837  14.346  14.277  1.00  0.00     0.000 C 
BRANCH  20  21
ATOM     21  C   UNL     1       4.044  14.091  12.988  1.00  0.00     0.000 C 
BRANCH  21  22
ATOM     22  C   UNL     1       2.629  13.584  13.306  1.00  0.00    -0.000 C 
BRANCH  22  23
ATOM     23  C   UNL     1       2.194  13.898  14.748  1.00  0.00    -0.000 C 
BRANCH  23  24
ATOM     24  C   UNL     1       1.006  13.064  15.270  1.00  0.00    -0.000 C 
BRANCH  24  25
ATOM     25  C   UNL     1      -0.336  13.385  14.578  1.00  0.00    -0.000 C 
BRANCH  25  26
ATOM     26  C   UNL     1      -1.186  14.380  15.386  1.00  0.00    -0.000 C 
BRANCH  26  27
ATOM     27  C   UNL     1      -2.675  14.009  15.325  1.00  0.00    -0.000 C 
BRANCH  27  28
ATOM     28  C   UNL     1      -3.514  14.765  16.370  1.00  0.00    -0.000 C 
BRANCH  28  29
ATOM     29  C   UNL     1      -2.729  15.888  17.068  1.00  0.00    -0.003 C 
ATOM     30  C   UNL     1      -3.199  17.263  16.599  1.00  0.00     0.004 C 
ENDBRANCH  28  29
ENDBRANCH  27  28
ENDBRANCH  26  27
ENDBRANCH  25  26
ENDBRANCH  24  25
ENDBRANCH  23  24
ENDBRANCH  22  23
ENDBRANCH  21  22
ENDBRANCH  20  21
ENDBRANCH  19  20
ENDBRANCH  18  19
ENDBRANCH  17  18
ENDBRANCH   1  17
TORSDOF 26
ENDMDL
MODEL 7
REMARK VINA RESULT:     4.716      5.607      9.764
REMARK INTER + INTRA:          10.354
REMARK INTER:                  11.825
REMARK INTRA:                  -1.471
REMARK UNBOUND:                -1.531
REMARK SMILES CCCCCCCCCCCCCCCCCCCCCCCCCCCC(=O)[O-]
REMARK SMILES IDX 15 1 16 2 17 3 18 4 19 5 20 6 21 7 22 8 23 9 24 10 25 11
REMARK SMILES IDX 26 12 27 13 28 14 29 15 30 16 14 17 13 18 12 19 11 20 10 21
REMARK SMILES IDX 9 22 8 23 7 24 6 25 5 26 4 27 3 28 2 29 1 30
REMARK H PARENT
REMARK Flexibility Score: inf
ROOT
ATOM      1  C   UNL     1       5.470  19.117  25.239  1.00  0.00     0.000 C 
ENDROOT
BRANCH   1   2
ATOM      2  C   UNL     1       5.129  19.560  23.808  1.00  0.00     0.000 C 
BRANCH   2   3
ATOM      3  C   UNL     1       6.303  19.351  22.834  1.00  0.00     0.000 C 
BRANCH   3   4
ATOM      4  C   UNL     1       7.027  18.013  23.053  1.00  0.00     0.000 C 
BRANCH   4   5
ATOM      5  C   UNL     1       6.658  16.960  21.996  1.00  0.00     0.000 C 
BRANCH   5   6
ATOM      6  C   UNL     1       5.927  17.600  20.809  1.00  0.00     0.000 C 
BRANCH   6   7
ATOM      7  C   UNL     1       5.475  16.531  19.805  1.00  0.00     0.000 C 
BRANCH   7   8
ATOM      8  C   UNL     1       5.483  15.110  20.395  1.00  0.00     0.000 C 
BRANCH   8   9
ATOM      9  C   UNL     1       5.424  13.973  19.357  1.00  0.00     0.000 C 
BRANCH   9  10
ATOM     10  C   UNL     1       5.502  14.479  17.907  1.00  0.00     0.000 C 
BRANCH  10  11
ATOM     11  C   UNL     1       4.156  14.313  17.189  1.00  0.00     0.000 C 
BRANCH  11  12
ATOM     12  C   UNL     1       4.361  14.091  15.686  1.00  0.00     0.006 C 
BRANCH  12  13
ATOM     13  C   UNL     1       3.020  14.023  14.948  1.00  0.00     0.053 C 
BRANCH  13  14
ATOM     14  C   UNL     1       3.198  14.345  13.498  1.00  0.00     0.041 C 
ATOM     15  O   UNL     1       3.585  13.456  12.693  1.00  0.00    -0.550 OA
ATOM     16  O   UNL     1       2.917  15.625  13.030  1.00  0.00    -0.550 OA
ENDBRANCH  13  14
ENDBRANCH  12  13
ENDBRANCH  11  12
ENDBRANCH  10  11
ENDBRANCH   9  10
ENDBRANCH   8   9
ENDBRANCH   7   8
ENDBRANCH   6   7
ENDBRANCH   5   6
ENDBRANCH   4   5
ENDBRANCH   3   4
ENDBRANCH   2   3
ENDBRANCH   1   2
BRANCH   1  17
ATOM     17  C   UNL     1       5.110  20.180  26.290  1.00  0.00     0.000 C 
BRANCH  17  18
ATOM     18  C   UNL     1       4.476  21.437  25.670  1.00  0.00     0.000 C 
BRANCH  18  19
ATOM     19  C   UNL     1       4.407  22.661  26.606  1.00  0.00     0.000 C 
BRANCH  19  20
ATOM     20  C   UNL     1       3.713  23.901  26.011  1.00  0.00     0.000 C 
BRANCH  20  21
ATOM     21  C   UNL     1       2.464  24.318  26.799  1.00  0.00     0.000 C 
BRANCH  21  22
ATOM     22  C   UNL     1       1.393  23.218  26.752  1.00  0.00    -0.000 C 
BRANCH  22  23
ATOM     23  C   UNL     1       0.235  23.470  27.733  1.00  0.00    -0.000 C 
BRANCH  23  24
ATOM     24  C   UNL     1      -0.654  22.245  28.026  1.00  0.00    -0.000 C 
BRANCH  24  25
ATOM     25  C   UNL     1      -1.155  21.518  26.759  1.00  0.00    -0.000 C 
BRANCH  25  26
ATOM     26  C   UNL     1      -2.377  22.211  26.133  1.00  0.00    -0.000 C 
BRANCH  26  27
ATOM     27  C   UNL     1      -3.622  21.317  26.220  1.00  0.00    -0.000 C 
BRANCH  27  28
ATOM     28  C   UNL     1      -4.132  21.153  27.662  1.00  0.00    -0.000 C 
BRANCH  28  29
ATOM     29  C   UNL     1      -5.463  20.387  27.742  1.00  0.00    -0.003 C 
ATOM     30  C   UNL     1      -5.238  18.879  27.676  1.00  0.00     0.004 C 
ENDBRANCH  28  29
ENDBRANCH  27  28
ENDBRANCH  26  27
ENDBRANCH  25  26
ENDBRANCH  24  25
ENDBRANCH  23  24
ENDBRANCH  22  23
ENDBRANCH  21  22
ENDBRANCH  20  21
ENDBRANCH  19  20
ENDBRANCH  18  19
ENDBRANCH  17  18
ENDBRANCH   1  17
TORSDOF 26
ENDMDL
MODEL 8
REMARK VINA RESULT:     4.795     10.207     15.512
REMARK INTER + INTRA:          10.552
REMARK INTER:                  11.584
REMARK INTRA:                  -1.032
REMARK UNBOUND:                -1.531
REMARK SMILES CCCCCCCCCCCCCCCCCCCCCCCCCCCC(=O)[O-]
REMARK SMILES IDX 15 1 16 2 17 3 18 4 19 5 20 6 21 7 22 8 23 9 24 10 25 11
REMARK SMILES IDX 26 12 27 13 28 14 29 15 30 16 14 17 13 18 12 19 11 20 10 21
REMARK SMILES IDX 9 22 8 23 7 24 6 25 5 26 4 27 3 28 2 29 1 30
REMARK H PARENT
REMARK Flexibility Score: inf
ROOT
ATOM      1  C   UNL     1       3.051  26.395  26.684  1.00  0.00     0.000 C 
ENDROOT
BRANCH   1   2
ATOM      2  C   UNL     1       3.040  24.901  27.046  1.00  0.00     0.000 C 
BRANCH   2   3
ATOM      3  C   UNL     1       3.973  24.074  26.142  1.00  0.00     0.000 C 
BRANCH   3   4
ATOM      4  C   UNL     1       4.660  22.921  26.891  1.00  0.00     0.000 C 
BRANCH   4   5
ATOM      5  C   UNL     1       4.040  21.552  26.568  1.00  0.00     0.000 C 
BRANCH   5   6
ATOM      6  C   UNL     1       5.102  20.447  26.581  1.00  0.00     0.000 C 
BRANCH   6   7
ATOM      7  C   UNL     1       4.884  19.466  25.421  1.00  0.00     0.000 C 
BRANCH   7   8
ATOM      8  C   UNL     1       6.128  18.616  25.108  1.00  0.00     0.000 C 
BRANCH   8   9
ATOM      9  C   UNL     1       6.932  19.067  23.873  1.00  0.00     0.000 C 
BRANCH   9  10
ATOM     10  C   UNL     1       7.876  17.976  23.341  1.00  0.00     0.000 C 
BRANCH  10  11
ATOM     11  C   UNL     1       7.132  16.999  22.422  1.00  0.00     0.000 C 
BRANCH  11  12
ATOM     12  C   UNL     1       7.420  17.304  20.947  1.00  0.00     0.006 C 
BRANCH  12  13
ATOM     13  C   UNL     1       6.127  17.359  20.129  1.00  0.00     0.053 C 
BRANCH  13  14
ATOM     14  C   UNL     1       5.211  16.240  20.513  1.00  0.00     0.041 C 
ATOM     15  O   UNL     1       4.311  16.423  21.376  1.00  0.00    -0.550 OA
ATOM     16  O   UNL     1       5.338  14.996  19.902  1.00  0.00    -0.550 OA
ENDBRANCH  13  14
ENDBRANCH  12  13
ENDBRANCH  11  12
ENDBRANCH  10  11
ENDBRANCH   9  10
ENDBRANCH   8   9
ENDBRANCH   7   8
ENDBRANCH   6   7
ENDBRANCH   5   6
ENDBRANCH   4   5
ENDBRANCH   3   4
ENDBRANCH   2   3
ENDBRANCH   1   2
BRANCH   1  17
ATOM     17  C   UNL     1       2.365  27.267  27.750  1.00  0.00     0.000 C 
BRANCH  17  18
ATOM     18  C   UNL     1       2.260  28.744  27.331  1.00  0.00     0.000 C 
BRANCH  18  19
ATOM     19  C   UNL     1       2.591  29.761  28.442  1.00  0.00     0.000 C 
BRANCH  19  20
ATOM     20  C   UNL     1       3.241  31.070  27.957  1.00  0.00     0.000 C 
BRANCH  20  21
ATOM     21  C   UNL     1       2.472  32.319  28.411  1.00  0.00     0.000 C 
BRANCH  21  22
ATOM     22  C   UNL     1       1.095  32.391  27.733  1.00  0.00    -0.000 C 
BRANCH  22  23
ATOM     23  C   UNL     1       0.043  33.110  28.595  1.00  0.00    -0.000 C 
BRANCH  23  24
ATOM     24  C   UNL     1      -1.230  32.292  28.892  1.00  0.00    -0.000 C 
BRANCH  24  25
ATOM     25  C   UNL     1      -2.540  33.007  28.497  1.00  0.00    -0.000 C 
BRANCH  25  26
ATOM     26  C   UNL     1      -3.730  32.038  28.407  1.00  0.00    -0.000 C 
BRANCH  26  27
ATOM     27  C   UNL     1      -3.990  31.618  26.953  1.00  0.00    -0.000 C 
BRANCH  27  28
ATOM     28  C   UNL     1      -2.738  31.039  26.272  1.00  0.00    -0.000 C 
BRANCH  28  29
ATOM     29  C   UNL     1      -2.445  31.689  24.909  1.00  0.00    -0.003 C 
ATOM     30  C   UNL     1      -3.055  33.087  24.821  1.00  0.00     0.004 C 
ENDBRANCH  28  29
ENDBRANCH  27  28
ENDBRANCH  26  27
ENDBRANCH  25  26
ENDBRANCH  24  25
ENDBRANCH  23  24
ENDBRANCH  22  23
ENDBRANCH  21  22
ENDBRANCH  20  21
ENDBRANCH  19  20
ENDBRANCH  18  19
ENDBRANCH  17  18
ENDBRANCH   1  17
TORSDOF 26
ENDMDL
