MODEL 1
REMARK VINA RESULT:    -5.295      0.000      0.000
REMARK INTER + INTRA:          -6.542
REMARK INTER:                  -6.223
REMARK INTRA:                  -0.319
REMARK UNBOUND:                -0.319
REMARK SMILES O=c1cc(-c2ccc(O)c(O)c2)oc2cc(O)cc(O)c12
REMARK SMILES IDX 4 1 3 2 2 3 1 4 21 5 19 6 18 7 16 8 15 9 14 10 13 11 5 12
REMARK SMILES IDX 6 13 7 14 8 15 12 16 10 17 9 18 11 20 20 22 17 24
REMARK H PARENT 9 19 11 21 20 23 17 25
REMARK Flexibility Score: inf
ROOT
ATOM      1  C   UNL     1     -20.216  80.681  -1.437  1.00  0.00     0.138 A 
ATOM      2  C   UNL     1     -20.757  81.114  -2.660  1.00  0.00     0.100 A 
ATOM      3  C   UNL     1     -20.606  80.319  -3.797  1.00  0.00     0.197 A 
ATOM      4  O   UNL     1     -21.095  80.717  -4.890  1.00  0.00    -0.289 OA
ATOM      5  C   UNL     1     -19.913  79.097  -3.705  1.00  0.00     0.107 A 
ATOM      6  C   UNL     1     -19.717  78.232  -4.808  1.00  0.00     0.134 A 
ATOM      7  C   UNL     1     -19.008  77.033  -4.634  1.00  0.00     0.093 A 
ATOM      8  C   UNL     1     -18.493  76.685  -3.383  1.00  0.00     0.123 A 
ATOM      9  C   UNL     1     -18.684  77.536  -2.289  1.00  0.00     0.094 A 
ATOM     10  C   UNL     1     -19.388  78.734  -2.441  1.00  0.00     0.146 A 
ATOM     11  O   UNL     1     -19.558  79.525  -1.386  1.00  0.00    -0.456 OA
ENDROOT
BRANCH   1  12
ATOM     12  C   UNL     1     -20.344  81.485  -0.196  1.00  0.00     0.021 A 
ATOM     13  C   UNL     1     -21.001  82.730  -0.185  1.00  0.00     0.016 A 
ATOM     14  C   UNL     1     -21.115  83.460   1.000  1.00  0.00     0.051 A 
ATOM     15  C   UNL     1     -20.586  82.961   2.194  1.00  0.00     0.157 A 
ATOM     16  C   UNL     1     -19.826  80.982   1.011  1.00  0.00     0.062 A 
ATOM     17  C   UNL     1     -19.939  81.715   2.201  1.00  0.00     0.158 A 
BRANCH  15  18
ATOM     18  O   UNL     1     -20.714  83.714   3.360  1.00  0.00    -0.504 OA
ATOM     19  H   UNL     1     -21.568  83.721   3.905  1.00  0.00     0.293 HD
ENDBRANCH  15  18
BRANCH  17  20
ATOM     20  O   UNL     1     -19.411  81.209   3.388  1.00  0.00    -0.504 OA
ATOM     21  H   UNL     1     -20.009  80.879   4.137  1.00  0.00     0.293 HD
ENDBRANCH  17  20
ENDBRANCH   1  12
BRANCH   6  22
ATOM     22  O   UNL     1     -20.218  78.553  -6.070  1.00  0.00    -0.507 OA
ATOM     23  H   UNL     1     -21.196  78.778  -6.214  1.00  0.00     0.293 HD
ENDBRANCH   6  22
BRANCH   8  24
ATOM     24  O   UNL     1     -17.793  75.489  -3.238  1.00  0.00    -0.508 OA
ATOM     25  H   UNL     1     -18.140  74.622  -3.630  1.00  0.00     0.293 HD
ENDBRANCH   8  24
TORSDOF 5
ENDMDL
MODEL 2
REMARK VINA RESULT:    -5.292      1.612      3.202
REMARK INTER + INTRA:          -6.539
REMARK INTER:                  -6.275
REMARK INTRA:                  -0.264
REMARK UNBOUND:                -0.319
REMARK SMILES O=c1cc(-c2ccc(O)c(O)c2)oc2cc(O)cc(O)c12
REMARK SMILES IDX 4 1 3 2 2 3 1 4 21 5 19 6 18 7 16 8 15 9 14 10 13 11 5 12
REMARK SMILES IDX 6 13 7 14 8 15 12 16 10 17 9 18 11 20 20 22 17 24
REMARK H PARENT 9 19 11 21 20 23 17 25
REMARK Flexibility Score: inf
ROOT
ATOM      1  C   UNL     1     -18.862  79.328  -1.586  1.00  0.00     0.138 A 
ATOM      2  C   UNL     1     -18.200  78.096  -1.457  1.00  0.00     0.100 A 
ATOM      3  C   UNL     1     -18.242  77.180  -2.509  1.00  0.00     0.197 A 
ATOM      4  O   UNL     1     -17.645  76.076  -2.383  1.00  0.00    -0.289 OA
ATOM      5  C   UNL     1     -18.948  77.502  -3.684  1.00  0.00     0.107 A 
ATOM      6  C   UNL     1     -19.039  76.632  -4.797  1.00  0.00     0.134 A 
ATOM      7  C   UNL     1     -19.768  77.026  -5.929  1.00  0.00     0.093 A 
ATOM      8  C   UNL     1     -20.407  78.267  -5.969  1.00  0.00     0.123 A 
ATOM      9  C   UNL     1     -20.321  79.131  -4.873  1.00  0.00     0.094 A 
ATOM     10  C   UNL     1     -19.598  78.758  -3.736  1.00  0.00     0.146 A 
ATOM     11  O   UNL     1     -19.529  79.597  -2.706  1.00  0.00    -0.456 OA
ENDROOT
BRANCH   1  12
ATOM     12  C   UNL     1     -18.853  80.340  -0.500  1.00  0.00     0.021 A 
ATOM     13  C   UNL     1     -20.037  80.732   0.155  1.00  0.00     0.016 A 
ATOM     14  C   UNL     1     -19.997  81.679   1.182  1.00  0.00     0.051 A 
ATOM     15  C   UNL     1     -18.782  82.244   1.578  1.00  0.00     0.157 A 
ATOM     16  C   UNL     1     -17.632  80.902  -0.087  1.00  0.00     0.062 A 
ATOM     17  C   UNL     1     -17.592  81.854   0.942  1.00  0.00     0.158 A 
BRANCH  15  18
ATOM     18  O   UNL     1     -18.775  83.188   2.604  1.00  0.00    -0.504 OA
ATOM     19  H   UNL     1     -17.966  83.765   2.800  1.00  0.00     0.293 HD
ENDBRANCH  15  18
BRANCH  17  20
ATOM     20  O   UNL     1     -16.376  82.411   1.334  1.00  0.00    -0.504 OA
ATOM     21  H   UNL     1     -16.125  82.505   2.311  1.00  0.00     0.293 HD
ENDBRANCH  17  20
ENDBRANCH   1  12
BRANCH   6  22
ATOM     22  O   UNL     1     -18.413  75.385  -4.786  1.00  0.00    -0.507 OA
ATOM     23  H   UNL     1     -18.196  74.890  -5.643  1.00  0.00     0.293 HD
ENDBRANCH   6  22
BRANCH   8  24
ATOM     24  O   UNL     1     -21.125  78.634  -7.105  1.00  0.00    -0.508 OA
ATOM     25  H   UNL     1     -21.039  78.120  -7.975  1.00  0.00     0.293 HD
ENDBRANCH   8  24
TORSDOF 5
ENDMDL
MODEL 3
REMARK VINA RESULT:    -5.225      2.510      3.506
REMARK INTER + INTRA:          -6.460
REMARK INTER:                  -6.165
REMARK INTRA:                  -0.295
REMARK UNBOUND:                -0.319
REMARK SMILES O=c1cc(-c2ccc(O)c(O)c2)oc2cc(O)cc(O)c12
REMARK SMILES IDX 4 1 3 2 2 3 1 4 21 5 19 6 18 7 16 8 15 9 14 10 13 11 5 12
REMARK SMILES IDX 6 13 7 14 8 15 12 16 10 17 9 18 11 20 20 22 17 24
REMARK H PARENT 9 19 11 21 20 23 17 25
REMARK Flexibility Score: inf
ROOT
ATOM      1  C   UNL     1     -18.075  79.011  -2.848  1.00  0.00     0.138 A 
ATOM      2  C   UNL     1     -19.404  78.991  -3.303  1.00  0.00     0.100 A 
ATOM      3  C   UNL     1     -19.722  78.282  -4.462  1.00  0.00     0.197 A 
ATOM      4  O   UNL     1     -20.918  78.270  -4.863  1.00  0.00    -0.289 OA
ATOM      5  C   UNL     1     -18.707  77.600  -5.161  1.00  0.00     0.107 A 
ATOM      6  C   UNL     1     -18.944  76.857  -6.343  1.00  0.00     0.134 A 
ATOM      7  C   UNL     1     -17.876  76.211  -6.983  1.00  0.00     0.093 A 
ATOM      8  C   UNL     1     -16.580  76.294  -6.467  1.00  0.00     0.123 A 
ATOM      9  C   UNL     1     -16.340  77.026  -5.300  1.00  0.00     0.094 A 
ATOM     10  C   UNL     1     -17.391  77.676  -4.647  1.00  0.00     0.146 A 
ATOM     11  O   UNL     1     -17.138  78.365  -3.538  1.00  0.00    -0.456 OA
ENDROOT
BRANCH   1  12
ATOM     12  C   UNL     1     -17.678  79.750  -1.623  1.00  0.00     0.021 A 
ATOM     13  C   UNL     1     -16.336  79.817  -1.202  1.00  0.00     0.016 A 
ATOM     14  C   UNL     1     -15.990  80.528  -0.050  1.00  0.00     0.051 A 
ATOM     15  C   UNL     1     -16.970  81.189   0.696  1.00  0.00     0.157 A 
ATOM     16  C   UNL     1     -18.657  80.429  -0.876  1.00  0.00     0.062 A 
ATOM     17  C   UNL     1     -18.310  81.142   0.280  1.00  0.00     0.158 A 
BRANCH  15  18
ATOM     18  O   UNL     1     -16.593  81.889   1.841  1.00  0.00    -0.504 OA
ATOM     19  H   UNL     1     -17.269  82.203   2.527  1.00  0.00     0.293 HD
ENDBRANCH  15  18
BRANCH  17  20
ATOM     20  O   UNL     1     -19.293  81.802   1.017  1.00  0.00    -0.504 OA
ATOM     21  H   UNL     1     -20.259  81.499   1.005  1.00  0.00     0.293 HD
ENDBRANCH  17  20
ENDBRANCH   1  12
BRANCH   6  22
ATOM     22  O   UNL     1     -20.227  76.758  -6.882  1.00  0.00    -0.507 OA
ATOM     23  H   UNL     1     -20.409  76.235  -7.732  1.00  0.00     0.293 HD
ENDBRANCH   6  22
BRANCH   8  24
ATOM     24  O   UNL     1     -15.538  75.643  -7.123  1.00  0.00    -0.508 OA
ATOM     25  H   UNL     1     -14.569  75.860  -6.924  1.00  0.00     0.293 HD
ENDBRANCH   8  24
TORSDOF 5
ENDMDL
MODEL 4
REMARK VINA RESULT:    -5.220     14.234     15.027
REMARK INTER + INTRA:          -6.454
REMARK INTER:                  -6.191
REMARK INTRA:                  -0.263
REMARK UNBOUND:                -0.319
REMARK SMILES O=c1cc(-c2ccc(O)c(O)c2)oc2cc(O)cc(O)c12
REMARK SMILES IDX 4 1 3 2 2 3 1 4 21 5 19 6 18 7 16 8 15 9 14 10 13 11 5 12
REMARK SMILES IDX 6 13 7 14 8 15 12 16 10 17 9 18 11 20 20 22 17 24
REMARK H PARENT 9 19 11 21 20 23 17 25
REMARK Flexibility Score: inf
ROOT
ATOM      1  C   UNL     1      -5.350  81.975  -1.149  1.00  0.00     0.138 A 
ATOM      2  C   UNL     1      -4.018  82.255  -0.801  1.00  0.00     0.100 A 
ATOM      3  C   UNL     1      -2.982  81.760  -1.594  1.00  0.00     0.197 A 
ATOM      4  O   UNL     1      -1.790  82.015  -1.273  1.00  0.00    -0.289 OA
ATOM      5  C   UNL     1      -3.286  80.986  -2.731  1.00  0.00     0.107 A 
ATOM      6  C   UNL     1      -2.297  80.447  -3.589  1.00  0.00     0.134 A 
ATOM      7  C   UNL     1      -2.683  79.680  -4.699  1.00  0.00     0.093 A 
ATOM      8  C   UNL     1      -4.033  79.441  -4.965  1.00  0.00     0.123 A 
ATOM      9  C   UNL     1      -5.015  79.971  -4.121  1.00  0.00     0.094 A 
ATOM     10  C   UNL     1      -4.651  80.738  -3.011  1.00  0.00     0.146 A 
ATOM     11  O   UNL     1      -5.603  81.232  -2.224  1.00  0.00    -0.456 OA
ENDROOT
BRANCH   1  12
ATOM     12  C   UNL     1      -6.492  82.474  -0.341  1.00  0.00     0.021 A 
ATOM     13  C   UNL     1      -7.177  83.657  -0.680  1.00  0.00     0.016 A 
ATOM     14  C   UNL     1      -8.255  84.096   0.093  1.00  0.00     0.051 A 
ATOM     15  C   UNL     1      -8.673  83.364   1.207  1.00  0.00     0.157 A 
ATOM     16  C   UNL     1      -6.927  81.734   0.773  1.00  0.00     0.062 A 
ATOM     17  C   UNL     1      -8.008  82.176   1.549  1.00  0.00     0.158 A 
BRANCH  15  18
ATOM     18  O   UNL     1      -9.751  83.830   1.959  1.00  0.00    -0.504 OA
ATOM     19  H   UNL     1     -10.173  84.736   1.792  1.00  0.00     0.293 HD
ENDBRANCH  15  18
BRANCH  17  20
ATOM     20  O   UNL     1      -8.422  81.438   2.658  1.00  0.00    -0.504 OA
ATOM     21  H   UNL     1      -9.190  80.780   2.601  1.00  0.00     0.293 HD
ENDBRANCH  17  20
ENDBRANCH   1  12
BRANCH   6  22
ATOM     22  O   UNL     1      -0.941  80.668  -3.348  1.00  0.00    -0.507 OA
ATOM     23  H   UNL     1      -0.497  81.551  -3.570  1.00  0.00     0.293 HD
ENDBRANCH   6  22
BRANCH   8  24
ATOM     24  O   UNL     1      -4.389  78.676  -6.074  1.00  0.00    -0.508 OA
ATOM     25  H   UNL     1      -4.210  78.997  -7.018  1.00  0.00     0.293 HD
ENDBRANCH   8  24
TORSDOF 5
ENDMDL
MODEL 5
REMARK VINA RESULT:    -5.187     13.283     15.691
REMARK INTER + INTRA:          -6.416
REMARK INTER:                  -6.106
REMARK INTRA:                  -0.310
REMARK UNBOUND:                -0.319
REMARK SMILES O=c1cc(-c2ccc(O)c(O)c2)oc2cc(O)cc(O)c12
REMARK SMILES IDX 4 1 3 2 2 3 1 4 21 5 19 6 18 7 16 8 15 9 14 10 13 11 5 12
REMARK SMILES IDX 6 13 7 14 8 15 12 16 10 17 9 18 11 20 20 22 17 24
REMARK H PARENT 9 19 11 21 20 23 17 25
REMARK Flexibility Score: inf
ROOT
ATOM      1  C   UNL     1      -5.616  79.888  -3.427  1.00  0.00     0.138 A 
ATOM      2  C   UNL     1      -4.794  81.005  -3.649  1.00  0.00     0.100 A 
ATOM      3  C   UNL     1      -4.783  82.044  -2.718  1.00  0.00     0.197 A 
ATOM      4  O   UNL     1      -4.042  83.044  -2.926  1.00  0.00    -0.289 OA
ATOM      5  C   UNL     1      -5.596  81.960  -1.571  1.00  0.00     0.107 A 
ATOM      6  C   UNL     1      -5.643  82.968  -0.578  1.00  0.00     0.134 A 
ATOM      7  C   UNL     1      -6.486  82.811   0.533  1.00  0.00     0.093 A 
ATOM      8  C   UNL     1      -7.281  81.670   0.668  1.00  0.00     0.123 A 
ATOM      9  C   UNL     1      -7.238  80.671  -0.309  1.00  0.00     0.094 A 
ATOM     10  C   UNL     1      -6.405  80.808  -1.423  1.00  0.00     0.146 A 
ATOM     11  O   UNL     1      -6.381  79.844  -2.339  1.00  0.00    -0.456 OA
ENDROOT
BRANCH   1  12
ATOM     12  C   UNL     1      -5.671  78.753  -4.384  1.00  0.00     0.021 A 
ATOM     13  C   UNL     1      -5.339  78.915  -5.743  1.00  0.00     0.016 A 
ATOM     14  C   UNL     1      -5.389  77.827  -6.618  1.00  0.00     0.051 A 
ATOM     15  C   UNL     1      -5.762  76.562  -6.155  1.00  0.00     0.157 A 
ATOM     16  C   UNL     1      -6.031  77.475  -3.922  1.00  0.00     0.062 A 
ATOM     17  C   UNL     1      -6.083  76.383  -4.800  1.00  0.00     0.158 A 
BRANCH  15  18
ATOM     18  O   UNL     1      -5.804  75.497  -7.054  1.00  0.00    -0.504 OA
ATOM     19  H   UNL     1      -6.562  74.825  -7.057  1.00  0.00     0.293 HD
ENDBRANCH  15  18
BRANCH  17  20
ATOM     20  O   UNL     1      -6.452  75.123  -4.331  1.00  0.00    -0.504 OA
ATOM     21  H   UNL     1      -6.260  74.834  -3.380  1.00  0.00     0.293 HD
ENDBRANCH  17  20
ENDBRANCH   1  12
BRANCH   6  22
ATOM     22  O   UNL     1      -4.863  84.119  -0.687  1.00  0.00    -0.507 OA
ATOM     23  H   UNL     1      -5.237  85.039  -0.482  1.00  0.00     0.293 HD
ENDBRANCH   6  22
BRANCH   8  24
ATOM     24  O   UNL     1      -8.109  81.539   1.781  1.00  0.00    -0.508 OA
ATOM     25  H   UNL     1      -8.419  82.346   2.309  1.00  0.00     0.293 HD
ENDBRANCH   8  24
TORSDOF 5
ENDMDL
MODEL 6
REMARK VINA RESULT:    -5.168     14.787     17.155
REMARK INTER + INTRA:          -6.393
REMARK INTER:                  -6.121
REMARK INTRA:                  -0.272
REMARK UNBOUND:                -0.319
REMARK SMILES O=c1cc(-c2ccc(O)c(O)c2)oc2cc(O)cc(O)c12
REMARK SMILES IDX 4 1 3 2 2 3 1 4 21 5 19 6 18 7 16 8 15 9 14 10 13 11 5 12
REMARK SMILES IDX 6 13 7 14 8 15 12 16 10 17 9 18 11 20 20 22 17 24
REMARK H PARENT 9 19 11 21 20 23 17 25
REMARK Flexibility Score: inf
ROOT
ATOM      1  C   UNL     1      -4.258  79.615  -3.668  1.00  0.00     0.138 A 
ATOM      2  C   UNL     1      -2.857  79.648  -3.568  1.00  0.00     0.100 A 
ATOM      3  C   UNL     1      -2.252  80.565  -2.708  1.00  0.00     0.197 A 
ATOM      4  O   UNL     1      -0.994  80.587  -2.626  1.00  0.00    -0.289 OA
ATOM      5  C   UNL     1      -3.052  81.446  -1.955  1.00  0.00     0.107 A 
ATOM      6  C   UNL     1      -2.519  82.405  -1.061  1.00  0.00     0.134 A 
ATOM      7  C   UNL     1      -3.385  83.251  -0.352  1.00  0.00     0.093 A 
ATOM      8  C   UNL     1      -4.769  83.158  -0.521  1.00  0.00     0.123 A 
ATOM      9  C   UNL     1      -5.301  82.213  -1.404  1.00  0.00     0.094 A 
ATOM     10  C   UNL     1      -4.456  81.360  -2.119  1.00  0.00     0.146 A 
ATOM     11  O   UNL     1      -4.985  80.468  -2.951  1.00  0.00    -0.456 OA
ENDROOT
BRANCH   1  12
ATOM     12  C   UNL     1      -4.957  78.662  -4.567  1.00  0.00     0.021 A 
ATOM     13  C   UNL     1      -5.916  79.096  -5.503  1.00  0.00     0.016 A 
ATOM     14  C   UNL     1      -6.550  78.178  -6.344  1.00  0.00     0.051 A 
ATOM     15  C   UNL     1      -6.237  76.818  -6.273  1.00  0.00     0.157 A 
ATOM     16  C   UNL     1      -4.636  77.294  -4.511  1.00  0.00     0.062 A 
ATOM     17  C   UNL     1      -5.273  76.373  -5.353  1.00  0.00     0.158 A 
BRANCH  15  18
ATOM     18  O   UNL     1      -6.888  75.926  -7.124  1.00  0.00    -0.504 OA
ATOM     19  H   UNL     1      -6.819  75.996  -8.132  1.00  0.00     0.293 HD
ENDBRANCH  15  18
BRANCH  17  20
ATOM     20  O   UNL     1      -4.952  75.017  -5.280  1.00  0.00    -0.504 OA
ATOM     21  H   UNL     1      -4.892  74.440  -6.110  1.00  0.00     0.293 HD
ENDBRANCH  17  20
ENDBRANCH   1  12
BRANCH   6  22
ATOM     22  O   UNL     1      -1.142  82.522  -0.872  1.00  0.00    -0.507 OA
ATOM     23  H   UNL     1      -0.684  83.426  -0.836  1.00  0.00     0.293 HD
ENDBRANCH   6  22
BRANCH   8  24
ATOM     24  O   UNL     1      -5.607  84.011   0.194  1.00  0.00    -0.508 OA
ATOM     25  H   UNL     1      -6.226  84.662  -0.274  1.00  0.00     0.293 HD
ENDBRANCH   8  24
TORSDOF 5
ENDMDL
MODEL 7
REMARK VINA RESULT:    -5.167      2.317      2.645
REMARK INTER + INTRA:          -6.391
REMARK INTER:                  -6.122
REMARK INTRA:                  -0.269
REMARK UNBOUND:                -0.319
REMARK SMILES O=c1cc(-c2ccc(O)c(O)c2)oc2cc(O)cc(O)c12
REMARK SMILES IDX 4 1 3 2 2 3 1 4 21 5 19 6 18 7 16 8 15 9 14 10 13 11 5 12
REMARK SMILES IDX 6 13 7 14 8 15 12 16 10 17 9 18 11 20 20 22 17 24
REMARK H PARENT 9 19 11 21 20 23 17 25
REMARK Flexibility Score: inf
ROOT
ATOM      1  C   UNL     1     -17.937  80.348  -0.911  1.00  0.00     0.138 A 
ATOM      2  C   UNL     1     -17.045  80.945  -1.817  1.00  0.00     0.100 A 
ATOM      3  C   UNL     1     -16.627  80.231  -2.941  1.00  0.00     0.197 A 
ATOM      4  O   UNL     1     -15.825  80.775  -3.748  1.00  0.00    -0.289 OA
ATOM      5  C   UNL     1     -17.103  78.921  -3.149  1.00  0.00     0.107 A 
ATOM      6  C   UNL     1     -16.730  78.130  -4.262  1.00  0.00     0.134 A 
ATOM      7  C   UNL     1     -17.244  76.830  -4.394  1.00  0.00     0.093 A 
ATOM      8  C   UNL     1     -18.119  76.310  -3.437  1.00  0.00     0.123 A 
ATOM      9  C   UNL     1     -18.490  77.087  -2.336  1.00  0.00     0.094 A 
ATOM     10  C   UNL     1     -17.990  78.384  -2.187  1.00  0.00     0.146 A 
ATOM     11  O   UNL     1     -18.359  79.105  -1.131  1.00  0.00    -0.456 OA
ENDROOT
BRANCH   1  12
ATOM     12  C   UNL     1     -18.414  81.058   0.302  1.00  0.00     0.021 A 
ATOM     13  C   UNL     1     -19.786  81.189   0.591  1.00  0.00     0.016 A 
ATOM     14  C   UNL     1     -20.206  81.855   1.746  1.00  0.00     0.051 A 
ATOM     15  C   UNL     1     -19.270  82.393   2.634  1.00  0.00     0.157 A 
ATOM     16  C   UNL     1     -17.477  81.590   1.207  1.00  0.00     0.062 A 
ATOM     17  C   UNL     1     -17.898  82.259   2.365  1.00  0.00     0.158 A 
BRANCH  15  18
ATOM     18  O   UNL     1     -19.721  83.053   3.776  1.00  0.00    -0.504 OA
ATOM     19  H   UNL     1     -20.547  82.753   4.280  1.00  0.00     0.293 HD
ENDBRANCH  15  18
BRANCH  17  20
ATOM     20  O   UNL     1     -16.959  82.791   3.248  1.00  0.00    -0.504 OA
ATOM     21  H   UNL     1     -16.191  82.234   3.603  1.00  0.00     0.293 HD
ENDBRANCH  17  20
ENDBRANCH   1  12
BRANCH   6  22
ATOM     22  O   UNL     1     -15.857  78.622  -5.233  1.00  0.00    -0.507 OA
ATOM     23  H   UNL     1     -15.046  78.095  -5.537  1.00  0.00     0.293 HD
ENDBRANCH   6  22
BRANCH   8  24
ATOM     24  O   UNL     1     -18.614  75.017  -3.592  1.00  0.00    -0.508 OA
ATOM     25  H   UNL     1     -18.113  74.318  -4.128  1.00  0.00     0.293 HD
ENDBRANCH   8  24
TORSDOF 5
ENDMDL
MODEL 8
REMARK VINA RESULT:    -5.092      2.052      7.222
REMARK INTER + INTRA:          -6.304
REMARK INTER:                  -6.039
REMARK INTRA:                  -0.264
REMARK UNBOUND:                -0.319
REMARK SMILES O=c1cc(-c2ccc(O)c(O)c2)oc2cc(O)cc(O)c12
REMARK SMILES IDX 4 1 3 2 2 3 1 4 21 5 19 6 18 7 16 8 15 9 14 10 13 11 5 12
REMARK SMILES IDX 6 13 7 14 8 15 12 16 10 17 9 18 11 20 20 22 17 24
REMARK H PARENT 9 19 11 21 20 23 17 25
REMARK Flexibility Score: inf
ROOT
ATOM      1  C   UNL     1     -18.426  80.187  -0.923  1.00  0.00     0.138 A 
ATOM      2  C   UNL     1     -17.194  80.858  -0.831  1.00  0.00     0.100 A 
ATOM      3  C   UNL     1     -16.954  81.707   0.250  1.00  0.00     0.197 A 
ATOM      4  O   UNL     1     -15.846  82.304   0.324  1.00  0.00    -0.289 OA
ATOM      5  C   UNL     1     -17.950  81.882   1.231  1.00  0.00     0.107 A 
ATOM      6  C   UNL     1     -17.787  82.723   2.358  1.00  0.00     0.134 A 
ATOM      7  C   UNL     1     -18.830  82.849   3.288  1.00  0.00     0.093 A 
ATOM      8  C   UNL     1     -20.029  82.154   3.112  1.00  0.00     0.123 A 
ATOM      9  C   UNL     1     -20.195  81.322   2.000  1.00  0.00     0.094 A 
ATOM     10  C   UNL     1     -19.168  81.182   1.063  1.00  0.00     0.146 A 
ATOM     11  O   UNL     1     -19.349  80.383   0.015  1.00  0.00    -0.456 OA
ENDROOT
BRANCH   1  12
ATOM     12  C   UNL     1     -18.737  79.273  -2.051  1.00  0.00     0.021 A 
ATOM     13  C   UNL     1     -19.633  79.639  -3.074  1.00  0.00     0.016 A 
ATOM     14  C   UNL     1     -19.899  78.763  -4.129  1.00  0.00     0.051 A 
ATOM     15  C   UNL     1     -19.275  77.514  -4.188  1.00  0.00     0.157 A 
ATOM     16  C   UNL     1     -18.101  78.021  -2.123  1.00  0.00     0.062 A 
ATOM     17  C   UNL     1     -18.369  77.141  -3.181  1.00  0.00     0.158 A 
BRANCH  15  18
ATOM     18  O   UNL     1     -19.563  76.661  -5.252  1.00  0.00    -0.504 OA
ATOM     19  H   UNL     1     -20.300  75.968  -5.202  1.00  0.00     0.293 HD
ENDBRANCH  15  18
BRANCH  17  20
ATOM     20  O   UNL     1     -17.740  75.898  -3.235  1.00  0.00    -0.504 OA
ATOM     21  H   UNL     1     -17.162  75.629  -4.022  1.00  0.00     0.293 HD
ENDBRANCH  17  20
ENDBRANCH   1  12
BRANCH   6  22
ATOM     22  O   UNL     1     -16.602  83.432   2.560  1.00  0.00    -0.507 OA
ATOM     23  H   UNL     1     -16.303  84.163   1.925  1.00  0.00     0.293 HD
ENDBRANCH   6  22
BRANCH   8  24
ATOM     24  O   UNL     1     -21.049  82.297   4.050  1.00  0.00    -0.508 OA
ATOM     25  H   UNL     1     -20.850  82.496   5.023  1.00  0.00     0.293 HD
ENDBRANCH   8  24
TORSDOF 5
ENDMDL
