MODEL 1
REMARK VINA RESULT:    -2.638      0.000      0.000
REMARK INTER + INTRA:          -6.494
REMARK INTER:                  -4.798
REMARK INTRA:                  -1.697
REMARK UNBOUND:                -1.697
REMARK SMILES CCCCCCCCCCCCCCCC(=O)[O-]
REMARK SMILES IDX 9 1 10 2 11 3 12 4 13 5 14 6 15 7 16 8 17 9 18 10 8 11 7 12
REMARK SMILES IDX 6 13 5 14 4 15 3 16 2 17 1 18
REMARK H PARENT
REMARK Flexibility Score: inf
ROOT
ATOM      1  C   UNL     1     -53.443 120.282  -8.908  1.00  0.00     0.000 C 
ENDROOT
BRANCH   1   2
ATOM      2  C   UNL     1     -53.622 121.734  -8.407  1.00  0.00     0.000 C 
BRANCH   2   3
ATOM      3  C   UNL     1     -53.124 122.799  -9.409  1.00  0.00     0.000 C 
BRANCH   3   4
ATOM      4  C   UNL     1     -54.245 123.420 -10.259  1.00  0.00     0.000 C 
BRANCH   4   5
ATOM      5  C   UNL     1     -54.370 122.772 -11.648  1.00  0.00     0.000 C 
BRANCH   5   6
ATOM      6  C   UNL     1     -55.756 122.163 -11.898  1.00  0.00     0.006 C 
BRANCH   6   7
ATOM      7  C   UNL     1     -55.715 120.639 -12.071  1.00  0.00     0.053 C 
BRANCH   7   8
ATOM      8  C   UNL     1     -56.786 119.991 -11.251  1.00  0.00     0.041 C 
ATOM      9  O   UNL     1     -57.871 120.593 -11.041  1.00  0.00    -0.550 OA
ATOM     10  O   UNL     1     -56.567 118.746 -10.675  1.00  0.00    -0.550 OA
ENDBRANCH   7   8
ENDBRANCH   6   7
ENDBRANCH   5   6
ENDBRANCH   4   5
ENDBRANCH   3   4
ENDBRANCH   2   3
ENDBRANCH   1   2
BRANCH   1  11
ATOM     11  C   UNL     1     -52.186 120.078  -9.775  1.00  0.00     0.000 C 
BRANCH  11  12
ATOM     12  C   UNL     1     -52.444 120.070 -11.295  1.00  0.00    -0.000 C 
BRANCH  12  13
ATOM     13  C   UNL     1     -51.447 120.904 -12.125  1.00  0.00    -0.000 C 
BRANCH  13  14
ATOM     14  C   UNL     1     -50.200 121.383 -11.356  1.00  0.00    -0.000 C 
BRANCH  14  15
ATOM     15  C   UNL     1     -49.487 122.582 -12.016  1.00  0.00    -0.000 C 
BRANCH  15  16
ATOM     16  C   UNL     1     -48.924 123.569 -10.977  1.00  0.00    -0.000 C 
BRANCH  16  17
ATOM     17  C   UNL     1     -49.378 123.237  -9.549  1.00  0.00    -0.003 C 
ATOM     18  C   UNL     1     -49.547 124.484  -8.680  1.00  0.00     0.004 C 
ENDBRANCH  16  17
ENDBRANCH  15  16
ENDBRANCH  14  15
ENDBRANCH  13  14
ENDBRANCH  12  13
ENDBRANCH  11  12
ENDBRANCH   1  11
TORSDOF 14
ENDMDL
MODEL 2
REMARK VINA RESULT:    -2.457      3.182      6.209
REMARK INTER + INTRA:          -6.165
REMARK INTER:                  -4.933
REMARK INTRA:                  -1.232
REMARK UNBOUND:                -1.697
REMARK SMILES CCCCCCCCCCCCCCCC(=O)[O-]
REMARK SMILES IDX 9 1 10 2 11 3 12 4 13 5 14 6 15 7 16 8 17 9 18 10 8 11 7 12
REMARK SMILES IDX 6 13 5 14 4 15 3 16 2 17 1 18
REMARK H PARENT
REMARK Flexibility Score: inf
ROOT
ATOM      1  C   UNL     1     -53.169 120.883  -8.691  1.00  0.00     0.000 C 
ENDROOT
BRANCH   1   2
ATOM      2  C   UNL     1     -52.341 120.200  -9.804  1.00  0.00     0.000 C 
BRANCH   2   3
ATOM      3  C   UNL     1     -51.082 120.996 -10.214  1.00  0.00     0.000 C 
BRANCH   3   4
ATOM      4  C   UNL     1     -50.964 121.228 -11.730  1.00  0.00     0.000 C 
BRANCH   4   5
ATOM      5  C   UNL     1     -50.601 122.680 -12.085  1.00  0.00     0.000 C 
BRANCH   5   6
ATOM      6  C   UNL     1     -49.112 122.988 -11.876  1.00  0.00     0.006 C 
BRANCH   6   7
ATOM      7  C   UNL     1     -48.878 124.219 -10.990  1.00  0.00     0.053 C 
BRANCH   7   8
ATOM      8  C   UNL     1     -49.024 123.858  -9.545  1.00  0.00     0.041 C 
ATOM      9  O   UNL     1     -49.115 124.763  -8.675  1.00  0.00    -0.550 OA
ATOM     10  O   UNL     1     -49.008 122.526  -9.154  1.00  0.00    -0.550 OA
ENDBRANCH   7   8
ENDBRANCH   6   7
ENDBRANCH   5   6
ENDBRANCH   4   5
ENDBRANCH   3   4
ENDBRANCH   2   3
ENDBRANCH   1   2
BRANCH   1  11
ATOM     11  C   UNL     1     -53.216 122.418  -8.808  1.00  0.00     0.000 C 
BRANCH  11  12
ATOM     12  C   UNL     1     -54.381 122.966  -9.658  1.00  0.00    -0.000 C 
BRANCH  12  13
ATOM     13  C   UNL     1     -54.028 123.249 -11.132  1.00  0.00    -0.000 C 
BRANCH  13  14
ATOM     14  C   UNL     1     -54.404 122.127 -12.119  1.00  0.00    -0.000 C 
BRANCH  14  15
ATOM     15  C   UNL     1     -55.886 121.704 -12.042  1.00  0.00    -0.000 C 
BRANCH  15  16
ATOM     16  C   UNL     1     -56.052 120.177 -11.937  1.00  0.00    -0.000 C 
BRANCH  16  17
ATOM     17  C   UNL     1     -56.512 119.734 -10.541  1.00  0.00    -0.003 C 
ATOM     18  C   UNL     1     -56.841 120.914  -9.626  1.00  0.00     0.004 C 
ENDBRANCH  16  17
ENDBRANCH  15  16
ENDBRANCH  14  15
ENDBRANCH  13  14
ENDBRANCH  12  13
ENDBRANCH  11  12
ENDBRANCH   1  11
TORSDOF 14
ENDMDL
MODEL 3
REMARK VINA RESULT:    -2.427      1.457      2.620
REMARK INTER + INTRA:          -6.109
REMARK INTER:                  -5.328
REMARK INTRA:                  -0.781
REMARK UNBOUND:                -1.697
REMARK SMILES CCCCCCCCCCCCCCCC(=O)[O-]
REMARK SMILES IDX 9 1 10 2 11 3 12 4 13 5 14 6 15 7 16 8 17 9 18 10 8 11 7 12
REMARK SMILES IDX 6 13 5 14 4 15 3 16 2 17 1 18
REMARK H PARENT
REMARK Flexibility Score: inf
ROOT
ATOM      1  C   UNL     1     -53.354 121.388  -8.455  1.00  0.00     0.000 C 
ENDROOT
BRANCH   1   2
ATOM      2  C   UNL     1     -52.818 120.120  -9.158  1.00  0.00     0.000 C 
BRANCH   2   3
ATOM      3  C   UNL     1     -53.900 119.347  -9.945  1.00  0.00     0.000 C 
BRANCH   3   4
ATOM      4  C   UNL     1     -54.059 119.816 -11.401  1.00  0.00     0.000 C 
BRANCH   4   5
ATOM      5  C   UNL     1     -55.531 119.975 -11.819  1.00  0.00     0.000 C 
BRANCH   5   6
ATOM      6  C   UNL     1     -56.506 119.371 -10.799  1.00  0.00     0.006 C 
BRANCH   6   7
ATOM      7  C   UNL     1     -57.532 120.388 -10.282  1.00  0.00     0.053 C 
BRANCH   7   8
ATOM      8  C   UNL     1     -56.846 121.646  -9.847  1.00  0.00     0.041 C 
ATOM      9  O   UNL     1     -56.445 122.475 -10.706  1.00  0.00    -0.550 OA
ATOM     10  O   UNL     1     -56.602 121.877  -8.500  1.00  0.00    -0.550 OA
ENDBRANCH   7   8
ENDBRANCH   6   7
ENDBRANCH   5   6
ENDBRANCH   4   5
ENDBRANCH   3   4
ENDBRANCH   2   3
ENDBRANCH   1   2
BRANCH   1  11
ATOM     11  C   UNL     1     -52.681 122.690  -8.929  1.00  0.00     0.000 C 
BRANCH  11  12
ATOM     12  C   UNL     1     -53.289 123.303 -10.207  1.00  0.00    -0.000 C 
BRANCH  12  13
ATOM     13  C   UNL     1     -53.017 122.507 -11.500  1.00  0.00    -0.000 C 
BRANCH  13  14
ATOM     14  C   UNL     1     -51.623 122.727 -12.119  1.00  0.00    -0.000 C 
BRANCH  14  15
ATOM     15  C   UNL     1     -50.610 121.613 -11.779  1.00  0.00    -0.000 C 
BRANCH  15  16
ATOM     16  C   UNL     1     -49.153 122.091 -11.912  1.00  0.00    -0.000 C 
BRANCH  16  17
ATOM     17  C   UNL     1     -48.880 123.368 -11.106  1.00  0.00    -0.003 C 
ATOM     18  C   UNL     1     -49.040 123.161  -9.600  1.00  0.00     0.004 C 
ENDBRANCH  16  17
ENDBRANCH  15  16
ENDBRANCH  14  15
ENDBRANCH  13  14
ENDBRANCH  12  13
ENDBRANCH  11  12
ENDBRANCH   1  11
TORSDOF 14
ENDMDL
MODEL 4
REMARK VINA RESULT:    -2.247      1.556      3.209
REMARK INTER + INTRA:          -5.783
REMARK INTER:                  -4.404
REMARK INTRA:                  -1.378
REMARK UNBOUND:                -1.697
REMARK SMILES CCCCCCCCCCCCCCCC(=O)[O-]
REMARK SMILES IDX 9 1 10 2 11 3 12 4 13 5 14 6 15 7 16 8 17 9 18 10 8 11 7 12
REMARK SMILES IDX 6 13 5 14 4 15 3 16 2 17 1 18
REMARK H PARENT
REMARK Flexibility Score: inf
ROOT
ATOM      1  C   UNL     1     -53.324 121.019  -8.858  1.00  0.00     0.000 C 
ENDROOT
BRANCH   1   2
ATOM      2  C   UNL     1     -53.381 119.827  -9.841  1.00  0.00     0.000 C 
BRANCH   2   3
ATOM      3  C   UNL     1     -53.285 120.245 -11.325  1.00  0.00     0.000 C 
BRANCH   3   4
ATOM      4  C   UNL     1     -54.641 120.263 -12.051  1.00  0.00     0.000 C 
BRANCH   4   5
ATOM      5  C   UNL     1     -55.702 119.393 -11.355  1.00  0.00     0.000 C 
BRANCH   5   6
ATOM      6  C   UNL     1     -57.124 119.949 -11.513  1.00  0.00     0.006 C 
BRANCH   6   7
ATOM      7  C   UNL     1     -57.671 120.563 -10.218  1.00  0.00     0.053 C 
BRANCH   7   8
ATOM      8  C   UNL     1     -56.825 121.722  -9.793  1.00  0.00     0.041 C 
ATOM      9  O   UNL     1     -56.561 121.896  -8.574  1.00  0.00    -0.550 OA
ATOM     10  O   UNL     1     -56.374 122.638 -10.733  1.00  0.00    -0.550 OA
ENDBRANCH   7   8
ENDBRANCH   6   7
ENDBRANCH   5   6
ENDBRANCH   4   5
ENDBRANCH   3   4
ENDBRANCH   2   3
ENDBRANCH   1   2
BRANCH   1  11
ATOM     11  C   UNL     1     -53.182 122.387  -9.551  1.00  0.00     0.000 C 
BRANCH  11  12
ATOM     12  C   UNL     1     -52.916 123.570  -8.599  1.00  0.00    -0.000 C 
BRANCH  12  13
ATOM     13  C   UNL     1     -51.489 123.624  -8.016  1.00  0.00    -0.000 C 
BRANCH  13  14
ATOM     14  C   UNL     1     -50.399 124.082  -9.004  1.00  0.00    -0.000 C 
BRANCH  14  15
ATOM     15  C   UNL     1     -49.457 122.946  -9.458  1.00  0.00    -0.000 C 
BRANCH  15  16
ATOM     16  C   UNL     1     -48.883 123.192 -10.865  1.00  0.00    -0.000 C 
BRANCH  16  17
ATOM     17  C   UNL     1     -49.903 122.891 -11.973  1.00  0.00    -0.003 C 
ATOM     18  C   UNL     1     -50.185 121.396 -12.125  1.00  0.00     0.004 C 
ENDBRANCH  16  17
ENDBRANCH  15  16
ENDBRANCH  14  15
ENDBRANCH  13  14
ENDBRANCH  12  13
ENDBRANCH  11  12
ENDBRANCH   1  11
TORSDOF 14
ENDMDL
MODEL 5
REMARK VINA RESULT:    -2.186      1.063      2.547
REMARK INTER + INTRA:          -5.672
REMARK INTER:                  -4.825
REMARK INTRA:                  -0.846
REMARK UNBOUND:                -1.697
REMARK SMILES CCCCCCCCCCCCCCCC(=O)[O-]
REMARK SMILES IDX 9 1 10 2 11 3 12 4 13 5 14 6 15 7 16 8 17 9 18 10 8 11 7 12
REMARK SMILES IDX 6 13 5 14 4 15 3 16 2 17 1 18
REMARK H PARENT
REMARK Flexibility Score: inf
ROOT
ATOM      1  C   UNL     1     -53.529 121.384  -8.813  1.00  0.00     0.000 C 
ENDROOT
BRANCH   1   2
ATOM      2  C   UNL     1     -52.475 120.667  -9.689  1.00  0.00     0.000 C 
BRANCH   2   3
ATOM      3  C   UNL     1     -52.987 120.306 -11.100  1.00  0.00     0.000 C 
BRANCH   3   4
ATOM      4  C   UNL     1     -52.914 121.473 -12.101  1.00  0.00     0.000 C 
BRANCH   4   5
ATOM      5  C   UNL     1     -54.073 122.471 -11.939  1.00  0.00     0.000 C 
BRANCH   5   6
ATOM      6  C   UNL     1     -55.450 121.818 -12.125  1.00  0.00     0.006 C 
BRANCH   6   7
ATOM      7  C   UNL     1     -56.099 121.408 -10.796  1.00  0.00     0.053 C 
BRANCH   7   8
ATOM      8  C   UNL     1     -57.011 120.239 -10.999  1.00  0.00     0.041 C 
ATOM      9  O   UNL     1     -58.185 120.420 -11.417  1.00  0.00    -0.550 OA
ATOM     10  O   UNL     1     -56.585 118.958 -10.676  1.00  0.00    -0.550 OA
ENDBRANCH   7   8
ENDBRANCH   6   7
ENDBRANCH   5   6
ENDBRANCH   4   5
ENDBRANCH   3   4
ENDBRANCH   2   3
ENDBRANCH   1   2
BRANCH   1  11
ATOM     11  C   UNL     1     -53.218 122.872  -8.565  1.00  0.00     0.000 C 
BRANCH  11  12
ATOM     12  C   UNL     1     -51.806 123.155  -8.013  1.00  0.00    -0.000 C 
BRANCH  12  13
ATOM     13  C   UNL     1     -50.946 124.091  -8.886  1.00  0.00    -0.000 C 
BRANCH  13  14
ATOM     14  C   UNL     1     -49.486 123.639  -9.083  1.00  0.00    -0.000 C 
BRANCH  14  15
ATOM     15  C   UNL     1     -49.007 123.709 -10.549  1.00  0.00    -0.000 C 
BRANCH  15  16
ATOM     16  C   UNL     1     -49.642 122.611 -11.422  1.00  0.00    -0.000 C 
BRANCH  16  17
ATOM     17  C   UNL     1     -48.957 121.250 -11.239  1.00  0.00    -0.003 C 
ATOM     18  C   UNL     1     -48.878 120.821  -9.773  1.00  0.00     0.004 C 
ENDBRANCH  16  17
ENDBRANCH  15  16
ENDBRANCH  14  15
ENDBRANCH  13  14
ENDBRANCH  12  13
ENDBRANCH  11  12
ENDBRANCH   1  11
TORSDOF 14
ENDMDL
MODEL 6
REMARK VINA RESULT:    -1.801      2.126      3.329
REMARK INTER + INTRA:          -4.972
REMARK INTER:                  -4.464
REMARK INTRA:                  -0.508
REMARK UNBOUND:                -1.697
REMARK SMILES CCCCCCCCCCCCCCCC(=O)[O-]
REMARK SMILES IDX 9 1 10 2 11 3 12 4 13 5 14 6 15 7 16 8 17 9 18 10 8 11 7 12
REMARK SMILES IDX 6 13 5 14 4 15 3 16 2 17 1 18
REMARK H PARENT
REMARK Flexibility Score: inf
ROOT
ATOM      1  C   UNL     1     -54.198 119.633 -10.658  1.00  0.00     0.000 C 
ENDROOT
BRANCH   1   2
ATOM      2  C   UNL     1     -55.022 120.166 -11.853  1.00  0.00     0.000 C 
BRANCH   2   3
ATOM      3  C   UNL     1     -56.483 119.665 -11.866  1.00  0.00     0.000 C 
BRANCH   3   4
ATOM      4  C   UNL     1     -57.406 120.423 -10.896  1.00  0.00     0.000 C 
BRANCH   4   5
ATOM      5  C   UNL     1     -56.900 120.388  -9.443  1.00  0.00     0.000 C 
BRANCH   5   6
ATOM      6  C   UNL     1     -56.406 121.757  -8.953  1.00  0.00     0.006 C 
BRANCH   6   7
ATOM      7  C   UNL     1     -54.968 121.713  -8.420  1.00  0.00     0.053 C 
BRANCH   7   8
ATOM      8  C   UNL     1     -54.129 122.752  -9.096  1.00  0.00     0.041 C 
ATOM      9  O   UNL     1     -53.126 123.234  -8.506  1.00  0.00    -0.550 OA
ATOM     10  O   UNL     1     -54.483 123.226 -10.352  1.00  0.00    -0.550 OA
ENDBRANCH   7   8
ENDBRANCH   6   7
ENDBRANCH   5   6
ENDBRANCH   4   5
ENDBRANCH   3   4
ENDBRANCH   2   3
ENDBRANCH   1   2
BRANCH   1  11
ATOM     11  C   UNL     1     -52.681 119.859 -10.803  1.00  0.00     0.000 C 
BRANCH  11  12
ATOM     12  C   UNL     1     -52.269 120.727 -12.009  1.00  0.00    -0.000 C 
BRANCH  12  13
ATOM     13  C   UNL     1     -51.618 122.076 -11.643  1.00  0.00    -0.000 C 
BRANCH  13  14
ATOM     14  C   UNL     1     -50.118 122.187 -11.976  1.00  0.00    -0.000 C 
BRANCH  14  15
ATOM     15  C   UNL     1     -49.209 121.394 -11.012  1.00  0.00    -0.000 C 
BRANCH  15  16
ATOM     16  C   UNL     1     -48.875 122.190  -9.738  1.00  0.00    -0.000 C 
BRANCH  16  17
ATOM     17  C   UNL     1     -48.875 123.706  -9.979  1.00  0.00    -0.003 C 
ATOM     18  C   UNL     1     -49.325 124.499  -8.750  1.00  0.00     0.004 C 
ENDBRANCH  16  17
ENDBRANCH  15  16
ENDBRANCH  14  15
ENDBRANCH  13  14
ENDBRANCH  12  13
ENDBRANCH  11  12
ENDBRANCH   1  11
TORSDOF 14
ENDMDL
MODEL 7
REMARK VINA RESULT:    -1.454      3.002      5.576
REMARK INTER + INTRA:          -4.341
REMARK INTER:                  -3.369
REMARK INTRA:                  -0.973
REMARK UNBOUND:                -1.697
REMARK SMILES CCCCCCCCCCCCCCCC(=O)[O-]
REMARK SMILES IDX 9 1 10 2 11 3 12 4 13 5 14 6 15 7 16 8 17 9 18 10 8 11 7 12
REMARK SMILES IDX 6 13 5 14 4 15 3 16 2 17 1 18
REMARK H PARENT
REMARK Flexibility Score: inf
ROOT
ATOM      1  C   UNL     1     -56.085 121.352  -8.368  1.00  0.00     0.000 C 
ENDROOT
BRANCH   1   2
ATOM      2  C   UNL     1     -54.551 121.541  -8.350  1.00  0.00     0.000 C 
BRANCH   2   3
ATOM      3  C   UNL     1     -54.090 122.898  -8.927  1.00  0.00     0.000 C 
BRANCH   3   4
ATOM      4  C   UNL     1     -52.666 123.298  -8.504  1.00  0.00     0.000 C 
BRANCH   4   5
ATOM      5  C   UNL     1     -51.618 123.014  -9.594  1.00  0.00     0.000 C 
BRANCH   5   6
ATOM      6  C   UNL     1     -50.180 123.258  -9.115  1.00  0.00     0.006 C 
BRANCH   6   7
ATOM      7  C   UNL     1     -49.143 123.085 -10.232  1.00  0.00     0.053 C 
BRANCH   7   8
ATOM      8  C   UNL     1     -49.129 121.669 -10.717  1.00  0.00     0.041 C 
ATOM      9  O   UNL     1     -48.968 120.724  -9.901  1.00  0.00    -0.550 OA
ATOM     10  O   UNL     1     -49.242 121.396 -12.073  1.00  0.00    -0.550 OA
ENDBRANCH   7   8
ENDBRANCH   6   7
ENDBRANCH   5   6
ENDBRANCH   4   5
ENDBRANCH   3   4
ENDBRANCH   2   3
ENDBRANCH   1   2
BRANCH   1  11
ATOM     11  C   UNL     1     -56.764 121.915  -9.631  1.00  0.00     0.000 C 
BRANCH  11  12
ATOM     12  C   UNL     1     -57.441 120.858 -10.527  1.00  0.00    -0.000 C 
BRANCH  12  13
ATOM     13  C   UNL     1     -56.548 119.656 -10.897  1.00  0.00    -0.000 C 
BRANCH  13  14
ATOM     14  C   UNL     1     -55.632 119.877 -12.117  1.00  0.00    -0.000 C 
BRANCH  14  15
ATOM     15  C   UNL     1     -54.930 121.251 -12.125  1.00  0.00    -0.000 C 
BRANCH  15  16
ATOM     16  C   UNL     1     -53.396 121.122 -12.096  1.00  0.00    -0.000 C 
BRANCH  16  17
ATOM     17  C   UNL     1     -52.933 119.783 -11.505  1.00  0.00    -0.003 C 
ATOM     18  C   UNL     1     -52.929 119.783  -9.976  1.00  0.00     0.004 C 
ENDBRANCH  16  17
ENDBRANCH  15  16
ENDBRANCH  14  15
ENDBRANCH  13  14
ENDBRANCH  12  13
ENDBRANCH  11  12
ENDBRANCH   1  11
TORSDOF 14
ENDMDL
MODEL 8
REMARK VINA RESULT:    -1.405      1.800      2.645
REMARK INTER + INTRA:          -4.252
REMARK INTER:                  -4.021
REMARK INTRA:                  -0.231
REMARK UNBOUND:                -1.697
REMARK SMILES CCCCCCCCCCCCCCCC(=O)[O-]
REMARK SMILES IDX 9 1 10 2 11 3 12 4 13 5 14 6 15 7 16 8 17 9 18 10 8 11 7 12
REMARK SMILES IDX 6 13 5 14 4 15 3 16 2 17 1 18
REMARK H PARENT
REMARK Flexibility Score: inf
ROOT
ATOM      1  C   UNL     1     -54.453 121.329  -8.335  1.00  0.00     0.000 C 
ENDROOT
BRANCH   1   2
ATOM      2  C   UNL     1     -55.660 122.099  -8.919  1.00  0.00     0.000 C 
BRANCH   2   3
ATOM      3  C   UNL     1     -56.988 121.314  -8.844  1.00  0.00     0.000 C 
BRANCH   3   4
ATOM      4  C   UNL     1     -57.086 120.165  -9.862  1.00  0.00     0.000 C 
BRANCH   4   5
ATOM      5  C   UNL     1     -57.064 120.657 -11.320  1.00  0.00     0.000 C 
BRANCH   5   6
ATOM      6  C   UNL     1     -55.891 120.079 -12.125  1.00  0.00     0.006 C 
BRANCH   6   7
ATOM      7  C   UNL     1     -54.600 120.890 -11.961  1.00  0.00     0.053 C 
BRANCH   7   8
ATOM      8  C   UNL     1     -54.889 122.356 -12.053  1.00  0.00     0.041 C 
ATOM      9  O   UNL     1     -56.080 122.761 -12.113  1.00  0.00    -0.550 OA
ATOM     10  O   UNL     1     -53.846 123.269 -12.125  1.00  0.00    -0.550 OA
ENDBRANCH   7   8
ENDBRANCH   6   7
ENDBRANCH   5   6
ENDBRANCH   4   5
ENDBRANCH   3   4
ENDBRANCH   2   3
ENDBRANCH   1   2
BRANCH   1  11
ATOM     11  C   UNL     1     -53.088 121.918  -8.739  1.00  0.00     0.000 C 
BRANCH  11  12
ATOM     12  C   UNL     1     -52.099 120.902  -9.345  1.00  0.00    -0.000 C 
BRANCH  12  13
ATOM     13  C   UNL     1     -51.332 121.405 -10.584  1.00  0.00    -0.000 C 
BRANCH  13  14
ATOM     14  C   UNL     1     -49.824 121.089 -10.589  1.00  0.00    -0.000 C 
BRANCH  14  15
ATOM     15  C   UNL     1     -48.953 122.228 -11.160  1.00  0.00    -0.000 C 
BRANCH  15  16
ATOM     16  C   UNL     1     -49.512 123.620 -10.812  1.00  0.00    -0.000 C 
BRANCH  16  17
ATOM     17  C   UNL     1     -48.942 124.165  -9.495  1.00  0.00    -0.003 C 
ATOM     18  C   UNL     1     -50.012 124.334  -8.415  1.00  0.00     0.004 C 
ENDBRANCH  16  17
ENDBRANCH  15  16
ENDBRANCH  14  15
ENDBRANCH  13  14
ENDBRANCH  12  13
ENDBRANCH  11  12
ENDBRANCH   1  11
TORSDOF 14
ENDMDL
MODEL 9
REMARK VINA RESULT:    -1.320      1.255      2.312
REMARK INTER + INTRA:          -4.097
REMARK INTER:                  -3.071
REMARK INTRA:                  -1.026
REMARK UNBOUND:                -1.697
REMARK SMILES CCCCCCCCCCCCCCCC(=O)[O-]
REMARK SMILES IDX 9 1 10 2 11 3 12 4 13 5 14 6 15 7 16 8 17 9 18 10 8 11 7 12
REMARK SMILES IDX 6 13 5 14 4 15 3 16 2 17 1 18
REMARK H PARENT
REMARK Flexibility Score: inf
ROOT
ATOM      1  C   UNL     1     -53.083 120.260  -9.653  1.00  0.00     0.000 C 
ENDROOT
BRANCH   1   2
ATOM      2  C   UNL     1     -53.429 119.839 -11.100  1.00  0.00     0.000 C 
BRANCH   2   3
ATOM      3  C   UNL     1     -53.299 120.988 -12.125  1.00  0.00     0.000 C 
BRANCH   3   4
ATOM      4  C   UNL     1     -54.070 122.259 -11.730  1.00  0.00     0.000 C 
BRANCH   4   5
ATOM      5  C   UNL     1     -55.592 122.040 -11.674  1.00  0.00     0.000 C 
BRANCH   5   6
ATOM      6  C   UNL     1     -56.168 122.228 -10.263  1.00  0.00     0.006 C 
BRANCH   6   7
ATOM      7  C   UNL     1     -56.616 120.909  -9.623  1.00  0.00     0.053 C 
BRANCH   7   8
ATOM      8  C   UNL     1     -57.215 120.005 -10.655  1.00  0.00     0.041 C 
ATOM      9  O   UNL     1     -58.230 120.373 -11.303  1.00  0.00    -0.550 OA
ATOM     10  O   UNL     1     -56.687 118.738 -10.863  1.00  0.00    -0.550 OA
ENDBRANCH   7   8
ENDBRANCH   6   7
ENDBRANCH   5   6
ENDBRANCH   4   5
ENDBRANCH   3   4
ENDBRANCH   2   3
ENDBRANCH   1   2
BRANCH   1  11
ATOM     11  C   UNL     1     -51.571 120.374  -9.387  1.00  0.00     0.000 C 
BRANCH  11  12
ATOM     12  C   UNL     1     -50.759 121.015 -10.532  1.00  0.00    -0.000 C 
BRANCH  12  13
ATOM     13  C   UNL     1     -49.268 121.249 -10.216  1.00  0.00    -0.000 C 
BRANCH  13  14
ATOM     14  C   UNL     1     -48.951 122.589  -9.525  1.00  0.00    -0.000 C 
BRANCH  14  15
ATOM     15  C   UNL     1     -50.016 123.679  -9.768  1.00  0.00    -0.000 C 
BRANCH  15  16
ATOM     16  C   UNL     1     -50.633 124.195  -8.455  1.00  0.00    -0.000 C 
BRANCH  16  17
ATOM     17  C   UNL     1     -51.841 123.359  -8.009  1.00  0.00    -0.003 C 
ATOM     18  C   UNL     1     -53.113 123.699  -8.788  1.00  0.00     0.004 C 
ENDBRANCH  16  17
ENDBRANCH  15  16
ENDBRANCH  14  15
ENDBRANCH  13  14
ENDBRANCH  12  13
ENDBRANCH  11  12
ENDBRANCH   1  11
TORSDOF 14
ENDMDL
