MODEL 1
REMARK VINA RESULT:    -3.869      0.000      0.000
REMARK INTER + INTRA:          -5.295
REMARK INTER:                  -4.773
REMARK INTRA:                  -0.521
REMARK UNBOUND:                -0.521
REMARK SMILES C=CC(=C)CCC=C(C)C
REMARK SMILES IDX 5 1 6 2 7 3 9 4 8 5 10 6 3 7 4 8 2 9 1 10
REMARK H PARENT
REMARK Flexibility Score: inf
ROOT
ATOM      1  C   UNL     1     142.506 137.995 133.998  1.00  0.00     0.039 C 
ENDROOT
BRANCH   1   2
ATOM      2  C   UNL     1     141.201 137.220 133.760  1.00  0.00     0.032 C 
BRANCH   2   3
ATOM      3  C   UNL     1     139.978 138.056 134.052  1.00  0.00    -0.028 C 
ATOM      4  C   UNL     1     139.327 138.245 131.641  1.00  0.00     0.039 C 
ATOM      5  C   UNL     1     139.140 138.542 133.110  1.00  0.00    -0.080 C 
ATOM      6  C   UNL     1     137.985 139.403 133.553  1.00  0.00     0.039 C 
ENDBRANCH   2   3
ENDBRANCH   1   2
BRANCH   1   7
ATOM      7  C   UNL     1     143.202 138.350 132.698  1.00  0.00    -0.055 C 
ATOM      8  C   UNL     1     143.096 137.510 131.662  1.00  0.00     0.012 C 
BRANCH   7   9
ATOM      9  C   UNL     1     144.030 139.576 132.534  1.00  0.00    -0.005 C 
ATOM     10  C   UNL     1     144.589 140.250 133.538  1.00  0.00     0.009 C 
ENDBRANCH   7   9
ENDBRANCH   1   7
TORSDOF 4
ENDMDL
MODEL 2
REMARK VINA RESULT:    -3.847      2.820      5.249
REMARK INTER + INTRA:          -5.268
REMARK INTER:                  -4.789
REMARK INTRA:                  -0.479
REMARK UNBOUND:                -0.521
REMARK SMILES C=CC(=C)CCC=C(C)C
REMARK SMILES IDX 5 1 6 2 7 3 9 4 8 5 10 6 3 7 4 8 2 9 1 10
REMARK H PARENT
REMARK Flexibility Score: inf
ROOT
ATOM      1  C   UNL     1     137.970 139.639 133.647  1.00  0.00     0.039 C 
ENDROOT
BRANCH   1   2
ATOM      2  C   UNL     1     137.369 141.009 133.997  1.00  0.00     0.032 C 
BRANCH   2   3
ATOM      3  C   UNL     1     137.967 142.123 133.174  1.00  0.00    -0.028 C 
ATOM      4  C   UNL     1     138.886 143.327 135.168  1.00  0.00     0.039 C 
ATOM      5  C   UNL     1     138.632 143.182 133.687  1.00  0.00    -0.080 C 
ATOM      6  C   UNL     1     139.133 144.242 132.740  1.00  0.00     0.039 C 
ENDBRANCH   2   3
ENDBRANCH   1   2
BRANCH   1   7
ATOM      7  C   UNL     1     138.838 139.096 134.765  1.00  0.00    -0.055 C 
ATOM      8  C   UNL     1     138.687 139.596 135.998  1.00  0.00     0.012 C 
BRANCH   7   9
ATOM      9  C   UNL     1     139.880 138.056 134.547  1.00  0.00    -0.005 C 
ATOM     10  C   UNL     1     140.267 137.613 133.351  1.00  0.00     0.009 C 
ENDBRANCH   7   9
ENDBRANCH   1   7
TORSDOF 4
ENDMDL
MODEL 3
REMARK VINA RESULT:    -3.842      4.438      7.111
REMARK INTER + INTRA:          -5.262
REMARK INTER:                  -4.854
REMARK INTRA:                  -0.408
REMARK UNBOUND:                -0.521
REMARK SMILES C=CC(=C)CCC=C(C)C
REMARK SMILES IDX 5 1 6 2 7 3 9 4 8 5 10 6 3 7 4 8 2 9 1 10
REMARK H PARENT
REMARK Flexibility Score: inf
ROOT
ATOM      1  C   UNL     1     139.654 144.407 133.038  1.00  0.00     0.039 C 
ENDROOT
BRANCH   1   2
ATOM      2  C   UNL     1     140.995 144.796 133.679  1.00  0.00     0.032 C 
BRANCH   2   3
ATOM      3  C   UNL     1     142.174 144.209 132.943  1.00  0.00    -0.028 C 
ATOM      4  C   UNL     1     143.230 143.294 135.021  1.00  0.00     0.039 C 
ATOM      5  C   UNL     1     143.196 143.551 133.533  1.00  0.00    -0.080 C 
ATOM      6  C   UNL     1     144.329 143.061 132.669  1.00  0.00     0.039 C 
ENDBRANCH   2   3
ENDBRANCH   1   2
BRANCH   1   7
ATOM      7  C   UNL     1     138.919 143.357 133.847  1.00  0.00    -0.055 C 
ATOM      8  C   UNL     1     139.110 143.316 135.171  1.00  0.00     0.012 C 
BRANCH   7   9
ATOM      9  C   UNL     1     138.021 142.343 133.229  1.00  0.00    -0.005 C 
ATOM     10  C   UNL     1     137.286 141.468 133.914  1.00  0.00     0.009 C 
ENDBRANCH   7   9
ENDBRANCH   1   7
TORSDOF 4
ENDMDL
MODEL 4
REMARK VINA RESULT:    -3.841      2.848      5.036
REMARK INTER + INTRA:          -5.261
REMARK INTER:                  -4.735
REMARK INTRA:                  -0.525
REMARK UNBOUND:                -0.521
REMARK SMILES C=CC(=C)CCC=C(C)C
REMARK SMILES IDX 5 1 6 2 7 3 9 4 8 5 10 6 3 7 4 8 2 9 1 10
REMARK H PARENT
REMARK Flexibility Score: inf
ROOT
ATOM      1  C   UNL     1     143.900 142.602 134.350  1.00  0.00     0.039 C 
ENDROOT
BRANCH   1   2
ATOM      2  C   UNL     1     144.766 141.347 134.164  1.00  0.00     0.032 C 
BRANCH   2   3
ATOM      3  C   UNL     1     143.976 140.074 134.345  1.00  0.00    -0.028 C 
ATOM      4  C   UNL     1     144.007 139.512 131.905  1.00  0.00     0.039 C 
ATOM      5  C   UNL     1     143.608 139.251 133.337  1.00  0.00    -0.080 C 
ATOM      6  C   UNL     1     142.777 138.039 133.668  1.00  0.00     0.039 C 
ENDBRANCH   2   3
ENDBRANCH   1   2
BRANCH   1   7
ATOM      7  C   UNL     1     143.615 143.297 133.032  1.00  0.00    -0.055 C 
ATOM      8  C   UNL     1     144.527 143.221 132.056  1.00  0.00     0.012 C 
BRANCH   7   9
ATOM      9  C   UNL     1     142.381 144.091 132.789  1.00  0.00    -0.005 C 
ATOM     10  C   UNL     1     141.706 144.748 133.732  1.00  0.00     0.009 C 
ENDBRANCH   7   9
ENDBRANCH   1   7
TORSDOF 4
ENDMDL
MODEL 5
REMARK VINA RESULT:    -3.834      2.034      4.223
REMARK INTER + INTRA:          -5.252
REMARK INTER:                  -4.896
REMARK INTRA:                  -0.356
REMARK UNBOUND:                -0.521
REMARK SMILES C=CC(=C)CCC=C(C)C
REMARK SMILES IDX 5 1 6 2 7 3 9 4 8 5 10 6 3 7 4 8 2 9 1 10
REMARK H PARENT
REMARK Flexibility Score: inf
ROOT
ATOM      1  C   UNL     1     144.904 141.110 134.176  1.00  0.00     0.039 C 
ENDROOT
BRANCH   1   2
ATOM      2  C   UNL     1     144.533 139.963 133.224  1.00  0.00     0.032 C 
BRANCH   2   3
ATOM      3  C   UNL     1     143.338 139.180 133.710  1.00  0.00    -0.028 C 
ATOM      4  C   UNL     1     143.357 137.616 131.755  1.00  0.00     0.039 C 
ATOM      5  C   UNL     1     142.785 138.138 133.052  1.00  0.00    -0.080 C 
ATOM      6  C   UNL     1     141.562 137.484 133.641  1.00  0.00     0.039 C 
ENDBRANCH   2   3
ENDBRANCH   1   2
BRANCH   1   7
ATOM      7  C   UNL     1     144.139 142.381 133.861  1.00  0.00    -0.055 C 
ATOM      8  C   UNL     1     143.653 143.106 134.876  1.00  0.00     0.012 C 
BRANCH   7   9
ATOM      9  C   UNL     1     143.870 142.840 132.471  1.00  0.00    -0.005 C 
ATOM     10  C   UNL     1     144.771 143.424 131.681  1.00  0.00     0.009 C 
ENDBRANCH   7   9
ENDBRANCH   1   7
TORSDOF 4
ENDMDL
MODEL 6
REMARK VINA RESULT:    -3.833      4.714      7.016
REMARK INTER + INTRA:          -5.250
REMARK INTER:                  -4.603
REMARK INTRA:                  -0.647
REMARK UNBOUND:                -0.521
REMARK SMILES C=CC(=C)CCC=C(C)C
REMARK SMILES IDX 5 1 6 2 7 3 9 4 8 5 10 6 3 7 4 8 2 9 1 10
REMARK H PARENT
REMARK Flexibility Score: inf
ROOT
ATOM      1  C   UNL     1     140.054 144.360 134.141  1.00  0.00     0.039 C 
ENDROOT
BRANCH   1   2
ATOM      2  C   UNL     1     141.379 144.963 133.649  1.00  0.00     0.032 C 
BRANCH   2   3
ATOM      3  C   UNL     1     142.529 143.994 133.774  1.00  0.00    -0.028 C 
ATOM      4  C   UNL     1     143.021 144.001 131.319  1.00  0.00     0.039 C 
ATOM      5  C   UNL     1     143.262 143.536 132.735  1.00  0.00    -0.080 C 
ATOM      6  C   UNL     1     144.351 142.533 133.012  1.00  0.00     0.039 C 
ENDBRANCH   2   3
ENDBRANCH   1   2
BRANCH   1   7
ATOM      7  C   UNL     1     139.151 143.956 132.991  1.00  0.00    -0.055 C 
ATOM      8  C   UNL     1     138.420 142.841 133.110  1.00  0.00     0.012 C 
BRANCH   7   9
ATOM      9  C   UNL     1     139.069 144.724 131.719  1.00  0.00    -0.005 C 
ATOM     10  C   UNL     1     139.376 144.233 130.519  1.00  0.00     0.009 C 
ENDBRANCH   7   9
ENDBRANCH   1   7
TORSDOF 4
ENDMDL
MODEL 7
REMARK VINA RESULT:    -3.832      0.990      1.838
REMARK INTER + INTRA:          -5.249
REMARK INTER:                  -4.778
REMARK INTRA:                  -0.471
REMARK UNBOUND:                -0.521
REMARK SMILES C=CC(=C)CCC=C(C)C
REMARK SMILES IDX 5 1 6 2 7 3 9 4 8 5 10 6 3 7 4 8 2 9 1 10
REMARK H PARENT
REMARK Flexibility Score: inf
ROOT
ATOM      1  C   UNL     1     142.460 137.622 133.056  1.00  0.00     0.039 C 
ENDROOT
BRANCH   1   2
ATOM      2  C   UNL     1     141.126 137.230 133.709  1.00  0.00     0.032 C 
BRANCH   2   3
ATOM      3  C   UNL     1     139.975 138.068 133.208  1.00  0.00    -0.028 C 
ATOM      4  C   UNL     1     139.203 138.684 135.509  1.00  0.00     0.039 C 
ATOM      5  C   UNL     1     139.091 138.709 134.003  1.00  0.00    -0.080 C 
ATOM      6  C   UNL     1     137.964 139.471 133.355  1.00  0.00     0.039 C 
ENDBRANCH   2   3
ENDBRANCH   1   2
BRANCH   1   7
ATOM      7  C   UNL     1     143.191 138.688 133.850  1.00  0.00    -0.055 C 
ATOM      8  C   UNL     1     143.064 138.697 135.182  1.00  0.00     0.012 C 
BRANCH   7   9
ATOM      9  C   UNL     1     144.014 139.749 133.209  1.00  0.00    -0.005 C 
ATOM     10  C   UNL     1     144.792 140.605 133.872  1.00  0.00     0.009 C 
ENDBRANCH   7   9
ENDBRANCH   1   7
TORSDOF 4
ENDMDL
MODEL 8
REMARK VINA RESULT:    -3.822      0.504      1.648
REMARK INTER + INTRA:          -5.237
REMARK INTER:                  -4.571
REMARK INTRA:                  -0.666
REMARK UNBOUND:                -0.521
REMARK SMILES C=CC(=C)CCC=C(C)C
REMARK SMILES IDX 5 1 6 2 7 3 9 4 8 5 10 6 3 7 4 8 2 9 1 10
REMARK H PARENT
REMARK Flexibility Score: inf
ROOT
ATOM      1  C   UNL     1     142.333 137.983 134.310  1.00  0.00     0.039 C 
ENDROOT
BRANCH   1   2
ATOM      2  C   UNL     1     141.072 137.212 133.892  1.00  0.00     0.032 C 
BRANCH   2   3
ATOM      3  C   UNL     1     139.825 138.056 133.993  1.00  0.00    -0.028 C 
ATOM      4  C   UNL     1     139.565 138.267 131.512  1.00  0.00     0.039 C 
ATOM      5  C   UNL     1     139.150 138.555 132.935  1.00  0.00    -0.080 C 
ATOM      6  C   UNL     1     137.945 139.422 133.196  1.00  0.00     0.039 C 
ENDBRANCH   2   3
ENDBRANCH   1   2
BRANCH   1   7
ATOM      7  C   UNL     1     143.181 138.378 133.116  1.00  0.00    -0.055 C 
ATOM      8  C   UNL     1     143.877 139.520 133.172  1.00  0.00     0.012 C 
BRANCH   7   9
ATOM      9  C   UNL     1     143.244 137.571 131.868  1.00  0.00    -0.005 C 
ATOM     10  C   UNL     1     143.377 138.081 130.644  1.00  0.00     0.009 C 
ENDBRANCH   7   9
ENDBRANCH   1   7
TORSDOF 4
ENDMDL
MODEL 9
REMARK VINA RESULT:    -3.815      3.224      5.371
REMARK INTER + INTRA:          -5.228
REMARK INTER:                  -4.565
REMARK INTRA:                  -0.663
REMARK UNBOUND:                -0.521
REMARK SMILES C=CC(=C)CCC=C(C)C
REMARK SMILES IDX 5 1 6 2 7 3 9 4 8 5 10 6 3 7 4 8 2 9 1 10
REMARK H PARENT
REMARK Flexibility Score: inf
ROOT
ATOM      1  C   UNL     1     137.975 140.056 134.374  1.00  0.00     0.039 C 
ENDROOT
BRANCH   1   2
ATOM      2  C   UNL     1     137.297 141.348 133.894  1.00  0.00     0.032 C 
BRANCH   2   3
ATOM      3  C   UNL     1     138.226 142.536 133.949  1.00  0.00    -0.028 C 
ATOM      4  C   UNL     1     138.239 142.854 131.465  1.00  0.00     0.039 C 
ATOM      5  C   UNL     1     138.676 143.209 132.867  1.00  0.00    -0.080 C 
ATOM      6  C   UNL     1     139.639 144.348 133.078  1.00  0.00     0.039 C 
ENDBRANCH   2   3
ENDBRANCH   1   2
BRANCH   1   7
ATOM      7  C   UNL     1     138.331 139.137 133.221  1.00  0.00    -0.055 C 
ATOM      8  C   UNL     1     139.429 138.378 133.320  1.00  0.00     0.012 C 
BRANCH   7   9
ATOM      9  C   UNL     1     137.534 139.069 131.966  1.00  0.00    -0.005 C 
ATOM     10  C   UNL     1     138.046 139.157 130.739  1.00  0.00     0.009 C 
ENDBRANCH   7   9
ENDBRANCH   1   7
TORSDOF 4
ENDMDL
