MODEL 1
REMARK VINA RESULT:    -3.111      0.000      0.000
REMARK INTER + INTRA:          -7.553
REMARK INTER:                  -5.658
REMARK INTRA:                  -1.895
REMARK UNBOUND:                -1.895
REMARK SMILES CCCCCCCCCCCCCCCC(=O)[O-]
REMARK SMILES IDX 9 1 10 2 11 3 12 4 13 5 14 6 15 7 16 8 17 9 18 10 8 11 7 12
REMARK SMILES IDX 6 13 5 14 4 15 3 16 2 17 1 18
REMARK H PARENT
REMARK Flexibility Score: inf
ROOT
ATOM      1  C   UNL     1    -115.004  34.984  -7.563  1.00  0.00     0.000 C 
ENDROOT
BRANCH   1   2
ATOM      2  C   UNL     1    -115.069  33.870  -8.618  1.00  0.00     0.000 C 
BRANCH   2   3
ATOM      3  C   UNL     1    -116.491  33.640  -9.158  1.00  0.00     0.000 C 
BRANCH   3   4
ATOM      4  C   UNL     1    -116.656  33.850 -10.677  1.00  0.00     0.000 C 
BRANCH   4   5
ATOM      5  C   UNL     1    -115.341  33.910 -11.475  1.00  0.00     0.000 C 
BRANCH   5   6
ATOM      6  C   UNL     1    -115.545  33.671 -12.981  1.00  0.00     0.006 C 
BRANCH   6   7
ATOM      7  C   UNL     1    -114.943  32.337 -13.442  1.00  0.00     0.053 C 
BRANCH   7   8
ATOM      8  C   UNL     1    -115.997  31.297 -13.666  1.00  0.00     0.041 C 
ATOM      9  O   UNL     1    -116.721  30.914 -12.709  1.00  0.00    -0.550 OA
ATOM     10  O   UNL     1    -116.200  30.773 -14.936  1.00  0.00    -0.550 OA
ENDBRANCH   7   8
ENDBRANCH   6   7
ENDBRANCH   5   6
ENDBRANCH   4   5
ENDBRANCH   3   4
ENDBRANCH   2   3
ENDBRANCH   1   2
BRANCH   1  11
ATOM     11  C   UNL     1    -116.414  35.440  -7.160  1.00  0.00     0.000 C 
BRANCH  11  12
ATOM     12  C   UNL     1    -116.707  36.901  -7.549  1.00  0.00    -0.000 C 
BRANCH  12  13
ATOM     13  C   UNL     1    -115.747  37.501  -8.592  1.00  0.00    -0.000 C 
BRANCH  13  14
ATOM     14  C   UNL     1    -116.301  37.438 -10.023  1.00  0.00    -0.000 C 
BRANCH  14  15
ATOM     15  C   UNL     1    -115.227  37.832 -11.045  1.00  0.00    -0.000 C 
BRANCH  15  16
ATOM     16  C   UNL     1    -115.673  37.482 -12.473  1.00  0.00    -0.000 C 
BRANCH  16  17
ATOM     17  C   UNL     1    -114.488  37.216 -13.413  1.00  0.00    -0.003 C 
ATOM     18  C   UNL     1    -113.470  38.356 -13.418  1.00  0.00     0.004 C 
ENDBRANCH  16  17
ENDBRANCH  15  16
ENDBRANCH  14  15
ENDBRANCH  13  14
ENDBRANCH  12  13
ENDBRANCH  11  12
ENDBRANCH   1  11
TORSDOF 14
ENDMDL
MODEL 2
REMARK VINA RESULT:    -3.101      1.618      2.578
REMARK INTER + INTRA:          -7.533
REMARK INTER:                  -5.645
REMARK INTRA:                  -1.888
REMARK UNBOUND:                -1.895
REMARK SMILES CCCCCCCCCCCCCCCC(=O)[O-]
REMARK SMILES IDX 9 1 10 2 11 3 12 4 13 5 14 6 15 7 16 8 17 9 18 10 8 11 7 12
REMARK SMILES IDX 6 13 5 14 4 15 3 16 2 17 1 18
REMARK H PARENT
REMARK Flexibility Score: inf
ROOT
ATOM      1  C   UNL     1    -114.936  34.863  -7.551  1.00  0.00     0.000 C 
ENDROOT
BRANCH   1   2
ATOM      2  C   UNL     1    -115.043  33.907  -8.748  1.00  0.00     0.000 C 
BRANCH   2   3
ATOM      3  C   UNL     1    -116.495  33.674  -9.200  1.00  0.00     0.000 C 
BRANCH   3   4
ATOM      4  C   UNL     1    -116.792  34.048 -10.666  1.00  0.00     0.000 C 
BRANCH   4   5
ATOM      5  C   UNL     1    -115.589  34.589 -11.460  1.00  0.00     0.000 C 
BRANCH   5   6
ATOM      6  C   UNL     1    -115.581  34.121 -12.925  1.00  0.00     0.006 C 
BRANCH   6   7
ATOM      7  C   UNL     1    -114.827  32.797 -13.105  1.00  0.00     0.053 C 
BRANCH   7   8
ATOM      8  C   UNL     1    -115.569  31.849 -13.995  1.00  0.00     0.041 C 
ATOM      9  O   UNL     1    -115.646  32.072 -15.233  1.00  0.00    -0.550 OA
ATOM     10  O   UNL     1    -116.150  30.704 -13.465  1.00  0.00    -0.550 OA
ENDBRANCH   7   8
ENDBRANCH   6   7
ENDBRANCH   5   6
ENDBRANCH   4   5
ENDBRANCH   3   4
ENDBRANCH   2   3
ENDBRANCH   1   2
BRANCH   1  11
ATOM     11  C   UNL     1    -116.316  35.414  -7.164  1.00  0.00     0.000 C 
BRANCH  11  12
ATOM     12  C   UNL     1    -116.461  36.921  -7.444  1.00  0.00    -0.000 C 
BRANCH  12  13
ATOM     13  C   UNL     1    -117.125  37.271  -8.788  1.00  0.00    -0.000 C 
BRANCH  13  14
ATOM     14  C   UNL     1    -116.145  37.884  -9.800  1.00  0.00    -0.000 C 
BRANCH  14  15
ATOM     15  C   UNL     1    -114.838  38.301  -9.115  1.00  0.00    -0.000 C 
BRANCH  15  16
ATOM     16  C   UNL     1    -114.517  39.777  -9.396  1.00  0.00    -0.000 C 
BRANCH  16  17
ATOM     17  C   UNL     1    -115.446  40.737  -8.638  1.00  0.00    -0.003 C 
ATOM     18  C   UNL     1    -115.284  40.644  -7.121  1.00  0.00     0.004 C 
ENDBRANCH  16  17
ENDBRANCH  15  16
ENDBRANCH  14  15
ENDBRANCH  13  14
ENDBRANCH  12  13
ENDBRANCH  11  12
ENDBRANCH   1  11
TORSDOF 14
ENDMDL
MODEL 3
REMARK VINA RESULT:    -3.090      3.262      5.729
REMARK INTER + INTRA:          -7.514
REMARK INTER:                  -5.634
REMARK INTRA:                  -1.880
REMARK UNBOUND:                -1.895
REMARK SMILES CCCCCCCCCCCCCCCC(=O)[O-]
REMARK SMILES IDX 9 1 10 2 11 3 12 4 13 5 14 6 15 7 16 8 17 9 18 10 8 11 7 12
REMARK SMILES IDX 6 13 5 14 4 15 3 16 2 17 1 18
REMARK H PARENT
REMARK Flexibility Score: inf
ROOT
ATOM      1  C   UNL     1    -115.234  33.609  -8.897  1.00  0.00     0.000 C 
ENDROOT
BRANCH   1   2
ATOM      2  C   UNL     1    -115.065  34.623  -7.755  1.00  0.00     0.000 C 
BRANCH   2   3
ATOM      3  C   UNL     1    -116.398  35.244  -7.304  1.00  0.00     0.000 C 
BRANCH   3   4
ATOM      4  C   UNL     1    -116.477  36.780  -7.419  1.00  0.00     0.000 C 
BRANCH   4   5
ATOM      5  C   UNL     1    -116.529  37.326  -8.858  1.00  0.00     0.000 C 
BRANCH   5   6
ATOM      6  C   UNL     1    -115.214  37.998  -9.288  1.00  0.00     0.006 C 
BRANCH   6   7
ATOM      7  C   UNL     1    -115.186  38.305 -10.791  1.00  0.00     0.053 C 
BRANCH   7   8
ATOM      8  C   UNL     1    -114.131  39.309 -11.137  1.00  0.00     0.041 C 
ATOM      9  O   UNL     1    -114.086  40.414 -10.534  1.00  0.00    -0.550 OA
ATOM     10  O   UNL     1    -113.178  39.014 -12.104  1.00  0.00    -0.550 OA
ENDBRANCH   7   8
ENDBRANCH   6   7
ENDBRANCH   5   6
ENDBRANCH   4   5
ENDBRANCH   3   4
ENDBRANCH   2   3
ENDBRANCH   1   2
BRANCH   1  11
ATOM     11  C   UNL     1    -116.691  33.566  -9.379  1.00  0.00     0.000 C 
BRANCH  11  12
ATOM     12  C   UNL     1    -116.859  34.059 -10.828  1.00  0.00    -0.000 C 
BRANCH  12  13
ATOM     13  C   UNL     1    -115.564  34.545 -11.503  1.00  0.00    -0.000 C 
BRANCH  13  14
ATOM     14  C   UNL     1    -115.759  34.913 -12.982  1.00  0.00    -0.000 C 
BRANCH  14  15
ATOM     15  C   UNL     1    -114.802  34.117 -13.877  1.00  0.00    -0.000 C 
BRANCH  15  16
ATOM     16  C   UNL     1    -114.727  32.649 -13.431  1.00  0.00    -0.000 C 
BRANCH  16  17
ATOM     17  C   UNL     1    -115.797  31.773 -14.099  1.00  0.00    -0.003 C 
ATOM     18  C   UNL     1    -116.549  30.893 -13.101  1.00  0.00     0.004 C 
ENDBRANCH  16  17
ENDBRANCH  15  16
ENDBRANCH  14  15
ENDBRANCH  13  14
ENDBRANCH  12  13
ENDBRANCH  11  12
ENDBRANCH   1  11
TORSDOF 14
ENDMDL
MODEL 4
REMARK VINA RESULT:    -3.039      4.299      6.657
REMARK INTER + INTRA:          -7.422
REMARK INTER:                  -5.925
REMARK INTRA:                  -1.497
REMARK UNBOUND:                -1.895
REMARK SMILES CCCCCCCCCCCCCCCC(=O)[O-]
REMARK SMILES IDX 9 1 10 2 11 3 12 4 13 5 14 6 15 7 16 8 17 9 18 10 8 11 7 12
REMARK SMILES IDX 6 13 5 14 4 15 3 16 2 17 1 18
REMARK H PARENT
REMARK Flexibility Score: inf
ROOT
ATOM      1  C   UNL     1    -115.152  33.865  -8.556  1.00  0.00     0.000 C 
ENDROOT
BRANCH   1   2
ATOM      2  C   UNL     1    -114.998  35.002  -7.535  1.00  0.00     0.000 C 
BRANCH   2   3
ATOM      3  C   UNL     1    -116.293  35.809  -7.339  1.00  0.00     0.000 C 
BRANCH   3   4
ATOM      4  C   UNL     1    -116.257  37.249  -7.889  1.00  0.00     0.000 C 
BRANCH   4   5
ATOM      5  C   UNL     1    -115.725  37.386  -9.328  1.00  0.00     0.000 C 
BRANCH   5   6
ATOM      6  C   UNL     1    -114.710  38.531  -9.482  1.00  0.00     0.006 C 
BRANCH   6   7
ATOM      7  C   UNL     1    -115.356  39.908  -9.284  1.00  0.00     0.053 C 
BRANCH   7   8
ATOM      8  C   UNL     1    -114.563  40.768  -8.349  1.00  0.00     0.041 C 
ATOM      9  O   UNL     1    -113.678  41.544  -8.800  1.00  0.00    -0.550 OA
ATOM     10  O   UNL     1    -114.820  40.736  -6.984  1.00  0.00    -0.550 OA
ENDBRANCH   7   8
ENDBRANCH   6   7
ENDBRANCH   5   6
ENDBRANCH   4   5
ENDBRANCH   3   4
ENDBRANCH   2   3
ENDBRANCH   1   2
BRANCH   1  11
ATOM     11  C   UNL     1    -116.606  33.753  -9.037  1.00  0.00     0.000 C 
BRANCH  11  12
ATOM     12  C   UNL     1    -116.744  33.883 -10.565  1.00  0.00    -0.000 C 
BRANCH  12  13
ATOM     13  C   UNL     1    -115.423  34.123 -11.319  1.00  0.00    -0.000 C 
BRANCH  13  14
ATOM     14  C   UNL     1    -115.633  34.692 -12.731  1.00  0.00    -0.000 C 
BRANCH  14  15
ATOM     15  C   UNL     1    -114.904  33.841 -13.779  1.00  0.00    -0.000 C 
BRANCH  15  16
ATOM     16  C   UNL     1    -114.843  32.369 -13.345  1.00  0.00    -0.000 C 
BRANCH  16  17
ATOM     17  C   UNL     1    -115.873  31.495 -14.078  1.00  0.00    -0.003 C 
ATOM     18  C   UNL     1    -116.699  30.631 -13.126  1.00  0.00     0.004 C 
ENDBRANCH  16  17
ENDBRANCH  15  16
ENDBRANCH  14  15
ENDBRANCH  13  14
ENDBRANCH  12  13
ENDBRANCH  11  12
ENDBRANCH   1  11
TORSDOF 14
ENDMDL
MODEL 5
REMARK VINA RESULT:    -3.017      3.707      5.505
REMARK INTER + INTRA:          -7.382
REMARK INTER:                  -5.300
REMARK INTRA:                  -2.082
REMARK UNBOUND:                -1.895
REMARK SMILES CCCCCCCCCCCCCCCC(=O)[O-]
REMARK SMILES IDX 9 1 10 2 11 3 12 4 13 5 14 6 15 7 16 8 17 9 18 10 8 11 7 12
REMARK SMILES IDX 6 13 5 14 4 15 3 16 2 17 1 18
REMARK H PARENT
REMARK Flexibility Score: inf
ROOT
ATOM      1  C   UNL     1    -114.978  33.869  -8.761  1.00  0.00     0.000 C 
ENDROOT
BRANCH   1   2
ATOM      2  C   UNL     1    -114.955  34.770  -7.517  1.00  0.00     0.000 C 
BRANCH   2   3
ATOM      3  C   UNL     1    -116.330  35.382  -7.197  1.00  0.00     0.000 C 
BRANCH   3   4
ATOM      4  C   UNL     1    -116.485  36.871  -7.566  1.00  0.00     0.000 C 
BRANCH   4   5
ATOM      5  C   UNL     1    -117.028  37.140  -8.982  1.00  0.00     0.000 C 
BRANCH   5   6
ATOM      6  C   UNL     1    -115.956  37.686  -9.939  1.00  0.00     0.006 C 
BRANCH   6   7
ATOM      7  C   UNL     1    -114.783  38.329  -9.188  1.00  0.00     0.053 C 
BRANCH   7   8
ATOM      8  C   UNL     1    -114.800  39.822  -9.296  1.00  0.00     0.041 C 
ATOM      9  O   UNL     1    -115.631  40.495  -8.630  1.00  0.00    -0.550 OA
ATOM     10  O   UNL     1    -113.881  40.473 -10.109  1.00  0.00    -0.550 OA
ENDBRANCH   7   8
ENDBRANCH   6   7
ENDBRANCH   5   6
ENDBRANCH   4   5
ENDBRANCH   3   4
ENDBRANCH   2   3
ENDBRANCH   1   2
BRANCH   1  11
ATOM     11  C   UNL     1    -116.418  33.507  -9.149  1.00  0.00     0.000 C 
BRANCH  11  12
ATOM     12  C   UNL     1    -116.645  33.492 -10.672  1.00  0.00    -0.000 C 
BRANCH  12  13
ATOM     13  C   UNL     1    -115.665  34.360 -11.483  1.00  0.00    -0.000 C 
BRANCH  13  14
ATOM     14  C   UNL     1    -115.356  33.779 -12.871  1.00  0.00    -0.000 C 
BRANCH  14  15
ATOM     15  C   UNL     1    -114.865  34.873 -13.828  1.00  0.00    -0.000 C 
BRANCH  15  16
ATOM     16  C   UNL     1    -115.267  36.267 -13.320  1.00  0.00    -0.000 C 
BRANCH  16  17
ATOM     17  C   UNL     1    -114.208  37.336 -13.630  1.00  0.00    -0.003 C 
ATOM     18  C   UNL     1    -114.654  38.742 -13.233  1.00  0.00     0.004 C 
ENDBRANCH  16  17
ENDBRANCH  15  16
ENDBRANCH  14  15
ENDBRANCH  13  14
ENDBRANCH  12  13
ENDBRANCH  11  12
ENDBRANCH   1  11
TORSDOF 14
ENDMDL
MODEL 6
REMARK VINA RESULT:    -2.994      3.660      5.597
REMARK INTER + INTRA:          -7.339
REMARK INTER:                  -5.649
REMARK INTRA:                  -1.690
REMARK UNBOUND:                -1.895
REMARK SMILES CCCCCCCCCCCCCCCC(=O)[O-]
REMARK SMILES IDX 9 1 10 2 11 3 12 4 13 5 14 6 15 7 16 8 17 9 18 10 8 11 7 12
REMARK SMILES IDX 6 13 5 14 4 15 3 16 2 17 1 18
REMARK H PARENT
REMARK Flexibility Score: inf
ROOT
ATOM      1  C   UNL     1    -116.663  33.549 -10.759  1.00  0.00     0.000 C 
ENDROOT
BRANCH   1   2
ATOM      2  C   UNL     1    -115.624  34.519 -11.342  1.00  0.00     0.000 C 
BRANCH   2   3
ATOM      3  C   UNL     1    -116.262  35.673 -12.135  1.00  0.00     0.000 C 
BRANCH   3   4
ATOM      4  C   UNL     1    -115.338  36.342 -13.173  1.00  0.00     0.000 C 
BRANCH   4   5
ATOM      5  C   UNL     1    -114.775  37.713 -12.759  1.00  0.00     0.000 C 
BRANCH   5   6
ATOM      6  C   UNL     1    -113.454  38.056 -13.469  1.00  0.00     0.006 C 
BRANCH   6   7
ATOM      7  C   UNL     1    -112.612  39.060 -12.672  1.00  0.00     0.053 C 
BRANCH   7   8
ATOM      8  C   UNL     1    -111.304  39.349 -13.342  1.00  0.00     0.041 C 
ATOM      9  O   UNL     1    -110.858  38.567 -14.223  1.00  0.00    -0.550 OA
ATOM     10  O   UNL     1    -110.592  40.497 -13.016  1.00  0.00    -0.550 OA
ENDBRANCH   7   8
ENDBRANCH   6   7
ENDBRANCH   5   6
ENDBRANCH   4   5
ENDBRANCH   3   4
ENDBRANCH   2   3
ENDBRANCH   1   2
BRANCH   1  11
ATOM     11  C   UNL     1    -116.557  33.489  -9.228  1.00  0.00     0.000 C 
BRANCH  11  12
ATOM     12  C   UNL     1    -115.150  33.836  -8.709  1.00  0.00    -0.000 C 
BRANCH  12  13
ATOM     13  C   UNL     1    -115.119  34.807  -7.515  1.00  0.00    -0.000 C 
BRANCH  13  14
ATOM     14  C   UNL     1    -116.470  35.495  -7.266  1.00  0.00    -0.000 C 
BRANCH  14  15
ATOM     15  C   UNL     1    -116.351  37.016  -7.425  1.00  0.00    -0.000 C 
BRANCH  15  16
ATOM     16  C   UNL     1    -116.111  37.397  -8.893  1.00  0.00    -0.000 C 
BRANCH  16  17
ATOM     17  C   UNL     1    -114.754  38.083  -9.111  1.00  0.00    -0.003 C 
ATOM     18  C   UNL     1    -114.868  39.604  -9.206  1.00  0.00     0.004 C 
ENDBRANCH  16  17
ENDBRANCH  15  16
ENDBRANCH  14  15
ENDBRANCH  13  14
ENDBRANCH  12  13
ENDBRANCH  11  12
ENDBRANCH   1  11
TORSDOF 14
ENDMDL
MODEL 7
REMARK VINA RESULT:    -2.987      3.058      5.273
REMARK INTER + INTRA:          -7.328
REMARK INTER:                  -5.688
REMARK INTRA:                  -1.640
REMARK UNBOUND:                -1.895
REMARK SMILES CCCCCCCCCCCCCCCC(=O)[O-]
REMARK SMILES IDX 9 1 10 2 11 3 12 4 13 5 14 6 15 7 16 8 17 9 18 10 8 11 7 12
REMARK SMILES IDX 6 13 5 14 4 15 3 16 2 17 1 18
REMARK H PARENT
REMARK Flexibility Score: inf
ROOT
ATOM      1  C   UNL     1    -115.276  37.499  -8.731  1.00  0.00     0.000 C 
ENDROOT
BRANCH   1   2
ATOM      2  C   UNL     1    -115.854  38.257  -9.935  1.00  0.00     0.000 C 
BRANCH   2   3
ATOM      3  C   UNL     1    -115.955  37.385 -11.199  1.00  0.00     0.000 C 
BRANCH   3   4
ATOM      4  C   UNL     1    -114.910  37.692 -12.291  1.00  0.00     0.000 C 
BRANCH   4   5
ATOM      5  C   UNL     1    -114.010  38.909 -12.010  1.00  0.00     0.000 C 
BRANCH   5   6
ATOM      6  C   UNL     1    -112.662  38.838 -12.748  1.00  0.00     0.006 C 
BRANCH   6   7
ATOM      7  C   UNL     1    -112.723  37.921 -13.977  1.00  0.00     0.053 C 
BRANCH   7   8
ATOM      8  C   UNL     1    -111.373  37.723 -14.594  1.00  0.00     0.041 C 
ATOM      9  O   UNL     1    -110.578  38.694 -14.702  1.00  0.00    -0.550 OA
ATOM     10  O   UNL     1    -110.981  36.461 -15.022  1.00  0.00    -0.550 OA
ENDBRANCH   7   8
ENDBRANCH   6   7
ENDBRANCH   5   6
ENDBRANCH   4   5
ENDBRANCH   3   4
ENDBRANCH   2   3
ENDBRANCH   1   2
BRANCH   1  11
ATOM     11  C   UNL     1    -116.390  37.087  -7.757  1.00  0.00     0.000 C 
BRANCH  11  12
ATOM     12  C   UNL     1    -116.295  35.612  -7.324  1.00  0.00    -0.000 C 
BRANCH  12  13
ATOM     13  C   UNL     1    -114.984  34.904  -7.714  1.00  0.00    -0.000 C 
BRANCH  13  14
ATOM     14  C   UNL     1    -115.186  33.803  -8.765  1.00  0.00    -0.000 C 
BRANCH  14  15
ATOM     15  C   UNL     1    -116.611  33.840  -9.333  1.00  0.00    -0.000 C 
BRANCH  15  16
ATOM     16  C   UNL     1    -116.611  33.525 -10.836  1.00  0.00    -0.000 C 
BRANCH  16  17
ATOM     17  C   UNL     1    -115.273  33.864 -11.511  1.00  0.00    -0.003 C 
ATOM     18  C   UNL     1    -115.364  33.866 -13.036  1.00  0.00     0.004 C 
ENDBRANCH  16  17
ENDBRANCH  15  16
ENDBRANCH  14  15
ENDBRANCH  13  14
ENDBRANCH  12  13
ENDBRANCH  11  12
ENDBRANCH   1  11
TORSDOF 14
ENDMDL
MODEL 8
REMARK VINA RESULT:    -2.984      2.884      5.344
REMARK INTER + INTRA:          -7.322
REMARK INTER:                  -5.729
REMARK INTRA:                  -1.593
REMARK UNBOUND:                -1.895
REMARK SMILES CCCCCCCCCCCCCCCC(=O)[O-]
REMARK SMILES IDX 9 1 10 2 11 3 12 4 13 5 14 6 15 7 16 8 17 9 18 10 8 11 7 12
REMARK SMILES IDX 6 13 5 14 4 15 3 16 2 17 1 18
REMARK H PARENT
REMARK Flexibility Score: inf
ROOT
ATOM      1  C   UNL     1    -115.461  34.354 -11.372  1.00  0.00     0.000 C 
ENDROOT
BRANCH   1   2
ATOM      2  C   UNL     1    -115.795  35.085 -12.681  1.00  0.00     0.000 C 
BRANCH   2   3
ATOM      3  C   UNL     1    -115.570  36.604 -12.593  1.00  0.00     0.000 C 
BRANCH   3   4
ATOM      4  C   UNL     1    -114.508  37.166 -13.561  1.00  0.00     0.000 C 
BRANCH   4   5
ATOM      5  C   UNL     1    -113.652  38.314 -12.997  1.00  0.00     0.000 C 
BRANCH   5   6
ATOM      6  C   UNL     1    -112.242  38.363 -13.608  1.00  0.00     0.006 C 
BRANCH   6   7
ATOM      7  C   UNL     1    -112.210  37.806 -15.037  1.00  0.00     0.053 C 
BRANCH   7   8
ATOM      8  C   UNL     1    -111.102  36.816 -15.227  1.00  0.00     0.041 C 
ATOM      9  O   UNL     1    -109.920  37.216 -15.401  1.00  0.00    -0.550 OA
ATOM     10  O   UNL     1    -111.369  35.454 -15.181  1.00  0.00    -0.550 OA
ENDBRANCH   7   8
ENDBRANCH   6   7
ENDBRANCH   5   6
ENDBRANCH   4   5
ENDBRANCH   3   4
ENDBRANCH   2   3
ENDBRANCH   1   2
BRANCH   1  11
ATOM     11  C   UNL     1    -116.738  33.857 -10.681  1.00  0.00     0.000 C 
BRANCH  11  12
ATOM     12  C   UNL     1    -116.536  33.569  -9.181  1.00  0.00    -0.000 C 
BRANCH  12  13
ATOM     13  C   UNL     1    -115.117  33.844  -8.653  1.00  0.00    -0.000 C 
BRANCH  13  14
ATOM     14  C   UNL     1    -115.088  34.882  -7.521  1.00  0.00    -0.000 C 
BRANCH  14  15
ATOM     15  C   UNL     1    -116.455  35.562  -7.365  1.00  0.00    -0.000 C 
BRANCH  15  16
ATOM     16  C   UNL     1    -116.346  37.075  -7.604  1.00  0.00    -0.000 C 
BRANCH  16  17
ATOM     17  C   UNL     1    -116.136  37.425  -9.085  1.00  0.00    -0.003 C 
ATOM     18  C   UNL     1    -114.919  38.319  -9.315  1.00  0.00     0.004 C 
ENDBRANCH  16  17
ENDBRANCH  15  16
ENDBRANCH  14  15
ENDBRANCH  13  14
ENDBRANCH  12  13
ENDBRANCH  11  12
ENDBRANCH   1  11
TORSDOF 14
ENDMDL
MODEL 9
REMARK VINA RESULT:    -2.947      3.743      5.710
REMARK INTER + INTRA:          -7.253
REMARK INTER:                  -5.303
REMARK INTRA:                  -1.951
REMARK UNBOUND:                -1.895
REMARK SMILES CCCCCCCCCCCCCCCC(=O)[O-]
REMARK SMILES IDX 9 1 10 2 11 3 12 4 13 5 14 6 15 7 16 8 17 9 18 10 8 11 7 12
REMARK SMILES IDX 6 13 5 14 4 15 3 16 2 17 1 18
REMARK H PARENT
REMARK Flexibility Score: inf
ROOT
ATOM      1  C   UNL     1    -116.497  35.524  -7.219  1.00  0.00     0.000 C 
ENDROOT
BRANCH   1   2
ATOM      2  C   UNL     1    -116.636  36.994  -7.641  1.00  0.00     0.000 C 
BRANCH   2   3
ATOM      3  C   UNL     1    -116.805  37.167  -9.160  1.00  0.00     0.000 C 
BRANCH   3   4
ATOM      4  C   UNL     1    -115.593  37.785  -9.887  1.00  0.00     0.000 C 
BRANCH   4   5
ATOM      5  C   UNL     1    -114.695  38.682  -9.015  1.00  0.00     0.000 C 
BRANCH   5   6
ATOM      6  C   UNL     1    -114.377  40.033  -9.678  1.00  0.00     0.006 C 
BRANCH   6   7
ATOM      7  C   UNL     1    -114.423  39.951 -11.209  1.00  0.00     0.053 C 
BRANCH   7   8
ATOM      8  C   UNL     1    -113.098  40.278 -11.827  1.00  0.00     0.041 C 
ATOM      9  O   UNL     1    -112.501  39.423 -12.533  1.00  0.00    -0.550 OA
ATOM     10  O   UNL     1    -112.537  41.536 -11.648  1.00  0.00    -0.550 OA
ENDBRANCH   7   8
ENDBRANCH   6   7
ENDBRANCH   5   6
ENDBRANCH   4   5
ENDBRANCH   3   4
ENDBRANCH   2   3
ENDBRANCH   1   2
BRANCH   1  11
ATOM     11  C   UNL     1    -115.092  34.993  -7.539  1.00  0.00     0.000 C 
BRANCH  11  12
ATOM     12  C   UNL     1    -115.090  33.933  -8.655  1.00  0.00    -0.000 C 
BRANCH  12  13
ATOM     13  C   UNL     1    -116.484  33.461  -9.106  1.00  0.00    -0.000 C 
BRANCH  13  14
ATOM     14  C   UNL     1    -116.651  33.455 -10.633  1.00  0.00    -0.000 C 
BRANCH  14  15
ATOM     15  C   UNL     1    -115.553  34.286 -11.309  1.00  0.00    -0.000 C 
BRANCH  15  16
ATOM     16  C   UNL     1    -116.151  35.231 -12.363  1.00  0.00    -0.000 C 
BRANCH  16  17
ATOM     17  C   UNL     1    -115.161  35.559 -13.490  1.00  0.00    -0.003 C 
ATOM     18  C   UNL     1    -114.884  37.057 -13.616  1.00  0.00     0.004 C 
ENDBRANCH  16  17
ENDBRANCH  15  16
ENDBRANCH  14  15
ENDBRANCH  13  14
ENDBRANCH  12  13
ENDBRANCH  11  12
ENDBRANCH   1  11
TORSDOF 14
ENDMDL
