MODEL 1
REMARK VINA RESULT:    -5.882      0.000      0.000
REMARK INTER + INTRA:         -19.733
REMARK INTER:                 -15.510
REMARK INTRA:                  -4.223
REMARK UNBOUND:                -4.223
REMARK SMILES CCCCCCCCCCCCCCCCCCCCCCCCCCCCCC(=O)[O-]
REMARK SMILES IDX 16 1 17 2 18 3 19 4 20 5 21 6 22 7 23 8 24 9 25 10 26 11
REMARK SMILES IDX 27 12 28 13 29 14 30 15 31 16 32 17 15 18 14 19 13 20 12 21
REMARK SMILES IDX 11 22 10 23 9 24 8 25 7 26 6 27 5 28 4 29 3 30 2 31 1 32
REMARK H PARENT
REMARK Flexibility Score: inf
ROOT
ATOM      1  C   UNL     1      23.126  13.123  -4.170  1.00  0.00     0.000 C 
ENDROOT
BRANCH   1   2
ATOM      2  C   UNL     1      21.900  12.891  -3.267  1.00  0.00     0.000 C 
BRANCH   2   3
ATOM      3  C   UNL     1      22.272  12.295  -1.902  1.00  0.00     0.000 C 
BRANCH   3   4
ATOM      4  C   UNL     1      23.583  12.868  -1.341  1.00  0.00     0.000 C 
BRANCH   4   5
ATOM      5  C   UNL     1      23.651  12.678   0.180  1.00  0.00     0.000 C 
BRANCH   5   6
ATOM      6  C   UNL     1      22.693  11.571   0.646  1.00  0.00     0.000 C 
BRANCH   6   7
ATOM      7  C   UNL     1      22.514  11.546   2.174  1.00  0.00     0.000 C 
BRANCH   7   8
ATOM      8  C   UNL     1      21.671  12.723   2.694  1.00  0.00     0.000 C 
BRANCH   8   9
ATOM      9  C   UNL     1      22.500  13.632   3.616  1.00  0.00     0.000 C 
BRANCH   9  10
ATOM     10  C   UNL     1      22.178  15.126   3.425  1.00  0.00     0.000 C 
BRANCH  10  11
ATOM     11  C   UNL     1      22.468  15.679   2.015  1.00  0.00     0.000 C 
BRANCH  11  12
ATOM     12  C   UNL     1      21.222  16.068   1.193  1.00  0.00     0.000 C 
BRANCH  12  13
ATOM     13  C   UNL     1      20.814  15.052   0.113  1.00  0.00     0.006 C 
BRANCH  13  14
ATOM     14  C   UNL     1      19.353  14.594   0.241  1.00  0.00     0.053 C 
BRANCH  14  15
ATOM     15  C   UNL     1      19.079  13.370  -0.579  1.00  0.00     0.041 C 
ATOM     16  O   UNL     1      18.612  13.469  -1.746  1.00  0.00    -0.550 OA
ATOM     17  O   UNL     1      19.264  12.110  -0.020  1.00  0.00    -0.550 OA
ENDBRANCH  14  15
ENDBRANCH  13  14
ENDBRANCH  12  13
ENDBRANCH  11  12
ENDBRANCH  10  11
ENDBRANCH   9  10
ENDBRANCH   8   9
ENDBRANCH   7   8
ENDBRANCH   6   7
ENDBRANCH   5   6
ENDBRANCH   4   5
ENDBRANCH   3   4
ENDBRANCH   2   3
ENDBRANCH   1   2
BRANCH   1  18
ATOM     18  C   UNL     1      22.956  12.480  -5.556  1.00  0.00     0.000 C 
BRANCH  18  19
ATOM     19  C   UNL     1      24.001  11.386  -5.833  1.00  0.00     0.000 C 
BRANCH  19  20
ATOM     20  C   UNL     1      23.769  10.661  -7.174  1.00  0.00     0.000 C 
BRANCH  20  21
ATOM     21  C   UNL     1      24.481  11.284  -8.391  1.00  0.00     0.000 C 
BRANCH  21  22
ATOM     22  C   UNL     1      26.001  11.050  -8.388  1.00  0.00     0.000 C 
BRANCH  22  23
ATOM     23  C   UNL     1      26.564  10.749  -9.790  1.00  0.00     0.000 C 
BRANCH  23  24
ATOM     24  C   UNL     1      27.129   9.322  -9.949  1.00  0.00    -0.000 C 
BRANCH  24  25
ATOM     25  C   UNL     1      28.365   9.083  -9.067  1.00  0.00    -0.000 C 
BRANCH  25  26
ATOM     26  C   UNL     1      28.247   7.768  -8.288  1.00  0.00    -0.000 C 
BRANCH  26  27
ATOM     27  C   UNL     1      26.776   7.359  -8.131  1.00  0.00    -0.000 C 
BRANCH  27  28
ATOM     28  C   UNL     1      26.206   7.685  -6.739  1.00  0.00    -0.000 C 
BRANCH  28  29
ATOM     29  C   UNL     1      27.251   8.127  -5.697  1.00  0.00    -0.000 C 
BRANCH  29  30
ATOM     30  C   UNL     1      27.028   9.567  -5.199  1.00  0.00    -0.000 C 
BRANCH  30  31
ATOM     31  C   UNL     1      28.324  10.221  -4.686  1.00  0.00    -0.003 C 
ATOM     32  C   UNL     1      29.572   9.697  -5.393  1.00  0.00     0.004 C 
ENDBRANCH  30  31
ENDBRANCH  29  30
ENDBRANCH  28  29
ENDBRANCH  27  28
ENDBRANCH  26  27
ENDBRANCH  25  26
ENDBRANCH  24  25
ENDBRANCH  23  24
ENDBRANCH  22  23
ENDBRANCH  21  22
ENDBRANCH  20  21
ENDBRANCH  19  20
ENDBRANCH  18  19
ENDBRANCH   1  18
TORSDOF 28
ENDMDL
MODEL 2
REMARK VINA RESULT:    -5.805      3.038     10.165
REMARK INTER + INTRA:         -19.529
REMARK INTER:                 -15.810
REMARK INTRA:                  -3.719
REMARK UNBOUND:                -4.223
REMARK SMILES CCCCCCCCCCCCCCCCCCCCCCCCCCCCCC(=O)[O-]
REMARK SMILES IDX 16 1 17 2 18 3 19 4 20 5 21 6 22 7 23 8 24 9 25 10 26 11
REMARK SMILES IDX 27 12 28 13 29 14 30 15 31 16 32 17 15 18 14 19 13 20 12 21
REMARK SMILES IDX 11 22 10 23 9 24 8 25 7 26 6 27 5 28 4 29 3 30 2 31 1 32
REMARK H PARENT
REMARK Flexibility Score: inf
ROOT
ATOM      1  C   UNL     1      23.961  11.450  -5.629  1.00  0.00     0.000 C 
ENDROOT
BRANCH   1   2
ATOM      2  C   UNL     1      23.643  10.826  -7.000  1.00  0.00     0.000 C 
BRANCH   2   3
ATOM      3  C   UNL     1      24.160  11.673  -8.172  1.00  0.00     0.000 C 
BRANCH   3   4
ATOM      4  C   UNL     1      25.222  10.943  -9.009  1.00  0.00     0.000 C 
BRANCH   4   5
ATOM      5  C   UNL     1      26.634  11.306  -8.528  1.00  0.00     0.000 C 
BRANCH   5   6
ATOM      6  C   UNL     1      27.537  10.064  -8.468  1.00  0.00     0.000 C 
BRANCH   6   7
ATOM      7  C   UNL     1      26.738   8.757  -8.327  1.00  0.00     0.000 C 
BRANCH   7   8
ATOM      8  C   UNL     1      27.040   8.013  -7.014  1.00  0.00     0.000 C 
BRANCH   8   9
ATOM      9  C   UNL     1      26.536   8.809  -5.799  1.00  0.00     0.000 C 
BRANCH   9  10
ATOM     10  C   UNL     1      27.660   9.148  -4.802  1.00  0.00     0.000 C 
BRANCH  10  11
ATOM     11  C   UNL     1      27.579  10.561  -4.189  1.00  0.00     0.000 C 
BRANCH  11  12
ATOM     12  C   UNL     1      28.688  10.898  -3.171  1.00  0.00     0.000 C 
BRANCH  12  13
ATOM     13  C   UNL     1      28.362  12.061  -2.218  1.00  0.00     0.006 C 
BRANCH  13  14
ATOM     14  C   UNL     1      29.617  12.723  -1.628  1.00  0.00     0.053 C 
BRANCH  14  15
ATOM     15  C   UNL     1      29.726  12.491  -0.151  1.00  0.00     0.041 C 
ATOM     16  O   UNL     1      29.699  11.322   0.320  1.00  0.00    -0.550 OA
ATOM     17  O   UNL     1      29.773  13.578   0.715  1.00  0.00    -0.550 OA
ENDBRANCH  14  15
ENDBRANCH  13  14
ENDBRANCH  12  13
ENDBRANCH  11  12
ENDBRANCH  10  11
ENDBRANCH   9  10
ENDBRANCH   8   9
ENDBRANCH   7   8
ENDBRANCH   6   7
ENDBRANCH   5   6
ENDBRANCH   4   5
ENDBRANCH   3   4
ENDBRANCH   2   3
ENDBRANCH   1   2
BRANCH   1  18
ATOM     18  C   UNL     1      22.959  12.549  -5.244  1.00  0.00     0.000 C 
BRANCH  18  19
ATOM     19  C   UNL     1      23.125  13.020  -3.789  1.00  0.00     0.000 C 
BRANCH  19  20
ATOM     20  C   UNL     1      21.969  12.568  -2.876  1.00  0.00     0.000 C 
BRANCH  20  21
ATOM     21  C   UNL     1      22.387  12.092  -1.470  1.00  0.00     0.000 C 
BRANCH  21  22
ATOM     22  C   UNL     1      23.531  12.924  -0.865  1.00  0.00     0.000 C 
BRANCH  22  23
ATOM     23  C   UNL     1      23.608  12.811   0.668  1.00  0.00     0.000 C 
BRANCH  23  24
ATOM     24  C   UNL     1      22.377  12.142   1.314  1.00  0.00    -0.000 C 
BRANCH  24  25
ATOM     25  C   UNL     1      22.114  12.657   2.738  1.00  0.00    -0.000 C 
BRANCH  25  26
ATOM     26  C   UNL     1      22.897  13.944   3.018  1.00  0.00    -0.000 C 
BRANCH  26  27
ATOM     27  C   UNL     1      21.956  15.156   3.060  1.00  0.00    -0.000 C 
BRANCH  27  28
ATOM     28  C   UNL     1      21.855  15.887   1.709  1.00  0.00    -0.000 C 
BRANCH  28  29
ATOM     29  C   UNL     1      20.465  15.838   1.048  1.00  0.00    -0.000 C 
BRANCH  29  30
ATOM     30  C   UNL     1      20.374  14.792  -0.079  1.00  0.00    -0.000 C 
BRANCH  30  31
ATOM     31  C   UNL     1      19.230  13.787   0.140  1.00  0.00    -0.003 C 
ATOM     32  C   UNL     1      18.800  13.087  -1.148  1.00  0.00     0.004 C 
ENDBRANCH  30  31
ENDBRANCH  29  30
ENDBRANCH  28  29
ENDBRANCH  27  28
ENDBRANCH  26  27
ENDBRANCH  25  26
ENDBRANCH  24  25
ENDBRANCH  23  24
ENDBRANCH  22  23
ENDBRANCH  21  22
ENDBRANCH  20  21
ENDBRANCH  19  20
ENDBRANCH  18  19
ENDBRANCH   1  18
TORSDOF 28
ENDMDL
MODEL 3
REMARK VINA RESULT:    -5.794      4.231      9.101
REMARK INTER + INTRA:         -19.501
REMARK INTER:                 -16.495
REMARK INTRA:                  -3.006
REMARK UNBOUND:                -4.223
REMARK SMILES CCCCCCCCCCCCCCCCCCCCCCCCCCCCCC(=O)[O-]
REMARK SMILES IDX 16 1 17 2 18 3 19 4 20 5 21 6 22 7 23 8 24 9 25 10 26 11
REMARK SMILES IDX 27 12 28 13 29 14 30 15 31 16 32 17 15 18 14 19 13 20 12 21
REMARK SMILES IDX 11 22 10 23 9 24 8 25 7 26 6 27 5 28 4 29 3 30 2 31 1 32
REMARK H PARENT
REMARK Flexibility Score: inf
ROOT
ATOM      1  C   UNL     1      21.374  15.514   1.773  1.00  0.00     0.000 C 
ENDROOT
BRANCH   1   2
ATOM      2  C   UNL     1      20.595  15.858   0.491  1.00  0.00     0.000 C 
BRANCH   2   3
ATOM      3  C   UNL     1      19.416  14.908   0.238  1.00  0.00     0.000 C 
BRANCH   3   4
ATOM      4  C   UNL     1      19.731  13.455   0.627  1.00  0.00     0.000 C 
BRANCH   4   5
ATOM      5  C   UNL     1      19.405  12.501  -0.531  1.00  0.00     0.000 C 
BRANCH   5   6
ATOM      6  C   UNL     1      19.511  13.217  -1.887  1.00  0.00     0.000 C 
BRANCH   6   7
ATOM      7  C   UNL     1      20.159  12.338  -2.971  1.00  0.00     0.000 C 
BRANCH   7   8
ATOM      8  C   UNL     1      21.631  12.007  -2.668  1.00  0.00     0.000 C 
BRANCH   8   9
ATOM      9  C   UNL     1      22.523  13.247  -2.841  1.00  0.00     0.000 C 
BRANCH   9  10
ATOM     10  C   UNL     1      23.314  13.232  -4.162  1.00  0.00     0.000 C 
BRANCH  10  11
ATOM     11  C   UNL     1      22.937  12.095  -5.133  1.00  0.00     0.000 C 
BRANCH  11  12
ATOM     12  C   UNL     1      23.415  12.288  -6.586  1.00  0.00     0.000 C 
BRANCH  12  13
ATOM     13  C   UNL     1      23.724  10.986  -7.345  1.00  0.00     0.006 C 
BRANCH  13  14
ATOM     14  C   UNL     1      24.697  11.192  -8.517  1.00  0.00     0.053 C 
BRANCH  14  15
ATOM     15  C   UNL     1      26.042  10.595  -8.235  1.00  0.00     0.041 C 
ATOM     16  O   UNL     1      27.072  11.321  -8.194  1.00  0.00    -0.550 OA
ATOM     17  O   UNL     1      26.170   9.217  -8.099  1.00  0.00    -0.550 OA
ENDBRANCH  14  15
ENDBRANCH  13  14
ENDBRANCH  12  13
ENDBRANCH  11  12
ENDBRANCH  10  11
ENDBRANCH   9  10
ENDBRANCH   8   9
ENDBRANCH   7   8
ENDBRANCH   6   7
ENDBRANCH   5   6
ENDBRANCH   4   5
ENDBRANCH   3   4
ENDBRANCH   2   3
ENDBRANCH   1   2
BRANCH   1  18
ATOM     18  C   UNL     1      22.893  15.496   1.543  1.00  0.00     0.000 C 
BRANCH  18  19
ATOM     19  C   UNL     1      23.551  14.195   2.033  1.00  0.00     0.000 C 
BRANCH  19  20
ATOM     20  C   UNL     1      24.270  13.426   0.908  1.00  0.00     0.000 C 
BRANCH  20  21
ATOM     21  C   UNL     1      23.501  12.216   0.341  1.00  0.00     0.000 C 
BRANCH  21  22
ATOM     22  C   UNL     1      22.534  11.584   1.357  1.00  0.00     0.000 C 
BRANCH  22  23
ATOM     23  C   UNL     1      22.520  10.046   1.294  1.00  0.00     0.000 C 
BRANCH  23  24
ATOM     24  C   UNL     1      22.151   9.476  -0.092  1.00  0.00    -0.000 C 
BRANCH  24  25
ATOM     25  C   UNL     1      22.151   7.939  -0.108  1.00  0.00    -0.000 C 
BRANCH  25  26
ATOM     26  C   UNL     1      22.937   7.370   1.079  1.00  0.00    -0.000 C 
BRANCH  26  27
ATOM     27  C   UNL     1      23.419   5.944   0.779  1.00  0.00    -0.000 C 
BRANCH  27  28
ATOM     28  C   UNL     1      22.795   4.890   1.710  1.00  0.00    -0.000 C 
BRANCH  28  29
ATOM     29  C   UNL     1      21.320   4.557   1.417  1.00  0.00    -0.000 C 
BRANCH  29  30
ATOM     30  C   UNL     1      20.502   4.283   2.692  1.00  0.00    -0.000 C 
BRANCH  30  31
ATOM     31  C   UNL     1      21.335   4.459   3.975  1.00  0.00    -0.003 C 
ATOM     32  C   UNL     1      21.147   5.830   4.621  1.00  0.00     0.004 C 
ENDBRANCH  30  31
ENDBRANCH  29  30
ENDBRANCH  28  29
ENDBRANCH  27  28
ENDBRANCH  26  27
ENDBRANCH  25  26
ENDBRANCH  24  25
ENDBRANCH  23  24
ENDBRANCH  22  23
ENDBRANCH  21  22
ENDBRANCH  20  21
ENDBRANCH  19  20
ENDBRANCH  18  19
ENDBRANCH   1  18
TORSDOF 28
ENDMDL
MODEL 4
REMARK VINA RESULT:    -5.793      5.551     10.203
REMARK INTER + INTRA:         -19.499
REMARK INTER:                 -16.541
REMARK INTRA:                  -2.958
REMARK UNBOUND:                -4.223
REMARK SMILES CCCCCCCCCCCCCCCCCCCCCCCCCCCCCC(=O)[O-]
REMARK SMILES IDX 16 1 17 2 18 3 19 4 20 5 21 6 22 7 23 8 24 9 25 10 26 11
REMARK SMILES IDX 27 12 28 13 29 14 30 15 31 16 32 17 15 18 14 19 13 20 12 21
REMARK SMILES IDX 11 22 10 23 9 24 8 25 7 26 6 27 5 28 4 29 3 30 2 31 1 32
REMARK H PARENT
REMARK Flexibility Score: inf
ROOT
ATOM      1  C   UNL     1      23.259  12.533   5.031  1.00  0.00     0.000 C 
ENDROOT
BRANCH   1   2
ATOM      2  C   UNL     1      22.836  12.391   6.504  1.00  0.00     0.000 C 
BRANCH   2   3
ATOM      3  C   UNL     1      23.806  11.523   7.319  1.00  0.00     0.000 C 
BRANCH   3   4
ATOM      4  C   UNL     1      23.380  11.377   8.789  1.00  0.00     0.000 C 
BRANCH   4   5
ATOM      5  C   UNL     1      24.028  10.138   9.421  1.00  0.00     0.000 C 
BRANCH   5   6
ATOM      6  C   UNL     1      24.153   8.995   8.401  1.00  0.00     0.000 C 
BRANCH   6   7
ATOM      7  C   UNL     1      23.646   7.651   8.953  1.00  0.00     0.000 C 
BRANCH   7   8
ATOM      8  C   UNL     1      24.505   6.458   8.499  1.00  0.00     0.000 C 
BRANCH   8   9
ATOM      9  C   UNL     1      23.635   5.221   8.228  1.00  0.00     0.000 C 
BRANCH   9  10
ATOM     10  C   UNL     1      22.461   5.516   7.275  1.00  0.00     0.000 C 
BRANCH  10  11
ATOM     11  C   UNL     1      22.839   5.595   5.782  1.00  0.00     0.000 C 
BRANCH  11  12
ATOM     12  C   UNL     1      21.647   5.647   4.806  1.00  0.00     0.000 C 
BRANCH  12  13
ATOM     13  C   UNL     1      21.349   4.327   4.074  1.00  0.00     0.006 C 
BRANCH  13  14
ATOM     14  C   UNL     1      20.444   4.512   2.846  1.00  0.00     0.053 C 
BRANCH  14  15
ATOM     15  C   UNL     1      21.179   4.245   1.568  1.00  0.00     0.041 C 
ATOM     16  O   UNL     1      22.391   3.896   1.583  1.00  0.00    -0.550 OA
ATOM     17  O   UNL     1      20.545   4.463   0.350  1.00  0.00    -0.550 OA
ENDBRANCH  14  15
ENDBRANCH  13  14
ENDBRANCH  12  13
ENDBRANCH  11  12
ENDBRANCH  10  11
ENDBRANCH   9  10
ENDBRANCH   8   9
ENDBRANCH   7   8
ENDBRANCH   6   7
ENDBRANCH   5   6
ENDBRANCH   4   5
ENDBRANCH   3   4
ENDBRANCH   2   3
ENDBRANCH   1   2
BRANCH   1  18
ATOM     18  C   UNL     1      22.351  13.502   4.257  1.00  0.00     0.000 C 
BRANCH  18  19
ATOM     19  C   UNL     1      23.133  14.660   3.613  1.00  0.00     0.000 C 
BRANCH  19  20
ATOM     20  C   UNL     1      22.215  15.755   3.034  1.00  0.00     0.000 C 
BRANCH  20  21
ATOM     21  C   UNL     1      22.548  16.201   1.597  1.00  0.00     0.000 C 
BRANCH  21  22
ATOM     22  C   UNL     1      21.323  16.200   0.665  1.00  0.00     0.000 C 
BRANCH  22  23
ATOM     23  C   UNL     1      20.241  15.195   1.099  1.00  0.00     0.000 C 
BRANCH  23  24
ATOM     24  C   UNL     1      19.466  14.558  -0.073  1.00  0.00    -0.000 C 
BRANCH  24  25
ATOM     25  C   UNL     1      19.098  13.091   0.200  1.00  0.00    -0.000 C 
BRANCH  25  26
ATOM     26  C   UNL     1      19.359  12.214  -1.030  1.00  0.00    -0.000 C 
BRANCH  26  27
ATOM     27  C   UNL     1      20.009  13.033  -2.154  1.00  0.00    -0.000 C 
BRANCH  27  28
ATOM     28  C   UNL     1      21.047  12.232  -2.960  1.00  0.00    -0.000 C 
BRANCH  28  29
ATOM     29  C   UNL     1      22.409  12.050  -2.264  1.00  0.00    -0.000 C 
BRANCH  29  30
ATOM     30  C   UNL     1      22.807  13.262  -1.400  1.00  0.00    -0.000 C 
BRANCH  30  31
ATOM     31  C   UNL     1      22.985  12.894   0.084  1.00  0.00    -0.003 C 
ATOM     32  C   UNL     1      22.716  11.418   0.366  1.00  0.00     0.004 C 
ENDBRANCH  30  31
ENDBRANCH  29  30
ENDBRANCH  28  29
ENDBRANCH  27  28
ENDBRANCH  26  27
ENDBRANCH  25  26
ENDBRANCH  24  25
ENDBRANCH  23  24
ENDBRANCH  22  23
ENDBRANCH  21  22
ENDBRANCH  20  21
ENDBRANCH  19  20
ENDBRANCH  18  19
ENDBRANCH   1  18
TORSDOF 28
ENDMDL
MODEL 5
REMARK VINA RESULT:    -5.789      1.680      2.902
REMARK INTER + INTRA:         -19.488
REMARK INTER:                 -15.697
REMARK INTRA:                  -3.791
REMARK UNBOUND:                -4.223
REMARK SMILES CCCCCCCCCCCCCCCCCCCCCCCCCCCCCC(=O)[O-]
REMARK SMILES IDX 16 1 17 2 18 3 19 4 20 5 21 6 22 7 23 8 24 9 25 10 26 11
REMARK SMILES IDX 27 12 28 13 29 14 30 15 31 16 32 17 15 18 14 19 13 20 12 21
REMARK SMILES IDX 11 22 10 23 9 24 8 25 7 26 6 27 5 28 4 29 3 30 2 31 1 32
REMARK H PARENT
REMARK Flexibility Score: inf
ROOT
ATOM      1  C   UNL     1      23.619  13.303  -3.248  1.00  0.00     0.000 C 
ENDROOT
BRANCH   1   2
ATOM      2  C   UNL     1      22.571  13.420  -2.127  1.00  0.00     0.000 C 
BRANCH   2   3
ATOM      3  C   UNL     1      23.200  13.486  -0.728  1.00  0.00     0.000 C 
BRANCH   3   4
ATOM      4  C   UNL     1      23.132  12.144   0.018  1.00  0.00     0.000 C 
BRANCH   4   5
ATOM      5  C   UNL     1      21.853  11.381  -0.354  1.00  0.00     0.000 C 
BRANCH   5   6
ATOM      6  C   UNL     1      20.636  11.932   0.406  1.00  0.00     0.000 C 
BRANCH   6   7
ATOM      7  C   UNL     1      19.463  12.279  -0.527  1.00  0.00     0.000 C 
BRANCH   7   8
ATOM      8  C   UNL     1      18.933  13.708  -0.311  1.00  0.00     0.000 C 
BRANCH   8   9
ATOM      9  C   UNL     1      19.736  14.436   0.778  1.00  0.00     0.000 C 
BRANCH   9  10
ATOM     10  C   UNL     1      20.266  15.805   0.312  1.00  0.00     0.000 C 
BRANCH  10  11
ATOM     11  C   UNL     1      21.592  16.246   0.965  1.00  0.00     0.000 C 
BRANCH  11  12
ATOM     12  C   UNL     1      21.785  15.793   2.427  1.00  0.00     0.000 C 
BRANCH  12  13
ATOM     13  C   UNL     1      23.008  14.894   2.671  1.00  0.00     0.006 C 
BRANCH  13  14
ATOM     14  C   UNL     1      23.106  14.395   4.122  1.00  0.00     0.053 C 
BRANCH  14  15
ATOM     15  C   UNL     1      22.817  12.929   4.227  1.00  0.00     0.041 C 
ATOM     16  O   UNL     1      22.020  12.372   3.424  1.00  0.00    -0.550 OA
ATOM     17  O   UNL     1      23.367  12.191   5.269  1.00  0.00    -0.550 OA
ENDBRANCH  14  15
ENDBRANCH  13  14
ENDBRANCH  12  13
ENDBRANCH  11  12
ENDBRANCH  10  11
ENDBRANCH   9  10
ENDBRANCH   8   9
ENDBRANCH   7   8
ENDBRANCH   6   7
ENDBRANCH   5   6
ENDBRANCH   4   5
ENDBRANCH   3   4
ENDBRANCH   2   3
ENDBRANCH   1   2
BRANCH   1  18
ATOM     18  C   UNL     1      22.996  12.866  -4.583  1.00  0.00     0.000 C 
BRANCH  18  19
ATOM     19  C   UNL     1      23.741  11.684  -5.227  1.00  0.00     0.000 C 
BRANCH  19  20
ATOM     20  C   UNL     1      23.318  11.432  -6.687  1.00  0.00     0.000 C 
BRANCH  20  21
ATOM     21  C   UNL     1      24.305  10.595  -7.524  1.00  0.00     0.000 C 
BRANCH  21  22
ATOM     22  C   UNL     1      24.872  11.358  -8.733  1.00  0.00     0.000 C 
BRANCH  22  23
ATOM     23  C   UNL     1      26.359  11.051  -8.993  1.00  0.00     0.000 C 
BRANCH  23  24
ATOM     24  C   UNL     1      26.602   9.785  -9.839  1.00  0.00    -0.000 C 
BRANCH  24  25
ATOM     25  C   UNL     1      28.098   9.486 -10.025  1.00  0.00    -0.000 C 
BRANCH  25  26
ATOM     26  C   UNL     1      28.528   8.264  -9.205  1.00  0.00    -0.000 C 
BRANCH  26  27
ATOM     27  C   UNL     1      27.375   7.258  -9.084  1.00  0.00    -0.000 C 
BRANCH  27  28
ATOM     28  C   UNL     1      27.145   6.778  -7.640  1.00  0.00    -0.000 C 
BRANCH  28  29
ATOM     29  C   UNL     1      26.281   7.715  -6.774  1.00  0.00    -0.000 C 
BRANCH  29  30
ATOM     30  C   UNL     1      27.061   8.333  -5.599  1.00  0.00    -0.000 C 
BRANCH  30  31
ATOM     31  C   UNL     1      27.590   9.743  -5.920  1.00  0.00    -0.003 C 
ATOM     32  C   UNL     1      29.004   9.981  -5.395  1.00  0.00     0.004 C 
ENDBRANCH  30  31
ENDBRANCH  29  30
ENDBRANCH  28  29
ENDBRANCH  27  28
ENDBRANCH  26  27
ENDBRANCH  25  26
ENDBRANCH  24  25
ENDBRANCH  23  24
ENDBRANCH  22  23
ENDBRANCH  21  22
ENDBRANCH  20  21
ENDBRANCH  19  20
ENDBRANCH  18  19
ENDBRANCH   1  18
TORSDOF 28
ENDMDL
MODEL 6
REMARK VINA RESULT:    -5.775      2.160      3.542
REMARK INTER + INTRA:         -19.452
REMARK INTER:                 -15.719
REMARK INTRA:                  -3.732
REMARK UNBOUND:                -4.223
REMARK SMILES CCCCCCCCCCCCCCCCCCCCCCCCCCCCCC(=O)[O-]
REMARK SMILES IDX 16 1 17 2 18 3 19 4 20 5 21 6 22 7 23 8 24 9 25 10 26 11
REMARK SMILES IDX 27 12 28 13 29 14 30 15 31 16 32 17 15 18 14 19 13 20 12 21
REMARK SMILES IDX 11 22 10 23 9 24 8 25 7 26 6 27 5 28 4 29 3 30 2 31 1 32
REMARK H PARENT
REMARK Flexibility Score: inf
ROOT
ATOM      1  C   UNL     1      24.260  11.770  -4.837  1.00  0.00     0.000 C 
ENDROOT
BRANCH   1   2
ATOM      2  C   UNL     1      22.873  12.380  -5.110  1.00  0.00     0.000 C 
BRANCH   2   3
ATOM      3  C   UNL     1      22.191  12.899  -3.836  1.00  0.00     0.000 C 
BRANCH   3   4
ATOM      4  C   UNL     1      23.068  12.738  -2.584  1.00  0.00     0.000 C 
BRANCH   4   5
ATOM      5  C   UNL     1      22.349  11.894  -1.523  1.00  0.00     0.000 C 
BRANCH   5   6
ATOM      6  C   UNL     1      20.824  12.058  -1.622  1.00  0.00     0.000 C 
BRANCH   6   7
ATOM      7  C   UNL     1      20.106  11.728  -0.302  1.00  0.00     0.000 C 
BRANCH   7   8
ATOM      8  C   UNL     1      19.422  12.955   0.326  1.00  0.00     0.000 C 
BRANCH   8   9
ATOM      9  C   UNL     1      19.678  14.219  -0.509  1.00  0.00     0.000 C 
BRANCH   9  10
ATOM     10  C   UNL     1      19.879  15.476   0.358  1.00  0.00     0.000 C 
BRANCH  10  11
ATOM     11  C   UNL     1      21.186  15.500   1.176  1.00  0.00     0.000 C 
BRANCH  11  12
ATOM     12  C   UNL     1      22.452  15.084   0.400  1.00  0.00     0.000 C 
BRANCH  12  13
ATOM     13  C   UNL     1      23.473  14.271   1.213  1.00  0.00     0.006 C 
BRANCH  13  14
ATOM     14  C   UNL     1      22.822  13.171   2.066  1.00  0.00     0.053 C 
BRANCH  14  15
ATOM     15  C   UNL     1      23.084  13.373   3.528  1.00  0.00     0.041 C 
ATOM     16  O   UNL     1      23.052  14.527   4.034  1.00  0.00    -0.550 OA
ATOM     17  O   UNL     1      23.447  12.288   4.319  1.00  0.00    -0.550 OA
ENDBRANCH  14  15
ENDBRANCH  13  14
ENDBRANCH  12  13
ENDBRANCH  11  12
ENDBRANCH  10  11
ENDBRANCH   9  10
ENDBRANCH   8   9
ENDBRANCH   7   8
ENDBRANCH   6   7
ENDBRANCH   5   6
ENDBRANCH   4   5
ENDBRANCH   3   4
ENDBRANCH   2   3
ENDBRANCH   1   2
BRANCH   1  18
ATOM     18  C   UNL     1      24.695  10.797  -5.943  1.00  0.00     0.000 C 
BRANCH  18  19
ATOM     19  C   UNL     1      23.758  10.830  -7.163  1.00  0.00     0.000 C 
BRANCH  19  20
ATOM     20  C   UNL     1      24.432  11.409  -8.422  1.00  0.00     0.000 C 
BRANCH  20  21
ATOM     21  C   UNL     1      25.949  11.157  -8.532  1.00  0.00     0.000 C 
BRANCH  21  22
ATOM     22  C   UNL     1      26.331  10.278  -9.735  1.00  0.00     0.000 C 
BRANCH  22  23
ATOM     23  C   UNL     1      27.177   9.054  -9.339  1.00  0.00     0.000 C 
BRANCH  23  24
ATOM     24  C   UNL     1      26.603   8.247  -8.157  1.00  0.00    -0.000 C 
BRANCH  24  25
ATOM     25  C   UNL     1      27.657   7.971  -7.073  1.00  0.00    -0.000 C 
BRANCH  25  26
ATOM     26  C   UNL     1      27.203   8.501  -5.708  1.00  0.00    -0.000 C 
BRANCH  26  27
ATOM     27  C   UNL     1      28.362   9.198  -4.982  1.00  0.00    -0.000 C 
BRANCH  27  28
ATOM     28  C   UNL     1      27.897  10.345  -4.067  1.00  0.00    -0.000 C 
BRANCH  28  29
ATOM     29  C   UNL     1      28.709  10.509  -2.769  1.00  0.00    -0.000 C 
BRANCH  29  30
ATOM     30  C   UNL     1      29.260  11.935  -2.583  1.00  0.00    -0.000 C 
BRANCH  30  31
ATOM     31  C   UNL     1      29.143  12.426  -1.128  1.00  0.00    -0.003 C 
ATOM     32  C   UNL     1      27.818  12.039  -0.476  1.00  0.00     0.004 C 
ENDBRANCH  30  31
ENDBRANCH  29  30
ENDBRANCH  28  29
ENDBRANCH  27  28
ENDBRANCH  26  27
ENDBRANCH  25  26
ENDBRANCH  24  25
ENDBRANCH  23  24
ENDBRANCH  22  23
ENDBRANCH  21  22
ENDBRANCH  20  21
ENDBRANCH  19  20
ENDBRANCH  18  19
ENDBRANCH   1  18
TORSDOF 28
ENDMDL
MODEL 7
REMARK VINA RESULT:    -5.764      4.911      9.191
REMARK INTER + INTRA:         -19.423
REMARK INTER:                 -15.758
REMARK INTRA:                  -3.665
REMARK UNBOUND:                -4.223
REMARK SMILES CCCCCCCCCCCCCCCCCCCCCCCCCCCCCC(=O)[O-]
REMARK SMILES IDX 16 1 17 2 18 3 19 4 20 5 21 6 22 7 23 8 24 9 25 10 26 11
REMARK SMILES IDX 27 12 28 13 29 14 30 15 31 16 32 17 15 18 14 19 13 20 12 21
REMARK SMILES IDX 11 22 10 23 9 24 8 25 7 26 6 27 5 28 4 29 3 30 2 31 1 32
REMARK H PARENT
REMARK Flexibility Score: inf
ROOT
ATOM      1  C   UNL     1      22.164  10.191   0.040  1.00  0.00     0.000 C 
ENDROOT
BRANCH   1   2
ATOM      2  C   UNL     1      22.842   9.172   0.974  1.00  0.00     0.000 C 
BRANCH   2   3
ATOM      3  C   UNL     1      22.658   7.722   0.504  1.00  0.00     0.000 C 
BRANCH   3   4
ATOM      4  C   UNL     1      23.430   6.714   1.371  1.00  0.00     0.000 C 
BRANCH   4   5
ATOM      5  C   UNL     1      22.671   5.383   1.461  1.00  0.00     0.000 C 
BRANCH   5   6
ATOM      6  C   UNL     1      21.881   5.283   2.776  1.00  0.00     0.000 C 
BRANCH   6   7
ATOM      7  C   UNL     1      22.471   6.163   3.890  1.00  0.00     0.000 C 
BRANCH   7   8
ATOM      8  C   UNL     1      23.603   5.466   4.664  1.00  0.00     0.000 C 
BRANCH   8   9
ATOM      9  C   UNL     1      24.110   6.347   5.817  1.00  0.00     0.000 C 
BRANCH   9  10
ATOM     10  C   UNL     1      25.211   7.330   5.376  1.00  0.00     0.000 C 
BRANCH  10  11
ATOM     11  C   UNL     1      25.409   8.544   6.306  1.00  0.00     0.000 C 
BRANCH  11  12
ATOM     12  C   UNL     1      24.363   8.686   7.430  1.00  0.00     0.000 C 
BRANCH  12  13
ATOM     13  C   UNL     1      24.794   9.576   8.609  1.00  0.00     0.006 C 
BRANCH  13  14
ATOM     14  C   UNL     1      24.832  11.070   8.250  1.00  0.00     0.053 C 
BRANCH  14  15
ATOM     15  C   UNL     1      23.549  11.524   7.622  1.00  0.00     0.041 C 
ATOM     16  O   UNL     1      23.495  11.788   6.390  1.00  0.00    -0.550 OA
ATOM     17  O   UNL     1      22.429  11.736   8.418  1.00  0.00    -0.550 OA
ENDBRANCH  14  15
ENDBRANCH  13  14
ENDBRANCH  12  13
ENDBRANCH  11  12
ENDBRANCH  10  11
ENDBRANCH   9  10
ENDBRANCH   8   9
ENDBRANCH   7   8
ENDBRANCH   6   7
ENDBRANCH   5   6
ENDBRANCH   4   5
ENDBRANCH   3   4
ENDBRANCH   2   3
ENDBRANCH   1   2
BRANCH   1  18
ATOM     18  C   UNL     1      22.477  11.642   0.440  1.00  0.00     0.000 C 
BRANCH  18  19
ATOM     19  C   UNL     1      22.163  11.930   1.918  1.00  0.00     0.000 C 
BRANCH  19  20
ATOM     20  C   UNL     1      23.150  12.926   2.558  1.00  0.00     0.000 C 
BRANCH  20  21
ATOM     21  C   UNL     1      23.909  13.831   1.566  1.00  0.00     0.000 C 
BRANCH  21  22
ATOM     22  C   UNL     1      23.345  15.260   1.499  1.00  0.00     0.000 C 
BRANCH  22  23
ATOM     23  C   UNL     1      22.267  15.429   0.413  1.00  0.00     0.000 C 
BRANCH  23  24
ATOM     24  C   UNL     1      20.821  15.390   0.949  1.00  0.00    -0.000 C 
BRANCH  24  25
ATOM     25  C   UNL     1      19.821  14.889  -0.106  1.00  0.00    -0.000 C 
BRANCH  25  26
ATOM     26  C   UNL     1      19.131  13.599   0.350  1.00  0.00    -0.000 C 
BRANCH  26  27
ATOM     27  C   UNL     1      19.198  12.529  -0.748  1.00  0.00    -0.000 C 
BRANCH  27  28
ATOM     28  C   UNL     1      19.765  13.062  -2.075  1.00  0.00    -0.000 C 
BRANCH  28  29
ATOM     29  C   UNL     1      20.610  12.051  -2.873  1.00  0.00    -0.000 C 
BRANCH  29  30
ATOM     30  C   UNL     1      21.774  12.711  -3.634  1.00  0.00    -0.000 C 
BRANCH  30  31
ATOM     31  C   UNL     1      22.851  13.275  -2.690  1.00  0.00    -0.003 C 
ATOM     32  C   UNL     1      24.271  12.995  -3.174  1.00  0.00     0.004 C 
ENDBRANCH  30  31
ENDBRANCH  29  30
ENDBRANCH  28  29
ENDBRANCH  27  28
ENDBRANCH  26  27
ENDBRANCH  25  26
ENDBRANCH  24  25
ENDBRANCH  23  24
ENDBRANCH  22  23
ENDBRANCH  21  22
ENDBRANCH  20  21
ENDBRANCH  19  20
ENDBRANCH  18  19
ENDBRANCH   1  18
TORSDOF 28
ENDMDL
MODEL 8
REMARK VINA RESULT:    -5.762      5.126      9.450
REMARK INTER + INTRA:         -19.418
REMARK INTER:                 -15.382
REMARK INTRA:                  -4.035
REMARK UNBOUND:                -4.223
REMARK SMILES CCCCCCCCCCCCCCCCCCCCCCCCCCCCCC(=O)[O-]
REMARK SMILES IDX 16 1 17 2 18 3 19 4 20 5 21 6 22 7 23 8 24 9 25 10 26 11
REMARK SMILES IDX 27 12 28 13 29 14 30 15 31 16 32 17 15 18 14 19 13 20 12 21
REMARK SMILES IDX 11 22 10 23 9 24 8 25 7 26 6 27 5 28 4 29 3 30 2 31 1 32
REMARK H PARENT
REMARK Flexibility Score: inf
ROOT
ATOM      1  C   UNL     1      21.673  10.788   0.135  1.00  0.00     0.000 C 
ENDROOT
BRANCH   1   2
ATOM      2  C   UNL     1      22.102   9.329  -0.106  1.00  0.00     0.000 C 
BRANCH   2   3
ATOM      3  C   UNL     1      22.854   8.725   1.089  1.00  0.00     0.000 C 
BRANCH   3   4
ATOM      4  C   UNL     1      22.838   7.189   1.087  1.00  0.00     0.000 C 
BRANCH   4   5
ATOM      5  C   UNL     1      24.204   6.631   1.510  1.00  0.00     0.000 C 
BRANCH   5   6
ATOM      6  C   UNL     1      24.116   5.131   1.831  1.00  0.00     0.000 C 
BRANCH   6   7
ATOM      7  C   UNL     1      22.672   4.602   1.802  1.00  0.00     0.000 C 
BRANCH   7   8
ATOM      8  C   UNL     1      22.231   4.000   3.148  1.00  0.00     0.000 C 
BRANCH   8   9
ATOM      9  C   UNL     1      21.093   4.820   3.775  1.00  0.00     0.000 C 
BRANCH   9  10
ATOM     10  C   UNL     1      21.595   6.098   4.473  1.00  0.00     0.000 C 
BRANCH  10  11
ATOM     11  C   UNL     1      22.853   5.910   5.346  1.00  0.00     0.000 C 
BRANCH  11  12
ATOM     12  C   UNL     1      23.967   6.952   5.122  1.00  0.00     0.000 C 
BRANCH  12  13
ATOM     13  C   UNL     1      24.671   7.434   6.402  1.00  0.00     0.006 C 
BRANCH  13  14
ATOM     14  C   UNL     1      25.008   8.933   6.373  1.00  0.00     0.053 C 
BRANCH  14  15
ATOM     15  C   UNL     1      24.535   9.634   7.611  1.00  0.00     0.041 C 
ATOM     16  O   UNL     1      24.710  10.874   7.755  1.00  0.00    -0.550 OA
ATOM     17  O   UNL     1      23.971   8.897   8.647  1.00  0.00    -0.550 OA
ENDBRANCH  14  15
ENDBRANCH  13  14
ENDBRANCH  12  13
ENDBRANCH  11  12
ENDBRANCH  10  11
ENDBRANCH   9  10
ENDBRANCH   8   9
ENDBRANCH   7   8
ENDBRANCH   6   7
ENDBRANCH   5   6
ENDBRANCH   4   5
ENDBRANCH   3   4
ENDBRANCH   2   3
ENDBRANCH   1   2
BRANCH   1  18
ATOM     18  C   UNL     1      22.628  11.525   1.087  1.00  0.00     0.000 C 
BRANCH  18  19
ATOM     19  C   UNL     1      23.653  12.396   0.341  1.00  0.00     0.000 C 
BRANCH  19  20
ATOM     20  C   UNL     1      24.185  13.563   1.197  1.00  0.00     0.000 C 
BRANCH  20  21
ATOM     21  C   UNL     1      23.438  13.799   2.525  1.00  0.00     0.000 C 
BRANCH  21  22
ATOM     22  C   UNL     1      22.861  15.220   2.649  1.00  0.00     0.000 C 
BRANCH  22  23
ATOM     23  C   UNL     1      22.400  15.800   1.299  1.00  0.00     0.000 C 
BRANCH  23  24
ATOM     24  C   UNL     1      20.887  15.657   1.035  1.00  0.00    -0.000 C 
BRANCH  24  25
ATOM     25  C   UNL     1      20.584  14.654  -0.090  1.00  0.00    -0.000 C 
BRANCH  25  26
ATOM     26  C   UNL     1      19.397  13.755   0.272  1.00  0.00    -0.000 C 
BRANCH  26  27
ATOM     27  C   UNL     1      18.851  13.046  -0.975  1.00  0.00    -0.000 C 
BRANCH  27  28
ATOM     28  C   UNL     1      19.659  13.358  -2.247  1.00  0.00    -0.000 C 
BRANCH  28  29
ATOM     29  C   UNL     1      20.504  12.186  -2.782  1.00  0.00    -0.000 C 
BRANCH  29  30
ATOM     30  C   UNL     1      21.603  12.639  -3.761  1.00  0.00    -0.000 C 
BRANCH  30  31
ATOM     31  C   UNL     1      22.991  12.093  -3.381  1.00  0.00    -0.003 C 
ATOM     32  C   UNL     1      24.049  13.189  -3.268  1.00  0.00     0.004 C 
ENDBRANCH  30  31
ENDBRANCH  29  30
ENDBRANCH  28  29
ENDBRANCH  27  28
ENDBRANCH  26  27
ENDBRANCH  25  26
ENDBRANCH  24  25
ENDBRANCH  23  24
ENDBRANCH  22  23
ENDBRANCH  21  22
ENDBRANCH  20  21
ENDBRANCH  19  20
ENDBRANCH  18  19
ENDBRANCH   1  18
TORSDOF 28
ENDMDL
MODEL 9
REMARK VINA RESULT:    -5.663      4.619      9.251
REMARK INTER + INTRA:         -19.157
REMARK INTER:                 -15.188
REMARK INTRA:                  -3.969
REMARK UNBOUND:                -4.223
REMARK SMILES CCCCCCCCCCCCCCCCCCCCCCCCCCCCCC(=O)[O-]
REMARK SMILES IDX 16 1 17 2 18 3 19 4 20 5 21 6 22 7 23 8 24 9 25 10 26 11
REMARK SMILES IDX 27 12 28 13 29 14 30 15 31 16 32 17 15 18 14 19 13 20 12 21
REMARK SMILES IDX 11 22 10 23 9 24 8 25 7 26 6 27 5 28 4 29 3 30 2 31 1 32
REMARK H PARENT
REMARK Flexibility Score: inf
ROOT
ATOM      1  C   UNL     1      21.901  10.935   0.364  1.00  0.00     0.000 C 
ENDROOT
BRANCH   1   2
ATOM      2  C   UNL     1      22.617  11.275   1.684  1.00  0.00     0.000 C 
BRANCH   2   3
ATOM      3  C   UNL     1      21.822  12.258   2.555  1.00  0.00     0.000 C 
BRANCH   3   4
ATOM      4  C   UNL     1      22.727  13.156   3.414  1.00  0.00     0.000 C 
BRANCH   4   5
ATOM      5  C   UNL     1      22.579  14.627   3.002  1.00  0.00     0.000 C 
BRANCH   5   6
ATOM      6  C   UNL     1      23.342  14.919   1.700  1.00  0.00     0.000 C 
BRANCH   6   7
ATOM      7  C   UNL     1      22.404  15.215   0.518  1.00  0.00     0.000 C 
BRANCH   7   8
ATOM      8  C   UNL     1      20.966  15.535   0.964  1.00  0.00     0.000 C 
BRANCH   8   9
ATOM      9  C   UNL     1      19.946  15.077  -0.090  1.00  0.00     0.000 C 
BRANCH   9  10
ATOM     10  C   UNL     1      19.352  13.690   0.219  1.00  0.00     0.000 C 
BRANCH  10  11
ATOM     11  C   UNL     1      19.056  12.819  -1.018  1.00  0.00     0.000 C 
BRANCH  11  12
ATOM     12  C   UNL     1      19.707  13.301  -2.330  1.00  0.00     0.000 C 
BRANCH  12  13
ATOM     13  C   UNL     1      20.849  12.412  -2.852  1.00  0.00     0.006 C 
BRANCH  13  14
ATOM     14  C   UNL     1      22.242  13.000  -2.576  1.00  0.00     0.053 C 
BRANCH  14  15
ATOM     15  C   UNL     1      23.208  12.683  -3.676  1.00  0.00     0.041 C 
ATOM     16  O   UNL     1      24.450  12.816  -3.500  1.00  0.00    -0.550 OA
ATOM     17  O   UNL     1      22.730  12.318  -4.930  1.00  0.00    -0.550 OA
ENDBRANCH  14  15
ENDBRANCH  13  14
ENDBRANCH  12  13
ENDBRANCH  11  12
ENDBRANCH  10  11
ENDBRANCH   9  10
ENDBRANCH   8   9
ENDBRANCH   7   8
ENDBRANCH   6   7
ENDBRANCH   5   6
ENDBRANCH   4   5
ENDBRANCH   3   4
ENDBRANCH   2   3
ENDBRANCH   1   2
BRANCH   1  18
ATOM     18  C   UNL     1      22.080   9.461  -0.031  1.00  0.00     0.000 C 
BRANCH  18  19
ATOM     19  C   UNL     1      22.841   8.651   1.033  1.00  0.00     0.000 C 
BRANCH  19  20
ATOM     20  C   UNL     1      22.809   7.133   0.767  1.00  0.00     0.000 C 
BRANCH  20  21
ATOM     21  C   UNL     1      23.956   6.327   1.410  1.00  0.00     0.000 C 
BRANCH  21  22
ATOM     22  C   UNL     1      23.536   4.909   1.834  1.00  0.00     0.000 C 
BRANCH  22  23
ATOM     23  C   UNL     1      22.008   4.718   1.854  1.00  0.00     0.000 C 
BRANCH  23  24
ATOM     24  C   UNL     1      21.419   4.499   3.263  1.00  0.00    -0.000 C 
BRANCH  24  25
ATOM     25  C   UNL     1      21.447   5.781   4.111  1.00  0.00    -0.000 C 
BRANCH  25  26
ATOM     26  C   UNL     1      21.915   5.491   5.542  1.00  0.00    -0.000 C 
BRANCH  26  27
ATOM     27  C   UNL     1      23.441   5.607   5.649  1.00  0.00    -0.000 C 
BRANCH  27  28
ATOM     28  C   UNL     1      24.001   6.856   4.945  1.00  0.00    -0.000 C 
BRANCH  28  29
ATOM     29  C   UNL     1      24.800   7.810   5.853  1.00  0.00    -0.000 C 
BRANCH  29  30
ATOM     30  C   UNL     1      24.610   7.510   7.351  1.00  0.00    -0.000 C 
BRANCH  30  31
ATOM     31  C   UNL     1      24.412   8.787   8.188  1.00  0.00    -0.003 C 
ATOM     32  C   UNL     1      24.664  10.064   7.390  1.00  0.00     0.004 C 
ENDBRANCH  30  31
ENDBRANCH  29  30
ENDBRANCH  28  29
ENDBRANCH  27  28
ENDBRANCH  26  27
ENDBRANCH  25  26
ENDBRANCH  24  25
ENDBRANCH  23  24
ENDBRANCH  22  23
ENDBRANCH  21  22
ENDBRANCH  20  21
ENDBRANCH  19  20
ENDBRANCH  18  19
ENDBRANCH   1  18
TORSDOF 28
ENDMDL
