MODEL 1
REMARK VINA RESULT:    -3.603      0.000      0.000
REMARK INTER + INTRA:          -7.120
REMARK INTER:                  -6.131
REMARK INTRA:                  -0.989
REMARK UNBOUND:                -0.989
REMARK SMILES CCCCCCCCCCCCCC(=O)[O-]
REMARK SMILES IDX 8 1 9 2 10 3 11 4 12 5 13 6 14 7 15 8 16 9 7 10 6 11 5 12
REMARK SMILES IDX 4 13 3 14 2 15 1 16
REMARK H PARENT
REMARK Flexibility Score: inf
ROOT
ATOM      1  C   UNL     1      -3.387  -7.057  29.706  1.00  0.00     0.000 C 
ENDROOT
BRANCH   1   2
ATOM      2  C   UNL     1      -4.560  -7.936  29.235  1.00  0.00     0.000 C 
BRANCH   2   3
ATOM      3  C   UNL     1      -4.188  -9.394  28.902  1.00  0.00     0.000 C 
BRANCH   3   4
ATOM      4  C   UNL     1      -4.627  -9.881  27.507  1.00  0.00     0.000 C 
BRANCH   4   5
ATOM      5  C   UNL     1      -3.483 -10.378  26.600  1.00  0.00     0.006 C 
BRANCH   5   6
ATOM      6  C   UNL     1      -3.822 -10.387  25.102  1.00  0.00     0.053 C 
BRANCH   6   7
ATOM      7  C   UNL     1      -2.931  -9.470  24.322  1.00  0.00     0.041 C 
ATOM      8  O   UNL     1      -1.939  -9.929  23.697  1.00  0.00    -0.550 OA
ATOM      9  O   UNL     1      -3.179  -8.103  24.312  1.00  0.00    -0.550 OA
ENDBRANCH   6   7
ENDBRANCH   5   6
ENDBRANCH   4   5
ENDBRANCH   3   4
ENDBRANCH   2   3
ENDBRANCH   1   2
BRANCH   1  10
ATOM     10  C   UNL     1      -2.710  -7.595  30.974  1.00  0.00     0.000 C 
BRANCH  10  11
ATOM     11  C   UNL     1      -1.337  -6.945  31.183  1.00  0.00    -0.000 C 
BRANCH  11  12
ATOM     12  C   UNL     1      -1.476  -5.438  31.441  1.00  0.00    -0.000 C 
BRANCH  12  13
ATOM     13  C   UNL     1      -1.877  -5.116  32.891  1.00  0.00    -0.000 C 
BRANCH  13  14
ATOM     14  C   UNL     1      -3.063  -4.143  33.034  1.00  0.00    -0.000 C 
BRANCH  14  15
ATOM     15  C   UNL     1      -3.791  -3.849  31.706  1.00  0.00    -0.003 C 
ATOM     16  C   UNL     1      -5.203  -4.435  31.669  1.00  0.00     0.004 C 
ENDBRANCH  14  15
ENDBRANCH  13  14
ENDBRANCH  12  13
ENDBRANCH  11  12
ENDBRANCH  10  11
ENDBRANCH   1  10
TORSDOF 12
ENDMDL
MODEL 2
REMARK VINA RESULT:    -3.565      4.061      6.380
REMARK INTER + INTRA:          -7.055
REMARK INTER:                  -6.254
REMARK INTRA:                  -0.801
REMARK UNBOUND:                -0.989
REMARK SMILES CCCCCCCCCCCCCC(=O)[O-]
REMARK SMILES IDX 8 1 9 2 10 3 11 4 12 5 13 6 14 7 15 8 16 9 7 10 6 11 5 12
REMARK SMILES IDX 4 13 3 14 2 15 1 16
REMARK H PARENT
REMARK Flexibility Score: inf
ROOT
ATOM      1  C   UNL     1      -3.093  -2.702  33.084  1.00  0.00     0.000 C 
ENDROOT
BRANCH   1   2
ATOM      2  C   UNL     1      -3.267  -4.231  33.032  1.00  0.00     0.000 C 
BRANCH   2   3
ATOM      3  C   UNL     1      -2.037  -5.008  32.521  1.00  0.00     0.000 C 
BRANCH   3   4
ATOM      4  C   UNL     1      -1.861  -5.022  30.990  1.00  0.00     0.000 C 
BRANCH   4   5
ATOM      5  C   UNL     1      -2.297  -6.329  30.297  1.00  0.00     0.006 C 
BRANCH   5   6
ATOM      6  C   UNL     1      -2.461  -7.526  31.246  1.00  0.00     0.053 C 
BRANCH   6   7
ATOM      7  C   UNL     1      -3.434  -8.532  30.714  1.00  0.00     0.041 C 
ATOM      8  O   UNL     1      -3.494  -9.685  31.218  1.00  0.00    -0.550 OA
ATOM      9  O   UNL     1      -4.253  -8.208  29.640  1.00  0.00    -0.550 OA
ENDBRANCH   6   7
ENDBRANCH   5   6
ENDBRANCH   4   5
ENDBRANCH   3   4
ENDBRANCH   2   3
ENDBRANCH   1   2
BRANCH   1  10
ATOM     10  C   UNL     1      -4.386  -1.967  33.466  1.00  0.00     0.000 C 
BRANCH  10  11
ATOM     11  C   UNL     1      -4.112  -0.487  33.757  1.00  0.00    -0.000 C 
BRANCH  11  12
ATOM     12  C   UNL     1      -2.682  -0.285  34.278  1.00  0.00    -0.000 C 
BRANCH  12  13
ATOM     13  C   UNL     1      -2.642   0.255  35.718  1.00  0.00    -0.000 C 
BRANCH  13  14
ATOM     14  C   UNL     1      -3.957   0.890  36.209  1.00  0.00    -0.000 C 
BRANCH  14  15
ATOM     15  C   UNL     1      -4.539   0.219  37.471  1.00  0.00    -0.003 C 
ATOM     16  C   UNL     1      -5.692  -0.732  37.151  1.00  0.00     0.004 C 
ENDBRANCH  14  15
ENDBRANCH  13  14
ENDBRANCH  12  13
ENDBRANCH  11  12
ENDBRANCH  10  11
ENDBRANCH   1  10
TORSDOF 12
ENDMDL
MODEL 3
REMARK VINA RESULT:    -3.557     14.376     15.800
REMARK INTER + INTRA:          -7.041
REMARK INTER:                  -5.328
REMARK INTRA:                  -1.713
REMARK UNBOUND:                -0.989
REMARK SMILES CCCCCCCCCCCCCC(=O)[O-]
REMARK SMILES IDX 8 1 9 2 10 3 11 4 12 5 13 6 14 7 15 8 16 9 7 10 6 11 5 12
REMARK SMILES IDX 4 13 3 14 2 15 1 16
REMARK H PARENT
REMARK Flexibility Score: inf
ROOT
ATOM      1  C   UNL     1      -9.549   2.766  35.629  1.00  0.00     0.000 C 
ENDROOT
BRANCH   1   2
ATOM      2  C   UNL     1      -9.532   4.247  36.051  1.00  0.00     0.000 C 
BRANCH   2   3
ATOM      3  C   UNL     1     -10.284   5.202  35.103  1.00  0.00     0.000 C 
BRANCH   3   4
ATOM      4  C   UNL     1     -11.360   4.538  34.223  1.00  0.00     0.000 C 
BRANCH   4   5
ATOM      5  C   UNL     1     -11.209   4.787  32.709  1.00  0.00     0.006 C 
BRANCH   5   6
ATOM      6  C   UNL     1     -12.449   5.399  32.040  1.00  0.00     0.053 C 
BRANCH   6   7
ATOM      7  C   UNL     1     -12.212   5.703  30.593  1.00  0.00     0.041 C 
ATOM      8  O   UNL     1     -11.064   5.559  30.094  1.00  0.00    -0.550 OA
ATOM      9  O   UNL     1     -13.251   6.178  29.803  1.00  0.00    -0.550 OA
ENDBRANCH   6   7
ENDBRANCH   5   6
ENDBRANCH   4   5
ENDBRANCH   3   4
ENDBRANCH   2   3
ENDBRANCH   1   2
BRANCH   1  10
ATOM     10  C   UNL     1      -9.972   1.826  36.766  1.00  0.00     0.000 C 
BRANCH  10  11
ATOM     11  C   UNL     1     -10.323   2.617  38.032  1.00  0.00    -0.000 C 
BRANCH  11  12
ATOM     12  C   UNL     1     -11.770   2.345  38.466  1.00  0.00    -0.000 C 
BRANCH  12  13
ATOM     13  C   UNL     1     -12.741   3.458  38.036  1.00  0.00    -0.000 C 
BRANCH  13  14
ATOM     14  C   UNL     1     -13.587   3.135  36.789  1.00  0.00    -0.000 C 
BRANCH  14  15
ATOM     15  C   UNL     1     -13.633   1.632  36.440  1.00  0.00    -0.003 C 
ATOM     16  C   UNL     1     -13.233   1.355  34.990  1.00  0.00     0.004 C 
ENDBRANCH  14  15
ENDBRANCH  13  14
ENDBRANCH  12  13
ENDBRANCH  11  12
ENDBRANCH  10  11
ENDBRANCH   1  10
TORSDOF 12
ENDMDL
MODEL 4
REMARK VINA RESULT:    -3.555     14.471     15.441
REMARK INTER + INTRA:          -7.038
REMARK INTER:                  -5.491
REMARK INTRA:                  -1.547
REMARK UNBOUND:                -0.989
REMARK SMILES CCCCCCCCCCCCCC(=O)[O-]
REMARK SMILES IDX 8 1 9 2 10 3 11 4 12 5 13 6 14 7 15 8 16 9 7 10 6 11 5 12
REMARK SMILES IDX 4 13 3 14 2 15 1 16
REMARK H PARENT
REMARK Flexibility Score: inf
ROOT
ATOM      1  C   UNL     1     -12.118   5.057  32.978  1.00  0.00     0.000 C 
ENDROOT
BRANCH   1   2
ATOM      2  C   UNL     1     -13.143   3.913  32.874  1.00  0.00     0.000 C 
BRANCH   2   3
ATOM      3  C   UNL     1     -12.616   2.625  32.210  1.00  0.00     0.000 C 
BRANCH   3   4
ATOM      4  C   UNL     1     -12.491   1.409  33.148  1.00  0.00     0.000 C 
BRANCH   4   5
ATOM      5  C   UNL     1     -13.830   0.844  33.665  1.00  0.00     0.006 C 
BRANCH   5   6
ATOM      6  C   UNL     1     -14.678   0.145  32.592  1.00  0.00     0.053 C 
BRANCH   6   7
ATOM      7  C   UNL     1     -16.145   0.299  32.852  1.00  0.00     0.041 C 
ATOM      8  O   UNL     1     -16.697  -0.353  33.777  1.00  0.00    -0.550 OA
ATOM      9  O   UNL     1     -16.909   1.138  32.050  1.00  0.00    -0.550 OA
ENDBRANCH   6   7
ENDBRANCH   5   6
ENDBRANCH   4   5
ENDBRANCH   3   4
ENDBRANCH   2   3
ENDBRANCH   1   2
BRANCH   1  10
ATOM     10  C   UNL     1     -10.700   4.625  32.579  1.00  0.00     0.000 C 
BRANCH  10  11
ATOM     11  C   UNL     1      -9.768   4.607  33.795  1.00  0.00    -0.000 C 
BRANCH  11  12
ATOM     12  C   UNL     1     -10.363   5.418  34.955  1.00  0.00    -0.000 C 
BRANCH  12  13
ATOM     13  C   UNL     1     -10.313   4.667  36.296  1.00  0.00    -0.000 C 
BRANCH  13  14
ATOM     14  C   UNL     1     -10.934   3.257  36.273  1.00  0.00    -0.000 C 
BRANCH  14  15
ATOM     15  C   UNL     1     -12.472   3.251  36.408  1.00  0.00    -0.003 C 
ATOM     16  C   UNL     1     -12.934   3.490  37.845  1.00  0.00     0.004 C 
ENDBRANCH  14  15
ENDBRANCH  13  14
ENDBRANCH  12  13
ENDBRANCH  11  12
ENDBRANCH  10  11
ENDBRANCH   1  10
TORSDOF 12
ENDMDL
MODEL 5
REMARK VINA RESULT:    -3.553      1.387      2.873
REMARK INTER + INTRA:          -7.035
REMARK INTER:                  -6.078
REMARK INTRA:                  -0.958
REMARK UNBOUND:                -0.989
REMARK SMILES CCCCCCCCCCCCCC(=O)[O-]
REMARK SMILES IDX 8 1 9 2 10 3 11 4 12 5 13 6 14 7 15 8 16 9 7 10 6 11 5 12
REMARK SMILES IDX 4 13 3 14 2 15 1 16
REMARK H PARENT
REMARK Flexibility Score: inf
ROOT
ATOM      1  C   UNL     1      -6.406  -8.583  28.859  1.00  0.00     0.000 C 
ENDROOT
BRANCH   1   2
ATOM      2  C   UNL     1      -6.305 -10.054  28.417  1.00  0.00     0.000 C 
BRANCH   2   3
ATOM      3  C   UNL     1      -5.499 -10.290  27.124  1.00  0.00     0.000 C 
BRANCH   3   4
ATOM      4  C   UNL     1      -3.973 -10.131  27.265  1.00  0.00     0.000 C 
BRANCH   4   5
ATOM      5  C   UNL     1      -3.136 -10.976  26.282  1.00  0.00     0.006 C 
BRANCH   5   6
ATOM      6  C   UNL     1      -3.525 -10.802  24.807  1.00  0.00     0.053 C 
BRANCH   6   7
ATOM      7  C   UNL     1      -2.777  -9.677  24.160  1.00  0.00     0.041 C 
ATOM      8  O   UNL     1      -3.221  -8.500  24.224  1.00  0.00    -0.550 OA
ATOM      9  O   UNL     1      -1.606  -9.934  23.458  1.00  0.00    -0.550 OA
ENDBRANCH   6   7
ENDBRANCH   5   6
ENDBRANCH   4   5
ENDBRANCH   3   4
ENDBRANCH   2   3
ENDBRANCH   1   2
BRANCH   1  10
ATOM     10  C   UNL     1      -5.880  -8.349  30.282  1.00  0.00     0.000 C 
BRANCH  10  11
ATOM     11  C   UNL     1      -4.991  -9.512  30.737  1.00  0.00    -0.000 C 
BRANCH  11  12
ATOM     12  C   UNL     1      -3.511  -9.104  30.741  1.00  0.00    -0.000 C 
BRANCH  12  13
ATOM     13  C   UNL     1      -3.312  -7.579  30.704  1.00  0.00    -0.000 C 
BRANCH  13  14
ATOM     14  C   UNL     1      -1.975  -7.085  31.289  1.00  0.00    -0.000 C 
BRANCH  14  15
ATOM     15  C   UNL     1      -1.866  -5.548  31.382  1.00  0.00    -0.003 C 
ATOM     16  C   UNL     1      -1.963  -5.040  32.821  1.00  0.00     0.004 C 
ENDBRANCH  14  15
ENDBRANCH  13  14
ENDBRANCH  12  13
ENDBRANCH  11  12
ENDBRANCH  10  11
ENDBRANCH   1  10
TORSDOF 12
ENDMDL
MODEL 6
REMARK VINA RESULT:    -3.512      6.925     10.687
REMARK INTER + INTRA:          -6.965
REMARK INTER:                  -6.101
REMARK INTRA:                  -0.865
REMARK UNBOUND:                -0.989
REMARK SMILES CCCCCCCCCCCCCC(=O)[O-]
REMARK SMILES IDX 8 1 9 2 10 3 11 4 12 5 13 6 14 7 15 8 16 9 7 10 6 11 5 12
REMARK SMILES IDX 4 13 3 14 2 15 1 16
REMARK H PARENT
REMARK Flexibility Score: inf
ROOT
ATOM      1  C   UNL     1      -4.351  -2.354  33.400  1.00  0.00     0.000 C 
ENDROOT
BRANCH   1   2
ATOM      2  C   UNL     1      -4.110  -0.865  33.708  1.00  0.00     0.000 C 
BRANCH   2   3
ATOM      3  C   UNL     1      -2.662  -0.509  34.100  1.00  0.00     0.000 C 
BRANCH   3   4
ATOM      4  C   UNL     1      -2.517   0.327  35.386  1.00  0.00     0.000 C 
BRANCH   4   5
ATOM      5  C   UNL     1      -3.825   0.539  36.176  1.00  0.00     0.006 C 
BRANCH   5   6
ATOM      6  C   UNL     1      -3.788   0.004  37.616  1.00  0.00     0.053 C 
BRANCH   6   7
ATOM      7  C   UNL     1      -5.157  -0.072  38.220  1.00  0.00     0.041 C 
ATOM      8  O   UNL     1      -5.514  -1.099  38.854  1.00  0.00    -0.550 OA
ATOM      9  O   UNL     1      -6.049   0.980  38.053  1.00  0.00    -0.550 OA
ENDBRANCH   6   7
ENDBRANCH   5   6
ENDBRANCH   4   5
ENDBRANCH   3   4
ENDBRANCH   2   3
ENDBRANCH   1   2
BRANCH   1  10
ATOM     10  C   UNL     1      -3.069  -3.096  32.999  1.00  0.00     0.000 C 
BRANCH  10  11
ATOM     11  C   UNL     1      -3.279  -4.614  33.031  1.00  0.00    -0.000 C 
BRANCH  11  12
ATOM     12  C   UNL     1      -1.947  -5.349  33.240  1.00  0.00    -0.000 C 
BRANCH  12  13
ATOM     13  C   UNL     1      -1.322  -5.838  31.922  1.00  0.00    -0.000 C 
BRANCH  13  14
ATOM     14  C   UNL     1      -2.309  -6.503  30.944  1.00  0.00    -0.000 C 
BRANCH  14  15
ATOM     15  C   UNL     1      -2.392  -5.805  29.570  1.00  0.00    -0.003 C 
ATOM     16  C   UNL     1      -1.784  -4.402  29.589  1.00  0.00     0.004 C 
ENDBRANCH  14  15
ENDBRANCH  13  14
ENDBRANCH  12  13
ENDBRANCH  11  12
ENDBRANCH  10  11
ENDBRANCH   1  10
TORSDOF 12
ENDMDL
MODEL 7
REMARK VINA RESULT:    -3.507     14.641     15.781
REMARK INTER + INTRA:          -6.957
REMARK INTER:                  -5.504
REMARK INTRA:                  -1.453
REMARK UNBOUND:                -0.989
REMARK SMILES CCCCCCCCCCCCCC(=O)[O-]
REMARK SMILES IDX 8 1 9 2 10 3 11 4 12 5 13 6 14 7 15 8 16 9 7 10 6 11 5 12
REMARK SMILES IDX 4 13 3 14 2 15 1 16
REMARK H PARENT
REMARK Flexibility Score: inf
ROOT
ATOM      1  C   UNL     1     -12.297   2.853  33.157  1.00  0.00     0.000 C 
ENDROOT
BRANCH   1   2
ATOM      2  C   UNL     1     -13.160   2.539  31.921  1.00  0.00     0.000 C 
BRANCH   2   3
ATOM      3  C   UNL     1     -12.388   2.476  30.588  1.00  0.00     0.000 C 
BRANCH   3   4
ATOM      4  C   UNL     1     -12.055   3.843  29.960  1.00  0.00     0.000 C 
BRANCH   4   5
ATOM      5  C   UNL     1     -13.211   4.863  29.966  1.00  0.00     0.006 C 
BRANCH   5   6
ATOM      6  C   UNL     1     -12.772   6.317  30.194  1.00  0.00     0.053 C 
BRANCH   6   7
ATOM      7  C   UNL     1     -12.370   6.987  28.916  1.00  0.00     0.041 C 
ATOM      8  O   UNL     1     -13.018   6.774  27.857  1.00  0.00    -0.550 OA
ATOM      9  O   UNL     1     -11.260   7.821  28.887  1.00  0.00    -0.550 OA
ENDBRANCH   6   7
ENDBRANCH   5   6
ENDBRANCH   4   5
ENDBRANCH   3   4
ENDBRANCH   2   3
ENDBRANCH   1   2
BRANCH   1  10
ATOM     10  C   UNL     1     -12.468   4.296  33.653  1.00  0.00     0.000 C 
BRANCH  10  11
ATOM     11  C   UNL     1     -11.217   5.131  33.357  1.00  0.00    -0.000 C 
BRANCH  11  12
ATOM     12  C   UNL     1     -10.073   4.765  34.314  1.00  0.00    -0.000 C 
BRANCH  12  13
ATOM     13  C   UNL     1     -10.245   5.382  35.712  1.00  0.00    -0.000 C 
BRANCH  13  14
ATOM     14  C   UNL     1     -10.099   4.389  36.881  1.00  0.00    -0.000 C 
BRANCH  14  15
ATOM     15  C   UNL     1     -11.067   3.189  36.804  1.00  0.00    -0.003 C 
ATOM     16  C   UNL     1     -12.408   3.473  37.482  1.00  0.00     0.004 C 
ENDBRANCH  14  15
ENDBRANCH  13  14
ENDBRANCH  12  13
ENDBRANCH  11  12
ENDBRANCH  10  11
ENDBRANCH   1  10
TORSDOF 12
ENDMDL
MODEL 8
REMARK VINA RESULT:    -3.483      3.680      7.868
REMARK INTER + INTRA:          -6.916
REMARK INTER:                  -6.053
REMARK INTRA:                  -0.863
REMARK UNBOUND:                -0.989
REMARK SMILES CCCCCCCCCCCCCC(=O)[O-]
REMARK SMILES IDX 8 1 9 2 10 3 11 4 12 5 13 6 14 7 15 8 16 9 7 10 6 11 5 12
REMARK SMILES IDX 4 13 3 14 2 15 1 16
REMARK H PARENT
REMARK Flexibility Score: inf
ROOT
ATOM      1  C   UNL     1      -3.946  -8.079  29.117  1.00  0.00     0.000 C 
ENDROOT
BRANCH   1   2
ATOM      2  C   UNL     1      -3.713  -7.317  30.434  1.00  0.00     0.000 C 
BRANCH   2   3
ATOM      3  C   UNL     1      -2.437  -7.719  31.200  1.00  0.00     0.000 C 
BRANCH   3   4
ATOM      4  C   UNL     1      -1.269  -6.717  31.098  1.00  0.00     0.000 C 
BRANCH   4   5
ATOM      5  C   UNL     1      -1.645  -5.248  31.376  1.00  0.00     0.006 C 
BRANCH   5   6
ATOM      6  C   UNL     1      -2.002  -4.950  32.840  1.00  0.00     0.053 C 
BRANCH   6   7
ATOM      7  C   UNL     1      -3.238  -4.113  32.956  1.00  0.00     0.041 C 
ATOM      8  O   UNL     1      -4.374  -4.637  32.813  1.00  0.00    -0.550 OA
ATOM      9  O   UNL     1      -3.134  -2.748  33.190  1.00  0.00    -0.550 OA
ENDBRANCH   6   7
ENDBRANCH   5   6
ENDBRANCH   4   5
ENDBRANCH   3   4
ENDBRANCH   2   3
ENDBRANCH   1   2
BRANCH   1  10
ATOM     10  C   UNL     1      -4.551  -9.474  29.332  1.00  0.00     0.000 C 
BRANCH  10  11
ATOM     11  C   UNL     1      -5.712  -9.725  28.363  1.00  0.00    -0.000 C 
BRANCH  11  12
ATOM     12  C   UNL     1      -5.323  -9.339  26.929  1.00  0.00    -0.000 C 
BRANCH  12  13
ATOM     13  C   UNL     1      -5.447 -10.512  25.941  1.00  0.00    -0.000 C 
BRANCH  13  14
ATOM     14  C   UNL     1      -4.304 -11.542  26.011  1.00  0.00    -0.000 C 
BRANCH  14  15
ATOM     15  C   UNL     1      -2.901 -10.930  25.809  1.00  0.00    -0.003 C 
ATOM     16  C   UNL     1      -2.758 -10.226  24.459  1.00  0.00     0.004 C 
ENDBRANCH  14  15
ENDBRANCH  13  14
ENDBRANCH  12  13
ENDBRANCH  11  12
ENDBRANCH  10  11
ENDBRANCH   1  10
TORSDOF 12
ENDMDL
MODEL 9
REMARK VINA RESULT:    -3.452      6.604      9.711
REMARK INTER + INTRA:          -6.863
REMARK INTER:                  -4.992
REMARK INTRA:                  -1.872
REMARK UNBOUND:                -0.989
REMARK SMILES CCCCCCCCCCCCCC(=O)[O-]
REMARK SMILES IDX 8 1 9 2 10 3 11 4 12 5 13 6 14 7 15 8 16 9 7 10 6 11 5 12
REMARK SMILES IDX 4 13 3 14 2 15 1 16
REMARK H PARENT
REMARK Flexibility Score: inf
ROOT
ATOM      1  C   UNL     1      -6.464  -1.243  37.126  1.00  0.00     0.000 C 
ENDROOT
BRANCH   1   2
ATOM      2  C   UNL     1      -6.825  -0.149  36.104  1.00  0.00     0.000 C 
BRANCH   2   3
ATOM      3  C   UNL     1      -6.444  -0.472  34.645  1.00  0.00     0.000 C 
BRANCH   3   4
ATOM      4  C   UNL     1      -5.538  -1.705  34.462  1.00  0.00     0.000 C 
BRANCH   4   5
ATOM      5  C   UNL     1      -4.705  -1.714  33.164  1.00  0.00     0.006 C 
BRANCH   5   6
ATOM      6  C   UNL     1      -3.252  -2.177  33.347  1.00  0.00     0.053 C 
BRANCH   6   7
ATOM      7  C   UNL     1      -2.995  -3.491  32.676  1.00  0.00     0.041 C 
ATOM      8  O   UNL     1      -2.586  -4.475  33.346  1.00  0.00    -0.550 OA
ATOM      9  O   UNL     1      -3.174  -3.618  31.304  1.00  0.00    -0.550 OA
ENDBRANCH   6   7
ENDBRANCH   5   6
ENDBRANCH   4   5
ENDBRANCH   3   4
ENDBRANCH   2   3
ENDBRANCH   1   2
BRANCH   1  10
ATOM     10  C   UNL     1      -5.599  -0.719  38.281  1.00  0.00     0.000 C 
BRANCH  10  11
ATOM     11  C   UNL     1      -5.502   0.810  38.245  1.00  0.00    -0.000 C 
BRANCH  11  12
ATOM     12  C   UNL     1      -4.043   1.265  38.092  1.00  0.00    -0.000 C 
BRANCH  12  13
ATOM     13  C   UNL     1      -3.135   0.170  37.507  1.00  0.00    -0.000 C 
BRANCH  13  14
ATOM     14  C   UNL     1      -2.822   0.320  36.006  1.00  0.00    -0.000 C 
BRANCH  14  15
ATOM     15  C   UNL     1      -2.816   1.784  35.515  1.00  0.00    -0.003 C 
ATOM     16  C   UNL     1      -3.887   2.051  34.458  1.00  0.00     0.004 C 
ENDBRANCH  14  15
ENDBRANCH  13  14
ENDBRANCH  12  13
ENDBRANCH  11  12
ENDBRANCH  10  11
ENDBRANCH   1  10
TORSDOF 12
ENDMDL
