MODEL 1
REMARK VINA RESULT:    -3.478      0.000      0.000
REMARK INTER + INTRA:          -9.324
REMARK INTER:                  -7.952
REMARK INTRA:                  -1.372
REMARK UNBOUND:                -1.372
REMARK SMILES CCCCCCCCCCCCCCCCCCCCCCCC(=O)[O-]
REMARK SMILES IDX 13 1 14 2 15 3 16 4 17 5 18 6 19 7 20 8 21 9 22 10 23 11
REMARK SMILES IDX 24 12 25 13 26 14 12 15 11 16 10 17 9 18 8 19 7 20 6 21 5 22
REMARK SMILES IDX 4 23 3 24 2 25 1 26
REMARK H PARENT
REMARK Flexibility Score: inf
ROOT
ATOM      1  C   UNL     1       2.076   9.792   8.116  1.00  0.00     0.000 C 
ENDROOT
BRANCH   1   2
ATOM      2  C   UNL     1       1.460   9.585   9.509  1.00  0.00     0.000 C 
BRANCH   2   3
ATOM      3  C   UNL     1       1.143   8.108   9.802  1.00  0.00     0.000 C 
BRANCH   3   4
ATOM      4  C   UNL     1       2.403   7.288  10.125  1.00  0.00     0.000 C 
BRANCH   4   5
ATOM      5  C   UNL     1       2.235   5.791   9.809  1.00  0.00     0.000 C 
BRANCH   5   6
ATOM      6  C   UNL     1       0.819   5.280  10.124  1.00  0.00     0.000 C 
BRANCH   6   7
ATOM      7  C   UNL     1       0.420   4.078   9.251  1.00  0.00     0.000 C 
BRANCH   7   8
ATOM      8  C   UNL     1       0.904   2.741   9.838  1.00  0.00     0.000 C 
BRANCH   8   9
ATOM      9  C   UNL     1       2.438   2.667   9.940  1.00  0.00     0.000 C 
BRANCH   9  10
ATOM     10  C   UNL     1       3.064   1.780   8.853  1.00  0.00     0.006 C 
BRANCH  10  11
ATOM     11  C   UNL     1       4.079   2.530   7.982  1.00  0.00     0.053 C 
BRANCH  11  12
ATOM     12  C   UNL     1       5.232   1.638   7.641  1.00  0.00     0.041 C 
ATOM     13  O   UNL     1       5.167   0.872   6.644  1.00  0.00    -0.550 OA
ATOM     14  O   UNL     1       6.400   1.695   8.392  1.00  0.00    -0.550 OA
ENDBRANCH  11  12
ENDBRANCH  10  11
ENDBRANCH   9  10
ENDBRANCH   8   9
ENDBRANCH   7   8
ENDBRANCH   6   7
ENDBRANCH   5   6
ENDBRANCH   4   5
ENDBRANCH   3   4
ENDBRANCH   2   3
ENDBRANCH   1   2
BRANCH   1  15
ATOM     15  C   UNL     1       2.446  11.258   7.840  1.00  0.00     0.000 C 
BRANCH  15  16
ATOM     16  C   UNL     1       3.716  11.351   6.980  1.00  0.00     0.000 C 
BRANCH  16  17
ATOM     17  C   UNL     1       4.503  12.648   7.230  1.00  0.00     0.000 C 
BRANCH  17  18
ATOM     18  C   UNL     1       4.083  13.351   8.532  1.00  0.00    -0.000 C 
BRANCH  18  19
ATOM     19  C   UNL     1       5.186  13.325   9.603  1.00  0.00    -0.000 C 
BRANCH  19  20
ATOM     20  C   UNL     1       5.478  11.902  10.111  1.00  0.00    -0.000 C 
BRANCH  20  21
ATOM     21  C   UNL     1       6.917  11.452   9.812  1.00  0.00    -0.000 C 
BRANCH  21  22
ATOM     22  C   UNL     1       7.054   9.921   9.729  1.00  0.00    -0.000 C 
BRANCH  22  23
ATOM     23  C   UNL     1       7.735   9.461   8.430  1.00  0.00    -0.000 C 
BRANCH  23  24
ATOM     24  C   UNL     1       9.204   9.060   8.644  1.00  0.00    -0.000 C 
BRANCH  24  25
ATOM     25  C   UNL     1       9.620   7.862   7.776  1.00  0.00    -0.003 C 
ATOM     26  C   UNL     1       8.971   6.553   8.228  1.00  0.00     0.004 C 
ENDBRANCH  24  25
ENDBRANCH  23  24
ENDBRANCH  22  23
ENDBRANCH  21  22
ENDBRANCH  20  21
ENDBRANCH  19  20
ENDBRANCH  18  19
ENDBRANCH  17  18
ENDBRANCH  16  17
ENDBRANCH  15  16
ENDBRANCH   1  15
TORSDOF 22
ENDMDL
MODEL 2
REMARK VINA RESULT:    -2.842      3.035      6.584
REMARK INTER + INTRA:          -7.869
REMARK INTER:                  -7.671
REMARK INTRA:                  -0.198
REMARK UNBOUND:                -1.372
REMARK SMILES CCCCCCCCCCCCCCCCCCCCCCCC(=O)[O-]
REMARK SMILES IDX 13 1 14 2 15 3 16 4 17 5 18 6 19 7 20 8 21 9 22 10 23 11
REMARK SMILES IDX 24 12 25 13 26 14 12 15 11 16 10 17 9 18 8 19 7 20 6 21 5 22
REMARK SMILES IDX 4 23 3 24 2 25 1 26
REMARK H PARENT
REMARK Flexibility Score: inf
ROOT
ATOM      1  C   UNL     1       8.448   5.805   9.039  1.00  0.00     0.000 C 
ENDROOT
BRANCH   1   2
ATOM      2  C   UNL     1       9.323   4.690   9.633  1.00  0.00     0.000 C 
BRANCH   2   3
ATOM      3  C   UNL     1       8.511   3.438  10.009  1.00  0.00     0.000 C 
BRANCH   3   4
ATOM      4  C   UNL     1       7.067   3.493   9.484  1.00  0.00     0.000 C 
BRANCH   4   5
ATOM      5  C   UNL     1       6.377   2.116   9.497  1.00  0.00     0.000 C 
BRANCH   5   6
ATOM      6  C   UNL     1       4.951   2.169   8.924  1.00  0.00     0.000 C 
BRANCH   6   7
ATOM      7  C   UNL     1       3.958   2.851   9.881  1.00  0.00     0.000 C 
BRANCH   7   8
ATOM      8  C   UNL     1       2.718   3.394   9.151  1.00  0.00     0.000 C 
BRANCH   8   9
ATOM      9  C   UNL     1       1.648   3.919  10.125  1.00  0.00     0.000 C 
BRANCH   9  10
ATOM     10  C   UNL     1       0.220   3.763   9.578  1.00  0.00     0.006 C 
BRANCH  10  11
ATOM     11  C   UNL     1      -0.631   5.026   9.764  1.00  0.00     0.053 C 
BRANCH  11  12
ATOM     12  C   UNL     1      -1.988   4.831   9.165  1.00  0.00     0.041 C 
ATOM     13  O   UNL     1      -2.810   5.785   9.134  1.00  0.00    -0.550 OA
ATOM     14  O   UNL     1      -2.326   3.612   8.589  1.00  0.00    -0.550 OA
ENDBRANCH  11  12
ENDBRANCH  10  11
ENDBRANCH   9  10
ENDBRANCH   8   9
ENDBRANCH   7   8
ENDBRANCH   6   7
ENDBRANCH   5   6
ENDBRANCH   4   5
ENDBRANCH   3   4
ENDBRANCH   2   3
ENDBRANCH   1   2
BRANCH   1  15
ATOM     15  C   UNL     1       9.272   6.926   8.386  1.00  0.00     0.000 C 
BRANCH  15  16
ATOM     16  C   UNL     1      10.582   7.162   9.154  1.00  0.00     0.000 C 
BRANCH  16  17
ATOM     17  C   UNL     1      10.975   8.648   9.204  1.00  0.00     0.000 C 
BRANCH  17  18
ATOM     18  C   UNL     1      10.058   9.471  10.124  1.00  0.00    -0.000 C 
BRANCH  18  19
ATOM     19  C   UNL     1       8.601   8.980  10.102  1.00  0.00    -0.000 C 
BRANCH  19  20
ATOM     20  C   UNL     1       7.595  10.132   9.936  1.00  0.00    -0.000 C 
BRANCH  20  21
ATOM     21  C   UNL     1       7.330  10.478   8.462  1.00  0.00    -0.000 C 
BRANCH  21  22
ATOM     22  C   UNL     1       6.550  11.794   8.293  1.00  0.00    -0.000 C 
BRANCH  22  23
ATOM     23  C   UNL     1       5.066  11.561   7.970  1.00  0.00    -0.000 C 
BRANCH  23  24
ATOM     24  C   UNL     1       4.130  12.399   8.857  1.00  0.00    -0.000 C 
BRANCH  24  25
ATOM     25  C   UNL     1       2.804  12.739   8.158  1.00  0.00    -0.003 C 
ATOM     26  C   UNL     1       1.605  12.677   9.106  1.00  0.00     0.004 C 
ENDBRANCH  24  25
ENDBRANCH  23  24
ENDBRANCH  22  23
ENDBRANCH  21  22
ENDBRANCH  20  21
ENDBRANCH  19  20
ENDBRANCH  18  19
ENDBRANCH  17  18
ENDBRANCH  16  17
ENDBRANCH  15  16
ENDBRANCH   1  15
TORSDOF 22
ENDMDL
MODEL 3
REMARK VINA RESULT:    -2.750      3.628      9.762
REMARK INTER + INTRA:          -7.659
REMARK INTER:                  -5.925
REMARK INTRA:                  -1.734
REMARK UNBOUND:                -1.372
REMARK SMILES CCCCCCCCCCCCCCCCCCCCCCCC(=O)[O-]
REMARK SMILES IDX 13 1 14 2 15 3 16 4 17 5 18 6 19 7 20 8 21 9 22 10 23 11
REMARK SMILES IDX 24 12 25 13 26 14 12 15 11 16 10 17 9 18 8 19 7 20 6 21 5 22
REMARK SMILES IDX 4 23 3 24 2 25 1 26
REMARK H PARENT
REMARK Flexibility Score: inf
ROOT
ATOM      1  C   UNL     1       7.899   6.336   9.365  1.00  0.00     0.000 C 
ENDROOT
BRANCH   1   2
ATOM      2  C   UNL     1       8.679   6.368   8.042  1.00  0.00     0.000 C 
BRANCH   2   3
ATOM      3  C   UNL     1      10.156   6.755   8.234  1.00  0.00     0.000 C 
BRANCH   3   4
ATOM      4  C   UNL     1      10.422   7.399   9.605  1.00  0.00     0.000 C 
BRANCH   4   5
ATOM      5  C   UNL     1      10.657   8.918   9.510  1.00  0.00     0.000 C 
BRANCH   5   6
ATOM      6  C   UNL     1       9.504   9.730  10.125  1.00  0.00     0.000 C 
BRANCH   6   7
ATOM      7  C   UNL     1       8.380  10.013   9.112  1.00  0.00     0.000 C 
BRANCH   7   8
ATOM      8  C   UNL     1       6.981   9.849   9.728  1.00  0.00     0.000 C 
BRANCH   8   9
ATOM      9  C   UNL     1       6.123  11.119   9.578  1.00  0.00     0.000 C 
BRANCH   9  10
ATOM     10  C   UNL     1       6.072  11.634   8.131  1.00  0.00     0.006 C 
BRANCH  10  11
ATOM     11  C   UNL     1       5.329  12.969   7.998  1.00  0.00     0.053 C 
BRANCH  11  12
ATOM     12  C   UNL     1       4.144  12.818   7.096  1.00  0.00     0.041 C 
ATOM     13  O   UNL     1       3.251  13.705   7.068  1.00  0.00    -0.550 OA
ATOM     14  O   UNL     1       4.054  11.723   6.245  1.00  0.00    -0.550 OA
ENDBRANCH  11  12
ENDBRANCH  10  11
ENDBRANCH   9  10
ENDBRANCH   8   9
ENDBRANCH   7   8
ENDBRANCH   6   7
ENDBRANCH   5   6
ENDBRANCH   4   5
ENDBRANCH   3   4
ENDBRANCH   2   3
ENDBRANCH   1   2
BRANCH   1  15
ATOM     15  C   UNL     1       7.869   4.940  10.007  1.00  0.00     0.000 C 
BRANCH  15  16
ATOM     16  C   UNL     1       7.158   3.930   9.092  1.00  0.00     0.000 C 
BRANCH  16  17
ATOM     17  C   UNL     1       7.426   2.473   9.503  1.00  0.00     0.000 C 
BRANCH  17  18
ATOM     18  C   UNL     1       6.132   1.655   9.653  1.00  0.00    -0.000 C 
BRANCH  18  19
ATOM     19  C   UNL     1       4.939   2.290   8.920  1.00  0.00    -0.000 C 
BRANCH  19  20
ATOM     20  C   UNL     1       3.832   2.748   9.885  1.00  0.00    -0.000 C 
BRANCH  20  21
ATOM     21  C   UNL     1       3.844   4.268  10.118  1.00  0.00    -0.000 C 
BRANCH  21  22
ATOM     22  C   UNL     1       2.616   4.969   9.508  1.00  0.00    -0.000 C 
BRANCH  22  23
ATOM     23  C   UNL     1       1.298   4.263   9.863  1.00  0.00    -0.000 C 
BRANCH  23  24
ATOM     24  C   UNL     1       0.078   5.191   9.734  1.00  0.00    -0.000 C 
BRANCH  24  25
ATOM     25  C   UNL     1      -1.141   4.480   9.125  1.00  0.00    -0.003 C 
ATOM     26  C   UNL     1      -2.236   5.455   8.691  1.00  0.00     0.004 C 
ENDBRANCH  24  25
ENDBRANCH  23  24
ENDBRANCH  22  23
ENDBRANCH  21  22
ENDBRANCH  20  21
ENDBRANCH  19  20
ENDBRANCH  18  19
ENDBRANCH  17  18
ENDBRANCH  16  17
ENDBRANCH  15  16
ENDBRANCH   1  15
TORSDOF 22
ENDMDL
MODEL 4
REMARK VINA RESULT:    -2.684      6.281     12.640
REMARK INTER + INTRA:          -7.508
REMARK INTER:                  -5.810
REMARK INTRA:                  -1.697
REMARK UNBOUND:                -1.372
REMARK SMILES CCCCCCCCCCCCCCCCCCCCCCCC(=O)[O-]
REMARK SMILES IDX 13 1 14 2 15 3 16 4 17 5 18 6 19 7 20 8 21 9 22 10 23 11
REMARK SMILES IDX 24 12 25 13 26 14 12 15 11 16 10 17 9 18 8 19 7 20 6 21 5 22
REMARK SMILES IDX 4 23 3 24 2 25 1 26
REMARK H PARENT
REMARK Flexibility Score: inf
ROOT
ATOM      1  C   UNL     1       5.380  -2.738  10.102  1.00  0.00     0.000 C 
ENDROOT
BRANCH   1   2
ATOM      2  C   UNL     1       5.746  -1.245  10.075  1.00  0.00     0.000 C 
BRANCH   2   3
ATOM      3  C   UNL     1       4.531  -0.343   9.797  1.00  0.00     0.000 C 
BRANCH   3   4
ATOM      4  C   UNL     1       4.785   0.650   8.651  1.00  0.00     0.000 C 
BRANCH   4   5
ATOM      5  C   UNL     1       3.710   1.748   8.568  1.00  0.00     0.000 C 
BRANCH   5   6
ATOM      6  C   UNL     1       4.193   3.089   9.147  1.00  0.00     0.000 C 
BRANCH   6   7
ATOM      7  C   UNL     1       3.060   4.124   9.257  1.00  0.00     0.000 C 
BRANCH   7   8
ATOM      8  C   UNL     1       1.816   3.559   9.963  1.00  0.00     0.000 C 
BRANCH   8   9
ATOM      9  C   UNL     1       0.630   4.540   9.934  1.00  0.00     0.000 C 
BRANCH   9  10
ATOM     10  C   UNL     1      -0.727   3.829   9.815  1.00  0.00     0.006 C 
BRANCH  10  11
ATOM     11  C   UNL     1      -1.599   4.391   8.685  1.00  0.00     0.053 C 
BRANCH  11  12
ATOM     12  C   UNL     1      -2.238   5.675   9.111  1.00  0.00     0.041 C 
ATOM     13  O   UNL     1      -1.684   6.776   8.853  1.00  0.00    -0.550 OA
ATOM     14  O   UNL     1      -3.476   5.658   9.743  1.00  0.00    -0.550 OA
ENDBRANCH  11  12
ENDBRANCH  10  11
ENDBRANCH   9  10
ENDBRANCH   8   9
ENDBRANCH   7   8
ENDBRANCH   6   7
ENDBRANCH   5   6
ENDBRANCH   4   5
ENDBRANCH   3   4
ENDBRANCH   2   3
ENDBRANCH   1   2
BRANCH   1  15
ATOM     15  C   UNL     1       6.335  -3.601   9.262  1.00  0.00     0.000 C 
BRANCH  15  16
ATOM     16  C   UNL     1       6.646  -4.927   9.974  1.00  0.00     0.000 C 
BRANCH  16  17
ATOM     17  C   UNL     1       8.156  -5.179  10.117  1.00  0.00     0.000 C 
BRANCH  17  18
ATOM     18  C   UNL     1       9.000  -4.189   9.298  1.00  0.00    -0.000 C 
BRANCH  18  19
ATOM     19  C   UNL     1      10.120  -4.879   8.503  1.00  0.00    -0.000 C 
BRANCH  19  20
ATOM     20  C   UNL     1       9.607  -6.071   7.676  1.00  0.00    -0.000 C 
BRANCH  20  21
ATOM     21  C   UNL     1       9.899  -5.917   6.175  1.00  0.00    -0.000 C 
BRANCH  21  22
ATOM     22  C   UNL     1       8.622  -5.953   5.316  1.00  0.00    -0.000 C 
BRANCH  22  23
ATOM     23  C   UNL     1       7.349  -5.718   6.145  1.00  0.00    -0.000 C 
BRANCH  23  24
ATOM     24  C   UNL     1       6.189  -5.165   5.301  1.00  0.00    -0.000 C 
BRANCH  24  25
ATOM     25  C   UNL     1       4.895  -5.001   6.114  1.00  0.00    -0.003 C 
ATOM     26  C   UNL     1       3.695  -5.683   5.456  1.00  0.00     0.004 C 
ENDBRANCH  24  25
ENDBRANCH  23  24
ENDBRANCH  22  23
ENDBRANCH  21  22
ENDBRANCH  20  21
ENDBRANCH  19  20
ENDBRANCH  18  19
ENDBRANCH  17  18
ENDBRANCH  16  17
ENDBRANCH  15  16
ENDBRANCH   1  15
TORSDOF 22
ENDMDL
MODEL 5
REMARK VINA RESULT:    -2.599      3.680     10.118
REMARK INTER + INTRA:          -7.315
REMARK INTER:                  -6.441
REMARK INTRA:                  -0.874
REMARK UNBOUND:                -1.372
REMARK SMILES CCCCCCCCCCCCCCCCCCCCCCCC(=O)[O-]
REMARK SMILES IDX 13 1 14 2 15 3 16 4 17 5 18 6 19 7 20 8 21 9 22 10 23 11
REMARK SMILES IDX 24 12 25 13 26 14 12 15 11 16 10 17 9 18 8 19 7 20 6 21 5 22
REMARK SMILES IDX 4 23 3 24 2 25 1 26
REMARK H PARENT
REMARK Flexibility Score: inf
ROOT
ATOM      1  C   UNL     1       7.065   4.222   9.341  1.00  0.00     0.000 C 
ENDROOT
BRANCH   1   2
ATOM      2  C   UNL     1       8.236   4.930  10.041  1.00  0.00     0.000 C 
BRANCH   2   3
ATOM      3  C   UNL     1       9.286   5.460   9.048  1.00  0.00     0.000 C 
BRANCH   3   4
ATOM      4  C   UNL     1       8.696   6.469   8.050  1.00  0.00     0.000 C 
BRANCH   4   5
ATOM      5  C   UNL     1       9.777   7.312   7.349  1.00  0.00     0.000 C 
BRANCH   5   6
ATOM      6  C   UNL     1      11.201   6.860   7.714  1.00  0.00     0.000 C 
BRANCH   6   7
ATOM      7  C   UNL     1      11.645   7.375   9.095  1.00  0.00     0.000 C 
BRANCH   7   8
ATOM      8  C   UNL     1      11.123   8.791   9.389  1.00  0.00     0.000 C 
BRANCH   8   9
ATOM      9  C   UNL     1       9.771   8.776  10.125  1.00  0.00     0.000 C 
BRANCH   9  10
ATOM     10  C   UNL     1       8.916  10.017   9.824  1.00  0.00     0.006 C 
BRANCH  10  11
ATOM     11  C   UNL     1       7.546   9.669   9.229  1.00  0.00     0.053 C 
BRANCH  11  12
ATOM     12  C   UNL     1       6.603  10.820   9.387  1.00  0.00     0.041 C 
ATOM     13  O   UNL     1       5.550  10.689  10.066  1.00  0.00    -0.550 OA
ATOM     14  O   UNL     1       6.914  12.055   8.831  1.00  0.00    -0.550 OA
ENDBRANCH  11  12
ENDBRANCH  10  11
ENDBRANCH   9  10
ENDBRANCH   8   9
ENDBRANCH   7   8
ENDBRANCH   6   7
ENDBRANCH   5   6
ENDBRANCH   4   5
ENDBRANCH   3   4
ENDBRANCH   2   3
ENDBRANCH   1   2
BRANCH   1  15
ATOM     15  C   UNL     1       6.645   2.924  10.049  1.00  0.00     0.000 C 
BRANCH  15  16
ATOM     16  C   UNL     1       6.069   1.912   9.046  1.00  0.00     0.000 C 
BRANCH  16  17
ATOM     17  C   UNL     1       5.226   2.584   7.950  1.00  0.00     0.000 C 
BRANCH  17  18
ATOM     18  C   UNL     1       3.839   1.938   7.793  1.00  0.00    -0.000 C 
BRANCH  18  19
ATOM     19  C   UNL     1       3.500   0.973   8.941  1.00  0.00    -0.000 C 
BRANCH  19  20
ATOM     20  C   UNL     1       2.509   1.582   9.947  1.00  0.00    -0.000 C 
BRANCH  20  21
ATOM     21  C   UNL     1       1.045   1.269   9.598  1.00  0.00    -0.000 C 
BRANCH  21  22
ATOM     22  C   UNL     1       0.095   2.433   9.932  1.00  0.00    -0.000 C 
BRANCH  22  23
ATOM     23  C   UNL     1       0.753   3.807   9.724  1.00  0.00    -0.000 C 
BRANCH  23  24
ATOM     24  C   UNL     1      -0.171   4.970  10.125  1.00  0.00    -0.000 C 
BRANCH  24  25
ATOM     25  C   UNL     1      -1.656   4.649   9.893  1.00  0.00    -0.003 C 
ATOM     26  C   UNL     1      -2.101   4.924   8.456  1.00  0.00     0.004 C 
ENDBRANCH  24  25
ENDBRANCH  23  24
ENDBRANCH  22  23
ENDBRANCH  21  22
ENDBRANCH  20  21
ENDBRANCH  19  20
ENDBRANCH  18  19
ENDBRANCH  17  18
ENDBRANCH  16  17
ENDBRANCH  15  16
ENDBRANCH   1  15
TORSDOF 22
ENDMDL
MODEL 6
REMARK VINA RESULT:    -2.361      4.656      8.003
REMARK INTER + INTRA:          -6.770
REMARK INTER:                  -5.601
REMARK INTRA:                  -1.169
REMARK UNBOUND:                -1.372
REMARK SMILES CCCCCCCCCCCCCCCCCCCCCCCC(=O)[O-]
REMARK SMILES IDX 13 1 14 2 15 3 16 4 17 5 18 6 19 7 20 8 21 9 22 10 23 11
REMARK SMILES IDX 24 12 25 13 26 14 12 15 11 16 10 17 9 18 8 19 7 20 6 21 5 22
REMARK SMILES IDX 4 23 3 24 2 25 1 26
REMARK H PARENT
REMARK Flexibility Score: inf
ROOT
ATOM      1  C   UNL     1       6.148   1.780   8.793  1.00  0.00     0.000 C 
ENDROOT
BRANCH   1   2
ATOM      2  C   UNL     1       4.705   1.294   8.585  1.00  0.00     0.000 C 
BRANCH   2   3
ATOM      3  C   UNL     1       4.231   0.349   9.703  1.00  0.00     0.000 C 
BRANCH   3   4
ATOM      4  C   UNL     1       5.304  -0.679  10.099  1.00  0.00     0.000 C 
BRANCH   4   5
ATOM      5  C   UNL     1       4.772  -2.123  10.096  1.00  0.00     0.000 C 
BRANCH   5   6
ATOM      6  C   UNL     1       5.897  -3.163   9.957  1.00  0.00     0.000 C 
BRANCH   6   7
ATOM      7  C   UNL     1       5.454  -4.406   9.166  1.00  0.00     0.000 C 
BRANCH   7   8
ATOM      8  C   UNL     1       6.320  -4.646   7.918  1.00  0.00     0.000 C 
BRANCH   8   9
ATOM      9  C   UNL     1       7.133  -5.950   8.011  1.00  0.00     0.000 C 
BRANCH   9  10
ATOM     10  C   UNL     1       8.626  -5.742   7.713  1.00  0.00     0.006 C 
BRANCH  10  11
ATOM     11  C   UNL     1       9.490  -5.718   8.980  1.00  0.00     0.053 C 
BRANCH  11  12
ATOM     12  C   UNL     1      10.310  -4.468   9.028  1.00  0.00     0.041 C 
ATOM     13  O   UNL     1       9.858  -3.394   8.549  1.00  0.00    -0.550 OA
ATOM     14  O   UNL     1      11.552  -4.474   9.652  1.00  0.00    -0.550 OA
ENDBRANCH  11  12
ENDBRANCH  10  11
ENDBRANCH   9  10
ENDBRANCH   8   9
ENDBRANCH   7   8
ENDBRANCH   6   7
ENDBRANCH   5   6
ENDBRANCH   4   5
ENDBRANCH   3   4
ENDBRANCH   2   3
ENDBRANCH   1   2
BRANCH   1  15
ATOM     15  C   UNL     1       6.338   2.532  10.120  1.00  0.00     0.000 C 
BRANCH  15  16
ATOM     16  C   UNL     1       5.922   4.004   9.982  1.00  0.00     0.000 C 
BRANCH  16  17
ATOM     17  C   UNL     1       7.110   4.968  10.125  1.00  0.00     0.000 C 
BRANCH  17  18
ATOM     18  C   UNL     1       8.265   4.628   9.167  1.00  0.00    -0.000 C 
BRANCH  18  19
ATOM     19  C   UNL     1       9.475   5.560   9.341  1.00  0.00    -0.000 C 
BRANCH  19  20
ATOM     20  C   UNL     1       9.476   6.719   8.330  1.00  0.00    -0.000 C 
BRANCH  20  21
ATOM     21  C   UNL     1       9.795   8.074   8.983  1.00  0.00    -0.000 C 
BRANCH  21  22
ATOM     22  C   UNL     1       8.820   8.426  10.121  1.00  0.00    -0.000 C 
BRANCH  22  23
ATOM     23  C   UNL     1       8.370   9.894  10.076  1.00  0.00    -0.000 C 
BRANCH  23  24
ATOM     24  C   UNL     1       7.624  10.244   8.777  1.00  0.00    -0.000 C 
BRANCH  24  25
ATOM     25  C   UNL     1       6.409  11.153   9.020  1.00  0.00    -0.003 C 
ATOM     26  C   UNL     1       5.699  11.547   7.725  1.00  0.00     0.004 C 
ENDBRANCH  24  25
ENDBRANCH  23  24
ENDBRANCH  22  23
ENDBRANCH  21  22
ENDBRANCH  20  21
ENDBRANCH  19  20
ENDBRANCH  18  19
ENDBRANCH  17  18
ENDBRANCH  16  17
ENDBRANCH  15  16
ENDBRANCH   1  15
TORSDOF 22
ENDMDL
MODEL 7
REMARK VINA RESULT:    -2.105      4.150      8.846
REMARK INTER + INTRA:          -6.185
REMARK INTER:                  -5.911
REMARK INTRA:                  -0.274
REMARK UNBOUND:                -1.372
REMARK SMILES CCCCCCCCCCCCCCCCCCCCCCCC(=O)[O-]
REMARK SMILES IDX 13 1 14 2 15 3 16 4 17 5 18 6 19 7 20 8 21 9 22 10 23 11
REMARK SMILES IDX 24 12 25 13 26 14 12 15 11 16 10 17 9 18 8 19 7 20 6 21 5 22
REMARK SMILES IDX 4 23 3 24 2 25 1 26
REMARK H PARENT
REMARK Flexibility Score: inf
ROOT
ATOM      1  C   UNL     1       8.258   8.155   8.916  1.00  0.00     0.000 C 
ENDROOT
BRANCH   1   2
ATOM      2  C   UNL     1       8.882   8.873  10.124  1.00  0.00     0.000 C 
BRANCH   2   3
ATOM      3  C   UNL     1       8.598  10.385  10.124  1.00  0.00     0.000 C 
BRANCH   3   4
ATOM      4  C   UNL     1       7.139  10.711   9.764  1.00  0.00     0.000 C 
BRANCH   4   5
ATOM      5  C   UNL     1       6.900  12.218   9.559  1.00  0.00     0.000 C 
BRANCH   5   6
ATOM      6  C   UNL     1       6.132  12.519   8.262  1.00  0.00     0.000 C 
BRANCH   6   7
ATOM      7  C   UNL     1       5.636  11.241   7.562  1.00  0.00     0.000 C 
BRANCH   7   8
ATOM      8  C   UNL     1       4.531  11.528   6.532  1.00  0.00     0.000 C 
BRANCH   8   9
ATOM      9  C   UNL     1       3.201  11.929   7.196  1.00  0.00     0.000 C 
BRANCH   9  10
ATOM     10  C   UNL     1       3.076  13.447   7.404  1.00  0.00     0.006 C 
BRANCH  10  11
ATOM     11  C   UNL     1       2.388  13.814   8.725  1.00  0.00     0.053 C 
BRANCH  11  12
ATOM     12  C   UNL     1       1.209  12.923   8.963  1.00  0.00     0.041 C 
ATOM     13  O   UNL     1       0.039  13.370   8.832  1.00  0.00    -0.550 OA
ATOM     14  O   UNL     1       1.403  11.583   9.276  1.00  0.00    -0.550 OA
ENDBRANCH  11  12
ENDBRANCH  10  11
ENDBRANCH   9  10
ENDBRANCH   8   9
ENDBRANCH   7   8
ENDBRANCH   6   7
ENDBRANCH   5   6
ENDBRANCH   4   5
ENDBRANCH   3   4
ENDBRANCH   2   3
ENDBRANCH   1   2
BRANCH   1  15
ATOM     15  C   UNL     1       9.126   8.251   7.652  1.00  0.00     0.000 C 
BRANCH  15  16
ATOM     16  C   UNL     1       9.861   6.927   7.389  1.00  0.00     0.000 C 
BRANCH  16  17
ATOM     17  C   UNL     1      11.387   7.103   7.333  1.00  0.00     0.000 C 
BRANCH  17  18
ATOM     18  C   UNL     1      12.010   7.301   8.726  1.00  0.00    -0.000 C 
BRANCH  18  19
ATOM     19  C   UNL     1      11.367   6.406   9.797  1.00  0.00    -0.000 C 
BRANCH  19  20
ATOM     20  C   UNL     1      10.726   5.141   9.200  1.00  0.00    -0.000 C 
BRANCH  20  21
ATOM     21  C   UNL     1       9.643   4.541  10.111  1.00  0.00    -0.000 C 
BRANCH  21  22
ATOM     22  C   UNL     1       8.217   4.874   9.636  1.00  0.00    -0.000 C 
BRANCH  22  23
ATOM     23  C   UNL     1       7.388   3.615   9.336  1.00  0.00    -0.000 C 
BRANCH  23  24
ATOM     24  C   UNL     1       5.934   3.736   9.824  1.00  0.00    -0.000 C 
BRANCH  24  25
ATOM     25  C   UNL     1       5.096   2.492   9.491  1.00  0.00    -0.003 C 
ATOM     26  C   UNL     1       5.567   1.787   8.219  1.00  0.00     0.004 C 
ENDBRANCH  24  25
ENDBRANCH  23  24
ENDBRANCH  22  23
ENDBRANCH  21  22
ENDBRANCH  20  21
ENDBRANCH  19  20
ENDBRANCH  18  19
ENDBRANCH  17  18
ENDBRANCH  16  17
ENDBRANCH  15  16
ENDBRANCH   1  15
TORSDOF 22
ENDMDL
MODEL 8
REMARK VINA RESULT:    -2.034      4.820     11.104
REMARK INTER + INTRA:          -6.021
REMARK INTER:                  -4.960
REMARK INTRA:                  -1.062
REMARK UNBOUND:                -1.372
REMARK SMILES CCCCCCCCCCCCCCCCCCCCCCCC(=O)[O-]
REMARK SMILES IDX 13 1 14 2 15 3 16 4 17 5 18 6 19 7 20 8 21 9 22 10 23 11
REMARK SMILES IDX 24 12 25 13 26 14 12 15 11 16 10 17 9 18 8 19 7 20 6 21 5 22
REMARK SMILES IDX 4 23 3 24 2 25 1 26
REMARK H PARENT
REMARK Flexibility Score: inf
ROOT
ATOM      1  C   UNL     1       7.412   4.437   8.748  1.00  0.00     0.000 C 
ENDROOT
BRANCH   1   2
ATOM      2  C   UNL     1       8.181   5.598   9.398  1.00  0.00     0.000 C 
BRANCH   2   3
ATOM      3  C   UNL     1       9.471   5.953   8.638  1.00  0.00     0.000 C 
BRANCH   3   4
ATOM      4  C   UNL     1       9.577   7.455   8.326  1.00  0.00     0.000 C 
BRANCH   4   5
ATOM      5  C   UNL     1      10.598   8.177   9.224  1.00  0.00     0.000 C 
BRANCH   5   6
ATOM      6  C   UNL     1       9.942   9.237  10.124  1.00  0.00     0.000 C 
BRANCH   6   7
ATOM      7  C   UNL     1       8.405   9.187  10.066  1.00  0.00     0.000 C 
BRANCH   7   8
ATOM      8  C   UNL     1       7.789  10.535   9.657  1.00  0.00     0.000 C 
BRANCH   8   9
ATOM      9  C   UNL     1       7.169  10.493   8.249  1.00  0.00     0.000 C 
BRANCH   9  10
ATOM     10  C   UNL     1       6.247  11.690   7.969  1.00  0.00     0.006 C 
BRANCH  10  11
ATOM     11  C   UNL     1       5.053  11.761   8.930  1.00  0.00     0.053 C 
BRANCH  11  12
ATOM     12  C   UNL     1       3.769  11.804   8.163  1.00  0.00     0.041 C 
ATOM     13  O   UNL     1       2.681  11.520   8.731  1.00  0.00    -0.550 OA
ATOM     14  O   UNL     1       3.766  12.213   6.835  1.00  0.00    -0.550 OA
ENDBRANCH  11  12
ENDBRANCH  10  11
ENDBRANCH   9  10
ENDBRANCH   8   9
ENDBRANCH   7   8
ENDBRANCH   6   7
ENDBRANCH   5   6
ENDBRANCH   4   5
ENDBRANCH   3   4
ENDBRANCH   2   3
ENDBRANCH   1   2
BRANCH   1  15
ATOM     15  C   UNL     1       6.503   3.694   9.740  1.00  0.00     0.000 C 
BRANCH  15  16
ATOM     16  C   UNL     1       5.782   2.523   9.053  1.00  0.00     0.000 C 
BRANCH  16  17
ATOM     17  C   UNL     1       4.966   1.674  10.040  1.00  0.00     0.000 C 
BRANCH  17  18
ATOM     18  C   UNL     1       5.466   0.222  10.125  1.00  0.00    -0.000 C 
BRANCH  18  19
ATOM     19  C   UNL     1       4.413  -0.797   9.659  1.00  0.00    -0.000 C 
BRANCH  19  20
ATOM     20  C   UNL     1       4.757  -2.235  10.084  1.00  0.00    -0.000 C 
BRANCH  20  21
ATOM     21  C   UNL     1       5.614  -2.969   9.040  1.00  0.00    -0.000 C 
BRANCH  21  22
ATOM     22  C   UNL     1       6.011  -4.387   9.492  1.00  0.00    -0.000 C 
BRANCH  22  23
ATOM     23  C   UNL     1       7.281  -4.894   8.791  1.00  0.00    -0.000 C 
BRANCH  23  24
ATOM     24  C   UNL     1       8.494  -4.949   9.734  1.00  0.00    -0.000 C 
BRANCH  24  25
ATOM     25  C   UNL     1       9.520  -3.843   9.441  1.00  0.00    -0.003 C 
ATOM     26  C   UNL     1      10.681  -4.331   8.574  1.00  0.00     0.004 C 
ENDBRANCH  24  25
ENDBRANCH  23  24
ENDBRANCH  22  23
ENDBRANCH  21  22
ENDBRANCH  20  21
ENDBRANCH  19  20
ENDBRANCH  18  19
ENDBRANCH  17  18
ENDBRANCH  16  17
ENDBRANCH  15  16
ENDBRANCH   1  15
TORSDOF 22
ENDMDL
