MODEL 1
REMARK VINA RESULT:    -5.790      0.000      0.000
REMARK INTER + INTRA:          -7.044
REMARK INTER:                  -6.974
REMARK INTRA:                  -0.069
REMARK UNBOUND:                -0.069
REMARK SMILES Oc1cc(O)c2cc(O)c(-c3ccc(O)c(O)c3)[o+]c2c1
REMARK SMILES IDX 10 1 19 2 20 3 21 4 2 5 3 6 4 7 6 8 7 9 8 10 11 11 12 12
REMARK SMILES IDX 13 13 14 14 18 15 16 16 15 17 17 19 9 21 1 23 5 25
REMARK H PARENT 15 18 17 20 9 22 1 24 5 26
REMARK Flexibility Score: inf
ROOT
ATOM      1  C   UNL     1     174.343 169.915 172.900  1.00  0.00     0.402 A 
ATOM      2  O   UNL     1     173.210 170.612 172.900  1.00  0.00    -0.202 OA
ATOM      3  C   UNL     1     172.009 170.052 173.006  1.00  0.00     0.368 A 
ATOM      4  C   UNL     1     170.875 170.869 172.994  1.00  0.00     0.162 A 
ATOM      5  C   UNL     1     169.602 170.310 173.101  1.00  0.00     0.128 A 
ATOM      6  C   UNL     1     169.458 168.922 173.219  1.00  0.00     0.093 A 
ATOM      7  C   UNL     1     170.578 168.083 173.233  1.00  0.00     0.136 A 
ATOM      8  C   UNL     1     171.876 168.648 173.128  1.00  0.00     0.125 A 
ATOM      9  C   UNL     1     173.055 167.886 173.145  1.00  0.00     0.078 A 
ATOM     10  C   UNL     1     174.299 168.515 173.042  1.00  0.00     0.223 A 
ENDROOT
BRANCH   1  11
ATOM     11  C   UNL     1     175.619 170.653 172.764  1.00  0.00     0.087 A 
ATOM     12  C   UNL     1     176.591 170.271 171.824  1.00  0.00     0.022 A 
ATOM     13  C   UNL     1     177.779 170.997 171.699  1.00  0.00     0.051 A 
ATOM     14  C   UNL     1     178.007 172.122 172.502  1.00  0.00     0.157 A 
ATOM     15  C   UNL     1     175.844 171.794 173.552  1.00  0.00     0.068 A 
ATOM     16  C   UNL     1     177.032 172.524 173.431  1.00  0.00     0.158 A 
BRANCH  14  17
ATOM     17  O   UNL     1     179.193 172.844 172.376  1.00  0.00    -0.504 OA
ATOM     18  H   UNL     1     179.288 173.779 172.755  1.00  0.00     0.293 HD
ENDBRANCH  14  17
BRANCH  16  19
ATOM     19  O   UNL     1     177.225 173.644 174.238  1.00  0.00    -0.504 OA
ATOM     20  H   UNL     1     178.132 174.083 174.342  1.00  0.00     0.293 HD
ENDBRANCH  16  19
ENDBRANCH   1  11
BRANCH  10  21
ATOM     21  O   UNL     1     175.471 167.763 173.110  1.00  0.00    -0.500 OA
ATOM     22  H   UNL     1     175.655 167.005 172.464  1.00  0.00     0.294 HD
ENDBRANCH  10  21
BRANCH   5  23
ATOM     23  O   UNL     1     168.483 171.141 173.087  1.00  0.00    -0.507 OA
ATOM     24  H   UNL     1     168.130 171.568 173.935  1.00  0.00     0.293 HD
ENDBRANCH   5  23
BRANCH   7  25
ATOM     25  O   UNL     1     170.351 166.709 173.350  1.00  0.00    -0.507 OA
ATOM     26  H   UNL     1     171.062 166.030 173.580  1.00  0.00     0.293 HD
ENDBRANCH   7  25
TORSDOF 6
ENDMDL
MODEL 2
REMARK VINA RESULT:    -5.721      3.895      6.131
REMARK INTER + INTRA:          -6.960
REMARK INTER:                  -6.791
REMARK INTRA:                  -0.169
REMARK UNBOUND:                -0.069
REMARK SMILES Oc1cc(O)c2cc(O)c(-c3ccc(O)c(O)c3)[o+]c2c1
REMARK SMILES IDX 10 1 19 2 20 3 21 4 2 5 3 6 4 7 6 8 7 9 8 10 11 11 12 12
REMARK SMILES IDX 13 13 14 14 18 15 16 16 15 17 17 19 9 21 1 23 5 25
REMARK H PARENT 15 18 17 20 9 22 1 24 5 26
REMARK Flexibility Score: inf
ROOT
ATOM      1  C   UNL     1     176.181 169.073 170.461  1.00  0.00     0.402 A 
ATOM      2  O   UNL     1     176.972 168.003 170.479  1.00  0.00    -0.202 OA
ATOM      3  C   UNL     1     176.796 166.953 169.683  1.00  0.00     0.368 A 
ATOM      4  C   UNL     1     177.679 165.874 169.777  1.00  0.00     0.162 A 
ATOM      5  C   UNL     1     177.517 164.757 168.957  1.00  0.00     0.128 A 
ATOM      6  C   UNL     1     176.465 164.716 168.034  1.00  0.00     0.093 A 
ATOM      7  C   UNL     1     175.567 165.784 167.921  1.00  0.00     0.136 A 
ATOM      8  C   UNL     1     175.730 166.924 168.752  1.00  0.00     0.125 A 
ATOM      9  C   UNL     1     174.886 168.045 168.699  1.00  0.00     0.078 A 
ATOM     10  C   UNL     1     175.113 169.134 169.547  1.00  0.00     0.223 A 
ENDROOT
BRANCH   1  11
ATOM     11  C   UNL     1     176.473 170.175 171.405  1.00  0.00     0.087 A 
ATOM     12  C   UNL     1     175.523 170.606 172.346  1.00  0.00     0.022 A 
ATOM     13  C   UNL     1     175.830 171.634 173.242  1.00  0.00     0.051 A 
ATOM     14  C   UNL     1     177.096 172.236 173.220  1.00  0.00     0.157 A 
ATOM     15  C   UNL     1     177.747 170.768 171.401  1.00  0.00     0.068 A 
ATOM     16  C   UNL     1     178.059 171.798 172.296  1.00  0.00     0.158 A 
BRANCH  14  17
ATOM     17  O   UNL     1     177.399 173.262 174.114  1.00  0.00    -0.504 OA
ATOM     18  H   UNL     1     176.831 174.100 174.173  1.00  0.00     0.293 HD
ENDBRANCH  14  17
BRANCH  16  19
ATOM     19  O   UNL     1     179.329 172.371 172.254  1.00  0.00    -0.504 OA
ATOM     20  H   UNL     1     179.882 172.517 173.090  1.00  0.00     0.293 HD
ENDBRANCH  16  19
ENDBRANCH   1  11
BRANCH  10  21
ATOM     21  O   UNL     1     174.306 170.268 169.460  1.00  0.00    -0.500 OA
ATOM     22  H   UNL     1     173.296 170.206 169.495  1.00  0.00     0.294 HD
ENDBRANCH  10  21
BRANCH   5  23
ATOM     23  O   UNL     1     178.408 163.690 169.065  1.00  0.00    -0.507 OA
ATOM     24  H   UNL     1     179.394 163.840 169.239  1.00  0.00     0.293 HD
ENDBRANCH   5  23
BRANCH   7  25
ATOM     25  O   UNL     1     174.541 165.666 166.980  1.00  0.00    -0.507 OA
ATOM     26  H   UNL     1     173.559 165.612 167.208  1.00  0.00     0.293 HD
ENDBRANCH   7  25
TORSDOF 6
ENDMDL
MODEL 3
REMARK VINA RESULT:    -5.684      1.561      2.703
REMARK INTER + INTRA:          -6.917
REMARK INTER:                  -6.579
REMARK INTRA:                  -0.337
REMARK UNBOUND:                -0.069
REMARK SMILES Oc1cc(O)c2cc(O)c(-c3ccc(O)c(O)c3)[o+]c2c1
REMARK SMILES IDX 10 1 19 2 20 3 21 4 2 5 3 6 4 7 6 8 7 9 8 10 11 11 12 12
REMARK SMILES IDX 13 13 14 14 18 15 16 16 15 17 17 19 9 21 1 23 5 25
REMARK H PARENT 15 18 17 20 9 22 1 24 5 26
REMARK Flexibility Score: inf
ROOT
ATOM      1  C   UNL     1     174.438 169.807 172.562  1.00  0.00     0.402 A 
ATOM      2  O   UNL     1     174.311 168.839 173.466  1.00  0.00    -0.202 OA
ATOM      3  C   UNL     1     173.221 168.085 173.580  1.00  0.00     0.368 A 
ATOM      4  C   UNL     1     173.181 167.093 174.564  1.00  0.00     0.162 A 
ATOM      5  C   UNL     1     172.051 166.289 174.708  1.00  0.00     0.128 A 
ATOM      6  C   UNL     1     170.950 166.475 173.863  1.00  0.00     0.093 A 
ATOM      7  C   UNL     1     170.966 167.462 172.870  1.00  0.00     0.136 A 
ATOM      8  C   UNL     1     172.116 168.281 172.718  1.00  0.00     0.125 A 
ATOM      9  C   UNL     1     172.226 169.285 171.743  1.00  0.00     0.078 A 
ATOM     10  C   UNL     1     173.393 170.049 171.651  1.00  0.00     0.223 A 
ENDROOT
BRANCH   1  11
ATOM     11  C   UNL     1     175.697 170.586 172.542  1.00  0.00     0.087 A 
ATOM     12  C   UNL     1     176.749 170.257 171.671  1.00  0.00     0.022 A 
ATOM     13  C   UNL     1     177.919 171.021 171.655  1.00  0.00     0.051 A 
ATOM     14  C   UNL     1     178.049 172.132 172.499  1.00  0.00     0.157 A 
ATOM     15  C   UNL     1     175.824 171.712 173.371  1.00  0.00     0.068 A 
ATOM     16  C   UNL     1     176.994 172.480 173.359  1.00  0.00     0.158 A 
BRANCH  14  17
ATOM     17  O   UNL     1     179.218 172.892 172.482  1.00  0.00    -0.504 OA
ATOM     18  H   UNL     1     179.591 173.311 173.326  1.00  0.00     0.293 HD
ENDBRANCH  14  17
BRANCH  16  19
ATOM     19  O   UNL     1     177.090 173.584 174.205  1.00  0.00    -0.504 OA
ATOM     20  H   UNL     1     176.499 173.689 175.021  1.00  0.00     0.293 HD
ENDBRANCH  16  19
ENDBRANCH   1  11
BRANCH  10  21
ATOM     21  O   UNL     1     173.522 171.012 170.650  1.00  0.00    -0.500 OA
ATOM     22  H   UNL     1     174.364 171.090 170.092  1.00  0.00     0.294 HD
ENDBRANCH  10  21
BRANCH   5  23
ATOM     23  O   UNL     1     172.029 165.305 175.695  1.00  0.00    -0.507 OA
ATOM     24  H   UNL     1     172.331 165.499 176.642  1.00  0.00     0.293 HD
ENDBRANCH   5  23
BRANCH   7  25
ATOM     25  O   UNL     1     169.827 167.588 172.070  1.00  0.00    -0.507 OA
ATOM     26  H   UNL     1     168.886 167.676 172.425  1.00  0.00     0.293 HD
ENDBRANCH   7  25
TORSDOF 6
ENDMDL
MODEL 4
REMARK VINA RESULT:    -5.640      3.717      4.820
REMARK INTER + INTRA:          -6.863
REMARK INTER:                  -6.549
REMARK INTRA:                  -0.314
REMARK UNBOUND:                -0.069
REMARK SMILES Oc1cc(O)c2cc(O)c(-c3ccc(O)c(O)c3)[o+]c2c1
REMARK SMILES IDX 10 1 19 2 20 3 21 4 2 5 3 6 4 7 6 8 7 9 8 10 11 11 12 12
REMARK SMILES IDX 13 13 14 14 18 15 16 16 15 17 17 19 9 21 1 23 5 25
REMARK H PARENT 15 18 17 20 9 22 1 24 5 26
REMARK Flexibility Score: inf
ROOT
ATOM      1  C   UNL     1     175.782 169.337 170.888  1.00  0.00     0.402 A 
ATOM      2  O   UNL     1     175.379 169.653 169.659  1.00  0.00    -0.202 OA
ATOM      3  C   UNL     1     174.917 168.759 168.791  1.00  0.00     0.368 A 
ATOM      4  C   UNL     1     174.519 169.188 167.522  1.00  0.00     0.162 A 
ATOM      5  C   UNL     1     174.033 168.272 166.588  1.00  0.00     0.128 A 
ATOM      6  C   UNL     1     173.943 166.916 166.924  1.00  0.00     0.093 A 
ATOM      7  C   UNL     1     174.335 166.462 168.189  1.00  0.00     0.136 A 
ATOM      8  C   UNL     1     174.828 167.391 169.143  1.00  0.00     0.125 A 
ATOM      9  C   UNL     1     175.231 167.029 170.438  1.00  0.00     0.078 A 
ATOM     10  C   UNL     1     175.702 168.002 171.324  1.00  0.00     0.223 A 
ENDROOT
BRANCH   1  11
ATOM     11  C   UNL     1     176.288 170.422 171.759  1.00  0.00     0.087 A 
ATOM     12  C   UNL     1     175.486 170.990 172.763  1.00  0.00     0.022 A 
ATOM     13  C   UNL     1     175.994 171.998 173.588  1.00  0.00     0.051 A 
ATOM     14  C   UNL     1     177.314 172.442 173.431  1.00  0.00     0.157 A 
ATOM     15  C   UNL     1     177.617 170.856 171.620  1.00  0.00     0.068 A 
ATOM     16  C   UNL     1     178.129 171.866 172.443  1.00  0.00     0.158 A 
BRANCH  14  17
ATOM     17  O   UNL     1     177.817 173.448 174.255  1.00  0.00    -0.504 OA
ATOM     18  H   UNL     1     177.492 173.566 175.207  1.00  0.00     0.293 HD
ENDBRANCH  14  17
BRANCH  16  19
ATOM     19  O   UNL     1     179.449 172.280 172.267  1.00  0.00    -0.504 OA
ATOM     20  H   UNL     1     179.692 173.060 171.668  1.00  0.00     0.293 HD
ENDBRANCH  16  19
ENDBRANCH   1  11
BRANCH  10  21
ATOM     21  O   UNL     1     176.055 167.650 172.626  1.00  0.00    -0.500 OA
ATOM     22  H   UNL     1     176.912 167.983 173.053  1.00  0.00     0.294 HD
ENDBRANCH  10  21
BRANCH   5  23
ATOM     23  O   UNL     1     173.641 168.718 165.328  1.00  0.00    -0.507 OA
ATOM     24  H   UNL     1     174.311 168.839 164.577  1.00  0.00     0.293 HD
ENDBRANCH   5  23
BRANCH   7  25
ATOM     25  O   UNL     1     174.218 165.093 168.446  1.00  0.00    -0.507 OA
ATOM     26  H   UNL     1     174.947 164.523 168.849  1.00  0.00     0.293 HD
ENDBRANCH   7  25
TORSDOF 6
ENDMDL
MODEL 5
REMARK VINA RESULT:    -5.626      3.864      4.436
REMARK INTER + INTRA:          -6.846
REMARK INTER:                  -6.624
REMARK INTRA:                  -0.222
REMARK UNBOUND:                -0.069
REMARK SMILES Oc1cc(O)c2cc(O)c(-c3ccc(O)c(O)c3)[o+]c2c1
REMARK SMILES IDX 10 1 19 2 20 3 21 4 2 5 3 6 4 7 6 8 7 9 8 10 11 11 12 12
REMARK SMILES IDX 13 13 14 14 18 15 16 16 15 17 17 19 9 21 1 23 5 25
REMARK H PARENT 15 18 17 20 9 22 1 24 5 26
REMARK Flexibility Score: inf
ROOT
ATOM      1  C   UNL     1     174.506 170.611 170.725  1.00  0.00     0.402 A 
ATOM      2  O   UNL     1     174.666 170.641 169.404  1.00  0.00    -0.202 OA
ATOM      3  C   UNL     1     173.711 170.299 168.546  1.00  0.00     0.368 A 
ATOM      4  C   UNL     1     173.976 170.362 167.175  1.00  0.00     0.162 A 
ATOM      5  C   UNL     1     172.994 170.006 166.250  1.00  0.00     0.128 A 
ATOM      6  C   UNL     1     171.736 169.584 166.697  1.00  0.00     0.093 A 
ATOM      7  C   UNL     1     171.446 169.513 168.065  1.00  0.00     0.136 A 
ATOM      8  C   UNL     1     172.442 169.877 169.009  1.00  0.00     0.125 A 
ATOM      9  C   UNL     1     172.237 169.849 170.398  1.00  0.00     0.078 A 
ATOM     10  C   UNL     1     173.265 170.227 171.266  1.00  0.00     0.223 A 
ENDROOT
BRANCH   1  11
ATOM     11  C   UNL     1     175.649 171.005 171.578  1.00  0.00     0.087 A 
ATOM     12  C   UNL     1     176.260 170.091 172.454  1.00  0.00     0.022 A 
ATOM     13  C   UNL     1     177.353 170.481 173.233  1.00  0.00     0.051 A 
ATOM     14  C   UNL     1     177.860 171.784 173.139  1.00  0.00     0.157 A 
ATOM     15  C   UNL     1     176.174 172.304 171.473  1.00  0.00     0.068 A 
ATOM     16  C   UNL     1     177.269 172.698 172.252  1.00  0.00     0.158 A 
BRANCH  14  17
ATOM     17  O   UNL     1     178.949 172.169 173.919  1.00  0.00    -0.504 OA
ATOM     18  H   UNL     1     179.677 172.772 173.553  1.00  0.00     0.293 HD
ENDBRANCH  14  17
BRANCH  16  19
ATOM     19  O   UNL     1     177.754 173.999 172.129  1.00  0.00    -0.504 OA
ATOM     20  H   UNL     1     177.173 174.809 172.308  1.00  0.00     0.293 HD
ENDBRANCH  16  19
ENDBRANCH   1  11
BRANCH  10  21
ATOM     21  O   UNL     1     173.045 170.247 172.643  1.00  0.00    -0.500 OA
ATOM     22  H   UNL     1     172.283 169.733 173.068  1.00  0.00     0.294 HD
ENDBRANCH  10  21
BRANCH   5  23
ATOM     23  O   UNL     1     173.276 170.074 164.887  1.00  0.00    -0.507 OA
ATOM     24  H   UNL     1     173.202 169.260 164.290  1.00  0.00     0.293 HD
ENDBRANCH   5  23
BRANCH   7  25
ATOM     25  O   UNL     1     170.169 169.079 168.430  1.00  0.00    -0.507 OA
ATOM     26  H   UNL     1     169.702 169.335 169.289  1.00  0.00     0.293 HD
ENDBRANCH   7  25
TORSDOF 6
ENDMDL
MODEL 6
REMARK VINA RESULT:    -5.603      3.613      4.153
REMARK INTER + INTRA:          -6.819
REMARK INTER:                  -6.650
REMARK INTRA:                  -0.169
REMARK UNBOUND:                -0.069
REMARK SMILES Oc1cc(O)c2cc(O)c(-c3ccc(O)c(O)c3)[o+]c2c1
REMARK SMILES IDX 10 1 19 2 20 3 21 4 2 5 3 6 4 7 6 8 7 9 8 10 11 11 12 12
REMARK SMILES IDX 13 13 14 14 18 15 16 16 15 17 17 19 9 21 1 23 5 25
REMARK H PARENT 15 18 17 20 9 22 1 24 5 26
REMARK Flexibility Score: inf
ROOT
ATOM      1  C   UNL     1     175.878 168.627 172.461  1.00  0.00     0.402 A 
ATOM      2  O   UNL     1     175.423 168.098 173.595  1.00  0.00    -0.202 OA
ATOM      3  C   UNL     1     174.956 166.857 173.684  1.00  0.00     0.368 A 
ATOM      4  C   UNL     1     174.498 166.391 174.919  1.00  0.00     0.162 A 
ATOM      5  C   UNL     1     174.000 165.094 175.043  1.00  0.00     0.128 A 
ATOM      6  C   UNL     1     173.959 164.253 173.924  1.00  0.00     0.093 A 
ATOM      7  C   UNL     1     174.412 164.696 172.676  1.00  0.00     0.136 A 
ATOM      8  C   UNL     1     174.922 166.015 172.547  1.00  0.00     0.125 A 
ATOM      9  C   UNL     1     175.410 166.540 171.339  1.00  0.00     0.078 A 
ATOM     10  C   UNL     1     175.902 167.847 171.290  1.00  0.00     0.223 A 
ENDROOT
BRANCH   1  11
ATOM     11  C   UNL     1     176.362 170.026 172.487  1.00  0.00     0.087 A 
ATOM     12  C   UNL     1     175.795 171.013 171.663  1.00  0.00     0.022 A 
ATOM     13  C   UNL     1     176.253 172.332 171.721  1.00  0.00     0.051 A 
ATOM     14  C   UNL     1     177.275 172.687 172.612  1.00  0.00     0.157 A 
ATOM     15  C   UNL     1     177.371 170.391 173.392  1.00  0.00     0.068 A 
ATOM     16  C   UNL     1     177.834 171.711 173.453  1.00  0.00     0.158 A 
BRANCH  14  17
ATOM     17  O   UNL     1     177.731 174.003 172.666  1.00  0.00    -0.504 OA
ATOM     18  H   UNL     1     178.333 174.326 173.415  1.00  0.00     0.293 HD
ENDBRANCH  14  17
BRANCH  16  19
ATOM     19  O   UNL     1     178.847 172.033 174.356  1.00  0.00    -0.504 OA
ATOM     20  H   UNL     1     179.472 171.333 174.736  1.00  0.00     0.293 HD
ENDBRANCH  16  19
ENDBRANCH   1  11
BRANCH  10  21
ATOM     21  O   UNL     1     176.432 168.352 170.103  1.00  0.00    -0.500 OA
ATOM     22  H   UNL     1     176.505 167.782 169.269  1.00  0.00     0.294 HD
ENDBRANCH  10  21
BRANCH   5  23
ATOM     23  O   UNL     1     173.547 164.647 176.283  1.00  0.00    -0.507 OA
ATOM     24  H   UNL     1     173.113 165.277 176.946  1.00  0.00     0.293 HD
ENDBRANCH   5  23
BRANCH   7  25
ATOM     25  O   UNL     1     174.335 163.799 171.607  1.00  0.00    -0.507 OA
ATOM     26  H   UNL     1     173.953 164.023 170.700  1.00  0.00     0.293 HD
ENDBRANCH   7  25
TORSDOF 6
ENDMDL
MODEL 7
REMARK VINA RESULT:    -5.578      2.557      2.642
REMARK INTER + INTRA:          -6.788
REMARK INTER:                  -6.462
REMARK INTRA:                  -0.327
REMARK UNBOUND:                -0.069
REMARK SMILES Oc1cc(O)c2cc(O)c(-c3ccc(O)c(O)c3)[o+]c2c1
REMARK SMILES IDX 10 1 19 2 20 3 21 4 2 5 3 6 4 7 6 8 7 9 8 10 11 11 12 12
REMARK SMILES IDX 13 13 14 14 18 15 16 16 15 17 17 19 9 21 1 23 5 25
REMARK H PARENT 15 18 17 20 9 22 1 24 5 26
REMARK Flexibility Score: inf
ROOT
ATOM      1  C   UNL     1     174.488 170.364 171.129  1.00  0.00     0.402 A 
ATOM      2  O   UNL     1     173.276 170.672 171.585  1.00  0.00    -0.202 OA
ATOM      3  C   UNL     1     172.153 170.236 171.024  1.00  0.00     0.368 A 
ATOM      4  C   UNL     1     170.926 170.616 171.575  1.00  0.00     0.162 A 
ATOM      5  C   UNL     1     169.731 170.176 171.005  1.00  0.00     0.128 A 
ATOM      6  C   UNL     1     169.759 169.349 169.876  1.00  0.00     0.093 A 
ATOM      7  C   UNL     1     170.975 168.955 169.305  1.00  0.00     0.136 A 
ATOM      8  C   UNL     1     172.194 169.398 169.884  1.00  0.00     0.125 A 
ATOM      9  C   UNL     1     173.458 169.043 169.388  1.00  0.00     0.078 A 
ATOM     10  C   UNL     1     174.616 169.515 170.014  1.00  0.00     0.223 A 
ENDROOT
BRANCH   1  11
ATOM     11  C   UNL     1     175.664 170.921 171.834  1.00  0.00     0.087 A 
ATOM     12  C   UNL     1     176.378 170.165 172.779  1.00  0.00     0.022 A 
ATOM     13  C   UNL     1     177.499 170.705 173.416  1.00  0.00     0.051 A 
ATOM     14  C   UNL     1     177.930 172.003 173.108  1.00  0.00     0.157 A 
ATOM     15  C   UNL     1     176.112 172.213 171.514  1.00  0.00     0.068 A 
ATOM     16  C   UNL     1     177.234 172.758 172.150  1.00  0.00     0.158 A 
BRANCH  14  17
ATOM     17  O   UNL     1     179.048 172.539 173.745  1.00  0.00    -0.504 OA
ATOM     18  H   UNL     1     179.988 172.343 173.422  1.00  0.00     0.293 HD
ENDBRANCH  14  17
BRANCH  16  19
ATOM     19  O   UNL     1     177.642 174.049 171.815  1.00  0.00    -0.504 OA
ATOM     20  H   UNL     1     178.603 174.265 171.579  1.00  0.00     0.293 HD
ENDBRANCH  16  19
ENDBRANCH   1  11
BRANCH  10  21
ATOM     21  O   UNL     1     175.871 169.121 169.552  1.00  0.00    -0.500 OA
ATOM     22  H   UNL     1     175.977 168.422 168.827  1.00  0.00     0.294 HD
ENDBRANCH  10  21
BRANCH   5  23
ATOM     23  O   UNL     1     168.517 170.566 171.569  1.00  0.00    -0.507 OA
ATOM     24  H   UNL     1     168.474 171.016 172.475  1.00  0.00     0.293 HD
ENDBRANCH   5  23
BRANCH   7  25
ATOM     25  O   UNL     1     170.920 168.132 168.177  1.00  0.00    -0.507 OA
ATOM     26  H   UNL     1     170.167 168.134 167.505  1.00  0.00     0.293 HD
ENDBRANCH   7  25
TORSDOF 6
ENDMDL
MODEL 8
REMARK VINA RESULT:    -5.569      3.012      5.018
REMARK INTER + INTRA:          -6.778
REMARK INTER:                  -6.447
REMARK INTRA:                  -0.331
REMARK UNBOUND:                -0.069
REMARK SMILES Oc1cc(O)c2cc(O)c(-c3ccc(O)c(O)c3)[o+]c2c1
REMARK SMILES IDX 10 1 19 2 20 3 21 4 2 5 3 6 4 7 6 8 7 9 8 10 11 11 12 12
REMARK SMILES IDX 13 13 14 14 18 15 16 16 15 17 17 19 9 21 1 23 5 25
REMARK H PARENT 15 18 17 20 9 22 1 24 5 26
REMARK Flexibility Score: inf
ROOT
ATOM      1  C   UNL     1     175.798 168.651 172.256  1.00  0.00     0.402 A 
ATOM      2  O   UNL     1     176.499 167.768 171.549  1.00  0.00    -0.202 OA
ATOM      3  C   UNL     1     176.140 166.495 171.411  1.00  0.00     0.368 A 
ATOM      4  C   UNL     1     176.944 165.642 170.649  1.00  0.00     0.162 A 
ATOM      5  C   UNL     1     176.594 164.301 170.489  1.00  0.00     0.128 A 
ATOM      6  C   UNL     1     175.434 163.806 171.094  1.00  0.00     0.093 A 
ATOM      7  C   UNL     1     174.613 164.640 171.862  1.00  0.00     0.136 A 
ATOM      8  C   UNL     1     174.963 166.006 172.025  1.00  0.00     0.125 A 
ATOM      9  C   UNL     1     174.194 166.918 172.766  1.00  0.00     0.078 A 
ATOM     10  C   UNL     1     174.601 168.250 172.878  1.00  0.00     0.223 A 
ENDROOT
BRANCH   1  11
ATOM     11  C   UNL     1     176.307 170.038 172.344  1.00  0.00     0.087 A 
ATOM     12  C   UNL     1     175.818 171.053 171.505  1.00  0.00     0.022 A 
ATOM     13  C   UNL     1     176.297 172.361 171.623  1.00  0.00     0.051 A 
ATOM     14  C   UNL     1     177.262 172.675 172.589  1.00  0.00     0.157 A 
ATOM     15  C   UNL     1     177.258 170.363 173.325  1.00  0.00     0.068 A 
ATOM     16  C   UNL     1     177.742 171.671 173.447  1.00  0.00     0.158 A 
BRANCH  14  17
ATOM     17  O   UNL     1     177.739 173.980 172.703  1.00  0.00    -0.504 OA
ATOM     18  H   UNL     1     177.322 174.644 173.346  1.00  0.00     0.293 HD
ENDBRANCH  14  17
BRANCH  16  19
ATOM     19  O   UNL     1     178.695 171.954 174.424  1.00  0.00    -0.504 OA
ATOM     20  H   UNL     1     179.676 172.072 174.200  1.00  0.00     0.293 HD
ENDBRANCH  16  19
ENDBRANCH   1  11
BRANCH  10  21
ATOM     21  O   UNL     1     173.811 169.167 173.571  1.00  0.00    -0.500 OA
ATOM     22  H   UNL     1     173.836 169.233 174.582  1.00  0.00     0.294 HD
ENDBRANCH  10  21
BRANCH   5  23
ATOM     23  O   UNL     1     177.408 163.465 169.725  1.00  0.00    -0.507 OA
ATOM     24  H   UNL     1     178.418 163.541 169.752  1.00  0.00     0.293 HD
ENDBRANCH   5  23
BRANCH   7  25
ATOM     25  O   UNL     1     173.473 164.070 172.437  1.00  0.00    -0.507 OA
ATOM     26  H   UNL     1     173.488 163.403 173.195  1.00  0.00     0.293 HD
ENDBRANCH   7  25
TORSDOF 6
ENDMDL
MODEL 9
REMARK VINA RESULT:    -5.498      3.482      4.004
REMARK INTER + INTRA:          -6.693
REMARK INTER:                  -6.343
REMARK INTRA:                  -0.349
REMARK UNBOUND:                -0.069
REMARK SMILES Oc1cc(O)c2cc(O)c(-c3ccc(O)c(O)c3)[o+]c2c1
REMARK SMILES IDX 10 1 19 2 20 3 21 4 2 5 3 6 4 7 6 8 7 9 8 10 11 11 12 12
REMARK SMILES IDX 13 13 14 14 18 15 16 16 15 17 17 19 9 21 1 23 5 25
REMARK H PARENT 15 18 17 20 9 22 1 24 5 26
REMARK Flexibility Score: inf
ROOT
ATOM      1  C   UNL     1     175.357 170.055 170.939  1.00  0.00     0.402 A 
ATOM      2  O   UNL     1     174.708 170.623 169.925  1.00  0.00    -0.202 OA
ATOM      3  C   UNL     1     173.877 169.959 169.128  1.00  0.00     0.368 A 
ATOM      4  C   UNL     1     173.243 170.644 168.087  1.00  0.00     0.162 A 
ATOM      5  C   UNL     1     172.367 169.973 167.233  1.00  0.00     0.128 A 
ATOM      6  C   UNL     1     172.121 168.608 167.418  1.00  0.00     0.093 A 
ATOM      7  C   UNL     1     172.744 167.900 168.454  1.00  0.00     0.136 A 
ATOM      8  C   UNL     1     173.633 168.579 169.327  1.00  0.00     0.125 A 
ATOM      9  C   UNL     1     174.292 167.955 170.398  1.00  0.00     0.078 A 
ATOM     10  C   UNL     1     175.151 168.691 171.219  1.00  0.00     0.223 A 
ENDROOT
BRANCH   1  11
ATOM     11  C   UNL     1     176.266 170.897 171.748  1.00  0.00     0.087 A 
ATOM     12  C   UNL     1     175.812 171.578 172.890  1.00  0.00     0.022 A 
ATOM     13  C   UNL     1     176.695 172.349 173.651  1.00  0.00     0.051 A 
ATOM     14  C   UNL     1     178.046 172.440 173.290  1.00  0.00     0.157 A 
ATOM     15  C   UNL     1     177.625 170.975 171.403  1.00  0.00     0.068 A 
ATOM     16  C   UNL     1     178.513 171.747 172.161  1.00  0.00     0.158 A 
BRANCH  14  17
ATOM     17  O   UNL     1     178.923 173.212 174.051  1.00  0.00    -0.504 OA
ATOM     18  H   UNL     1     178.860 173.246 175.062  1.00  0.00     0.293 HD
ENDBRANCH  14  17
BRANCH  16  19
ATOM     19  O   UNL     1     179.852 171.811 171.780  1.00  0.00    -0.504 OA
ATOM     20  H   UNL     1     180.291 172.680 171.501  1.00  0.00     0.293 HD
ENDBRANCH  16  19
ENDBRANCH   1  11
BRANCH  10  21
ATOM     21  O   UNL     1     175.765 168.083 172.313  1.00  0.00    -0.500 OA
ATOM     22  H   UNL     1     175.251 167.863 173.158  1.00  0.00     0.294 HD
ENDBRANCH  10  21
BRANCH   5  23
ATOM     23  O   UNL     1     171.745 170.672 166.200  1.00  0.00    -0.507 OA
ATOM     24  H   UNL     1     172.267 171.284 165.585  1.00  0.00     0.293 HD
ENDBRANCH   5  23
BRANCH   7  25
ATOM     25  O   UNL     1     172.449 166.539 168.571  1.00  0.00    -0.507 OA
ATOM     26  H   UNL     1     171.872 166.140 169.297  1.00  0.00     0.293 HD
ENDBRANCH   7  25
TORSDOF 6
ENDMDL
