MODEL 1
REMARK VINA RESULT:    -5.351      0.000      0.000
REMARK INTER + INTRA:         -10.820
REMARK INTER:                  -9.730
REMARK INTRA:                  -1.090
REMARK UNBOUND:                -1.090
REMARK SMILES CCCCCCCCCCCCCCCC(=O)[O-]
REMARK SMILES IDX 9 1 10 2 11 3 12 4 13 5 14 6 15 7 16 8 17 9 18 10 8 11 7 12
REMARK SMILES IDX 6 13 5 14 4 15 3 16 2 17 1 18
REMARK H PARENT
REMARK Flexibility Score: inf
ROOT
ATOM      1  C   UNL     1      48.435  27.503  15.900  1.00  0.00     0.000 C 
ENDROOT
BRANCH   1   2
ATOM      2  C   UNL     1      49.717  28.309  16.154  1.00  0.00     0.000 C 
BRANCH   2   3
ATOM      3  C   UNL     1      49.400  29.799  16.347  1.00  0.00     0.000 C 
BRANCH   3   4
ATOM      4  C   UNL     1      48.104  30.037  17.140  1.00  0.00     0.000 C 
BRANCH   4   5
ATOM      5  C   UNL     1      48.079  31.334  17.976  1.00  0.00     0.000 C 
BRANCH   5   6
ATOM      6  C   UNL     1      49.189  32.351  17.639  1.00  0.00     0.006 C 
BRANCH   6   7
ATOM      7  C   UNL     1      48.678  33.766  17.325  1.00  0.00     0.053 C 
BRANCH   7   8
ATOM      8  C   UNL     1      47.736  33.774  16.161  1.00  0.00     0.041 C 
ATOM      9  O   UNL     1      48.046  33.186  15.091  1.00  0.00    -0.550 OA
ATOM     10  O   UNL     1      46.502  34.403  16.268  1.00  0.00    -0.550 OA
ENDBRANCH   7   8
ENDBRANCH   6   7
ENDBRANCH   5   6
ENDBRANCH   4   5
ENDBRANCH   3   4
ENDBRANCH   2   3
ENDBRANCH   1   2
BRANCH   1  11
ATOM     11  C   UNL     1      48.271  26.325  16.873  1.00  0.00     0.000 C 
BRANCH  11  12
ATOM     12  C   UNL     1      49.588  25.574  17.120  1.00  0.00    -0.000 C 
BRANCH  12  13
ATOM     13  C   UNL     1      49.671  25.076  18.570  1.00  0.00    -0.000 C 
BRANCH  13  14
ATOM     14  C   UNL     1      48.472  25.524  19.426  1.00  0.00    -0.000 C 
BRANCH  14  15
ATOM     15  C   UNL     1      48.675  25.402  20.950  1.00  0.00    -0.000 C 
BRANCH  15  16
ATOM     16  C   UNL     1      48.309  26.658  21.760  1.00  0.00    -0.000 C 
BRANCH  16  17
ATOM     17  C   UNL     1      49.386  27.042  22.784  1.00  0.00    -0.003 C 
ATOM     18  C   UNL     1      50.777  26.660  22.288  1.00  0.00     0.004 C 
ENDBRANCH  16  17
ENDBRANCH  15  16
ENDBRANCH  14  15
ENDBRANCH  13  14
ENDBRANCH  12  13
ENDBRANCH  11  12
ENDBRANCH   1  11
TORSDOF 14
ENDMDL
MODEL 2
REMARK VINA RESULT:    -5.134      2.319      4.438
REMARK INTER + INTRA:         -10.426
REMARK INTER:                  -9.262
REMARK INTRA:                  -1.164
REMARK UNBOUND:                -1.090
REMARK SMILES CCCCCCCCCCCCCCCC(=O)[O-]
REMARK SMILES IDX 9 1 10 2 11 3 12 4 13 5 14 6 15 7 16 8 17 9 18 10 8 11 7 12
REMARK SMILES IDX 6 13 5 14 4 15 3 16 2 17 1 18
REMARK H PARENT
REMARK Flexibility Score: inf
ROOT
ATOM      1  C   UNL     1      48.660  31.543  17.621  1.00  0.00     0.000 C 
ENDROOT
BRANCH   1   2
ATOM      2  C   UNL     1      49.524  32.774  17.928  1.00  0.00     0.000 C 
BRANCH   2   3
ATOM      3  C   UNL     1      48.929  34.036  17.286  1.00  0.00     0.000 C 
BRANCH   3   4
ATOM      4  C   UNL     1      47.469  33.849  16.839  1.00  0.00     0.000 C 
BRANCH   4   5
ATOM      5  C   UNL     1      47.190  34.191  15.361  1.00  0.00     0.000 C 
BRANCH   5   6
ATOM      6  C   UNL     1      48.164  33.556  14.347  1.00  0.00     0.006 C 
BRANCH   6   7
ATOM      7  C   UNL     1      48.649  34.514  13.248  1.00  0.00     0.053 C 
BRANCH   7   8
ATOM      8  C   UNL     1      49.047  33.781  12.004  1.00  0.00     0.041 C 
ATOM      9  O   UNL     1      50.243  33.807  11.607  1.00  0.00    -0.550 OA
ATOM     10  O   UNL     1      48.105  33.042  11.300  1.00  0.00    -0.550 OA
ENDBRANCH   7   8
ENDBRANCH   6   7
ENDBRANCH   5   6
ENDBRANCH   4   5
ENDBRANCH   3   4
ENDBRANCH   2   3
ENDBRANCH   1   2
BRANCH   1  11
ATOM     11  C   UNL     1      49.214  30.704  16.458  1.00  0.00     0.000 C 
BRANCH  11  12
ATOM     12  C   UNL     1      48.127  29.879  15.753  1.00  0.00    -0.000 C 
BRANCH  12  13
ATOM     13  C   UNL     1      47.944  28.516  16.436  1.00  0.00    -0.000 C 
BRANCH  13  14
ATOM     14  C   UNL     1      48.611  27.364  15.662  1.00  0.00    -0.000 C 
BRANCH  14  15
ATOM     15  C   UNL     1      48.536  25.986  16.348  1.00  0.00    -0.000 C 
BRANCH  15  16
ATOM     16  C   UNL     1      49.867  25.472  16.927  1.00  0.00    -0.000 C 
BRANCH  16  17
ATOM     17  C   UNL     1      49.936  25.587  18.456  1.00  0.00    -0.003 C 
ATOM     18  C   UNL     1      48.545  25.509  19.077  1.00  0.00     0.004 C 
ENDBRANCH  16  17
ENDBRANCH  15  16
ENDBRANCH  14  15
ENDBRANCH  13  14
ENDBRANCH  12  13
ENDBRANCH  11  12
ENDBRANCH   1  11
TORSDOF 14
ENDMDL
MODEL 3
REMARK VINA RESULT:    -5.123      3.555      7.448
REMARK INTER + INTRA:         -10.405
REMARK INTER:                  -9.140
REMARK INTRA:                  -1.265
REMARK UNBOUND:                -1.090
REMARK SMILES CCCCCCCCCCCCCCCC(=O)[O-]
REMARK SMILES IDX 9 1 10 2 11 3 12 4 13 5 14 6 15 7 16 8 17 9 18 10 8 11 7 12
REMARK SMILES IDX 6 13 5 14 4 15 3 16 2 17 1 18
REMARK H PARENT
REMARK Flexibility Score: inf
ROOT
ATOM      1  C   UNL     1      48.958  27.560  17.464  1.00  0.00     0.000 C 
ENDROOT
BRANCH   1   2
ATOM      2  C   UNL     1      49.626  26.618  18.475  1.00  0.00     0.000 C 
BRANCH   2   3
ATOM      3  C   UNL     1      48.636  25.555  18.973  1.00  0.00     0.000 C 
BRANCH   3   4
ATOM      4  C   UNL     1      48.754  25.287  20.483  1.00  0.00     0.000 C 
BRANCH   4   5
ATOM      5  C   UNL     1      48.435  26.494  21.388  1.00  0.00     0.000 C 
BRANCH   5   6
ATOM      6  C   UNL     1      49.425  26.724  22.547  1.00  0.00     0.006 C 
BRANCH   6   7
ATOM      7  C   UNL     1      50.691  25.855  22.482  1.00  0.00     0.053 C 
BRANCH   7   8
ATOM      8  C   UNL     1      51.864  26.614  21.943  1.00  0.00     0.041 C 
ATOM      9  O   UNL     1      52.300  26.369  20.787  1.00  0.00    -0.550 OA
ATOM     10  O   UNL     1      52.453  27.615  22.704  1.00  0.00    -0.550 OA
ENDBRANCH   7   8
ENDBRANCH   6   7
ENDBRANCH   5   6
ENDBRANCH   4   5
ENDBRANCH   3   4
ENDBRANCH   2   3
ENDBRANCH   1   2
BRANCH   1  11
ATOM     11  C   UNL     1      49.938  28.583  16.868  1.00  0.00     0.000 C 
BRANCH  11  12
ATOM     12  C   UNL     1      49.245  29.882  16.431  1.00  0.00    -0.000 C 
BRANCH  12  13
ATOM     13  C   UNL     1      48.009  30.162  17.298  1.00  0.00    -0.000 C 
BRANCH  13  14
ATOM     14  C   UNL     1      48.151  31.436  18.149  1.00  0.00    -0.000 C 
BRANCH  14  15
ATOM     15  C   UNL     1      49.301  32.375  17.734  1.00  0.00    -0.000 C 
BRANCH  15  16
ATOM     16  C   UNL     1      48.880  33.819  17.407  1.00  0.00    -0.000 C 
BRANCH  16  17
ATOM     17  C   UNL     1      47.635  33.888  16.512  1.00  0.00    -0.003 C 
ATOM     18  C   UNL     1      47.995  33.647  15.049  1.00  0.00     0.004 C 
ENDBRANCH  16  17
ENDBRANCH  15  16
ENDBRANCH  14  15
ENDBRANCH  13  14
ENDBRANCH  12  13
ENDBRANCH  11  12
ENDBRANCH   1  11
TORSDOF 14
ENDMDL
MODEL 4
REMARK VINA RESULT:    -5.113      1.427      3.311
REMARK INTER + INTRA:         -10.387
REMARK INTER:                  -8.860
REMARK INTRA:                  -1.528
REMARK UNBOUND:                -1.090
REMARK SMILES CCCCCCCCCCCCCCCC(=O)[O-]
REMARK SMILES IDX 9 1 10 2 11 3 12 4 13 5 14 6 15 7 16 8 17 9 18 10 8 11 7 12
REMARK SMILES IDX 6 13 5 14 4 15 3 16 2 17 1 18
REMARK H PARENT
REMARK Flexibility Score: inf
ROOT
ATOM      1  C   UNL     1      49.843  25.238  18.806  1.00  0.00     0.000 C 
ENDROOT
BRANCH   1   2
ATOM      2  C   UNL     1      49.931  25.424  17.284  1.00  0.00     0.000 C 
BRANCH   2   3
ATOM      3  C   UNL     1      48.619  25.991  16.723  1.00  0.00     0.000 C 
BRANCH   3   4
ATOM      4  C   UNL     1      48.842  27.114  15.696  1.00  0.00     0.000 C 
BRANCH   4   5
ATOM      5  C   UNL     1      48.119  28.439  16.011  1.00  0.00     0.000 C 
BRANCH   5   6
ATOM      6  C   UNL     1      48.701  29.238  17.195  1.00  0.00     0.006 C 
BRANCH   6   7
ATOM      7  C   UNL     1      47.817  30.402  17.671  1.00  0.00     0.053 C 
BRANCH   7   8
ATOM      8  C   UNL     1      48.521  31.719  17.563  1.00  0.00     0.041 C 
ATOM      9  O   UNL     1      49.765  31.790  17.753  1.00  0.00    -0.550 OA
ATOM     10  O   UNL     1      47.811  32.862  17.221  1.00  0.00    -0.550 OA
ENDBRANCH   7   8
ENDBRANCH   6   7
ENDBRANCH   5   6
ENDBRANCH   4   5
ENDBRANCH   3   4
ENDBRANCH   2   3
ENDBRANCH   1   2
BRANCH   1  11
ATOM     11  C   UNL     1      48.484  25.669  19.379  1.00  0.00     0.000 C 
BRANCH  11  12
ATOM     12  C   UNL     1      48.306  25.265  20.850  1.00  0.00    -0.000 C 
BRANCH  12  13
ATOM     13  C   UNL     1      48.326  26.498  21.763  1.00  0.00    -0.000 C 
BRANCH  13  14
ATOM     14  C   UNL     1      49.597  26.582  22.628  1.00  0.00    -0.000 C 
BRANCH  14  15
ATOM     15  C   UNL     1      50.422  25.282  22.707  1.00  0.00    -0.000 C 
BRANCH  15  16
ATOM     16  C   UNL     1      51.903  25.424  22.314  1.00  0.00    -0.000 C 
BRANCH  16  17
ATOM     17  C   UNL     1      52.244  26.816  21.766  1.00  0.00    -0.003 C 
ATOM     18  C   UNL     1      52.912  26.721  20.397  1.00  0.00     0.004 C 
ENDBRANCH  16  17
ENDBRANCH  15  16
ENDBRANCH  14  15
ENDBRANCH  13  14
ENDBRANCH  12  13
ENDBRANCH  11  12
ENDBRANCH   1  11
TORSDOF 14
ENDMDL
MODEL 5
REMARK VINA RESULT:    -5.084      1.654      2.096
REMARK INTER + INTRA:         -10.335
REMARK INTER:                  -8.979
REMARK INTRA:                  -1.355
REMARK UNBOUND:                -1.090
REMARK SMILES CCCCCCCCCCCCCCCC(=O)[O-]
REMARK SMILES IDX 9 1 10 2 11 3 12 4 13 5 14 6 15 7 16 8 17 9 18 10 8 11 7 12
REMARK SMILES IDX 6 13 5 14 4 15 3 16 2 17 1 18
REMARK H PARENT
REMARK Flexibility Score: inf
ROOT
ATOM      1  C   UNL     1      49.666  27.871  15.987  1.00  0.00     0.000 C 
ENDROOT
BRANCH   1   2
ATOM      2  C   UNL     1      48.792  28.721  16.920  1.00  0.00     0.000 C 
BRANCH   2   3
ATOM      3  C   UNL     1      47.465  29.091  16.243  1.00  0.00     0.000 C 
BRANCH   3   4
ATOM      4  C   UNL     1      47.656  29.950  14.981  1.00  0.00     0.000 C 
BRANCH   4   5
ATOM      5  C   UNL     1      48.588  31.167  15.154  1.00  0.00     0.000 C 
BRANCH   5   6
ATOM      6  C   UNL     1      47.876  32.497  15.479  1.00  0.00     0.006 C 
BRANCH   6   7
ATOM      7  C   UNL     1      48.502  33.284  16.640  1.00  0.00     0.053 C 
BRANCH   7   8
ATOM      8  C   UNL     1      48.899  32.388  17.773  1.00  0.00     0.041 C 
ATOM      9  O   UNL     1      48.018  31.798  18.454  1.00  0.00    -0.550 OA
ATOM     10  O   UNL     1      50.242  32.178  18.056  1.00  0.00    -0.550 OA
ENDBRANCH   7   8
ENDBRANCH   6   7
ENDBRANCH   5   6
ENDBRANCH   4   5
ENDBRANCH   3   4
ENDBRANCH   2   3
ENDBRANCH   1   2
BRANCH   1  11
ATOM     11  C   UNL     1      49.097  26.461  15.761  1.00  0.00     0.000 C 
BRANCH  11  12
ATOM     12  C   UNL     1      48.746  25.747  17.076  1.00  0.00    -0.000 C 
BRANCH  12  13
ATOM     13  C   UNL     1      49.999  25.135  17.717  1.00  0.00    -0.000 C 
BRANCH  13  14
ATOM     14  C   UNL     1      49.942  25.130  19.256  1.00  0.00    -0.000 C 
BRANCH  14  15
ATOM     15  C   UNL     1      49.009  26.188  19.879  1.00  0.00    -0.000 C 
BRANCH  15  16
ATOM     16  C   UNL     1      48.350  25.776  21.207  1.00  0.00    -0.000 C 
BRANCH  16  17
ATOM     17  C   UNL     1      48.691  26.727  22.362  1.00  0.00    -0.003 C 
ATOM     18  C   UNL     1      50.188  26.721  22.657  1.00  0.00     0.004 C 
ENDBRANCH  16  17
ENDBRANCH  15  16
ENDBRANCH  14  15
ENDBRANCH  13  14
ENDBRANCH  12  13
ENDBRANCH  11  12
ENDBRANCH   1  11
TORSDOF 14
ENDMDL
MODEL 6
REMARK VINA RESULT:    -5.073      2.779      5.359
REMARK INTER + INTRA:         -10.316
REMARK INTER:                  -8.904
REMARK INTRA:                  -1.412
REMARK UNBOUND:                -1.090
REMARK SMILES CCCCCCCCCCCCCCCC(=O)[O-]
REMARK SMILES IDX 9 1 10 2 11 3 12 4 13 5 14 6 15 7 16 8 17 9 18 10 8 11 7 12
REMARK SMILES IDX 6 13 5 14 4 15 3 16 2 17 1 18
REMARK H PARENT
REMARK Flexibility Score: inf
ROOT
ATOM      1  C   UNL     1      49.154  32.393  17.423  1.00  0.00     0.000 C 
ENDROOT
BRANCH   1   2
ATOM      2  C   UNL     1      48.731  33.846  17.158  1.00  0.00     0.000 C 
BRANCH   2   3
ATOM      3  C   UNL     1      47.654  33.914  16.066  1.00  0.00     0.000 C 
BRANCH   3   4
ATOM      4  C   UNL     1      48.134  33.351  14.717  1.00  0.00     0.000 C 
BRANCH   4   5
ATOM      5  C   UNL     1      48.281  34.393  13.589  1.00  0.00     0.000 C 
BRANCH   5   6
ATOM      6  C   UNL     1      47.100  34.458  12.599  1.00  0.00     0.006 C 
BRANCH   6   7
ATOM      7  C   UNL     1      46.351  35.800  12.593  1.00  0.00     0.053 C 
BRANCH   7   8
ATOM      8  C   UNL     1      45.008  35.692  13.248  1.00  0.00     0.041 C 
ATOM      9  O   UNL     1      44.922  35.491  14.489  1.00  0.00    -0.550 OA
ATOM     10  O   UNL     1      43.852  35.847  12.495  1.00  0.00    -0.550 OA
ENDBRANCH   7   8
ENDBRANCH   6   7
ENDBRANCH   5   6
ENDBRANCH   4   5
ENDBRANCH   3   4
ENDBRANCH   2   3
ENDBRANCH   1   2
BRANCH   1  11
ATOM     11  C   UNL     1      48.095  31.600  18.205  1.00  0.00     0.000 C 
BRANCH  11  12
ATOM     12  C   UNL     1      47.934  30.162  17.692  1.00  0.00    -0.000 C 
BRANCH  12  13
ATOM     13  C   UNL     1      47.387  30.151  16.257  1.00  0.00    -0.000 C 
BRANCH  13  14
ATOM     14  C   UNL     1      48.157  29.192  15.331  1.00  0.00    -0.000 C 
BRANCH  14  15
ATOM     15  C   UNL     1      49.458  28.615  15.923  1.00  0.00    -0.000 C 
BRANCH  15  16
ATOM     16  C   UNL     1      49.749  27.149  15.555  1.00  0.00    -0.000 C 
BRANCH  16  17
ATOM     17  C   UNL     1      49.646  26.200  16.757  1.00  0.00    -0.003 C 
ATOM     18  C   UNL     1      48.195  26.019  17.193  1.00  0.00     0.004 C 
ENDBRANCH  16  17
ENDBRANCH  15  16
ENDBRANCH  14  15
ENDBRANCH  13  14
ENDBRANCH  12  13
ENDBRANCH  11  12
ENDBRANCH   1  11
TORSDOF 14
ENDMDL
MODEL 7
REMARK VINA RESULT:    -5.055      4.113      9.424
REMARK INTER + INTRA:         -10.282
REMARK INTER:                  -9.034
REMARK INTRA:                  -1.248
REMARK UNBOUND:                -1.090
REMARK SMILES CCCCCCCCCCCCCCCC(=O)[O-]
REMARK SMILES IDX 9 1 10 2 11 3 12 4 13 5 14 6 15 7 16 8 17 9 18 10 8 11 7 12
REMARK SMILES IDX 6 13 5 14 4 15 3 16 2 17 1 18
REMARK H PARENT
REMARK Flexibility Score: inf
ROOT
ATOM      1  C   UNL     1      48.317  34.059  14.936  1.00  0.00     0.000 C 
ENDROOT
BRANCH   1   2
ATOM      2  C   UNL     1      47.112  33.962  15.882  1.00  0.00     0.000 C 
BRANCH   2   3
ATOM      3  C   UNL     1      47.569  33.842  17.344  1.00  0.00     0.000 C 
BRANCH   3   4
ATOM      4  C   UNL     1      49.098  33.747  17.486  1.00  0.00     0.000 C 
BRANCH   4   5
ATOM      5  C   UNL     1      49.638  32.338  17.807  1.00  0.00     0.000 C 
BRANCH   5   6
ATOM      6  C   UNL     1      48.687  31.177  17.451  1.00  0.00     0.006 C 
BRANCH   6   7
ATOM      7  C   UNL     1      49.254  30.186  16.421  1.00  0.00     0.053 C 
BRANCH   7   8
ATOM      8  C   UNL     1      48.180  29.341  15.809  1.00  0.00     0.041 C 
ATOM      9  O   UNL     1      47.016  29.802  15.664  1.00  0.00    -0.550 OA
ATOM     10  O   UNL     1      48.472  28.057  15.368  1.00  0.00    -0.550 OA
ENDBRANCH   7   8
ENDBRANCH   6   7
ENDBRANCH   5   6
ENDBRANCH   4   5
ENDBRANCH   3   4
ENDBRANCH   2   3
ENDBRANCH   1   2
BRANCH   1  11
ATOM     11  C   UNL     1      48.287  32.998  13.825  1.00  0.00     0.000 C 
BRANCH  11  12
ATOM     12  C   UNL     1      48.166  33.612  12.423  1.00  0.00    -0.000 C 
BRANCH  12  13
ATOM     13  C   UNL     1      47.543  35.013  12.490  1.00  0.00    -0.000 C 
BRANCH  13  14
ATOM     14  C   UNL     1      46.028  35.008  12.217  1.00  0.00    -0.000 C 
BRANCH  14  15
ATOM     15  C   UNL     1      45.203  35.977  13.088  1.00  0.00    -0.000 C 
BRANCH  15  16
ATOM     16  C   UNL     1      43.725  36.122  12.683  1.00  0.00    -0.000 C 
BRANCH  16  17
ATOM     17  C   UNL     1      43.440  37.429  11.929  1.00  0.00    -0.003 C 
ATOM     18  C   UNL     1      42.236  37.278  11.003  1.00  0.00     0.004 C 
ENDBRANCH  16  17
ENDBRANCH  15  16
ENDBRANCH  14  15
ENDBRANCH  13  14
ENDBRANCH  12  13
ENDBRANCH  11  12
ENDBRANCH   1  11
TORSDOF 14
ENDMDL
MODEL 8
REMARK VINA RESULT:    -5.046      5.485     10.656
REMARK INTER + INTRA:         -10.266
REMARK INTER:                  -9.503
REMARK INTRA:                  -0.762
REMARK UNBOUND:                -1.090
REMARK SMILES CCCCCCCCCCCCCCCC(=O)[O-]
REMARK SMILES IDX 9 1 10 2 11 3 12 4 13 5 14 6 15 7 16 8 17 9 18 10 8 11 7 12
REMARK SMILES IDX 6 13 5 14 4 15 3 16 2 17 1 18
REMARK H PARENT
REMARK Flexibility Score: inf
ROOT
ATOM      1  C   UNL     1      47.123  34.668  12.465  1.00  0.00     0.000 C 
ENDROOT
BRANCH   1   2
ATOM      2  C   UNL     1      48.318  34.568  13.425  1.00  0.00     0.000 C 
BRANCH   2   3
ATOM      3  C   UNL     1      48.107  33.442  14.448  1.00  0.00     0.000 C 
BRANCH   3   4
ATOM      4  C   UNL     1      47.484  33.937  15.765  1.00  0.00     0.000 C 
BRANCH   4   5
ATOM      5  C   UNL     1      48.469  34.065  16.945  1.00  0.00     0.000 C 
BRANCH   5   6
ATOM      6  C   UNL     1      49.076  32.736  17.438  1.00  0.00     0.006 C 
BRANCH   6   7
ATOM      7  C   UNL     1      48.042  31.641  17.745  1.00  0.00     0.053 C 
BRANCH   7   8
ATOM      8  C   UNL     1      48.170  30.475  16.814  1.00  0.00     0.041 C 
ATOM      9  O   UNL     1      47.331  29.536  16.855  1.00  0.00    -0.550 OA
ATOM     10  O   UNL     1      49.196  30.440  15.880  1.00  0.00    -0.550 OA
ENDBRANCH   7   8
ENDBRANCH   6   7
ENDBRANCH   5   6
ENDBRANCH   4   5
ENDBRANCH   3   4
ENDBRANCH   2   3
ENDBRANCH   1   2
BRANCH   1  11
ATOM     11  C   UNL     1      46.146  35.790  12.848  1.00  0.00     0.000 C 
BRANCH  11  12
ATOM     12  C   UNL     1      44.684  35.433  12.538  1.00  0.00    -0.000 C 
BRANCH  12  13
ATOM     13  C   UNL     1      43.831  36.701  12.391  1.00  0.00    -0.000 C 
BRANCH  13  14
ATOM     14  C   UNL     1      42.340  36.394  12.158  1.00  0.00    -0.000 C 
BRANCH  14  15
ATOM     15  C   UNL     1      41.922  36.267  10.679  1.00  0.00    -0.000 C 
BRANCH  15  16
ATOM     16  C   UNL     1      40.981  35.090  10.366  1.00  0.00    -0.000 C 
BRANCH  16  17
ATOM     17  C   UNL     1      39.503  35.431  10.597  1.00  0.00    -0.003 C 
ATOM     18  C   UNL     1      38.814  34.354  11.431  1.00  0.00     0.004 C 
ENDBRANCH  16  17
ENDBRANCH  15  16
ENDBRANCH  14  15
ENDBRANCH  13  14
ENDBRANCH  12  13
ENDBRANCH  11  12
ENDBRANCH   1  11
TORSDOF 14
ENDMDL
MODEL 9
REMARK VINA RESULT:    -4.992      3.691      8.397
REMARK INTER + INTRA:         -10.168
REMARK INTER:                  -9.239
REMARK INTRA:                  -0.929
REMARK UNBOUND:                -1.090
REMARK SMILES CCCCCCCCCCCCCCCC(=O)[O-]
REMARK SMILES IDX 9 1 10 2 11 3 12 4 13 5 14 6 15 7 16 8 17 9 18 10 8 11 7 12
REMARK SMILES IDX 6 13 5 14 4 15 3 16 2 17 1 18
REMARK H PARENT
REMARK Flexibility Score: inf
ROOT
ATOM      1  C   UNL     1      49.336  30.734  17.159  1.00  0.00     0.000 C 
ENDROOT
BRANCH   1   2
ATOM      2  C   UNL     1      47.877  30.518  16.733  1.00  0.00     0.000 C 
BRANCH   2   3
ATOM      3  C   UNL     1      47.800  29.721  15.422  1.00  0.00     0.000 C 
BRANCH   3   4
ATOM      4  C   UNL     1      48.428  28.321  15.535  1.00  0.00     0.000 C 
BRANCH   4   5
ATOM      5  C   UNL     1      48.163  27.593  16.869  1.00  0.00     0.000 C 
BRANCH   5   6
ATOM      6  C   UNL     1      48.229  26.053  16.799  1.00  0.00     0.006 C 
BRANCH   6   7
ATOM      7  C   UNL     1      49.535  25.450  17.339  1.00  0.00     0.053 C 
BRANCH   7   8
ATOM      8  C   UNL     1      49.498  25.278  18.826  1.00  0.00     0.041 C 
ATOM      9  O   UNL     1      50.567  25.114  19.472  1.00  0.00    -0.550 OA
ATOM     10  O   UNL     1      48.286  25.331  19.502  1.00  0.00    -0.550 OA
ENDBRANCH   7   8
ENDBRANCH   6   7
ENDBRANCH   5   6
ENDBRANCH   4   5
ENDBRANCH   3   4
ENDBRANCH   2   3
ENDBRANCH   1   2
BRANCH   1  11
ATOM     11  C   UNL     1      49.595  32.152  17.693  1.00  0.00     0.000 C 
BRANCH  11  12
ATOM     12  C   UNL     1      48.325  33.016  17.720  1.00  0.00    -0.000 C 
BRANCH  12  13
ATOM     13  C   UNL     1      48.447  34.198  16.748  1.00  0.00    -0.000 C 
BRANCH  13  14
ATOM     14  C   UNL     1      47.561  34.040  15.499  1.00  0.00    -0.000 C 
BRANCH  14  15
ATOM     15  C   UNL     1      48.235  33.336  14.304  1.00  0.00    -0.000 C 
BRANCH  15  16
ATOM     16  C   UNL     1      48.375  34.196  13.035  1.00  0.00    -0.000 C 
BRANCH  16  17
ATOM     17  C   UNL     1      48.779  33.376  11.802  1.00  0.00    -0.003 C 
ATOM     18  C   UNL     1      50.171  33.767  11.313  1.00  0.00     0.004 C 
ENDBRANCH  16  17
ENDBRANCH  15  16
ENDBRANCH  14  15
ENDBRANCH  13  14
ENDBRANCH  12  13
ENDBRANCH  11  12
ENDBRANCH   1  11
TORSDOF 14
ENDMDL
