MODEL 1
REMARK VINA RESULT:    -5.218      0.000      0.000
REMARK INTER + INTRA:         -11.419
REMARK INTER:                  -9.795
REMARK INTRA:                  -1.624
REMARK UNBOUND:                -1.624
REMARK SMILES CCCCCCCCC=CCCCCCCCC(=O)[O-]
REMARK SMILES IDX 10 1 9 2 11 3 12 4 13 5 14 6 15 7 16 8 17 9 18 10 19 11
REMARK SMILES IDX 20 12 8 13 7 14 6 15 5 16 4 17 3 18 2 19 1 20
REMARK H PARENT
REMARK Flexibility Score: inf
ROOT
ATOM      1  C   UNL     1       6.722   0.082  17.275  1.00  0.00    -0.031 C 
ATOM      2  C   UNL     1       7.422  -0.517  18.250  1.00  0.00    -0.031 C 
ENDROOT
BRANCH   1   3
ATOM      3  C   UNL     1       5.538   0.960  17.579  1.00  0.00     0.027 C 
BRANCH   3   4
ATOM      4  C   UNL     1       5.721   2.394  17.059  1.00  0.00     0.004 C 
BRANCH   4   5
ATOM      5  C   UNL     1       7.176   2.683  16.654  1.00  0.00     0.000 C 
BRANCH   5   6
ATOM      6  C   UNL     1       7.879   3.647  17.625  1.00  0.00     0.000 C 
BRANCH   6   7
ATOM      7  C   UNL     1       8.607   2.914  18.762  1.00  0.00     0.000 C 
BRANCH   7   8
ATOM      8  C   UNL     1       7.821   3.022  20.075  1.00  0.00     0.006 C 
BRANCH   8   9
ATOM      9  C   UNL     1       7.221   4.421  20.243  1.00  0.00     0.053 C 
BRANCH   9  10
ATOM     10  C   UNL     1       7.771   5.084  21.466  1.00  0.00     0.041 C 
ATOM     11  O   UNL     1       7.004   5.695  22.256  1.00  0.00    -0.550 OA
ATOM     12  O   UNL     1       9.138   5.063  21.712  1.00  0.00    -0.550 OA
ENDBRANCH   9  10
ENDBRANCH   8   9
ENDBRANCH   7   8
ENDBRANCH   6   7
ENDBRANCH   5   6
ENDBRANCH   4   5
ENDBRANCH   3   4
ENDBRANCH   1   3
BRANCH   2  13
ATOM     13  C   UNL     1       8.613  -1.383  17.944  1.00  0.00     0.027 C 
BRANCH  13  14
ATOM     14  C   UNL     1       8.456  -2.082  16.585  1.00  0.00     0.004 C 
BRANCH  14  15
ATOM     15  C   UNL     1       9.172  -3.440  16.535  1.00  0.00     0.000 C 
BRANCH  15  16
ATOM     16  C   UNL     1      10.290  -3.482  15.477  1.00  0.00     0.000 C 
BRANCH  16  17
ATOM     17  C   UNL     1      11.542  -4.227  15.966  1.00  0.00    -0.000 C 
BRANCH  17  18
ATOM     18  C   UNL     1      12.779  -3.315  16.048  1.00  0.00    -0.000 C 
BRANCH  18  19
ATOM     19  C   UNL     1      12.413  -1.823  16.019  1.00  0.00    -0.003 C 
ATOM     20  C   UNL     1      13.549  -0.943  15.495  1.00  0.00     0.004 C 
ENDBRANCH  18  19
ENDBRANCH  17  18
ENDBRANCH  16  17
ENDBRANCH  15  16
ENDBRANCH  14  15
ENDBRANCH  13  14
ENDBRANCH   2  13
TORSDOF 15
ENDMDL
MODEL 2
REMARK VINA RESULT:    -5.120     10.433     13.733
REMARK INTER + INTRA:         -11.234
REMARK INTER:                  -8.233
REMARK INTRA:                  -3.001
REMARK UNBOUND:                -1.624
REMARK SMILES CCCCCCCCC=CCCCCCCCC(=O)[O-]
REMARK SMILES IDX 10 1 9 2 11 3 12 4 13 5 14 6 15 7 16 8 17 9 18 10 19 11
REMARK SMILES IDX 20 12 8 13 7 14 6 15 5 16 4 17 3 18 2 19 1 20
REMARK H PARENT
REMARK Flexibility Score: inf
ROOT
ATOM      1  C   UNL     1      22.485  -1.882  22.290  1.00  0.00    -0.031 C 
ATOM      2  C   UNL     1      21.840  -1.961  23.463  1.00  0.00    -0.031 C 
ENDROOT
BRANCH   1   3
ATOM      3  C   UNL     1      22.684  -3.092  21.415  1.00  0.00     0.027 C 
BRANCH   3   4
ATOM      4  C   UNL     1      21.982  -4.341  21.971  1.00  0.00     0.004 C 
BRANCH   4   5
ATOM      5  C   UNL     1      21.124  -5.046  20.908  1.00  0.00     0.000 C 
BRANCH   5   6
ATOM      6  C   UNL     1      19.735  -5.441  21.436  1.00  0.00     0.000 C 
BRANCH   6   7
ATOM      7  C   UNL     1      19.627  -5.317  22.964  1.00  0.00     0.000 C 
BRANCH   7   8
ATOM      8  C   UNL     1      18.399  -4.487  23.361  1.00  0.00     0.006 C 
BRANCH   8   9
ATOM      9  C   UNL     1      18.669  -3.681  24.635  1.00  0.00     0.053 C 
BRANCH   9  10
ATOM     10  C   UNL     1      17.388  -3.388  25.351  1.00  0.00     0.041 C 
ATOM     11  O   UNL     1      16.435  -4.210  25.307  1.00  0.00    -0.550 OA
ATOM     12  O   UNL     1      17.231  -2.187  26.032  1.00  0.00    -0.550 OA
ENDBRANCH   9  10
ENDBRANCH   8   9
ENDBRANCH   7   8
ENDBRANCH   6   7
ENDBRANCH   5   6
ENDBRANCH   4   5
ENDBRANCH   3   4
ENDBRANCH   1   3
BRANCH   2  13
ATOM     13  C   UNL     1      21.632  -0.749  24.329  1.00  0.00     0.027 C 
BRANCH  13  14
ATOM     14  C   UNL     1      20.203  -0.203  24.184  1.00  0.00     0.004 C 
BRANCH  14  15
ATOM     15  C   UNL     1      20.093   0.876  23.096  1.00  0.00     0.000 C 
BRANCH  15  16
ATOM     16  C   UNL     1      19.065   0.517  22.007  1.00  0.00     0.000 C 
BRANCH  16  17
ATOM     17  C   UNL     1      18.547  -0.925  22.132  1.00  0.00    -0.000 C 
BRANCH  17  18
ATOM     18  C   UNL     1      19.007  -1.821  20.969  1.00  0.00    -0.000 C 
BRANCH  18  19
ATOM     19  C   UNL     1      17.937  -1.963  19.877  1.00  0.00    -0.003 C 
ATOM     20  C   UNL     1      17.129  -3.256  20.001  1.00  0.00     0.004 C 
ENDBRANCH  18  19
ENDBRANCH  17  18
ENDBRANCH  16  17
ENDBRANCH  15  16
ENDBRANCH  14  15
ENDBRANCH  13  14
ENDBRANCH   2  13
TORSDOF 15
ENDMDL
MODEL 3
REMARK VINA RESULT:    -5.114      5.019      7.034
REMARK INTER + INTRA:         -11.223
REMARK INTER:                  -9.359
REMARK INTRA:                  -1.864
REMARK UNBOUND:                -1.624
REMARK SMILES CCCCCCCCC=CCCCCCCCC(=O)[O-]
REMARK SMILES IDX 10 1 9 2 11 3 12 4 13 5 14 6 15 7 16 8 17 9 18 10 19 11
REMARK SMILES IDX 20 12 8 13 7 14 6 15 5 16 4 17 3 18 2 19 1 20
REMARK H PARENT
REMARK Flexibility Score: inf
ROOT
ATOM      1  C   UNL     1       3.895   1.365  16.541  1.00  0.00    -0.031 C 
ATOM      2  C   UNL     1       5.163   1.796  16.624  1.00  0.00    -0.031 C 
ENDROOT
BRANCH   1   3
ATOM      3  C   UNL     1       3.059   1.602  15.312  1.00  0.00     0.027 C 
BRANCH   3   4
ATOM      4  C   UNL     1       3.436   0.663  14.155  1.00  0.00     0.004 C 
BRANCH   4   5
ATOM      5  C   UNL     1       3.442  -0.814  14.586  1.00  0.00     0.000 C 
BRANCH   5   6
ATOM      6  C   UNL     1       4.585  -1.613  13.938  1.00  0.00     0.000 C 
BRANCH   6   7
ATOM      7  C   UNL     1       5.964  -1.233  14.500  1.00  0.00     0.000 C 
BRANCH   7   8
ATOM      8  C   UNL     1       6.995  -1.097  13.373  1.00  0.00     0.006 C 
BRANCH   8   9
ATOM      9  C   UNL     1       6.370  -1.419  12.012  1.00  0.00     0.053 C 
BRANCH   9  10
ATOM     10  C   UNL     1       7.416  -1.896  11.054  1.00  0.00     0.041 C 
ATOM     11  O   UNL     1       7.210  -1.846   9.813  1.00  0.00    -0.550 OA
ATOM     12  O   UNL     1       8.603  -2.436  11.534  1.00  0.00    -0.550 OA
ENDBRANCH   9  10
ENDBRANCH   8   9
ENDBRANCH   7   8
ENDBRANCH   6   7
ENDBRANCH   5   6
ENDBRANCH   4   5
ENDBRANCH   3   4
ENDBRANCH   1   3
BRANCH   2  13
ATOM     13  C   UNL     1       5.999   1.546  17.849  1.00  0.00     0.027 C 
BRANCH  13  14
ATOM     14  C   UNL     1       6.595   0.130  17.834  1.00  0.00     0.004 C 
BRANCH  14  15
ATOM     15  C   UNL     1       8.131   0.138  17.844  1.00  0.00     0.000 C 
BRANCH  15  16
ATOM     16  C   UNL     1       8.729  -1.261  18.082  1.00  0.00     0.000 C 
BRANCH  16  17
ATOM     17  C   UNL     1       8.433  -2.237  16.932  1.00  0.00    -0.000 C 
BRANCH  17  18
ATOM     18  C   UNL     1       8.784  -3.692  17.286  1.00  0.00    -0.000 C 
BRANCH  18  19
ATOM     19  C   UNL     1       9.727  -4.337  16.259  1.00  0.00    -0.003 C 
ATOM     20  C   UNL     1      10.108  -3.386  15.124  1.00  0.00     0.004 C 
ENDBRANCH  18  19
ENDBRANCH  17  18
ENDBRANCH  16  17
ENDBRANCH  15  16
ENDBRANCH  14  15
ENDBRANCH  13  14
ENDBRANCH   2  13
TORSDOF 15
ENDMDL
MODEL 4
REMARK VINA RESULT:    -5.084      8.614     10.390
REMARK INTER + INTRA:         -11.167
REMARK INTER:                  -9.081
REMARK INTRA:                  -2.085
REMARK UNBOUND:                -1.624
REMARK SMILES CCCCCCCCC=CCCCCCCCC(=O)[O-]
REMARK SMILES IDX 10 1 9 2 11 3 12 4 13 5 14 6 15 7 16 8 17 9 18 10 19 11
REMARK SMILES IDX 20 12 8 13 7 14 6 15 5 16 4 17 3 18 2 19 1 20
REMARK H PARENT
REMARK Flexibility Score: inf
ROOT
ATOM      1  C   UNL     1      13.019   3.040   6.836  1.00  0.00    -0.031 C 
ATOM      2  C   UNL     1      12.786   1.999   7.649  1.00  0.00    -0.031 C 
ENDROOT
BRANCH   1   3
ATOM      3  C   UNL     1      11.895   3.789   6.171  1.00  0.00     0.027 C 
BRANCH   3   4
ATOM      4  C   UNL     1      11.746   5.222   6.706  1.00  0.00     0.004 C 
BRANCH   4   5
ATOM      5  C   UNL     1      13.025   5.716   7.403  1.00  0.00     0.000 C 
BRANCH   5   6
ATOM      6  C   UNL     1      12.757   6.249   8.820  1.00  0.00     0.000 C 
BRANCH   6   7
ATOM      7  C   UNL     1      13.062   5.209   9.909  1.00  0.00     0.000 C 
BRANCH   7   8
ATOM      8  C   UNL     1      11.911   5.121  10.920  1.00  0.00     0.006 C 
BRANCH   8   9
ATOM      9  C   UNL     1      10.783   6.091  10.556  1.00  0.00     0.053 C 
BRANCH   9  10
ATOM     10  C   UNL     1      10.360   6.877  11.757  1.00  0.00     0.041 C 
ATOM     11  O   UNL     1       9.249   6.650  12.304  1.00  0.00    -0.550 OA
ATOM     12  O   UNL     1      11.175   7.889  12.248  1.00  0.00    -0.550 OA
ENDBRANCH   9  10
ENDBRANCH   8   9
ENDBRANCH   7   8
ENDBRANCH   6   7
ENDBRANCH   5   6
ENDBRANCH   4   5
ENDBRANCH   3   4
ENDBRANCH   1   3
BRANCH   2  13
ATOM     13  C   UNL     1      13.911   1.260   8.322  1.00  0.00     0.027 C 
BRANCH  13  14
ATOM     14  C   UNL     1      14.901   2.236   8.977  1.00  0.00     0.004 C 
BRANCH  14  15
ATOM     15  C   UNL     1      16.033   1.512   9.722  1.00  0.00     0.000 C 
BRANCH  15  16
ATOM     16  C   UNL     1      15.608   1.035  11.124  1.00  0.00     0.000 C 
BRANCH  16  17
ATOM     17  C   UNL     1      14.634   2.004  11.811  1.00  0.00    -0.000 C 
BRANCH  17  18
ATOM     18  C   UNL     1      15.301   2.814  12.937  1.00  0.00    -0.000 C 
BRANCH  18  19
ATOM     19  C   UNL     1      16.091   4.019  12.405  1.00  0.00    -0.003 C 
ATOM     20  C   UNL     1      17.207   4.462  13.354  1.00  0.00     0.004 C 
ENDBRANCH  18  19
ENDBRANCH  17  18
ENDBRANCH  16  17
ENDBRANCH  15  16
ENDBRANCH  14  15
ENDBRANCH  13  14
ENDBRANCH   2  13
TORSDOF 15
ENDMDL
MODEL 5
REMARK VINA RESULT:    -5.081     10.332     13.476
REMARK INTER + INTRA:         -11.161
REMARK INTER:                  -8.914
REMARK INTRA:                  -2.247
REMARK UNBOUND:                -1.624
REMARK SMILES CCCCCCCCC=CCCCCCCCC(=O)[O-]
REMARK SMILES IDX 10 1 9 2 11 3 12 4 13 5 14 6 15 7 16 8 17 9 18 10 19 11
REMARK SMILES IDX 20 12 8 13 7 14 6 15 5 16 4 17 3 18 2 19 1 20
REMARK H PARENT
REMARK Flexibility Score: inf
ROOT
ATOM      1  C   UNL     1      14.905   0.419   9.114  1.00  0.00    -0.031 C 
ATOM      2  C   UNL     1      15.976   1.011   9.665  1.00  0.00    -0.031 C 
ENDROOT
BRANCH   1   3
ATOM      3  C   UNL     1      14.876   0.036   7.658  1.00  0.00     0.027 C 
BRANCH   3   4
ATOM      4  C   UNL     1      13.474  -0.380   7.188  1.00  0.00     0.004 C 
BRANCH   4   5
ATOM      5  C   UNL     1      12.877  -1.496   8.061  1.00  0.00     0.000 C 
BRANCH   5   6
ATOM      6  C   UNL     1      12.459  -2.728   7.241  1.00  0.00     0.000 C 
BRANCH   6   7
ATOM      7  C   UNL     1      13.612  -3.295   6.398  1.00  0.00     0.000 C 
BRANCH   7   8
ATOM      8  C   UNL     1      14.770  -3.754   7.293  1.00  0.00     0.006 C 
BRANCH   8   9
ATOM      9  C   UNL     1      15.953  -4.246   6.452  1.00  0.00     0.053 C 
BRANCH   9  10
ATOM     10  C   UNL     1      17.114  -4.590   7.331  1.00  0.00     0.041 C 
ATOM     11  O   UNL     1      16.920  -5.029   8.494  1.00  0.00    -0.550 OA
ATOM     12  O   UNL     1      18.411  -4.384   6.880  1.00  0.00    -0.550 OA
ENDBRANCH   9  10
ENDBRANCH   8   9
ENDBRANCH   7   8
ENDBRANCH   6   7
ENDBRANCH   5   6
ENDBRANCH   4   5
ENDBRANCH   3   4
ENDBRANCH   1   3
BRANCH   2  13
ATOM     13  C   UNL     1      16.006   1.381  11.122  1.00  0.00     0.027 C 
BRANCH  13  14
ATOM     14  C   UNL     1      14.587   1.456  11.705  1.00  0.00     0.004 C 
BRANCH  14  15
ATOM     15  C   UNL     1      14.252   2.850  12.258  1.00  0.00     0.000 C 
BRANCH  15  16
ATOM     16  C   UNL     1      14.674   3.983  11.304  1.00  0.00     0.000 C 
BRANCH  16  17
ATOM     17  C   UNL     1      13.528   4.448  10.392  1.00  0.00    -0.000 C 
BRANCH  17  18
ATOM     18  C   UNL     1      13.745   4.052   8.921  1.00  0.00    -0.000 C 
BRANCH  18  19
ATOM     19  C   UNL     1      12.660   3.097   8.403  1.00  0.00    -0.003 C 
ATOM     20  C   UNL     1      11.682   2.660   9.495  1.00  0.00     0.004 C 
ENDBRANCH  18  19
ENDBRANCH  17  18
ENDBRANCH  16  17
ENDBRANCH  15  16
ENDBRANCH  14  15
ENDBRANCH  13  14
ENDBRANCH   2  13
TORSDOF 15
ENDMDL
MODEL 6
REMARK VINA RESULT:    -5.068     11.093     13.259
REMARK INTER + INTRA:         -11.136
REMARK INTER:                  -8.338
REMARK INTRA:                  -2.798
REMARK UNBOUND:                -1.624
REMARK SMILES CCCCCCCCC=CCCCCCCCC(=O)[O-]
REMARK SMILES IDX 10 1 9 2 11 3 12 4 13 5 14 6 15 7 16 8 17 9 18 10 19 11
REMARK SMILES IDX 20 12 8 13 7 14 6 15 5 16 4 17 3 18 2 19 1 20
REMARK H PARENT
REMARK Flexibility Score: inf
ROOT
ATOM      1  C   UNL     1      22.198  -2.010  21.937  1.00  0.00    -0.031 C 
ATOM      2  C   UNL     1      22.824  -3.175  21.709  1.00  0.00    -0.031 C 
ENDROOT
BRANCH   1   3
ATOM      3  C   UNL     1      22.560  -1.136  23.108  1.00  0.00     0.027 C 
BRANCH   3   4
ATOM      4  C   UNL     1      21.352  -0.830  24.008  1.00  0.00     0.004 C 
BRANCH   4   5
ATOM      5  C   UNL     1      20.832   0.604  23.812  1.00  0.00     0.000 C 
BRANCH   5   6
ATOM      6  C   UNL     1      19.637   0.672  22.846  1.00  0.00     0.000 C 
BRANCH   6   7
ATOM      7  C   UNL     1      18.891  -0.666  22.735  1.00  0.00     0.000 C 
BRANCH   7   8
ATOM      8  C   UNL     1      17.499  -0.572  23.373  1.00  0.00     0.006 C 
BRANCH   8   9
ATOM      9  C   UNL     1      17.366  -1.546  24.548  1.00  0.00     0.053 C 
BRANCH   9  10
ATOM     10  C   UNL     1      16.311  -2.569  24.264  1.00  0.00     0.041 C 
ATOM     11  O   UNL     1      15.681  -3.109  25.210  1.00  0.00    -0.550 OA
ATOM     12  O   UNL     1      16.054  -2.956  22.955  1.00  0.00    -0.550 OA
ENDBRANCH   9  10
ENDBRANCH   8   9
ENDBRANCH   7   8
ENDBRANCH   6   7
ENDBRANCH   5   6
ENDBRANCH   4   5
ENDBRANCH   3   4
ENDBRANCH   1   3
BRANCH   2  13
ATOM     13  C   UNL     1      22.469  -4.040  20.531  1.00  0.00     0.027 C 
BRANCH  13  14
ATOM     14  C   UNL     1      21.259  -3.474  19.772  1.00  0.00     0.004 C 
BRANCH  14  15
ATOM     15  C   UNL     1      19.963  -4.242  20.073  1.00  0.00     0.000 C 
BRANCH  15  16
ATOM     16  C   UNL     1      20.216  -5.548  20.849  1.00  0.00     0.000 C 
BRANCH  16  17
ATOM     17  C   UNL     1      19.425  -5.619  22.165  1.00  0.00    -0.000 C 
BRANCH  17  18
ATOM     18  C   UNL     1      19.425  -4.282  22.927  1.00  0.00    -0.000 C 
BRANCH  18  19
ATOM     19  C   UNL     1      19.768  -4.453  24.415  1.00  0.00    -0.003 C 
ATOM     20  C   UNL     1      21.269  -4.619  24.663  1.00  0.00     0.004 C 
ENDBRANCH  18  19
ENDBRANCH  17  18
ENDBRANCH  16  17
ENDBRANCH  15  16
ENDBRANCH  14  15
ENDBRANCH  13  14
ENDBRANCH   2  13
TORSDOF 15
ENDMDL
MODEL 7
REMARK VINA RESULT:    -5.049     11.576     14.069
REMARK INTER + INTRA:         -11.101
REMARK INTER:                  -8.087
REMARK INTRA:                  -3.014
REMARK UNBOUND:                -1.624
REMARK SMILES CCCCCCCCC=CCCCCCCCC(=O)[O-]
REMARK SMILES IDX 10 1 9 2 11 3 12 4 13 5 14 6 15 7 16 8 17 9 18 10 19 11
REMARK SMILES IDX 20 12 8 13 7 14 6 15 5 16 4 17 3 18 2 19 1 20
REMARK H PARENT
REMARK Flexibility Score: inf
ROOT
ATOM      1  C   UNL     1      19.722  -3.908  24.013  1.00  0.00    -0.031 C 
ATOM      2  C   UNL     1      18.918  -3.886  22.940  1.00  0.00    -0.031 C 
ENDROOT
BRANCH   1   3
ATOM      3  C   UNL     1      21.210  -3.712  23.888  1.00  0.00     0.027 C 
BRANCH   3   4
ATOM      4  C   UNL     1      21.608  -2.228  23.875  1.00  0.00     0.004 C 
BRANCH   4   5
ATOM      5  C   UNL     1      22.383  -1.846  22.603  1.00  0.00     0.000 C 
BRANCH   5   6
ATOM      6  C   UNL     1      22.734  -3.068  21.737  1.00  0.00     0.000 C 
BRANCH   6   7
ATOM      7  C   UNL     1      22.383  -2.862  20.255  1.00  0.00     0.000 C 
BRANCH   7   8
ATOM      8  C   UNL     1      20.893  -2.540  20.085  1.00  0.00     0.006 C 
BRANCH   8   9
ATOM      9  C   UNL     1      20.172  -3.657  19.324  1.00  0.00     0.053 C 
BRANCH   9  10
ATOM     10  C   UNL     1      20.646  -3.714  17.906  1.00  0.00     0.041 C 
ATOM     11  O   UNL     1      21.138  -4.777  17.444  1.00  0.00    -0.550 OA
ATOM     12  O   UNL     1      20.584  -2.580  17.106  1.00  0.00    -0.550 OA
ENDBRANCH   9  10
ENDBRANCH   8   9
ENDBRANCH   7   8
ENDBRANCH   6   7
ENDBRANCH   5   6
ENDBRANCH   4   5
ENDBRANCH   3   4
ENDBRANCH   1   3
BRANCH   2  13
ATOM     13  C   UNL     1      17.430  -4.070  23.069  1.00  0.00     0.027 C 
BRANCH  13  14
ATOM     14  C   UNL     1      17.019  -4.240  24.540  1.00  0.00     0.004 C 
BRANCH  14  15
ATOM     15  C   UNL     1      15.940  -3.234  24.969  1.00  0.00     0.000 C 
BRANCH  15  16
ATOM     16  C   UNL     1      16.321  -1.779  24.636  1.00  0.00     0.000 C 
BRANCH  16  17
ATOM     17  C   UNL     1      17.477  -1.256  25.503  1.00  0.00    -0.000 C 
BRANCH  17  18
ATOM     18  C   UNL     1      18.492  -0.426  24.697  1.00  0.00    -0.000 C 
BRANCH  18  19
ATOM     19  C   UNL     1      17.955  -0.019  23.317  1.00  0.00    -0.003 C 
ATOM     20  C   UNL     1      18.981  -0.214  22.199  1.00  0.00     0.004 C 
ENDBRANCH  18  19
ENDBRANCH  17  18
ENDBRANCH  16  17
ENDBRANCH  15  16
ENDBRANCH  14  15
ENDBRANCH  13  14
ENDBRANCH   2  13
TORSDOF 15
ENDMDL
MODEL 8
REMARK VINA RESULT:    -5.017     10.111     13.000
REMARK INTER + INTRA:         -11.041
REMARK INTER:                  -8.014
REMARK INTRA:                  -3.026
REMARK UNBOUND:                -1.624
REMARK SMILES CCCCCCCCC=CCCCCCCCC(=O)[O-]
REMARK SMILES IDX 10 1 9 2 11 3 12 4 13 5 14 6 15 7 16 8 17 9 18 10 19 11
REMARK SMILES IDX 20 12 8 13 7 14 6 15 5 16 4 17 3 18 2 19 1 20
REMARK H PARENT
REMARK Flexibility Score: inf
ROOT
ATOM      1  C   UNL     1      19.270  -4.857  23.301  1.00  0.00    -0.031 C 
ATOM      2  C   UNL     1      19.296  -3.966  24.304  1.00  0.00    -0.031 C 
ENDROOT
BRANCH   1   3
ATOM      3  C   UNL     1      20.333  -4.876  22.234  1.00  0.00     0.027 C 
BRANCH   3   4
ATOM      4  C   UNL     1      21.693  -4.383  22.752  1.00  0.00     0.004 C 
BRANCH   4   5
ATOM      5  C   UNL     1      22.319  -3.328  21.824  1.00  0.00     0.000 C 
BRANCH   5   6
ATOM      6  C   UNL     1      21.757  -1.918  22.069  1.00  0.00     0.000 C 
BRANCH   6   7
ATOM      7  C   UNL     1      22.555  -1.139  23.126  1.00  0.00     0.000 C 
BRANCH   7   8
ATOM      8  C   UNL     1      21.615  -0.401  24.088  1.00  0.00     0.006 C 
BRANCH   8   9
ATOM      9  C   UNL     1      20.149  -0.637  23.714  1.00  0.00     0.053 C 
BRANCH   9  10
ATOM     10  C   UNL     1      19.484   0.656  23.361  1.00  0.00     0.041 C 
ATOM     11  O   UNL     1      19.642   1.160  22.218  1.00  0.00    -0.550 OA
ATOM     12  O   UNL     1      18.722   1.328  24.309  1.00  0.00    -0.550 OA
ENDBRANCH   9  10
ENDBRANCH   8   9
ENDBRANCH   7   8
ENDBRANCH   6   7
ENDBRANCH   5   6
ENDBRANCH   4   5
ENDBRANCH   3   4
ENDBRANCH   1   3
BRANCH   2  13
ATOM     13  C   UNL     1      18.240  -3.958  25.375  1.00  0.00     0.027 C 
BRANCH  13  14
ATOM     14  C   UNL     1      16.845  -3.721  24.775  1.00  0.00     0.004 C 
BRANCH  14  15
ATOM     15  C   UNL     1      16.508  -2.228  24.639  1.00  0.00     0.000 C 
BRANCH  15  16
ATOM     16  C   UNL     1      16.401  -1.777  23.171  1.00  0.00     0.000 C 
BRANCH  16  17
ATOM     17  C   UNL     1      16.044  -2.931  22.220  1.00  0.00    -0.000 C 
BRANCH  17  18
ATOM     18  C   UNL     1      16.962  -2.986  20.987  1.00  0.00    -0.000 C 
BRANCH  18  19
ATOM     19  C   UNL     1      18.175  -2.052  21.114  1.00  0.00    -0.003 C 
ATOM     20  C   UNL     1      18.708  -1.584  19.758  1.00  0.00     0.004 C 
ENDBRANCH  18  19
ENDBRANCH  17  18
ENDBRANCH  16  17
ENDBRANCH  15  16
ENDBRANCH  14  15
ENDBRANCH  13  14
ENDBRANCH   2  13
TORSDOF 15
ENDMDL
MODEL 9
REMARK VINA RESULT:    -5.007     11.010     13.673
REMARK INTER + INTRA:         -11.022
REMARK INTER:                  -7.992
REMARK INTRA:                  -3.030
REMARK UNBOUND:                -1.624
REMARK SMILES CCCCCCCCC=CCCCCCCCC(=O)[O-]
REMARK SMILES IDX 10 1 9 2 11 3 12 4 13 5 14 6 15 7 16 8 17 9 18 10 19 11
REMARK SMILES IDX 20 12 8 13 7 14 6 15 5 16 4 17 3 18 2 19 1 20
REMARK H PARENT
REMARK Flexibility Score: inf
ROOT
ATOM      1  C   UNL     1      19.196  -3.883  24.256  1.00  0.00    -0.031 C 
ATOM      2  C   UNL     1      20.284  -4.447  24.800  1.00  0.00    -0.031 C 
ENDROOT
BRANCH   1   3
ATOM      3  C   UNL     1      17.906  -3.756  25.022  1.00  0.00     0.027 C 
BRANCH   3   4
ATOM      4  C   UNL     1      16.673  -3.770  24.105  1.00  0.00     0.004 C 
BRANCH   4   5
ATOM      5  C   UNL     1      16.862  -2.878  22.867  1.00  0.00     0.000 C 
BRANCH   5   6
ATOM      6  C   UNL     1      16.716  -3.657  21.549  1.00  0.00     0.000 C 
BRANCH   6   7
ATOM      7  C   UNL     1      18.044  -3.788  20.789  1.00  0.00     0.000 C 
BRANCH   7   8
ATOM      8  C   UNL     1      18.731  -2.423  20.648  1.00  0.00     0.006 C 
BRANCH   8   9
ATOM      9  C   UNL     1      18.882  -2.033  19.174  1.00  0.00     0.053 C 
BRANCH   9  10
ATOM     10  C   UNL     1      19.769  -3.006  18.463  1.00  0.00     0.041 C 
ATOM     11  O   UNL     1      21.000  -3.047  18.721  1.00  0.00    -0.550 OA
ATOM     12  O   UNL     1      19.242  -3.839  17.484  1.00  0.00    -0.550 OA
ENDBRANCH   9  10
ENDBRANCH   8   9
ENDBRANCH   7   8
ENDBRANCH   6   7
ENDBRANCH   5   6
ENDBRANCH   4   5
ENDBRANCH   3   4
ENDBRANCH   1   3
BRANCH   2  13
ATOM     13  C   UNL     1      21.575  -4.561  24.037  1.00  0.00     0.027 C 
BRANCH  13  14
ATOM     14  C   UNL     1      21.363  -4.269  22.544  1.00  0.00     0.004 C 
BRANCH  14  15
ATOM     15  C   UNL     1      22.498  -3.424  21.943  1.00  0.00     0.000 C 
BRANCH  15  16
ATOM     16  C   UNL     1      22.158  -1.923  21.898  1.00  0.00     0.000 C 
BRANCH  16  17
ATOM     17  C   UNL     1      22.757  -1.142  23.079  1.00  0.00    -0.000 C 
BRANCH  17  18
ATOM     18  C   UNL     1      21.682  -0.602  24.037  1.00  0.00    -0.000 C 
BRANCH  18  19
ATOM     19  C   UNL     1      20.308  -0.464  23.362  1.00  0.00    -0.003 C 
ATOM     20  C   UNL     1      19.176  -0.232  24.364  1.00  0.00     0.004 C 
ENDBRANCH  18  19
ENDBRANCH  17  18
ENDBRANCH  16  17
ENDBRANCH  15  16
ENDBRANCH  14  15
ENDBRANCH  13  14
ENDBRANCH   2  13
TORSDOF 15
ENDMDL
