MODEL 1
REMARK VINA RESULT:    -2.558      0.000      0.000
REMARK INTER + INTRA:          -6.354
REMARK INTER:                  -4.353
REMARK INTRA:                  -2.002
REMARK UNBOUND:                -2.002
REMARK SMILES CCCCCCCCCCCCCC(=O)[O-]
REMARK SMILES IDX 8 1 9 2 10 3 11 4 12 5 13 6 14 7 15 8 16 9 7 10 6 11 5 12
REMARK SMILES IDX 4 13 3 14 2 15 1 16
REMARK H PARENT
REMARK Flexibility Score: inf
ROOT
ATOM      1  C   UNL     1      11.152 -15.175   6.100  1.00  0.00     0.000 C 
ENDROOT
BRANCH   1   2
ATOM      2  C   UNL     1      12.166 -16.284   5.791  1.00  0.00     0.000 C 
BRANCH   2   3
ATOM      3  C   UNL     1      11.621 -17.253   4.736  1.00  0.00     0.000 C 
BRANCH   3   4
ATOM      4  C   UNL     1      10.677 -18.286   5.372  1.00  0.00     0.000 C 
BRANCH   4   5
ATOM      5  C   UNL     1       9.217 -18.102   4.932  1.00  0.00     0.006 C 
BRANCH   5   6
ATOM      6  C   UNL     1       9.092 -17.608   3.486  1.00  0.00     0.053 C 
BRANCH   6   7
ATOM      7  C   UNL     1       9.246 -18.747   2.529  1.00  0.00     0.041 C 
ATOM      8  O   UNL     1       8.538 -19.780   2.653  1.00  0.00    -0.550 OA
ATOM      9  O   UNL     1      10.208 -18.688   1.529  1.00  0.00    -0.550 OA
ENDBRANCH   6   7
ENDBRANCH   5   6
ENDBRANCH   4   5
ENDBRANCH   3   4
ENDBRANCH   2   3
ENDBRANCH   1   2
BRANCH   1  10
ATOM     10  C   UNL     1      11.208 -14.776   7.581  1.00  0.00     0.000 C 
BRANCH  10  11
ATOM     11  C   UNL     1       9.812 -14.538   8.181  1.00  0.00    -0.000 C 
BRANCH  11  12
ATOM     12  C   UNL     1       8.681 -14.856   7.188  1.00  0.00    -0.000 C 
BRANCH  12  13
ATOM     13  C   UNL     1       7.808 -16.036   7.648  1.00  0.00    -0.000 C 
BRANCH  13  14
ATOM     14  C   UNL     1       8.315 -16.674   8.949  1.00  0.00    -0.000 C 
BRANCH  14  15
ATOM     15  C   UNL     1       8.920 -18.057   8.682  1.00  0.00    -0.003 C 
ATOM     16  C   UNL     1      10.393 -18.103   9.081  1.00  0.00     0.004 C 
ENDBRANCH  14  15
ENDBRANCH  13  14
ENDBRANCH  12  13
ENDBRANCH  11  12
ENDBRANCH  10  11
ENDBRANCH   1  10
TORSDOF 12
ENDMDL
MODEL 2
REMARK VINA RESULT:    -2.541      4.835      7.013
REMARK INTER + INTRA:          -6.325
REMARK INTER:                  -4.953
REMARK INTRA:                  -1.372
REMARK UNBOUND:                -2.002
REMARK SMILES CCCCCCCCCCCCCC(=O)[O-]
REMARK SMILES IDX 8 1 9 2 10 3 11 4 12 5 13 6 14 7 15 8 16 9 7 10 6 11 5 12
REMARK SMILES IDX 4 13 3 14 2 15 1 16
REMARK H PARENT
REMARK Flexibility Score: inf
ROOT
ATOM      1  C   UNL     1       4.451 -19.976   6.204  1.00  0.00     0.000 C 
ENDROOT
BRANCH   1   2
ATOM      2  C   UNL     1       5.877 -19.638   5.750  1.00  0.00     0.000 C 
BRANCH   2   3
ATOM      3  C   UNL     1       6.204 -20.312   4.412  1.00  0.00     0.000 C 
BRANCH   3   4
ATOM      4  C   UNL     1       6.910 -19.334   3.461  1.00  0.00     0.000 C 
BRANCH   4   5
ATOM      5  C   UNL     1       8.439 -19.362   3.611  1.00  0.00     0.006 C 
BRANCH   5   6
ATOM      6  C   UNL     1       9.105 -18.075   3.108  1.00  0.00     0.053 C 
BRANCH   6   7
ATOM      7  C   UNL     1       9.529 -17.221   4.261  1.00  0.00     0.041 C 
ATOM      8  O   UNL     1       9.212 -17.541   5.437  1.00  0.00    -0.550 OA
ATOM      9  O   UNL     1      10.232 -16.046   4.034  1.00  0.00    -0.550 OA
ENDBRANCH   6   7
ENDBRANCH   5   6
ENDBRANCH   4   5
ENDBRANCH   3   4
ENDBRANCH   2   3
ENDBRANCH   1   2
BRANCH   1  10
ATOM     10  C   UNL     1       3.465 -18.880   5.777  1.00  0.00     0.000 C 
BRANCH  10  11
ATOM     11  C   UNL     1       2.132 -19.453   5.265  1.00  0.00    -0.000 C 
BRANCH  11  12
ATOM     12  C   UNL     1       1.881 -19.128   3.782  1.00  0.00    -0.000 C 
BRANCH  12  13
ATOM     13  C   UNL     1       2.740 -17.956   3.282  1.00  0.00    -0.000 C 
BRANCH  13  14
ATOM     14  C   UNL     1       3.738 -18.376   2.194  1.00  0.00    -0.000 C 
BRANCH  14  15
ATOM     15  C   UNL     1       3.581 -19.862   1.850  1.00  0.00    -0.003 C 
ATOM     16  C   UNL     1       3.303 -20.057   0.361  1.00  0.00     0.004 C 
ENDBRANCH  14  15
ENDBRANCH  13  14
ENDBRANCH  12  13
ENDBRANCH  11  12
ENDBRANCH  10  11
ENDBRANCH   1  10
TORSDOF 12
ENDMDL
MODEL 3
REMARK VINA RESULT:    -2.483      1.497      3.502
REMARK INTER + INTRA:          -6.227
REMARK INTER:                  -4.507
REMARK INTRA:                  -1.720
REMARK UNBOUND:                -2.002
REMARK SMILES CCCCCCCCCCCCCC(=O)[O-]
REMARK SMILES IDX 8 1 9 2 10 3 11 4 12 5 13 6 14 7 15 8 16 9 7 10 6 11 5 12
REMARK SMILES IDX 4 13 3 14 2 15 1 16
REMARK H PARENT
REMARK Flexibility Score: inf
ROOT
ATOM      1  C   UNL     1      10.073 -14.819   8.403  1.00  0.00     0.000 C 
ENDROOT
BRANCH   1   2
ATOM      2  C   UNL     1       8.928 -14.786   7.382  1.00  0.00     0.000 C 
BRANCH   2   3
ATOM      3  C   UNL     1       9.242 -15.673   6.172  1.00  0.00     0.000 C 
BRANCH   3   4
ATOM      4  C   UNL     1       9.174 -17.161   6.547  1.00  0.00     0.000 C 
BRANCH   4   5
ATOM      5  C   UNL     1       8.985 -18.072   5.325  1.00  0.00     0.006 C 
BRANCH   5   6
ATOM      6  C   UNL     1       9.294 -17.359   4.003  1.00  0.00     0.053 C 
BRANCH   6   7
ATOM      7  C   UNL     1       8.862 -18.200   2.843  1.00  0.00     0.041 C 
ATOM      8  O   UNL     1       7.776 -18.834   2.889  1.00  0.00    -0.550 OA
ATOM      9  O   UNL     1       9.684 -18.324   1.731  1.00  0.00    -0.550 OA
ENDBRANCH   6   7
ENDBRANCH   5   6
ENDBRANCH   4   5
ENDBRANCH   3   4
ENDBRANCH   2   3
ENDBRANCH   1   2
BRANCH   1  10
ATOM     10  C   UNL     1      11.410 -14.457   7.740  1.00  0.00     0.000 C 
BRANCH  10  11
ATOM     11  C   UNL     1      12.584 -15.287   8.288  1.00  0.00    -0.000 C 
BRANCH  11  12
ATOM     12  C   UNL     1      12.624 -16.710   7.702  1.00  0.00    -0.000 C 
BRANCH  12  13
ATOM     13  C   UNL     1      13.506 -16.806   6.447  1.00  0.00    -0.000 C 
BRANCH  13  14
ATOM     14  C   UNL     1      12.710 -16.608   5.149  1.00  0.00    -0.000 C 
BRANCH  14  15
ATOM     15  C   UNL     1      12.936 -17.777   4.184  1.00  0.00    -0.003 C 
ATOM     16  C   UNL     1      12.603 -19.112   4.846  1.00  0.00     0.004 C 
ENDBRANCH  14  15
ENDBRANCH  13  14
ENDBRANCH  12  13
ENDBRANCH  11  12
ENDBRANCH  10  11
ENDBRANCH   1  10
TORSDOF 12
ENDMDL
MODEL 4
REMARK VINA RESULT:    -2.463      1.543      2.659
REMARK INTER + INTRA:          -6.192
REMARK INTER:                  -4.492
REMARK INTRA:                  -1.700
REMARK UNBOUND:                -2.002
REMARK SMILES CCCCCCCCCCCCCC(=O)[O-]
REMARK SMILES IDX 8 1 9 2 10 3 11 4 12 5 13 6 14 7 15 8 16 9 7 10 6 11 5 12
REMARK SMILES IDX 4 13 3 14 2 15 1 16
REMARK H PARENT
REMARK Flexibility Score: inf
ROOT
ATOM      1  C   UNL     1      10.408 -14.776   8.178  1.00  0.00     0.000 C 
ENDROOT
BRANCH   1   2
ATOM      2  C   UNL     1       8.986 -14.431   7.717  1.00  0.00     0.000 C 
BRANCH   2   3
ATOM      3  C   UNL     1       8.583 -15.267   6.496  1.00  0.00     0.000 C 
BRANCH   3   4
ATOM      4  C   UNL     1       9.578 -16.414   6.262  1.00  0.00     0.000 C 
BRANCH   4   5
ATOM      5  C   UNL     1       9.718 -16.782   4.777  1.00  0.00     0.006 C 
BRANCH   5   6
ATOM      6  C   UNL     1       9.277 -18.220   4.479  1.00  0.00     0.053 C 
BRANCH   6   7
ATOM      7  C   UNL     1       8.708 -18.317   3.099  1.00  0.00     0.041 C 
ATOM      8  O   UNL     1       7.536 -18.741   2.925  1.00  0.00    -0.550 OA
ATOM      9  O   UNL     1       9.490 -17.987   2.000  1.00  0.00    -0.550 OA
ENDBRANCH   6   7
ENDBRANCH   5   6
ENDBRANCH   4   5
ENDBRANCH   3   4
ENDBRANCH   2   3
ENDBRANCH   1   2
BRANCH   1  10
ATOM     10  C   UNL     1      10.459 -14.980   9.699  1.00  0.00     0.000 C 
BRANCH  10  11
ATOM     11  C   UNL     1      10.193 -16.438  10.108  1.00  0.00    -0.000 C 
BRANCH  11  12
ATOM     12  C   UNL     1       8.762 -16.652  10.634  1.00  0.00    -0.000 C 
BRANCH  12  13
ATOM     13  C   UNL     1       7.914 -17.528   9.697  1.00  0.00    -0.000 C 
BRANCH  13  14
ATOM     14  C   UNL     1       6.577 -16.872   9.325  1.00  0.00    -0.000 C 
BRANCH  14  15
ATOM     15  C   UNL     1       5.970 -17.533   8.082  1.00  0.00    -0.003 C 
ATOM     16  C   UNL     1       6.908 -18.589   7.504  1.00  0.00     0.004 C 
ENDBRANCH  14  15
ENDBRANCH  13  14
ENDBRANCH  12  13
ENDBRANCH  11  12
ENDBRANCH  10  11
ENDBRANCH   1  10
TORSDOF 12
ENDMDL
MODEL 5
REMARK VINA RESULT:    -2.453      5.428      7.249
REMARK INTER + INTRA:          -6.175
REMARK INTER:                  -4.721
REMARK INTRA:                  -1.454
REMARK UNBOUND:                -2.002
REMARK SMILES CCCCCCCCCCCCCC(=O)[O-]
REMARK SMILES IDX 8 1 9 2 10 3 11 4 12 5 13 6 14 7 15 8 16 9 7 10 6 11 5 12
REMARK SMILES IDX 4 13 3 14 2 15 1 16
REMARK H PARENT
REMARK Flexibility Score: inf
ROOT
ATOM      1  C   UNL     1       3.204 -18.967   1.927  1.00  0.00     0.000 C 
ENDROOT
BRANCH   1   2
ATOM      2  C   UNL     1       4.530 -18.978   2.697  1.00  0.00     0.000 C 
BRANCH   2   3
ATOM      3  C   UNL     1       4.777 -20.343   3.352  1.00  0.00     0.000 C 
BRANCH   3   4
ATOM      4  C   UNL     1       6.248 -20.500   3.762  1.00  0.00     0.000 C 
BRANCH   4   5
ATOM      5  C   UNL     1       7.081 -19.242   3.472  1.00  0.00     0.006 C 
BRANCH   5   6
ATOM      6  C   UNL     1       8.580 -19.540   3.349  1.00  0.00     0.053 C 
BRANCH   6   7
ATOM      7  C   UNL     1       9.299 -18.369   2.757  1.00  0.00     0.041 C 
ATOM      8  O   UNL     1       9.279 -17.253   3.339  1.00  0.00    -0.550 OA
ATOM      9  O   UNL     1       9.951 -18.498   1.538  1.00  0.00    -0.550 OA
ENDBRANCH   6   7
ENDBRANCH   5   6
ENDBRANCH   4   5
ENDBRANCH   3   4
ENDBRANCH   2   3
ENDBRANCH   1   2
BRANCH   1  10
ATOM     10  C   UNL     1       2.064 -18.429   2.804  1.00  0.00     0.000 C 
BRANCH  10  11
ATOM     11  C   UNL     1       0.884 -19.411   2.906  1.00  0.00    -0.000 C 
BRANCH  11  12
ATOM     12  C   UNL     1       1.028 -20.384   4.090  1.00  0.00    -0.000 C 
BRANCH  12  13
ATOM     13  C   UNL     1       1.270 -19.659   5.423  1.00  0.00    -0.000 C 
BRANCH  13  14
ATOM     14  C   UNL     1       2.510 -20.179   6.163  1.00  0.00    -0.000 C 
BRANCH  14  15
ATOM     15  C   UNL     1       3.250 -19.036   6.865  1.00  0.00    -0.003 C 
ATOM     16  C   UNL     1       2.873 -17.683   6.266  1.00  0.00     0.004 C 
ENDBRANCH  14  15
ENDBRANCH  13  14
ENDBRANCH  12  13
ENDBRANCH  11  12
ENDBRANCH  10  11
ENDBRANCH   1  10
TORSDOF 12
ENDMDL
MODEL 6
REMARK VINA RESULT:    -2.443      1.177      2.247
REMARK INTER + INTRA:          -6.158
REMARK INTER:                  -4.188
REMARK INTRA:                  -1.971
REMARK UNBOUND:                -2.002
REMARK SMILES CCCCCCCCCCCCCC(=O)[O-]
REMARK SMILES IDX 8 1 9 2 10 3 11 4 12 5 13 6 14 7 15 8 16 9 7 10 6 11 5 12
REMARK SMILES IDX 4 13 3 14 2 15 1 16
REMARK H PARENT
REMARK Flexibility Score: inf
ROOT
ATOM      1  C   UNL     1      11.646 -17.869   8.619  1.00  0.00     0.000 C 
ENDROOT
BRANCH   1   2
ATOM      2  C   UNL     1      11.669 -18.332   7.157  1.00  0.00     0.000 C 
BRANCH   2   3
ATOM      3  C   UNL     1      12.394 -17.315   6.267  1.00  0.00     0.000 C 
BRANCH   3   4
ATOM      4  C   UNL     1      11.619 -17.074   4.963  1.00  0.00     0.000 C 
BRANCH   4   5
ATOM      5  C   UNL     1      10.345 -17.926   4.864  1.00  0.00     0.006 C 
BRANCH   5   6
ATOM      6  C   UNL     1       9.289 -17.307   3.942  1.00  0.00     0.053 C 
BRANCH   6   7
ATOM      7  C   UNL     1       8.962 -18.241   2.820  1.00  0.00     0.041 C 
ATOM      8  O   UNL     1       9.702 -18.295   1.804  1.00  0.00    -0.550 OA
ATOM      9  O   UNL     1       7.811 -19.017   2.875  1.00  0.00    -0.550 OA
ENDBRANCH   6   7
ENDBRANCH   5   6
ENDBRANCH   4   5
ENDBRANCH   3   4
ENDBRANCH   2   3
ENDBRANCH   1   2
BRANCH   1  10
ATOM     10  C   UNL     1      11.902 -16.359   8.721  1.00  0.00     0.000 C 
BRANCH  10  11
ATOM     11  C   UNL     1      10.867 -15.642   9.603  1.00  0.00    -0.000 C 
BRANCH  11  12
ATOM     12  C   UNL     1      10.165 -14.486   8.869  1.00  0.00    -0.000 C 
BRANCH  12  13
ATOM     13  C   UNL     1       9.867 -14.816   7.398  1.00  0.00    -0.000 C 
BRANCH  13  14
ATOM     14  C   UNL     1       8.389 -15.152   7.155  1.00  0.00    -0.000 C 
BRANCH  14  15
ATOM     15  C   UNL     1       8.110 -16.633   7.435  1.00  0.00    -0.003 C 
ATOM     16  C   UNL     1       7.241 -16.807   8.678  1.00  0.00     0.004 C 
ENDBRANCH  14  15
ENDBRANCH  13  14
ENDBRANCH  12  13
ENDBRANCH  11  12
ENDBRANCH  10  11
ENDBRANCH   1  10
TORSDOF 12
ENDMDL
MODEL 7
REMARK VINA RESULT:    -2.384      1.877      3.631
REMARK INTER + INTRA:          -6.057
REMARK INTER:                  -4.708
REMARK INTRA:                  -1.349
REMARK UNBOUND:                -2.002
REMARK SMILES CCCCCCCCCCCCCC(=O)[O-]
REMARK SMILES IDX 8 1 9 2 10 3 11 4 12 5 13 6 14 7 15 8 16 9 7 10 6 11 5 12
REMARK SMILES IDX 4 13 3 14 2 15 1 16
REMARK H PARENT
REMARK Flexibility Score: inf
ROOT
ATOM      1  C   UNL     1       8.068 -16.352   7.860  1.00  0.00     0.000 C 
ENDROOT
BRANCH   1   2
ATOM      2  C   UNL     1       8.651 -15.001   7.426  1.00  0.00     0.000 C 
BRANCH   2   3
ATOM      3  C   UNL     1       9.188 -15.067   5.991  1.00  0.00     0.000 C 
BRANCH   3   4
ATOM      4  C   UNL     1      10.289 -16.130   5.862  1.00  0.00     0.000 C 
BRANCH   4   5
ATOM      5  C   UNL     1      10.238 -16.875   4.520  1.00  0.00     0.006 C 
BRANCH   5   6
ATOM      6  C   UNL     1       9.184 -17.989   4.502  1.00  0.00     0.053 C 
BRANCH   6   7
ATOM      7  C   UNL     1       8.581 -18.115   3.138  1.00  0.00     0.041 C 
ATOM      8  O   UNL     1       8.963 -17.363   2.204  1.00  0.00    -0.550 OA
ATOM      9  O   UNL     1       7.562 -19.030   2.911  1.00  0.00    -0.550 OA
ENDBRANCH   6   7
ENDBRANCH   5   6
ENDBRANCH   4   5
ENDBRANCH   3   4
ENDBRANCH   2   3
ENDBRANCH   1   2
BRANCH   1  10
ATOM     10  C   UNL     1       8.867 -16.946   9.029  1.00  0.00     0.000 C 
BRANCH  10  11
ATOM     11  C   UNL     1       9.403 -15.867   9.985  1.00  0.00    -0.000 C 
BRANCH  11  12
ATOM     12  C   UNL     1      10.878 -16.094  10.363  1.00  0.00    -0.000 C 
BRANCH  12  13
ATOM     13  C   UNL     1      11.849 -15.466   9.351  1.00  0.00    -0.000 C 
BRANCH  13  14
ATOM     14  C   UNL     1      11.589 -13.969   9.133  1.00  0.00    -0.000 C 
BRANCH  14  15
ATOM     15  C   UNL     1      11.971 -13.158  10.376  1.00  0.00    -0.003 C 
ATOM     16  C   UNL     1      13.451 -13.326  10.711  1.00  0.00     0.004 C 
ENDBRANCH  14  15
ENDBRANCH  13  14
ENDBRANCH  12  13
ENDBRANCH  11  12
ENDBRANCH  10  11
ENDBRANCH   1  10
TORSDOF 12
ENDMDL
MODEL 8
REMARK VINA RESULT:    -2.380      1.042      2.662
REMARK INTER + INTRA:          -6.051
REMARK INTER:                  -3.985
REMARK INTRA:                  -2.066
REMARK UNBOUND:                -2.002
REMARK SMILES CCCCCCCCCCCCCC(=O)[O-]
REMARK SMILES IDX 8 1 9 2 10 3 11 4 12 5 13 6 14 7 15 8 16 9 7 10 6 11 5 12
REMARK SMILES IDX 4 13 3 14 2 15 1 16
REMARK H PARENT
REMARK Flexibility Score: inf
ROOT
ATOM      1  C   UNL     1      10.565 -18.544   8.712  1.00  0.00     0.000 C 
ENDROOT
BRANCH   1   2
ATOM      2  C   UNL     1      11.476 -18.904   7.531  1.00  0.00     0.000 C 
BRANCH   2   3
ATOM      3  C   UNL     1      10.691 -18.920   6.213  1.00  0.00     0.000 C 
BRANCH   3   4
ATOM      4  C   UNL     1      11.357 -18.017   5.165  1.00  0.00     0.000 C 
BRANCH   4   5
ATOM      5  C   UNL     1      10.353 -17.102   4.447  1.00  0.00     0.006 C 
BRANCH   5   6
ATOM      6  C   UNL     1       8.937 -17.690   4.415  1.00  0.00     0.053 C 
BRANCH   6   7
ATOM      7  C   UNL     1       8.634 -18.248   3.060  1.00  0.00     0.041 C 
ATOM      8  O   UNL     1       7.678 -19.052   2.905  1.00  0.00    -0.550 OA
ATOM      9  O   UNL     1       9.438 -17.920   1.977  1.00  0.00    -0.550 OA
ENDBRANCH   6   7
ENDBRANCH   5   6
ENDBRANCH   4   5
ENDBRANCH   3   4
ENDBRANCH   2   3
ENDBRANCH   1   2
BRANCH   1  10
ATOM     10  C   UNL     1       9.122 -18.311   8.241  1.00  0.00     0.000 C 
BRANCH  10  11
ATOM     11  C   UNL     1       8.572 -16.943   8.681  1.00  0.00    -0.000 C 
BRANCH  11  12
ATOM     12  C   UNL     1       8.360 -15.984   7.496  1.00  0.00    -0.000 C 
BRANCH  12  13
ATOM     13  C   UNL     1       9.250 -14.733   7.584  1.00  0.00    -0.000 C 
BRANCH  13  14
ATOM     14  C   UNL     1      10.095 -14.699   8.866  1.00  0.00    -0.000 C 
BRANCH  14  15
ATOM     15  C   UNL     1      11.549 -14.324   8.554  1.00  0.00    -0.003 C 
ATOM     16  C   UNL     1      12.195 -15.346   7.623  1.00  0.00     0.004 C 
ENDBRANCH  14  15
ENDBRANCH  13  14
ENDBRANCH  12  13
ENDBRANCH  11  12
ENDBRANCH  10  11
ENDBRANCH   1  10
TORSDOF 12
ENDMDL
MODEL 9
REMARK VINA RESULT:    -2.321      4.048      5.793
REMARK INTER + INTRA:          -5.951
REMARK INTER:                  -3.844
REMARK INTRA:                  -2.108
REMARK UNBOUND:                -2.002
REMARK SMILES CCCCCCCCCCCCCC(=O)[O-]
REMARK SMILES IDX 8 1 9 2 10 3 11 4 12 5 13 6 14 7 15 8 16 9 7 10 6 11 5 12
REMARK SMILES IDX 4 13 3 14 2 15 1 16
REMARK H PARENT
REMARK Flexibility Score: inf
ROOT
ATOM      1  C   UNL     1       9.235 -17.486   6.185  1.00  0.00     0.000 C 
ENDROOT
BRANCH   1   2
ATOM      2  C   UNL     1       9.824 -16.093   5.932  1.00  0.00     0.000 C 
BRANCH   2   3
ATOM      3  C   UNL     1       8.848 -14.993   6.366  1.00  0.00     0.000 C 
BRANCH   3   4
ATOM      4  C   UNL     1       8.992 -14.687   7.864  1.00  0.00     0.000 C 
BRANCH   4   5
ATOM      5  C   UNL     1      10.457 -14.670   8.326  1.00  0.00     0.006 C 
BRANCH   5   6
ATOM      6  C   UNL     1      10.611 -14.998   9.816  1.00  0.00     0.053 C 
BRANCH   6   7
ATOM      7  C   UNL     1      11.752 -14.230  10.405  1.00  0.00     0.041 C 
ATOM      8  O   UNL     1      11.920 -14.203  11.652  1.00  0.00    -0.550 OA
ATOM      9  O   UNL     1      12.599 -13.503   9.580  1.00  0.00    -0.550 OA
ENDBRANCH   6   7
ENDBRANCH   5   6
ENDBRANCH   4   5
ENDBRANCH   3   4
ENDBRANCH   2   3
ENDBRANCH   1   2
BRANCH   1  10
ATOM     10  C   UNL     1      10.184 -18.338   7.041  1.00  0.00     0.000 C 
BRANCH  10  11
ATOM     11  C   UNL     1       9.735 -18.428   8.509  1.00  0.00    -0.000 C 
BRANCH  11  12
ATOM     12  C   UNL     1       8.207 -18.335   8.665  1.00  0.00    -0.000 C 
BRANCH  12  13
ATOM     13  C   UNL     1       7.788 -17.486   9.876  1.00  0.00    -0.000 C 
BRANCH  13  14
ATOM     14  C   UNL     1       6.368 -16.920   9.739  1.00  0.00    -0.000 C 
BRANCH  14  15
ATOM     15  C   UNL     1       5.958 -16.818   8.266  1.00  0.00    -0.003 C 
ATOM     16  C   UNL     1       5.104 -15.578   8.014  1.00  0.00     0.004 C 
ENDBRANCH  14  15
ENDBRANCH  13  14
ENDBRANCH  12  13
ENDBRANCH  11  12
ENDBRANCH  10  11
ENDBRANCH   1  10
TORSDOF 12
ENDMDL
