MODEL 1
REMARK VINA RESULT:    -9.463      0.000      0.000
REMARK INTER + INTRA:         -13.451
REMARK INTER:                 -13.059
REMARK INTRA:                  -0.392
REMARK UNBOUND:                -0.392
REMARK SMILES CC[C@@H](CC[C@H](C)[C@@H]1CC[C@H]2[C@@H]3CC=C4C[C@@H](O)CC[C@@]4(C)[C@H]3CC[C@]21C)C(C)C
REMARK SMILES IDX 5 1 4 2 3 3 2 4 1 5 28 6 29 7 30 8 6 9 7 10 8 11 9 12 26 13
REMARK SMILES IDX 10 14 11 15 25 16 27 17 12 18 24 19 23 20 13 21 21 22 14 23
REMARK SMILES IDX 15 24 20 25 22 26 16 27 19 28 17 29 18 30
REMARK H PARENT 18 31
REMARK Flexibility Score: inf
ROOT
ATOM      1  C   UNL     1      10.107  79.406   0.456  1.00  0.00     0.004 C 
ENDROOT
BRANCH   1   2
ATOM      2  C   UNL     1       9.078  78.367   0.944  1.00  0.00     0.004 C 
BRANCH   2   3
ATOM      3  C   UNL     1       8.227  78.885   2.135  1.00  0.00    -0.009 C 
BRANCH   3   4
ATOM      4  C   UNL     1       8.896  78.671   3.530  1.00  0.00     0.000 C 
ATOM      5  C   UNL     1       7.957  78.703   4.743  1.00  0.00     0.004 C 
ENDBRANCH   3   4
BRANCH   3   6
ATOM      6  C   UNL     1       6.745  78.390   2.039  1.00  0.00    -0.014 C 
ATOM      7  C   UNL     1       6.616  77.089   1.227  1.00  0.00     0.007 C 
ATOM      8  C   UNL     1       5.763  79.442   1.509  1.00  0.00     0.007 C 
ENDBRANCH   3   6
ENDBRANCH   2   3
ENDBRANCH   1   2
BRANCH   1   9
ATOM      9  C   UNL     1      11.572  78.916   0.635  1.00  0.00    -0.011 C 
ATOM     10  C   UNL     1      12.496  80.125   0.879  1.00  0.00     0.008 C 
BRANCH   9  11
ATOM     11  C   UNL     1      12.138  78.046  -0.547  1.00  0.00    -0.002 C 
ATOM     12  C   UNL     1      13.668  77.921  -0.628  1.00  0.00     0.005 C 
ATOM     13  C   UNL     1      11.671  78.392  -1.991  1.00  0.00    -0.026 C 
ATOM     14  C   UNL     1      14.006  77.692  -2.104  1.00  0.00     0.005 C 
ATOM     15  C   UNL     1      12.670  77.592  -2.873  1.00  0.00    -0.001 C 
ATOM     16  C   UNL     1      10.189  78.023  -2.278  1.00  0.00     0.007 C 
ATOM     17  C   UNL     1      11.829  79.905  -2.302  1.00  0.00     0.012 C 
ATOM     18  C   UNL     1      12.301  76.085  -3.109  1.00  0.00     0.000 C 
ATOM     19  C   UNL     1       9.924  76.524  -2.353  1.00  0.00     0.005 C 
ATOM     20  C   UNL     1      10.805  75.861  -3.432  1.00  0.00     0.003 C 
ATOM     21  C   UNL     1      13.121  75.542  -4.295  1.00  0.00     0.031 C 
ATOM     22  C   UNL     1      10.454  74.329  -3.676  1.00  0.00    -0.008 C 
ATOM     23  C   UNL     1      12.823  74.100  -4.552  1.00  0.00    -0.027 C 
ATOM     24  C   UNL     1      11.611  73.555  -4.334  1.00  0.00    -0.065 C 
ATOM     25  C   UNL     1      10.121  73.593  -2.337  1.00  0.00     0.014 C 
ATOM     26  C   UNL     1       9.224  74.275  -4.622  1.00  0.00     0.016 C 
ATOM     27  C   UNL     1      11.453  72.059  -4.512  1.00  0.00     0.063 C 
ATOM     28  C   UNL     1       9.959  72.065  -2.475  1.00  0.00     0.033 C 
ATOM     29  C   UNL     1      11.169  71.404  -3.153  1.00  0.00     0.118 C 
BRANCH  29  30
ATOM     30  O   UNL     1      12.292  71.511  -2.315  1.00  0.00    -0.393 OA
ATOM     31  H   UNL     1      12.086  72.217  -1.648  1.00  0.00     0.210 HD
ENDBRANCH  29  30
ENDBRANCH   9  11
ENDBRANCH   1   9
TORSDOF 7
ENDMDL
MODEL 2
REMARK VINA RESULT:    -9.103      1.790      3.311
REMARK INTER + INTRA:         -12.955
REMARK INTER:                 -11.318
REMARK INTRA:                  -1.637
REMARK UNBOUND:                -0.392
REMARK SMILES CC[C@@H](CC[C@H](C)[C@@H]1CC[C@H]2[C@@H]3CC=C4C[C@@H](O)CC[C@@]4(C)[C@H]3CC[C@]21C)C(C)C
REMARK SMILES IDX 5 1 4 2 3 3 2 4 1 5 28 6 29 7 30 8 6 9 7 10 8 11 9 12 26 13
REMARK SMILES IDX 10 14 11 15 25 16 27 17 12 18 24 19 23 20 13 21 21 22 14 23
REMARK SMILES IDX 15 24 20 25 22 26 16 27 19 28 17 29 18 30
REMARK H PARENT 18 31
REMARK Flexibility Score: inf
ROOT
ATOM      1  C   UNL     1       9.233  79.777   0.072  1.00  0.00     0.004 C 
ENDROOT
BRANCH   1   2
ATOM      2  C   UNL     1       9.357  80.058   1.583  1.00  0.00     0.004 C 
BRANCH   2   3
ATOM      3  C   UNL     1       8.181  79.456   2.399  1.00  0.00    -0.009 C 
BRANCH   3   4
ATOM      4  C   UNL     1       8.635  78.562   3.597  1.00  0.00     0.000 C 
ATOM      5  C   UNL     1       7.893  78.779   4.923  1.00  0.00     0.004 C 
ENDBRANCH   3   4
BRANCH   3   6
ATOM      6  C   UNL     1       7.110  78.801   1.465  1.00  0.00    -0.014 C 
ATOM      7  C   UNL     1       5.912  79.732   1.207  1.00  0.00     0.007 C 
ATOM      8  C   UNL     1       6.618  77.428   1.938  1.00  0.00     0.007 C 
ENDBRANCH   3   6
ENDBRANCH   2   3
ENDBRANCH   1   2
BRANCH   1   9
ATOM      9  C   UNL     1      10.404  78.907  -0.465  1.00  0.00    -0.011 C 
ATOM     10  C   UNL     1      11.064  79.612  -1.667  1.00  0.00     0.008 C 
BRANCH   9  11
ATOM     11  C   UNL     1      10.021  77.433  -0.860  1.00  0.00    -0.002 C 
ATOM     12  C   UNL     1       8.518  77.125  -0.961  1.00  0.00     0.005 C 
ATOM     13  C   UNL     1      10.630  76.275  -0.016  1.00  0.00    -0.026 C 
ATOM     14  C   UNL     1       8.361  75.634  -0.648  1.00  0.00     0.005 C 
ATOM     15  C   UNL     1       9.779  75.051  -0.456  1.00  0.00    -0.001 C 
ATOM     16  C   UNL     1      12.151  76.063  -0.245  1.00  0.00     0.007 C 
ATOM     17  C   UNL     1      10.428  76.503   1.507  1.00  0.00     0.012 C 
ATOM     18  C   UNL     1      10.250  74.344  -1.776  1.00  0.00     0.000 C 
ATOM     19  C   UNL     1      12.500  75.495  -1.616  1.00  0.00     0.005 C 
ATOM     20  C   UNL     1      11.782  74.151  -1.857  1.00  0.00     0.003 C 
ATOM     21  C   UNL     1       9.598  72.951  -1.865  1.00  0.00     0.031 C 
ATOM     22  C   UNL     1      12.238  73.426  -3.197  1.00  0.00    -0.008 C 
ATOM     23  C   UNL     1       9.999  72.240  -3.117  1.00  0.00    -0.027 C 
ATOM     24  C   UNL     1      11.205  72.399  -3.694  1.00  0.00    -0.065 C 
ATOM     25  C   UNL     1      12.456  74.449  -4.361  1.00  0.00     0.014 C 
ATOM     26  C   UNL     1      13.568  72.683  -2.899  1.00  0.00     0.016 C 
ATOM     27  C   UNL     1      11.460  71.724  -5.026  1.00  0.00     0.063 C 
ATOM     28  C   UNL     1      12.712  73.799  -5.737  1.00  0.00     0.033 C 
ATOM     29  C   UNL     1      11.622  72.787  -6.121  1.00  0.00     0.118 C 
BRANCH  29  30
ATOM     30  O   UNL     1      10.408  73.462  -6.331  1.00  0.00    -0.393 OA
ATOM     31  H   UNL     1      10.631  74.421  -6.460  1.00  0.00     0.210 HD
ENDBRANCH  29  30
ENDBRANCH   9  11
ENDBRANCH   1   9
TORSDOF 7
ENDMDL
MODEL 3
REMARK VINA RESULT:    -9.097      1.513      2.487
REMARK INTER + INTRA:         -12.946
REMARK INTER:                 -11.208
REMARK INTRA:                  -1.737
REMARK UNBOUND:                -0.392
REMARK SMILES CC[C@@H](CC[C@H](C)[C@@H]1CC[C@H]2[C@@H]3CC=C4C[C@@H](O)CC[C@@]4(C)[C@H]3CC[C@]21C)C(C)C
REMARK SMILES IDX 5 1 4 2 3 3 2 4 1 5 28 6 29 7 30 8 6 9 7 10 8 11 9 12 26 13
REMARK SMILES IDX 10 14 11 15 25 16 27 17 12 18 24 19 23 20 13 21 21 22 14 23
REMARK SMILES IDX 15 24 20 25 22 26 16 27 19 28 17 29 18 30
REMARK H PARENT 18 31
REMARK Flexibility Score: inf
ROOT
ATOM      1  C   UNL     1      10.950  79.323   0.728  1.00  0.00     0.004 C 
ENDROOT
BRANCH   1   2
ATOM      2  C   UNL     1       9.632  80.118   0.817  1.00  0.00     0.004 C 
BRANCH   2   3
ATOM      3  C   UNL     1       8.572  79.417   1.709  1.00  0.00    -0.009 C 
BRANCH   3   4
ATOM      4  C   UNL     1       9.176  78.677   2.945  1.00  0.00     0.000 C 
ATOM      5  C   UNL     1       8.343  78.722   4.234  1.00  0.00     0.004 C 
ENDBRANCH   3   4
BRANCH   3   6
ATOM      6  C   UNL     1       7.581  78.558   0.855  1.00  0.00    -0.014 C 
ATOM      7  C   UNL     1       6.114  78.787   1.259  1.00  0.00     0.007 C 
ATOM      8  C   UNL     1       7.897  77.058   0.843  1.00  0.00     0.007 C 
ENDBRANCH   3   6
ENDBRANCH   2   3
ENDBRANCH   1   2
BRANCH   1   9
ATOM      9  C   UNL     1      11.286  78.897  -0.729  1.00  0.00    -0.011 C 
ATOM     10  C   UNL     1      10.104  79.244  -1.656  1.00  0.00     0.008 C 
BRANCH   9  11
ATOM     11  C   UNL     1      11.678  77.384  -0.913  1.00  0.00    -0.002 C 
ATOM     12  C   UNL     1      11.565  76.495   0.336  1.00  0.00     0.005 C 
ATOM     13  C   UNL     1      13.073  77.067  -1.527  1.00  0.00    -0.026 C 
ATOM     14  C   UNL     1      12.590  75.371   0.160  1.00  0.00     0.005 C 
ATOM     15  C   UNL     1      13.237  75.550  -1.232  1.00  0.00    -0.001 C 
ATOM     16  C   UNL     1      13.184  77.399  -3.041  1.00  0.00     0.007 C 
ATOM     17  C   UNL     1      14.211  77.843  -0.809  1.00  0.00     0.012 C 
ATOM     18  C   UNL     1      12.556  74.586  -2.266  1.00  0.00     0.000 C 
ATOM     19  C   UNL     1      12.371  76.476  -3.941  1.00  0.00     0.005 C 
ATOM     20  C   UNL     1      12.782  75.003  -3.738  1.00  0.00     0.003 C 
ATOM     21  C   UNL     1      13.129  73.166  -2.089  1.00  0.00     0.031 C 
ATOM     22  C   UNL     1      12.091  74.009  -4.769  1.00  0.00    -0.008 C 
ATOM     23  C   UNL     1      12.498  72.200  -3.039  1.00  0.00    -0.027 C 
ATOM     24  C   UNL     1      12.081  72.552  -4.270  1.00  0.00    -0.065 C 
ATOM     25  C   UNL     1      10.603  74.404  -5.043  1.00  0.00     0.014 C 
ATOM     26  C   UNL     1      12.901  74.070  -6.093  1.00  0.00     0.016 C 
ATOM     27  C   UNL     1      11.346  71.523  -5.103  1.00  0.00     0.063 C 
ATOM     28  C   UNL     1       9.817  73.376  -5.883  1.00  0.00     0.033 C 
ATOM     29  C   UNL     1       9.887  71.959  -5.294  1.00  0.00     0.118 C 
BRANCH  29  30
ATOM     30  O   UNL     1       9.202  71.927  -4.067  1.00  0.00    -0.393 OA
ATOM     31  H   UNL     1       8.895  72.854  -3.886  1.00  0.00     0.210 HD
ENDBRANCH  29  30
ENDBRANCH   9  11
ENDBRANCH   1   9
TORSDOF 7
ENDMDL
MODEL 4
REMARK VINA RESULT:    -8.991      1.078      1.762
REMARK INTER + INTRA:         -12.800
REMARK INTER:                 -12.166
REMARK INTRA:                  -0.634
REMARK UNBOUND:                -0.392
REMARK SMILES CC[C@@H](CC[C@H](C)[C@@H]1CC[C@H]2[C@@H]3CC=C4C[C@@H](O)CC[C@@]4(C)[C@H]3CC[C@]21C)C(C)C
REMARK SMILES IDX 5 1 4 2 3 3 2 4 1 5 28 6 29 7 30 8 6 9 7 10 8 11 9 12 26 13
REMARK SMILES IDX 10 14 11 15 25 16 27 17 12 18 24 19 23 20 13 21 21 22 14 23
REMARK SMILES IDX 15 24 20 25 22 26 16 27 19 28 17 29 18 30
REMARK H PARENT 18 31
REMARK Flexibility Score: inf
ROOT
ATOM      1  C   UNL     1       9.670  77.880   1.593  1.00  0.00     0.004 C 
ENDROOT
BRANCH   1   2
ATOM      2  C   UNL     1       9.087  76.666   0.842  1.00  0.00     0.004 C 
BRANCH   2   3
ATOM      3  C   UNL     1       7.555  76.782   0.620  1.00  0.00    -0.009 C 
BRANCH   3   4
ATOM      4  C   UNL     1       6.834  77.705   1.654  1.00  0.00     0.000 C 
ATOM      5  C   UNL     1       6.190  78.979   1.091  1.00  0.00     0.004 C 
ENDBRANCH   3   4
BRANCH   3   6
ATOM      6  C   UNL     1       6.895  75.375   0.430  1.00  0.00    -0.014 C 
ATOM      7  C   UNL     1       7.068  74.838  -1.002  1.00  0.00     0.007 C 
ATOM      8  C   UNL     1       5.419  75.312   0.842  1.00  0.00     0.007 C 
ENDBRANCH   3   6
ENDBRANCH   2   3
ENDBRANCH   1   2
BRANCH   1   9
ATOM      9  C   UNL     1      10.552  78.774   0.676  1.00  0.00    -0.011 C 
ATOM     10  C   UNL     1       9.677  79.851   0.005  1.00  0.00     0.008 C 
BRANCH   9  11
ATOM     11  C   UNL     1      11.379  78.004  -0.418  1.00  0.00    -0.002 C 
ATOM     12  C   UNL     1      12.904  77.976  -0.225  1.00  0.00     0.005 C 
ATOM     13  C   UNL     1      11.154  78.398  -1.907  1.00  0.00    -0.026 C 
ATOM     14  C   UNL     1      13.515  77.848  -1.623  1.00  0.00     0.005 C 
ATOM     15  C   UNL     1      12.347  77.708  -2.625  1.00  0.00    -0.001 C 
ATOM     16  C   UNL     1       9.776  77.956  -2.474  1.00  0.00     0.007 C 
ATOM     17  C   UNL     1      11.261  79.933  -2.121  1.00  0.00     0.012 C 
ATOM     18  C   UNL     1      12.131  76.196  -2.987  1.00  0.00     0.000 C 
ATOM     19  C   UNL     1       9.633  76.451  -2.658  1.00  0.00     0.005 C 
ATOM     20  C   UNL     1      10.736  75.900  -3.586  1.00  0.00     0.003 C 
ATOM     21  C   UNL     1      13.185  75.768  -4.026  1.00  0.00     0.031 C 
ATOM     22  C   UNL     1      10.540  74.365  -3.953  1.00  0.00    -0.008 C 
ATOM     23  C   UNL     1      13.037  74.327  -4.393  1.00  0.00    -0.027 C 
ATOM     24  C   UNL     1      11.847  73.699  -4.422  1.00  0.00    -0.065 C 
ATOM     25  C   UNL     1      10.025  73.540  -2.729  1.00  0.00     0.014 C 
ATOM     26  C   UNL     1       9.506  74.288  -5.108  1.00  0.00     0.016 C 
ATOM     27  C   UNL     1      11.826  72.208  -4.688  1.00  0.00     0.063 C 
ATOM     28  C   UNL     1       9.996  72.014  -2.958  1.00  0.00     0.033 C 
ATOM     29  C   UNL     1      11.350  71.465  -3.432  1.00  0.00     0.118 C 
BRANCH  29  30
ATOM     30  O   UNL     1      12.296  71.594  -2.400  1.00  0.00    -0.393 OA
ATOM     31  H   UNL     1      12.472  70.679  -2.058  1.00  0.00     0.210 HD
ENDBRANCH  29  30
ENDBRANCH   9  11
ENDBRANCH   1   9
TORSDOF 7
ENDMDL
MODEL 5
REMARK VINA RESULT:    -8.617      2.029      3.242
REMARK INTER + INTRA:         -12.284
REMARK INTER:                 -11.859
REMARK INTRA:                  -0.424
REMARK UNBOUND:                -0.392
REMARK SMILES CC[C@@H](CC[C@H](C)[C@@H]1CC[C@H]2[C@@H]3CC=C4C[C@@H](O)CC[C@@]4(C)[C@H]3CC[C@]21C)C(C)C
REMARK SMILES IDX 5 1 4 2 3 3 2 4 1 5 28 6 29 7 30 8 6 9 7 10 8 11 9 12 26 13
REMARK SMILES IDX 10 14 11 15 25 16 27 17 12 18 24 19 23 20 13 21 21 22 14 23
REMARK SMILES IDX 15 24 20 25 22 26 16 27 19 28 17 29 18 30
REMARK H PARENT 18 31
REMARK Flexibility Score: inf
ROOT
ATOM      1  C   UNL     1       9.685  77.540   1.812  1.00  0.00     0.004 C 
ENDROOT
BRANCH   1   2
ATOM      2  C   UNL     1       9.517  78.916   2.486  1.00  0.00     0.004 C 
BRANCH   2   3
ATOM      3  C   UNL     1       8.042  79.403   2.486  1.00  0.00    -0.009 C 
BRANCH   3   4
ATOM      4  C   UNL     1       7.229  78.957   3.742  1.00  0.00     0.000 C 
ATOM      5  C   UNL     1       8.052  78.568   4.978  1.00  0.00     0.004 C 
ENDBRANCH   3   4
BRANCH   3   6
ATOM      6  C   UNL     1       7.342  79.111   1.117  1.00  0.00    -0.014 C 
ATOM      7  C   UNL     1       7.740  80.125   0.030  1.00  0.00     0.007 C 
ATOM      8  C   UNL     1       5.815  79.001   1.202  1.00  0.00     0.007 C 
ENDBRANCH   3   6
ENDBRANCH   2   3
ENDBRANCH   1   2
BRANCH   1   9
ATOM      9  C   UNL     1      10.648  77.594   0.592  1.00  0.00    -0.011 C 
ATOM     10  C   UNL     1      11.060  79.054   0.321  1.00  0.00     0.008 C 
BRANCH   9  11
ATOM     11  C   UNL     1      10.095  76.944  -0.730  1.00  0.00    -0.002 C 
ATOM     12  C   UNL     1       9.511  77.913  -1.771  1.00  0.00     0.005 C 
ATOM     13  C   UNL     1       9.051  75.798  -0.592  1.00  0.00    -0.026 C 
ATOM     14  C   UNL     1       8.463  77.120  -2.558  1.00  0.00     0.005 C 
ATOM     15  C   UNL     1       8.501  75.665  -2.040  1.00  0.00    -0.001 C 
ATOM     16  C   UNL     1       9.645  74.467  -0.052  1.00  0.00     0.007 C 
ATOM     17  C   UNL     1       7.884  76.190   0.353  1.00  0.00     0.012 C 
ATOM     18  C   UNL     1       9.359  74.775  -3.007  1.00  0.00     0.000 C 
ATOM     19  C   UNL     1      10.572  73.757  -1.030  1.00  0.00     0.005 C 
ATOM     20  C   UNL     1       9.848  73.458  -2.360  1.00  0.00     0.003 C 
ATOM     21  C   UNL     1       8.513  74.403  -4.239  1.00  0.00     0.031 C 
ATOM     22  C   UNL     1      10.709  72.568  -3.358  1.00  0.00    -0.008 C 
ATOM     23  C   UNL     1       9.290  73.570  -5.206  1.00  0.00    -0.027 C 
ATOM     24  C   UNL     1      10.240  72.697  -4.818  1.00  0.00    -0.065 C 
ATOM     25  C   UNL     1      12.221  72.967  -3.330  1.00  0.00     0.014 C 
ATOM     26  C   UNL     1      10.551  71.087  -2.919  1.00  0.00     0.016 C 
ATOM     27  C   UNL     1      11.050  71.994  -5.888  1.00  0.00     0.063 C 
ATOM     28  C   UNL     1      13.080  72.277  -4.411  1.00  0.00     0.033 C 
ATOM     29  C   UNL     1      12.509  72.467  -5.825  1.00  0.00     0.118 C 
BRANCH  29  30
ATOM     30  O   UNL     1      12.601  73.820  -6.190  1.00  0.00    -0.393 OA
ATOM     31  H   UNL     1      11.681  74.191  -6.152  1.00  0.00     0.210 HD
ENDBRANCH  29  30
ENDBRANCH   9  11
ENDBRANCH   1   9
TORSDOF 7
ENDMDL
MODEL 6
REMARK VINA RESULT:    -8.371      2.100      4.928
REMARK INTER + INTRA:         -11.944
REMARK INTER:                 -10.855
REMARK INTRA:                  -1.089
REMARK UNBOUND:                -0.392
REMARK SMILES CC[C@@H](CC[C@H](C)[C@@H]1CC[C@H]2[C@@H]3CC=C4C[C@@H](O)CC[C@@]4(C)[C@H]3CC[C@]21C)C(C)C
REMARK SMILES IDX 5 1 4 2 3 3 2 4 1 5 28 6 29 7 30 8 6 9 7 10 8 11 9 12 26 13
REMARK SMILES IDX 10 14 11 15 25 16 27 17 12 18 24 19 23 20 13 21 21 22 14 23
REMARK SMILES IDX 15 24 20 25 22 26 16 27 19 28 17 29 18 30
REMARK H PARENT 18 31
REMARK Flexibility Score: inf
ROOT
ATOM      1  C   UNL     1      11.377  79.964  -0.609  1.00  0.00     0.004 C 
ENDROOT
BRANCH   1   2
ATOM      2  C   UNL     1      11.897  79.954  -2.061  1.00  0.00     0.004 C 
BRANCH   2   3
ATOM      3  C   UNL     1      13.253  79.211  -2.203  1.00  0.00    -0.009 C 
BRANCH   3   4
ATOM      4  C   UNL     1      14.499  80.116  -1.945  1.00  0.00     0.000 C 
ATOM      5  C   UNL     1      15.084  80.075  -0.527  1.00  0.00     0.004 C 
ENDBRANCH   3   4
BRANCH   3   6
ATOM      6  C   UNL     1      13.314  78.377  -3.526  1.00  0.00    -0.014 C 
ATOM      7  C   UNL     1      13.482  76.871  -3.259  1.00  0.00     0.007 C 
ATOM      8  C   UNL     1      14.375  78.857  -4.524  1.00  0.00     0.007 C 
ENDBRANCH   3   6
ENDBRANCH   2   3
ENDBRANCH   1   2
BRANCH   1   9
ATOM      9  C   UNL     1      10.983  78.545  -0.112  1.00  0.00    -0.011 C 
ATOM     10  C   UNL     1      12.215  77.849   0.500  1.00  0.00     0.008 C 
BRANCH   9  11
ATOM     11  C   UNL     1      10.330  77.611  -1.197  1.00  0.00    -0.002 C 
ATOM     12  C   UNL     1       9.493  78.308  -2.281  1.00  0.00     0.005 C 
ATOM     13  C   UNL     1       9.460  76.420  -0.698  1.00  0.00    -0.026 C 
ATOM     14  C   UNL     1       8.447  77.289  -2.742  1.00  0.00     0.005 C 
ATOM     15  C   UNL     1       8.731  75.967  -1.994  1.00  0.00    -0.001 C 
ATOM     16  C   UNL     1      10.278  75.275  -0.039  1.00  0.00     0.007 C 
ATOM     17  C   UNL     1       8.399  76.875   0.341  1.00  0.00     0.012 C 
ATOM     18  C   UNL     1       9.543  74.993  -2.918  1.00  0.00     0.000 C 
ATOM     19  C   UNL     1      11.135  74.481  -1.016  1.00  0.00     0.005 C 
ATOM     20  C   UNL     1      10.272  73.872  -2.141  1.00  0.00     0.003 C 
ATOM     21  C   UNL     1       8.581  74.320  -3.916  1.00  0.00     0.031 C 
ATOM     22  C   UNL     1      11.082  72.892  -3.095  1.00  0.00    -0.008 C 
ATOM     23  C   UNL     1       9.308  73.394  -4.836  1.00  0.00    -0.027 C 
ATOM     24  C   UNL     1      10.399  72.700  -4.462  1.00  0.00    -0.065 C 
ATOM     25  C   UNL     1      12.524  73.426  -3.380  1.00  0.00     0.014 C 
ATOM     26  C   UNL     1      11.165  71.512  -2.388  1.00  0.00     0.016 C 
ATOM     27  C   UNL     1      11.128  71.885  -5.510  1.00  0.00     0.063 C 
ATOM     28  C   UNL     1      13.298  72.626  -4.450  1.00  0.00     0.033 C 
ATOM     29  C   UNL     1      12.515  72.492  -5.765  1.00  0.00     0.118 C 
BRANCH  29  30
ATOM     30  O   UNL     1      12.393  73.756  -6.368  1.00  0.00    -0.393 OA
ATOM     31  H   UNL     1      11.745  73.656  -7.114  1.00  0.00     0.210 HD
ENDBRANCH  29  30
ENDBRANCH   9  11
ENDBRANCH   1   9
TORSDOF 7
ENDMDL
MODEL 7
REMARK VINA RESULT:    -8.335      2.742      6.935
REMARK INTER + INTRA:         -11.895
REMARK INTER:                 -10.064
REMARK INTRA:                  -1.830
REMARK UNBOUND:                -0.392
REMARK SMILES CC[C@@H](CC[C@H](C)[C@@H]1CC[C@H]2[C@@H]3CC=C4C[C@@H](O)CC[C@@]4(C)[C@H]3CC[C@]21C)C(C)C
REMARK SMILES IDX 5 1 4 2 3 3 2 4 1 5 28 6 29 7 30 8 6 9 7 10 8 11 9 12 26 13
REMARK SMILES IDX 10 14 11 15 25 16 27 17 12 18 24 19 23 20 13 21 21 22 14 23
REMARK SMILES IDX 15 24 20 25 22 26 16 27 19 28 17 29 18 30
REMARK H PARENT 18 31
REMARK Flexibility Score: inf
ROOT
ATOM      1  C   UNL     1      10.773  71.442  -4.381  1.00  0.00     0.004 C 
ENDROOT
BRANCH   1   2
ATOM      2  C   UNL     1       9.515  71.949  -3.647  1.00  0.00     0.004 C 
BRANCH   2   3
ATOM      3  C   UNL     1       8.783  73.074  -4.428  1.00  0.00    -0.009 C 
BRANCH   3   4
ATOM      4  C   UNL     1       9.078  73.074  -5.962  1.00  0.00     0.000 C 
ATOM      5  C   UNL     1       9.103  74.448  -6.646  1.00  0.00     0.004 C 
ENDBRANCH   3   4
BRANCH   3   6
ATOM      6  C   UNL     1       8.957  74.464  -3.730  1.00  0.00    -0.014 C 
ATOM      7  C   UNL     1       9.423  74.329  -2.269  1.00  0.00     0.007 C 
ATOM      8  C   UNL     1       7.720  75.367  -3.807  1.00  0.00     0.007 C 
ENDBRANCH   3   6
ENDBRANCH   2   3
ENDBRANCH   1   2
BRANCH   1   9
ATOM      9  C   UNL     1      12.086  71.894  -3.684  1.00  0.00    -0.011 C 
ATOM     10  C   UNL     1      12.024  71.542  -2.184  1.00  0.00     0.008 C 
BRANCH   9  11
ATOM     11  C   UNL     1      12.450  73.415  -3.857  1.00  0.00    -0.002 C 
ATOM     12  C   UNL     1      12.423  73.962  -5.293  1.00  0.00     0.005 C 
ATOM     13  C   UNL     1      13.792  73.914  -3.245  1.00  0.00    -0.026 C 
ATOM     14  C   UNL     1      13.422  75.122  -5.333  1.00  0.00     0.005 C 
ATOM     15  C   UNL     1      13.964  75.313  -3.898  1.00  0.00    -0.001 C 
ATOM     16  C   UNL     1      13.792  73.972  -1.692  1.00  0.00     0.007 C 
ATOM     17  C   UNL     1      14.987  73.015  -3.664  1.00  0.00     0.012 C 
ATOM     18  C   UNL     1      13.199  76.485  -3.189  1.00  0.00     0.000 C 
ATOM     19  C   UNL     1      12.906  75.068  -1.111  1.00  0.00     0.005 C 
ATOM     20  C   UNL     1      13.318  76.455  -1.648  1.00  0.00     0.003 C 
ATOM     21  C   UNL     1      13.771  77.831  -3.675  1.00  0.00     0.031 C 
ATOM     22  C   UNL     1      12.543  77.655  -0.949  1.00  0.00    -0.008 C 
ATOM     23  C   UNL     1      13.062  78.986  -3.044  1.00  0.00    -0.027 C 
ATOM     24  C   UNL     1      12.557  78.940  -1.796  1.00  0.00    -0.065 C 
ATOM     25  C   UNL     1      11.042  77.299  -0.690  1.00  0.00     0.014 C 
ATOM     26  C   UNL     1      13.252  77.947   0.401  1.00  0.00     0.016 C 
ATOM     27  C   UNL     1      11.752  80.124  -1.301  1.00  0.00     0.063 C 
ATOM     28  C   UNL     1      10.186  78.483  -0.191  1.00  0.00     0.033 C 
ATOM     29  C   UNL     1      10.287  79.709  -1.111  1.00  0.00     0.118 C 
BRANCH  29  30
ATOM     30  O   UNL     1       9.696  79.416  -2.352  1.00  0.00    -0.393 OA
ATOM     31  H   UNL     1      10.431  79.384  -3.019  1.00  0.00     0.210 HD
ENDBRANCH  29  30
ENDBRANCH   9  11
ENDBRANCH   1   9
TORSDOF 7
ENDMDL
MODEL 8
REMARK VINA RESULT:    -8.268      2.318      7.758
REMARK INTER + INTRA:         -11.802
REMARK INTER:                 -11.568
REMARK INTRA:                  -0.234
REMARK UNBOUND:                -0.392
REMARK SMILES CC[C@@H](CC[C@H](C)[C@@H]1CC[C@H]2[C@@H]3CC=C4C[C@@H](O)CC[C@@]4(C)[C@H]3CC[C@]21C)C(C)C
REMARK SMILES IDX 5 1 4 2 3 3 2 4 1 5 28 6 29 7 30 8 6 9 7 10 8 11 9 12 26 13
REMARK SMILES IDX 10 14 11 15 25 16 27 17 12 18 24 19 23 20 13 21 21 22 14 23
REMARK SMILES IDX 15 24 20 25 22 26 16 27 19 28 17 29 18 30
REMARK H PARENT 18 31
REMARK Flexibility Score: inf
ROOT
ATOM      1  C   UNL     1      13.075  73.673  -2.899  1.00  0.00     0.004 C 
ENDROOT
BRANCH   1   2
ATOM      2  C   UNL     1      12.154  72.443  -3.027  1.00  0.00     0.004 C 
BRANCH   2   3
ATOM      3  C   UNL     1      11.785  72.127  -4.502  1.00  0.00    -0.009 C 
BRANCH   3   4
ATOM      4  C   UNL     1      11.661  73.393  -5.408  1.00  0.00     0.000 C 
ATOM      5  C   UNL     1      12.878  73.718  -6.286  1.00  0.00     0.004 C 
ENDBRANCH   3   4
BRANCH   3   6
ATOM      6  C   UNL     1      10.573  71.140  -4.591  1.00  0.00    -0.014 C 
ATOM      7  C   UNL     1       9.485  71.638  -5.559  1.00  0.00     0.007 C 
ATOM      8  C   UNL     1       9.950  70.785  -3.236  1.00  0.00     0.007 C 
ENDBRANCH   3   6
ENDBRANCH   2   3
ENDBRANCH   1   2
BRANCH   1   9
ATOM      9  C   UNL     1      12.290  75.012  -2.998  1.00  0.00    -0.011 C 
ATOM     10  C   UNL     1      13.242  76.192  -2.718  1.00  0.00     0.008 C 
BRANCH   9  11
ATOM     11  C   UNL     1      11.025  75.119  -2.070  1.00  0.00    -0.002 C 
ATOM     12  C   UNL     1      10.593  73.829  -1.356  1.00  0.00     0.005 C 
ATOM     13  C   UNL     1       9.723  75.712  -2.686  1.00  0.00    -0.026 C 
ATOM     14  C   UNL     1       9.083  73.945  -1.129  1.00  0.00     0.005 C 
ATOM     15  C   UNL     1       8.648  75.341  -1.627  1.00  0.00    -0.001 C 
ATOM     16  C   UNL     1       9.795  77.240  -2.958  1.00  0.00     0.007 C 
ATOM     17  C   UNL     1       9.358  75.028  -4.031  1.00  0.00     0.012 C 
ATOM     18  C   UNL     1       8.530  76.329  -0.413  1.00  0.00     0.000 C 
ATOM     19  C   UNL     1       9.810  78.096  -1.698  1.00  0.00     0.005 C 
ATOM     20  C   UNL     1       8.567  77.819  -0.826  1.00  0.00     0.003 C 
ATOM     21  C   UNL     1       7.195  76.080   0.315  1.00  0.00     0.031 C 
ATOM     22  C   UNL     1       8.439  78.803   0.416  1.00  0.00    -0.008 C 
ATOM     23  C   UNL     1       7.040  76.984   1.496  1.00  0.00    -0.027 C 
ATOM     24  C   UNL     1       7.543  78.232   1.531  1.00  0.00    -0.065 C 
ATOM     25  C   UNL     1       9.831  79.102   1.062  1.00  0.00     0.014 C 
ATOM     26  C   UNL     1       7.805  80.124  -0.097  1.00  0.00     0.016 C 
ATOM     27  C   UNL     1       7.433  79.016   2.822  1.00  0.00     0.063 C 
ATOM     28  C   UNL     1       9.761  79.893   2.385  1.00  0.00     0.033 C 
ATOM     29  C   UNL     1       8.832  79.234   3.416  1.00  0.00     0.118 C 
BRANCH  29  30
ATOM     30  O   UNL     1       9.384  78.010   3.830  1.00  0.00    -0.393 OA
ATOM     31  H   UNL     1       8.695  77.314   3.664  1.00  0.00     0.210 HD
ENDBRANCH  29  30
ENDBRANCH   9  11
ENDBRANCH   1   9
TORSDOF 7
ENDMDL
MODEL 9
REMARK VINA RESULT:    -7.876      2.156      7.206
REMARK INTER + INTRA:         -11.262
REMARK INTER:                 -10.240
REMARK INTRA:                  -1.022
REMARK UNBOUND:                -0.392
REMARK SMILES CC[C@@H](CC[C@H](C)[C@@H]1CC[C@H]2[C@@H]3CC=C4C[C@@H](O)CC[C@@]4(C)[C@H]3CC[C@]21C)C(C)C
REMARK SMILES IDX 5 1 4 2 3 3 2 4 1 5 28 6 29 7 30 8 6 9 7 10 8 11 9 12 26 13
REMARK SMILES IDX 10 14 11 15 25 16 27 17 12 18 24 19 23 20 13 21 21 22 14 23
REMARK SMILES IDX 15 24 20 25 22 26 16 27 19 28 17 29 18 30
REMARK H PARENT 18 31
REMARK Flexibility Score: inf
ROOT
ATOM      1  C   UNL     1      12.935  75.242  -4.379  1.00  0.00     0.004 C 
ENDROOT
BRANCH   1   2
ATOM      2  C   UNL     1      13.976  76.147  -3.690  1.00  0.00     0.004 C 
BRANCH   2   3
ATOM      3  C   UNL     1      13.726  77.655  -3.961  1.00  0.00    -0.009 C 
BRANCH   3   4
ATOM      4  C   UNL     1      14.596  78.241  -5.119  1.00  0.00     0.000 C 
ATOM      5  C   UNL     1      14.412  79.737  -5.413  1.00  0.00     0.004 C 
ENDBRANCH   3   4
BRANCH   3   6
ATOM      6  C   UNL     1      13.756  78.489  -2.637  1.00  0.00    -0.014 C 
ATOM      7  C   UNL     1      13.657  77.599  -1.385  1.00  0.00     0.007 C 
ATOM      8  C   UNL     1      12.707  79.605  -2.573  1.00  0.00     0.007 C 
ENDBRANCH   3   6
ENDBRANCH   2   3
ENDBRANCH   1   2
BRANCH   1   9
ATOM      9  C   UNL     1      12.510  74.043  -3.486  1.00  0.00    -0.011 C 
ATOM     10  C   UNL     1      12.248  72.806  -4.368  1.00  0.00     0.008 C 
BRANCH   9  11
ATOM     11  C   UNL     1      11.268  74.304  -2.556  1.00  0.00    -0.002 C 
ATOM     12  C   UNL     1      10.790  73.114  -1.709  1.00  0.00     0.005 C 
ATOM     13  C   UNL     1       9.985  74.894  -3.211  1.00  0.00    -0.026 C 
ATOM     14  C   UNL     1       9.292  73.325  -1.474  1.00  0.00     0.005 C 
ATOM     15  C   UNL     1       8.913  74.684  -2.104  1.00  0.00    -0.001 C 
ATOM     16  C   UNL     1      10.123  76.382  -3.637  1.00  0.00     0.007 C 
ATOM     17  C   UNL     1       9.563  74.097  -4.475  1.00  0.00     0.012 C 
ATOM     18  C   UNL     1       8.864  75.793  -0.996  1.00  0.00     0.000 C 
ATOM     19  C   UNL     1      10.201  77.359  -2.470  1.00  0.00     0.005 C 
ATOM     20  C   UNL     1       8.963  77.230  -1.558  1.00  0.00     0.003 C 
ATOM     21  C   UNL     1       7.533  75.683  -0.227  1.00  0.00     0.031 C 
ATOM     22  C   UNL     1       8.904  78.339  -0.419  1.00  0.00    -0.008 C 
ATOM     23  C   UNL     1       7.442  76.707   0.858  1.00  0.00    -0.027 C 
ATOM     24  C   UNL     1       8.004  77.927   0.760  1.00  0.00    -0.065 C 
ATOM     25  C   UNL     1      10.321  78.634   0.174  1.00  0.00     0.014 C 
ATOM     26  C   UNL     1       8.324  79.632  -1.055  1.00  0.00     0.016 C 
ATOM     27  C   UNL     1       7.954  78.841   1.966  1.00  0.00     0.063 C 
ATOM     28  C   UNL     1      10.312  79.557   1.411  1.00  0.00     0.033 C 
ATOM     29  C   UNL     1       9.372  79.050   2.515  1.00  0.00     0.118 C 
BRANCH  29  30
ATOM     30  O   UNL     1       9.874  77.848   3.043  1.00  0.00    -0.393 OA
ATOM     31  H   UNL     1       9.204  77.521   3.700  1.00  0.00     0.210 HD
ENDBRANCH  29  30
ENDBRANCH   9  11
ENDBRANCH   1   9
TORSDOF 7
ENDMDL
