MODEL 1
REMARK VINA RESULT:    -4.412      0.000      0.000
REMARK INTER + INTRA:         -10.724
REMARK INTER:                  -8.538
REMARK INTRA:                  -2.186
REMARK UNBOUND:                -2.186
REMARK SMILES CCCCCCCCCCCCCCCCCC(=O)[O-]
REMARK SMILES IDX 10 1 11 2 12 3 13 4 14 5 15 6 16 7 17 8 18 9 19 10 20 11
REMARK SMILES IDX 9 12 8 13 7 14 6 15 5 16 4 17 3 18 2 19 1 20
REMARK H PARENT
REMARK Flexibility Score: inf
ROOT
ATOM      1  C   UNL     1     -11.433   2.660  20.762  1.00  0.00     0.000 C 
ENDROOT
BRANCH   1   2
ATOM      2  C   UNL     1     -12.245   3.963  20.653  1.00  0.00     0.000 C 
BRANCH   2   3
ATOM      3  C   UNL     1     -12.934   4.190  19.290  1.00  0.00     0.000 C 
BRANCH   3   4
ATOM      4  C   UNL     1     -12.155   5.074  18.297  1.00  0.00     0.000 C 
BRANCH   4   5
ATOM      5  C   UNL     1     -11.621   4.336  17.056  1.00  0.00     0.000 C 
BRANCH   5   6
ATOM      6  C   UNL     1     -12.160   2.899  16.945  1.00  0.00     0.000 C 
BRANCH   6   7
ATOM      7  C   UNL     1     -11.547   2.128  15.765  1.00  0.00     0.006 C 
BRANCH   7   8
ATOM      8  C   UNL     1     -12.394   0.918  15.346  1.00  0.00     0.053 C 
BRANCH   8   9
ATOM      9  C   UNL     1     -11.819   0.277  14.123  1.00  0.00     0.041 C 
ATOM     10  O   UNL     1     -12.575  -0.293  13.294  1.00  0.00    -0.550 OA
ATOM     11  O   UNL     1     -10.455   0.355  13.871  1.00  0.00    -0.550 OA
ENDBRANCH   8   9
ENDBRANCH   7   8
ENDBRANCH   6   7
ENDBRANCH   5   6
ENDBRANCH   4   5
ENDBRANCH   3   4
ENDBRANCH   2   3
ENDBRANCH   1   2
BRANCH   1  12
ATOM     12  C   UNL     1      -9.930   2.911  20.965  1.00  0.00     0.000 C 
BRANCH  12  13
ATOM     13  C   UNL     1      -9.263   3.328  19.649  1.00  0.00    -0.000 C 
BRANCH  13  14
ATOM     14  C   UNL     1      -8.449   2.173  19.054  1.00  0.00    -0.000 C 
BRANCH  14  15
ATOM     15  C   UNL     1      -9.360   0.992  18.683  1.00  0.00    -0.000 C 
BRANCH  15  16
ATOM     16  C   UNL     1      -8.797  -0.361  19.154  1.00  0.00    -0.000 C 
BRANCH  16  17
ATOM     17  C   UNL     1      -9.803  -1.240  19.920  1.00  0.00    -0.000 C 
BRANCH  17  18
ATOM     18  C   UNL     1     -10.111  -0.705  21.328  1.00  0.00    -0.000 C 
BRANCH  18  19
ATOM     19  C   UNL     1      -8.903  -0.807  22.271  1.00  0.00    -0.003 C 
ATOM     20  C   UNL     1      -9.139  -0.088  23.601  1.00  0.00     0.004 C 
ENDBRANCH  18  19
ENDBRANCH  17  18
ENDBRANCH  16  17
ENDBRANCH  15  16
ENDBRANCH  14  15
ENDBRANCH  13  14
ENDBRANCH  12  13
ENDBRANCH   1  12
TORSDOF 16
ENDMDL
MODEL 2
REMARK VINA RESULT:    -4.394      3.444      6.749
REMARK INTER + INTRA:         -10.689
REMARK INTER:                  -8.283
REMARK INTRA:                  -2.406
REMARK UNBOUND:                -2.186
REMARK SMILES CCCCCCCCCCCCCCCCCC(=O)[O-]
REMARK SMILES IDX 10 1 11 2 12 3 13 4 14 5 15 6 16 7 17 8 18 9 19 10 20 11
REMARK SMILES IDX 9 12 8 13 7 14 6 15 5 16 4 17 3 18 2 19 1 20
REMARK H PARENT
REMARK Flexibility Score: inf
ROOT
ATOM      1  C   UNL     1      -9.795   3.205  19.729  1.00  0.00     0.000 C 
ENDROOT
BRANCH   1   2
ATOM      2  C   UNL     1      -8.950   2.073  19.113  1.00  0.00     0.000 C 
BRANCH   2   3
ATOM      3  C   UNL     1      -9.723   0.771  18.818  1.00  0.00     0.000 C 
BRANCH   3   4
ATOM      4  C   UNL     1      -9.036  -0.525  19.293  1.00  0.00     0.000 C 
BRANCH   4   5
ATOM      5  C   UNL     1      -9.689  -1.190  20.519  1.00  0.00     0.000 C 
BRANCH   5   6
ATOM      6  C   UNL     1      -8.892  -0.954  21.814  1.00  0.00     0.000 C 
BRANCH   6   7
ATOM      7  C   UNL     1      -9.665  -0.103  22.834  1.00  0.00     0.006 C 
BRANCH   7   8
ATOM      8  C   UNL     1     -11.061   0.295  22.335  1.00  0.00     0.053 C 
BRANCH   8   9
ATOM      9  C   UNL     1     -11.878   0.852  23.459  1.00  0.00     0.041 C 
ATOM     10  O   UNL     1     -11.450   0.790  24.641  1.00  0.00    -0.550 OA
ATOM     11  O   UNL     1     -13.085   1.485  23.196  1.00  0.00    -0.550 OA
ENDBRANCH   8   9
ENDBRANCH   7   8
ENDBRANCH   6   7
ENDBRANCH   5   6
ENDBRANCH   4   5
ENDBRANCH   3   4
ENDBRANCH   2   3
ENDBRANCH   1   2
BRANCH   1  12
ATOM     12  C   UNL     1     -11.259   2.796  19.959  1.00  0.00     0.000 C 
BRANCH  12  13
ATOM     13  C   UNL     1     -12.209   3.695  19.157  1.00  0.00    -0.000 C 
BRANCH  13  14
ATOM     14  C   UNL     1     -11.427   4.681  18.282  1.00  0.00    -0.000 C 
BRANCH  14  15
ATOM     15  C   UNL     1     -11.678   4.411  16.790  1.00  0.00    -0.000 C 
BRANCH  15  16
ATOM     16  C   UNL     1     -12.543   3.160  16.552  1.00  0.00    -0.000 C 
BRANCH  16  17
ATOM     17  C   UNL     1     -11.823   2.015  15.816  1.00  0.00    -0.000 C 
BRANCH  17  18
ATOM     18  C   UNL     1     -10.326   2.295  15.599  1.00  0.00    -0.000 C 
BRANCH  18  19
ATOM     19  C   UNL     1      -9.617   1.146  14.867  1.00  0.00    -0.003 C 
ATOM     20  C   UNL     1     -10.591   0.269  14.076  1.00  0.00     0.004 C 
ENDBRANCH  18  19
ENDBRANCH  17  18
ENDBRANCH  16  17
ENDBRANCH  15  16
ENDBRANCH  14  15
ENDBRANCH  13  14
ENDBRANCH  12  13
ENDBRANCH   1  12
TORSDOF 16
ENDMDL
MODEL 3
REMARK VINA RESULT:    -4.376      1.210      2.497
REMARK INTER + INTRA:         -10.654
REMARK INTER:                  -8.285
REMARK INTRA:                  -2.370
REMARK UNBOUND:                -2.186
REMARK SMILES CCCCCCCCCCCCCCCCCC(=O)[O-]
REMARK SMILES IDX 10 1 11 2 12 3 13 4 14 5 15 6 16 7 17 8 18 9 19 10 20 11
REMARK SMILES IDX 9 12 8 13 7 14 6 15 5 16 4 17 3 18 2 19 1 20
REMARK H PARENT
REMARK Flexibility Score: inf
ROOT
ATOM      1  C   UNL     1      -8.431   2.140  18.890  1.00  0.00     0.000 C 
ENDROOT
BRANCH   1   2
ATOM      2  C   UNL     1      -9.154   3.217  19.720  1.00  0.00     0.000 C 
BRANCH   2   3
ATOM      3  C   UNL     1     -10.575   3.571  19.233  1.00  0.00     0.000 C 
BRANCH   3   4
ATOM      4  C   UNL     1     -10.638   4.539  18.034  1.00  0.00     0.000 C 
BRANCH   4   5
ATOM      5  C   UNL     1     -11.125   3.906  16.717  1.00  0.00     0.000 C 
BRANCH   5   6
ATOM      6  C   UNL     1     -12.184   2.814  16.943  1.00  0.00     0.000 C 
BRANCH   6   7
ATOM      7  C   UNL     1     -11.967   1.587  16.042  1.00  0.00     0.006 C 
BRANCH   7   8
ATOM      8  C   UNL     1     -10.639   1.646  15.274  1.00  0.00     0.053 C 
BRANCH   8   9
ATOM      9  C   UNL     1     -10.567   0.538  14.271  1.00  0.00     0.041 C 
ATOM     10  O   UNL     1     -11.624   0.014  13.832  1.00  0.00    -0.550 OA
ATOM     11  O   UNL     1      -9.336   0.120  13.782  1.00  0.00    -0.550 OA
ENDBRANCH   8   9
ENDBRANCH   7   8
ENDBRANCH   6   7
ENDBRANCH   5   6
ENDBRANCH   4   5
ENDBRANCH   3   4
ENDBRANCH   2   3
ENDBRANCH   1   2
BRANCH   1  12
ATOM     12  C   UNL     1      -9.310   0.908  18.619  1.00  0.00     0.000 C 
BRANCH  12  13
ATOM     13  C   UNL     1      -8.884  -0.271  19.501  1.00  0.00    -0.000 C 
BRANCH  13  14
ATOM     14  C   UNL     1     -10.099  -0.926  20.170  1.00  0.00    -0.000 C 
BRANCH  14  15
ATOM     15  C   UNL     1     -11.370  -0.095  19.935  1.00  0.00    -0.000 C 
BRANCH  15  16
ATOM     16  C   UNL     1     -11.682   0.855  21.105  1.00  0.00    -0.000 C 
BRANCH  16  17
ATOM     17  C   UNL     1     -11.373   0.276  22.498  1.00  0.00    -0.000 C 
BRANCH  17  18
ATOM     18  C   UNL     1     -10.760   1.315  23.452  1.00  0.00    -0.000 C 
BRANCH  18  19
ATOM     19  C   UNL     1      -9.298   0.998  23.802  1.00  0.00    -0.003 C 
ATOM     20  C   UNL     1      -8.910  -0.437  23.437  1.00  0.00     0.004 C 
ENDBRANCH  18  19
ENDBRANCH  17  18
ENDBRANCH  16  17
ENDBRANCH  15  16
ENDBRANCH  14  15
ENDBRANCH  13  14
ENDBRANCH  12  13
ENDBRANCH   1  12
TORSDOF 16
ENDMDL
MODEL 4
REMARK VINA RESULT:    -4.371      1.795      4.072
REMARK INTER + INTRA:         -10.646
REMARK INTER:                  -8.704
REMARK INTRA:                  -1.942
REMARK UNBOUND:                -2.186
REMARK SMILES CCCCCCCCCCCCCCCCCC(=O)[O-]
REMARK SMILES IDX 10 1 11 2 12 3 13 4 14 5 15 6 16 7 17 8 18 9 19 10 20 11
REMARK SMILES IDX 9 12 8 13 7 14 6 15 5 16 4 17 3 18 2 19 1 20
REMARK H PARENT
REMARK Flexibility Score: inf
ROOT
ATOM      1  C   UNL     1      -9.269  -0.705  19.634  1.00  0.00     0.000 C 
ENDROOT
BRANCH   1   2
ATOM      2  C   UNL     1      -9.370   0.769  19.197  1.00  0.00     0.000 C 
BRANCH   2   3
ATOM      3  C   UNL     1     -10.784   1.230  18.784  1.00  0.00     0.000 C 
BRANCH   3   4
ATOM      4  C   UNL     1     -10.829   2.434  17.822  1.00  0.00     0.000 C 
BRANCH   4   5
ATOM      5  C   UNL     1      -9.510   2.717  17.079  1.00  0.00     0.000 C 
BRANCH   5   6
ATOM      6  C   UNL     1      -9.594   2.386  15.579  1.00  0.00     0.000 C 
BRANCH   6   7
ATOM      7  C   UNL     1      -9.810   0.887  15.317  1.00  0.00     0.006 C 
BRANCH   7   8
ATOM      8  C   UNL     1     -10.526   0.617  13.986  1.00  0.00     0.053 C 
BRANCH   8   9
ATOM      9  C   UNL     1     -11.973   0.317  14.223  1.00  0.00     0.041 C 
ATOM     10  O   UNL     1     -12.554   0.777  15.241  1.00  0.00    -0.550 OA
ATOM     11  O   UNL     1     -12.692  -0.425  13.296  1.00  0.00    -0.550 OA
ENDBRANCH   8   9
ENDBRANCH   7   8
ENDBRANCH   6   7
ENDBRANCH   5   6
ENDBRANCH   4   5
ENDBRANCH   3   4
ENDBRANCH   2   3
ENDBRANCH   1   2
BRANCH   1  12
ATOM     12  C   UNL     1      -8.997  -0.862  21.138  1.00  0.00     0.000 C 
BRANCH  12  13
ATOM     13  C   UNL     1     -10.053  -0.120  21.965  1.00  0.00    -0.000 C 
BRANCH  13  14
ATOM     14  C   UNL     1      -9.543   0.168  23.382  1.00  0.00    -0.000 C 
BRANCH  14  15
ATOM     15  C   UNL     1      -9.317   1.674  23.590  1.00  0.00    -0.000 C 
BRANCH  15  16
ATOM     16  C   UNL     1      -9.821   2.518  22.406  1.00  0.00    -0.000 C 
BRANCH  16  17
ATOM     17  C   UNL     1      -9.015   3.803  22.147  1.00  0.00    -0.000 C 
BRANCH  17  18
ATOM     18  C   UNL     1      -9.038   4.235  20.672  1.00  0.00    -0.000 C 
BRANCH  18  19
ATOM     19  C   UNL     1      -7.702   3.967  19.962  1.00  0.00    -0.003 C 
ATOM     20  C   UNL     1      -6.764   5.175  20.010  1.00  0.00     0.004 C 
ENDBRANCH  18  19
ENDBRANCH  17  18
ENDBRANCH  16  17
ENDBRANCH  15  16
ENDBRANCH  14  15
ENDBRANCH  13  14
ENDBRANCH  12  13
ENDBRANCH   1  12
TORSDOF 16
ENDMDL
MODEL 5
REMARK VINA RESULT:    -4.347     10.718     13.591
REMARK INTER + INTRA:         -10.599
REMARK INTER:                  -8.237
REMARK INTRA:                  -2.362
REMARK UNBOUND:                -2.186
REMARK SMILES CCCCCCCCCCCCCCCCCC(=O)[O-]
REMARK SMILES IDX 10 1 11 2 12 3 13 4 14 5 15 6 16 7 17 8 18 9 19 10 20 11
REMARK SMILES IDX 9 12 8 13 7 14 6 15 5 16 4 17 3 18 2 19 1 20
REMARK H PARENT
REMARK Flexibility Score: inf
ROOT
ATOM      1  C   UNL     1      -3.521  -7.218  20.146  1.00  0.00     0.000 C 
ENDROOT
BRANCH   1   2
ATOM      2  C   UNL     1      -2.612  -8.276  20.800  1.00  0.00     0.000 C 
BRANCH   2   3
ATOM      3  C   UNL     1      -1.435  -7.707  21.618  1.00  0.00     0.000 C 
BRANCH   3   4
ATOM      4  C   UNL     1      -0.313  -7.049  20.790  1.00  0.00     0.000 C 
BRANCH   4   5
ATOM      5  C   UNL     1      -0.022  -5.580  21.149  1.00  0.00     0.000 C 
BRANCH   5   6
ATOM      6  C   UNL     1      -1.012  -4.603  20.491  1.00  0.00     0.000 C 
BRANCH   6   7
ATOM      7  C   UNL     1      -2.002  -3.998  21.499  1.00  0.00     0.006 C 
BRANCH   7   8
ATOM      8  C   UNL     1      -1.467  -2.719  22.157  1.00  0.00     0.053 C 
BRANCH   8   9
ATOM      9  C   UNL     1      -2.397  -2.258  23.235  1.00  0.00     0.041 C 
ATOM     10  O   UNL     1      -3.560  -1.874  22.944  1.00  0.00    -0.550 OA
ATOM     11  O   UNL     1      -1.999  -2.304  24.565  1.00  0.00    -0.550 OA
ENDBRANCH   8   9
ENDBRANCH   7   8
ENDBRANCH   6   7
ENDBRANCH   5   6
ENDBRANCH   4   5
ENDBRANCH   3   4
ENDBRANCH   2   3
ENDBRANCH   1   2
BRANCH   1  12
ATOM     12  C   UNL     1      -3.645  -7.399  18.625  1.00  0.00     0.000 C 
BRANCH  12  13
ATOM     13  C   UNL     1      -2.856  -6.316  17.880  1.00  0.00    -0.000 C 
BRANCH  13  14
ATOM     14  C   UNL     1      -2.012  -6.924  16.753  1.00  0.00    -0.000 C 
BRANCH  14  15
ATOM     15  C   UNL     1      -1.039  -7.979  17.303  1.00  0.00    -0.000 C 
BRANCH  15  16
ATOM     16  C   UNL     1      -1.003  -9.257  16.445  1.00  0.00    -0.000 C 
BRANCH  16  17
ATOM     17  C   UNL     1      -1.573 -10.508  17.138  1.00  0.00    -0.000 C 
BRANCH  17  18
ATOM     18  C   UNL     1      -3.103 -10.610  17.020  1.00  0.00    -0.000 C 
BRANCH  18  19
ATOM     19  C   UNL     1      -3.618 -10.128  15.655  1.00  0.00    -0.003 C 
ATOM     20  C   UNL     1      -5.138 -10.252  15.530  1.00  0.00     0.004 C 
ENDBRANCH  18  19
ENDBRANCH  17  18
ENDBRANCH  16  17
ENDBRANCH  15  16
ENDBRANCH  14  15
ENDBRANCH  13  14
ENDBRANCH  12  13
ENDBRANCH   1  12
TORSDOF 16
ENDMDL
MODEL 6
REMARK VINA RESULT:    -4.272      1.171      4.032
REMARK INTER + INTRA:         -10.453
REMARK INTER:                  -8.391
REMARK INTRA:                  -2.062
REMARK UNBOUND:                -2.186
REMARK SMILES CCCCCCCCCCCCCCCCCC(=O)[O-]
REMARK SMILES IDX 10 1 11 2 12 3 13 4 14 5 15 6 16 7 17 8 18 9 19 10 20 11
REMARK SMILES IDX 9 12 8 13 7 14 6 15 5 16 4 17 3 18 2 19 1 20
REMARK H PARENT
REMARK Flexibility Score: inf
ROOT
ATOM      1  C   UNL     1      -8.718  -0.459  19.381  1.00  0.00     0.000 C 
ENDROOT
BRANCH   1   2
ATOM      2  C   UNL     1      -9.548   0.606  18.639  1.00  0.00     0.000 C 
BRANCH   2   3
ATOM      3  C   UNL     1      -9.169   2.067  18.960  1.00  0.00     0.000 C 
BRANCH   3   4
ATOM      4  C   UNL     1      -9.632   3.110  17.923  1.00  0.00     0.000 C 
BRANCH   4   5
ATOM      5  C   UNL     1      -9.457   2.683  16.454  1.00  0.00     0.000 C 
BRANCH   5   6
ATOM      6  C   UNL     1     -10.664   3.064  15.579  1.00  0.00     0.000 C 
BRANCH   6   7
ATOM      7  C   UNL     1     -11.973   2.426  16.070  1.00  0.00     0.006 C 
BRANCH   7   8
ATOM      8  C   UNL     1     -11.962   0.895  15.957  1.00  0.00     0.053 C 
BRANCH   8   9
ATOM      9  C   UNL     1     -11.749   0.478  14.536  1.00  0.00     0.041 C 
ATOM     10  O   UNL     1     -12.732   0.366  13.757  1.00  0.00    -0.550 OA
ATOM     11  O   UNL     1     -10.463   0.265  14.057  1.00  0.00    -0.550 OA
ENDBRANCH   8   9
ENDBRANCH   7   8
ENDBRANCH   6   7
ENDBRANCH   5   6
ENDBRANCH   4   5
ENDBRANCH   3   4
ENDBRANCH   2   3
ENDBRANCH   1   2
BRANCH   1  12
ATOM     12  C   UNL     1      -9.541  -1.236  20.421  1.00  0.00     0.000 C 
BRANCH  12  13
ATOM     13  C   UNL     1      -9.129  -0.847  21.845  1.00  0.00    -0.000 C 
BRANCH  13  14
ATOM     14  C   UNL     1     -10.196   0.034  22.507  1.00  0.00    -0.000 C 
BRANCH  14  15
ATOM     15  C   UNL     1      -9.663   1.456  22.748  1.00  0.00    -0.000 C 
BRANCH  15  16
ATOM     16  C   UNL     1     -10.654   2.544  22.297  1.00  0.00    -0.000 C 
BRANCH  16  17
ATOM     17  C   UNL     1     -11.918   2.008  21.600  1.00  0.00    -0.000 C 
BRANCH  17  18
ATOM     18  C   UNL     1     -12.403   2.920  20.460  1.00  0.00    -0.000 C 
BRANCH  18  19
ATOM     19  C   UNL     1     -13.643   3.737  20.852  1.00  0.00    -0.003 C 
ATOM     20  C   UNL     1     -13.784   5.015  20.021  1.00  0.00     0.004 C 
ENDBRANCH  18  19
ENDBRANCH  17  18
ENDBRANCH  16  17
ENDBRANCH  15  16
ENDBRANCH  14  15
ENDBRANCH  13  14
ENDBRANCH  12  13
ENDBRANCH   1  12
TORSDOF 16
ENDMDL
MODEL 7
REMARK VINA RESULT:    -4.271      1.193      2.929
REMARK INTER + INTRA:         -10.453
REMARK INTER:                  -7.687
REMARK INTRA:                  -2.765
REMARK UNBOUND:                -2.186
REMARK SMILES CCCCCCCCCCCCCCCCCC(=O)[O-]
REMARK SMILES IDX 10 1 11 2 12 3 13 4 14 5 15 6 16 7 17 8 18 9 19 10 20 11
REMARK SMILES IDX 9 12 8 13 7 14 6 15 5 16 4 17 3 18 2 19 1 20
REMARK H PARENT
REMARK Flexibility Score: inf
ROOT
ATOM      1  C   UNL     1     -12.365   1.700  22.065  1.00  0.00     0.000 C 
ENDROOT
BRANCH   1   2
ATOM      2  C   UNL     1     -11.949   3.089  21.543  1.00  0.00     0.000 C 
BRANCH   2   3
ATOM      3  C   UNL     1     -12.569   3.488  20.188  1.00  0.00     0.000 C 
BRANCH   3   4
ATOM      4  C   UNL     1     -11.921   4.707  19.501  1.00  0.00     0.000 C 
BRANCH   4   5
ATOM      5  C   UNL     1     -11.656   4.533  17.994  1.00  0.00     0.000 C 
BRANCH   5   6
ATOM      6  C   UNL     1     -12.368   3.302  17.406  1.00  0.00     0.000 C 
BRANCH   6   7
ATOM      7  C   UNL     1     -11.747   2.841  16.078  1.00  0.00     0.006 C 
BRANCH   7   8
ATOM      8  C   UNL     1     -12.105   1.389  15.732  1.00  0.00     0.053 C 
BRANCH   8   9
ATOM      9  C   UNL     1     -11.079   0.804  14.813  1.00  0.00     0.041 C 
ATOM     10  O   UNL     1     -11.434   0.253  13.738  1.00  0.00    -0.550 OA
ATOM     11  O   UNL     1      -9.728   0.913  15.117  1.00  0.00    -0.550 OA
ENDBRANCH   8   9
ENDBRANCH   7   8
ENDBRANCH   6   7
ENDBRANCH   5   6
ENDBRANCH   4   5
ENDBRANCH   3   4
ENDBRANCH   2   3
ENDBRANCH   1   2
BRANCH   1  12
ATOM     12  C   UNL     1     -11.193   0.706  22.110  1.00  0.00     0.000 C 
BRANCH  12  13
ATOM     13  C   UNL     1     -11.151  -0.146  20.836  1.00  0.00    -0.000 C 
BRANCH  13  14
ATOM     14  C   UNL     1      -9.794  -0.843  20.684  1.00  0.00    -0.000 C 
BRANCH  14  15
ATOM     15  C   UNL     1      -9.120  -0.452  19.359  1.00  0.00    -0.000 C 
BRANCH  15  16
ATOM     16  C   UNL     1      -9.815   0.736  18.670  1.00  0.00    -0.000 C 
BRANCH  16  17
ATOM     17  C   UNL     1      -8.932   1.987  18.508  1.00  0.00    -0.000 C 
BRANCH  17  18
ATOM     18  C   UNL     1      -8.800   2.795  19.810  1.00  0.00    -0.000 C 
BRANCH  18  19
ATOM     19  C   UNL     1      -7.808   3.961  19.676  1.00  0.00    -0.003 C 
ATOM     20  C   UNL     1      -8.014   4.756  18.385  1.00  0.00     0.004 C 
ENDBRANCH  18  19
ENDBRANCH  17  18
ENDBRANCH  16  17
ENDBRANCH  15  16
ENDBRANCH  14  15
ENDBRANCH  13  14
ENDBRANCH  12  13
ENDBRANCH   1  12
TORSDOF 16
ENDMDL
MODEL 8
REMARK VINA RESULT:    -4.262      3.253      5.635
REMARK INTER + INTRA:         -10.434
REMARK INTER:                  -7.952
REMARK INTRA:                  -2.482
REMARK UNBOUND:                -2.186
REMARK SMILES CCCCCCCCCCCCCCCCCC(=O)[O-]
REMARK SMILES IDX 10 1 11 2 12 3 13 4 14 5 15 6 16 7 17 8 18 9 19 10 20 11
REMARK SMILES IDX 9 12 8 13 7 14 6 15 5 16 4 17 3 18 2 19 1 20
REMARK H PARENT
REMARK Flexibility Score: inf
ROOT
ATOM      1  C   UNL     1     -11.304   0.445  21.773  1.00  0.00     0.000 C 
ENDROOT
BRANCH   1   2
ATOM      2  C   UNL     1     -11.816   1.829  22.214  1.00  0.00     0.000 C 
BRANCH   2   3
ATOM      3  C   UNL     1     -12.355   2.718  21.074  1.00  0.00     0.000 C 
BRANCH   3   4
ATOM      4  C   UNL     1     -11.308   3.625  20.397  1.00  0.00     0.000 C 
BRANCH   4   5
ATOM      5  C   UNL     1     -10.089   3.971  21.272  1.00  0.00     0.000 C 
BRANCH   5   6
ATOM      6  C   UNL     1      -8.783   3.365  20.731  1.00  0.00     0.000 C 
BRANCH   6   7
ATOM      7  C   UNL     1      -8.176   4.195  19.588  1.00  0.00     0.006 C 
BRANCH   7   8
ATOM      8  C   UNL     1      -7.014   3.476  18.889  1.00  0.00     0.053 C 
BRANCH   8   9
ATOM      9  C   UNL     1      -5.727   4.197  19.141  1.00  0.00     0.041 C 
ATOM     10  O   UNL     1      -5.655   5.059  20.056  1.00  0.00    -0.550 OA
ATOM     11  O   UNL     1      -4.595   3.880  18.403  1.00  0.00    -0.550 OA
ENDBRANCH   8   9
ENDBRANCH   7   8
ENDBRANCH   6   7
ENDBRANCH   5   6
ENDBRANCH   4   5
ENDBRANCH   3   4
ENDBRANCH   2   3
ENDBRANCH   1   2
BRANCH   1  12
ATOM     12  C   UNL     1      -9.896   0.135  22.305  1.00  0.00     0.000 C 
BRANCH  12  13
ATOM     13  C   UNL     1      -9.198  -0.909  21.426  1.00  0.00    -0.000 C 
BRANCH  13  14
ATOM     14  C   UNL     1      -9.808  -0.942  20.019  1.00  0.00    -0.000 C 
BRANCH  14  15
ATOM     15  C   UNL     1      -8.871  -0.278  18.998  1.00  0.00    -0.000 C 
BRANCH  15  16
ATOM     16  C   UNL     1      -9.516   0.936  18.304  1.00  0.00    -0.000 C 
BRANCH  16  17
ATOM     17  C   UNL     1     -11.043   0.835  18.130  1.00  0.00    -0.000 C 
BRANCH  17  18
ATOM     18  C   UNL     1     -11.574   1.731  16.999  1.00  0.00    -0.000 C 
BRANCH  18  19
ATOM     19  C   UNL     1     -11.535   1.034  15.631  1.00  0.00    -0.003 C 
ATOM     20  C   UNL     1     -10.228   1.299  14.880  1.00  0.00     0.004 C 
ENDBRANCH  18  19
ENDBRANCH  17  18
ENDBRANCH  16  17
ENDBRANCH  15  16
ENDBRANCH  14  15
ENDBRANCH  13  14
ENDBRANCH  12  13
ENDBRANCH   1  12
TORSDOF 16
ENDMDL
MODEL 9
REMARK VINA RESULT:    -4.188      1.241      1.994
REMARK INTER + INTRA:         -10.292
REMARK INTER:                  -7.735
REMARK INTRA:                  -2.556
REMARK UNBOUND:                -2.186
REMARK SMILES CCCCCCCCCCCCCCCCCC(=O)[O-]
REMARK SMILES IDX 10 1 11 2 12 3 13 4 14 5 15 6 16 7 17 8 18 9 19 10 20 11
REMARK SMILES IDX 9 12 8 13 7 14 6 15 5 16 4 17 3 18 2 19 1 20
REMARK H PARENT
REMARK Flexibility Score: inf
ROOT
ATOM      1  C   UNL     1     -11.180   2.790  20.147  1.00  0.00     0.000 C 
ENDROOT
BRANCH   1   2
ATOM      2  C   UNL     1     -11.799   4.133  19.715  1.00  0.00     0.000 C 
BRANCH   2   3
ATOM      3  C   UNL     1     -13.103   4.016  18.897  1.00  0.00     0.000 C 
BRANCH   3   4
ATOM      4  C   UNL     1     -12.919   3.970  17.367  1.00  0.00     0.000 C 
BRANCH   4   5
ATOM      5  C   UNL     1     -11.538   4.434  16.868  1.00  0.00     0.000 C 
BRANCH   5   6
ATOM      6  C   UNL     1     -10.851   3.389  15.972  1.00  0.00     0.000 C 
BRANCH   6   7
ATOM      7  C   UNL     1     -11.551   2.021  16.019  1.00  0.00     0.006 C 
BRANCH   7   8
ATOM      8  C   UNL     1     -10.604   0.861  15.686  1.00  0.00     0.053 C 
BRANCH   8   9
ATOM      9  C   UNL     1     -10.618   0.582  14.215  1.00  0.00     0.041 C 
ATOM     10  O   UNL     1      -9.553   0.658  13.548  1.00  0.00    -0.550 OA
ATOM     11  O   UNL     1     -11.794   0.186  13.593  1.00  0.00    -0.550 OA
ENDBRANCH   8   9
ENDBRANCH   7   8
ENDBRANCH   6   7
ENDBRANCH   5   6
ENDBRANCH   4   5
ENDBRANCH   3   4
ENDBRANCH   2   3
ENDBRANCH   1   2
BRANCH   1  12
ATOM     12  C   UNL     1      -9.667   2.722  19.885  1.00  0.00     0.000 C 
BRANCH  12  13
ATOM     13  C   UNL     1      -9.303   1.446  19.115  1.00  0.00    -0.000 C 
BRANCH  13  14
ATOM     14  C   UNL     1     -10.280   0.309  19.440  1.00  0.00    -0.000 C 
BRANCH  14  15
ATOM     15  C   UNL     1      -9.525  -0.954  19.883  1.00  0.00    -0.000 C 
BRANCH  15  16
ATOM     16  C   UNL     1      -9.022  -0.864  21.335  1.00  0.00    -0.000 C 
BRANCH  16  17
ATOM     17  C   UNL     1      -9.968  -0.120  22.294  1.00  0.00    -0.000 C 
BRANCH  17  18
ATOM     18  C   UNL     1      -9.243   0.446  23.527  1.00  0.00    -0.000 C 
BRANCH  18  19
ATOM     19  C   UNL     1      -9.343   1.976  23.613  1.00  0.00    -0.003 C 
ATOM     20  C   UNL     1     -10.782   2.456  23.816  1.00  0.00     0.004 C 
ENDBRANCH  18  19
ENDBRANCH  17  18
ENDBRANCH  16  17
ENDBRANCH  15  16
ENDBRANCH  14  15
ENDBRANCH  13  14
ENDBRANCH  12  13
ENDBRANCH   1  12
TORSDOF 16
ENDMDL
