MODEL 1
REMARK VINA RESULT:    -1.547      0.000      0.000
REMARK INTER + INTRA:          -1.667
REMARK INTER:                  -1.909
REMARK INTRA:                   0.242
REMARK UNBOUND:                 0.242
REMARK SMILES Oc1cc(O)c2cc(O)c(-c3cc(O)c(O)c(O)c3)[o+]c2c1
REMARK SMILES IDX 10 1 20 2 21 3 22 4 2 5 3 6 4 7 6 8 7 9 8 10 11 11 12 12
REMARK SMILES IDX 13 13 19 14 15 15 17 16 14 17 16 19 18 21 9 23 1 25 5 27
REMARK H PARENT 14 18 16 20 18 22 9 24 1 26 5 28
REMARK Flexibility Score: inf
ROOT
ATOM      1  C   UNL     1     -10.234 -15.544  33.326  1.00  0.00     0.402 A 
ATOM      2  O   UNL     1     -10.327 -15.233  32.036  1.00  0.00    -0.202 OA
ATOM      3  C   UNL     1     -10.273 -16.134  31.061  1.00  0.00     0.368 A 
ATOM      4  C   UNL     1     -10.383 -15.710  29.735  1.00  0.00     0.162 A 
ATOM      5  C   UNL     1     -10.331 -16.637  28.691  1.00  0.00     0.128 A 
ATOM      6  C   UNL     1     -10.170 -17.995  28.974  1.00  0.00     0.093 A 
ATOM      7  C   UNL     1     -10.057 -18.446  30.294  1.00  0.00     0.136 A 
ATOM      8  C   UNL     1     -10.106 -17.509  31.358  1.00  0.00     0.125 A 
ATOM      9  C   UNL     1      -9.989 -17.868  32.711  1.00  0.00     0.078 A 
ATOM     10  C   UNL     1     -10.041 -16.886  33.705  1.00  0.00     0.223 A 
ENDROOT
BRANCH   1  11
ATOM     11  C   UNL     1     -10.320 -14.450  34.319  1.00  0.00     0.091 A 
ATOM     12  C   UNL     1     -10.057 -13.131  33.917  1.00  0.00     0.068 A 
ATOM     13  C   UNL     1     -10.151 -12.074  34.833  1.00  0.00     0.162 A 
ATOM     14  C   UNL     1     -10.715 -14.694  35.646  1.00  0.00     0.068 A 
ATOM     15  C   UNL     1     -10.524 -12.327  36.159  1.00  0.00     0.200 A 
ATOM     16  C   UNL     1     -10.811 -13.641  36.566  1.00  0.00     0.162 A 
BRANCH  13  17
ATOM     17  O   UNL     1      -9.875 -10.769  34.431  1.00  0.00    -0.504 OA
ATOM     18  H   UNL     1      -9.008 -10.308  34.682  1.00  0.00     0.293 HD
ENDBRANCH  13  17
BRANCH  15  19
ATOM     19  O   UNL     1     -10.610 -11.263  37.058  1.00  0.00    -0.502 OA
ATOM     20  H   UNL     1     -10.049 -11.223  37.900  1.00  0.00     0.293 HD
ENDBRANCH  15  19
BRANCH  16  21
ATOM     21  O   UNL     1     -11.196 -13.895  37.882  1.00  0.00    -0.504 OA
ATOM     22  H   UNL     1     -11.031 -13.223  38.623  1.00  0.00     0.293 HD
ENDBRANCH  16  21
ENDBRANCH   1  11
BRANCH  10  23
ATOM     23  O   UNL     1      -9.875 -17.236  35.045  1.00  0.00    -0.500 OA
ATOM     24  H   UNL     1     -10.087 -18.168  35.381  1.00  0.00     0.294 HD
ENDBRANCH  10  23
BRANCH   5  25
ATOM     25  O   UNL     1     -10.440 -16.220  27.366  1.00  0.00    -0.507 OA
ATOM     26  H   UNL     1      -9.635 -16.195  26.750  1.00  0.00     0.293 HD
ENDBRANCH   5  25
BRANCH   7  27
ATOM     27  O   UNL     1      -9.901 -19.822  30.495  1.00  0.00    -0.507 OA
ATOM     28  H   UNL     1     -10.452 -20.531  30.035  1.00  0.00     0.293 HD
ENDBRANCH   7  27
TORSDOF 7
ENDMDL
MODEL 2
REMARK VINA RESULT:    -1.126      2.849      7.804
REMARK INTER + INTRA:          -1.147
REMARK INTER:                  -0.974
REMARK INTRA:                  -0.173
REMARK UNBOUND:                 0.242
REMARK SMILES Oc1cc(O)c2cc(O)c(-c3cc(O)c(O)c(O)c3)[o+]c2c1
REMARK SMILES IDX 10 1 20 2 21 3 22 4 2 5 3 6 4 7 6 8 7 9 8 10 11 11 12 12
REMARK SMILES IDX 13 13 19 14 15 15 17 16 14 17 16 19 18 21 9 23 1 25 5 27
REMARK H PARENT 14 18 16 20 18 22 9 24 1 26 5 28
REMARK Flexibility Score: inf
ROOT
ATOM      1  C   UNL     1     -13.055 -15.382  31.910  1.00  0.00     0.402 A 
ATOM      2  O   UNL     1     -12.042 -15.322  32.771  1.00  0.00    -0.202 OA
ATOM      3  C   UNL     1     -12.081 -14.620  33.898  1.00  0.00     0.368 A 
ATOM      4  C   UNL     1     -10.967 -14.620  34.740  1.00  0.00     0.162 A 
ATOM      5  C   UNL     1     -10.983 -13.893  35.933  1.00  0.00     0.128 A 
ATOM      6  C   UNL     1     -12.120 -13.161  36.286  1.00  0.00     0.093 A 
ATOM      7  C   UNL     1     -13.250 -13.144  35.460  1.00  0.00     0.136 A 
ATOM      8  C   UNL     1     -13.238 -13.879  34.246  1.00  0.00     0.125 A 
ATOM      9  C   UNL     1     -14.319 -13.910  33.351  1.00  0.00     0.078 A 
ATOM     10  C   UNL     1     -14.231 -14.654  32.170  1.00  0.00     0.223 A 
ENDROOT
BRANCH   1  11
ATOM     11  C   UNL     1     -12.893 -16.209  30.693  1.00  0.00     0.091 A 
ATOM     12  C   UNL     1     -12.714 -17.595  30.819  1.00  0.00     0.068 A 
ATOM     13  C   UNL     1     -12.577 -18.403  29.682  1.00  0.00     0.162 A 
ATOM     14  C   UNL     1     -12.970 -15.643  29.408  1.00  0.00     0.068 A 
ATOM     15  C   UNL     1     -12.634 -17.830  28.405  1.00  0.00     0.200 A 
ATOM     16  C   UNL     1     -12.835 -16.446  28.267  1.00  0.00     0.162 A 
BRANCH  13  17
ATOM     17  O   UNL     1     -12.386 -19.777  29.813  1.00  0.00    -0.504 OA
ATOM     18  H   UNL     1     -12.806 -20.435  29.169  1.00  0.00     0.293 HD
ENDBRANCH  13  17
BRANCH  15  19
ATOM     19  O   UNL     1     -12.493 -18.649  27.283  1.00  0.00    -0.502 OA
ATOM     20  H   UNL     1     -11.626 -19.128  27.071  1.00  0.00     0.293 HD
ENDBRANCH  15  19
BRANCH  16  21
ATOM     21  O   UNL     1     -12.905 -15.874  26.997  1.00  0.00    -0.504 OA
ATOM     22  H   UNL     1     -12.106 -15.414  26.577  1.00  0.00     0.293 HD
ENDBRANCH  16  21
ENDBRANCH   1  11
BRANCH  10  23
ATOM     23  O   UNL     1     -15.285 -14.645  31.256  1.00  0.00    -0.500 OA
ATOM     24  H   UNL     1     -15.576 -15.485  30.770  1.00  0.00     0.294 HD
ENDBRANCH  10  23
BRANCH   5  25
ATOM     25  O   UNL     1      -9.875 -13.889  36.776  1.00  0.00    -0.507 OA
ATOM     26  H   UNL     1      -9.474 -14.750  37.130  1.00  0.00     0.293 HD
ENDBRANCH   5  25
BRANCH   7  27
ATOM     27  O   UNL     1     -14.348 -12.391  35.886  1.00  0.00    -0.507 OA
ATOM     28  H   UNL     1     -14.366 -11.383  35.931  1.00  0.00     0.293 HD
ENDBRANCH   7  27
TORSDOF 7
ENDMDL
MODEL 3
REMARK VINA RESULT:    -0.992      2.846      7.617
REMARK INTER + INTRA:          -0.982
REMARK INTER:                  -0.865
REMARK INTRA:                  -0.118
REMARK UNBOUND:                 0.242
REMARK SMILES Oc1cc(O)c2cc(O)c(-c3cc(O)c(O)c(O)c3)[o+]c2c1
REMARK SMILES IDX 10 1 20 2 21 3 22 4 2 5 3 6 4 7 6 8 7 9 8 10 11 11 12 12
REMARK SMILES IDX 13 13 19 14 15 15 17 16 14 17 16 19 18 21 9 23 1 25 5 27
REMARK H PARENT 14 18 16 20 18 22 9 24 1 26 5 28
REMARK Flexibility Score: inf
ROOT
ATOM      1  C   UNL     1     -13.079 -15.372  31.872  1.00  0.00     0.402 A 
ATOM      2  O   UNL     1     -12.063 -15.317  32.728  1.00  0.00    -0.202 OA
ATOM      3  C   UNL     1     -12.095 -14.616  33.856  1.00  0.00     0.368 A 
ATOM      4  C   UNL     1     -10.978 -14.622  34.694  1.00  0.00     0.162 A 
ATOM      5  C   UNL     1     -10.986 -13.896  35.888  1.00  0.00     0.128 A 
ATOM      6  C   UNL     1     -12.119 -13.161  36.247  1.00  0.00     0.093 A 
ATOM      7  C   UNL     1     -13.252 -13.138  35.425  1.00  0.00     0.136 A 
ATOM      8  C   UNL     1     -13.247 -13.872  34.210  1.00  0.00     0.125 A 
ATOM      9  C   UNL     1     -14.331 -13.896  33.318  1.00  0.00     0.078 A 
ATOM     10  C   UNL     1     -14.251 -14.639  32.136  1.00  0.00     0.223 A 
ENDROOT
BRANCH   1  11
ATOM     11  C   UNL     1     -12.924 -16.197  30.653  1.00  0.00     0.091 A 
ATOM     12  C   UNL     1     -13.052 -15.596  29.391  1.00  0.00     0.068 A 
ATOM     13  C   UNL     1     -12.891 -16.351  28.221  1.00  0.00     0.162 A 
ATOM     14  C   UNL     1     -12.596 -17.562  30.730  1.00  0.00     0.068 A 
ATOM     15  C   UNL     1     -12.584 -17.715  28.305  1.00  0.00     0.200 A 
ATOM     16  C   UNL     1     -12.431 -18.322  29.563  1.00  0.00     0.162 A 
BRANCH  13  17
ATOM     17  O   UNL     1     -13.033 -15.752  26.971  1.00  0.00    -0.504 OA
ATOM     18  H   UNL     1     -13.820 -15.961  26.369  1.00  0.00     0.293 HD
ENDBRANCH  13  17
BRANCH  15  19
ATOM     19  O   UNL     1     -12.429 -18.453  27.129  1.00  0.00    -0.502 OA
ATOM     20  H   UNL     1     -12.620 -19.446  27.088  1.00  0.00     0.293 HD
ENDBRANCH  15  19
BRANCH  16  21
ATOM     21  O   UNL     1     -12.112 -19.677  29.650  1.00  0.00    -0.504 OA
ATOM     22  H   UNL     1     -11.899 -20.226  28.826  1.00  0.00     0.293 HD
ENDBRANCH  16  21
ENDBRANCH   1  11
BRANCH  10  23
ATOM     23  O   UNL     1     -15.308 -14.625  31.227  1.00  0.00    -0.500 OA
ATOM     24  H   UNL     1     -16.033 -13.917  31.264  1.00  0.00     0.294 HD
ENDBRANCH  10  23
BRANCH   5  25
ATOM     25  O   UNL     1      -9.875 -13.898  36.728  1.00  0.00    -0.507 OA
ATOM     26  H   UNL     1      -9.743 -14.614  37.432  1.00  0.00     0.293 HD
ENDBRANCH   5  25
BRANCH   7  27
ATOM     27  O   UNL     1     -14.345 -12.381  35.855  1.00  0.00    -0.507 OA
ATOM     28  H   UNL     1     -15.309 -12.616  35.672  1.00  0.00     0.293 HD
ENDBRANCH   7  27
TORSDOF 7
ENDMDL
MODEL 4
REMARK VINA RESULT:    -0.985      2.716      7.409
REMARK INTER + INTRA:          -0.974
REMARK INTER:                  -0.917
REMARK INTRA:                  -0.057
REMARK UNBOUND:                 0.242
REMARK SMILES Oc1cc(O)c2cc(O)c(-c3cc(O)c(O)c(O)c3)[o+]c2c1
REMARK SMILES IDX 10 1 20 2 21 3 22 4 2 5 3 6 4 7 6 8 7 9 8 10 11 11 12 12
REMARK SMILES IDX 13 13 19 14 15 15 17 16 14 17 16 19 18 21 9 23 1 25 5 27
REMARK H PARENT 14 18 16 20 18 22 9 24 1 26 5 28
REMARK Flexibility Score: inf
ROOT
ATOM      1  C   UNL     1     -12.115 -15.818  31.255  1.00  0.00     0.402 A 
ATOM      2  O   UNL     1     -12.954 -15.084  31.981  1.00  0.00    -0.202 OA
ATOM      3  C   UNL     1     -12.654 -14.606  33.184  1.00  0.00     0.368 A 
ATOM      4  C   UNL     1     -13.601 -13.842  33.869  1.00  0.00     0.162 A 
ATOM      5  C   UNL     1     -13.309 -13.325  35.135  1.00  0.00     0.128 A 
ATOM      6  C   UNL     1     -12.064 -13.574  35.717  1.00  0.00     0.093 A 
ATOM      7  C   UNL     1     -11.098 -14.337  35.051  1.00  0.00     0.136 A 
ATOM      8  C   UNL     1     -11.390 -14.866  33.767  1.00  0.00     0.125 A 
ATOM      9  C   UNL     1     -10.487 -15.651  33.032  1.00  0.00     0.078 A 
ATOM     10  C   UNL     1     -10.849 -16.142  31.773  1.00  0.00     0.223 A 
ENDROOT
BRANCH   1  11
ATOM     11  C   UNL     1     -12.564 -16.283  29.923  1.00  0.00     0.091 A 
ATOM     12  C   UNL     1     -13.042 -15.349  28.991  1.00  0.00     0.068 A 
ATOM     13  C   UNL     1     -13.455 -15.760  27.716  1.00  0.00     0.162 A 
ATOM     14  C   UNL     1     -12.470 -17.635  29.549  1.00  0.00     0.068 A 
ATOM     15  C   UNL     1     -13.378 -17.112  27.357  1.00  0.00     0.200 A 
ATOM     16  C   UNL     1     -12.880 -18.052  28.275  1.00  0.00     0.162 A 
BRANCH  13  17
ATOM     17  O   UNL     1     -13.942 -14.830  26.800  1.00  0.00    -0.504 OA
ATOM     18  H   UNL     1     -14.142 -15.085  25.840  1.00  0.00     0.293 HD
ENDBRANCH  13  17
BRANCH  15  19
ATOM     19  O   UNL     1     -13.796 -17.504  26.084  1.00  0.00    -0.502 OA
ATOM     20  H   UNL     1     -13.176 -17.485  25.284  1.00  0.00     0.293 HD
ENDBRANCH  15  19
BRANCH  16  21
ATOM     21  O   UNL     1     -12.789 -19.397  27.916  1.00  0.00    -0.504 OA
ATOM     22  H   UNL     1     -11.984 -19.761  27.420  1.00  0.00     0.293 HD
ENDBRANCH  16  21
ENDBRANCH   1  11
BRANCH  10  23
ATOM     23  O   UNL     1      -9.972 -16.964  31.065  1.00  0.00    -0.500 OA
ATOM     24  H   UNL     1      -9.483 -17.731  31.511  1.00  0.00     0.294 HD
ENDBRANCH  10  23
BRANCH   5  25
ATOM     25  O   UNL     1     -14.250 -12.563  35.823  1.00  0.00    -0.507 OA
ATOM     26  H   UNL     1     -13.971 -11.844  36.481  1.00  0.00     0.293 HD
ENDBRANCH   5  25
BRANCH   7  27
ATOM     27  O   UNL     1      -9.875 -14.537  35.700  1.00  0.00    -0.507 OA
ATOM     28  H   UNL     1      -9.752 -14.523  36.701  1.00  0.00     0.293 HD
ENDBRANCH   7  27
TORSDOF 7
ENDMDL
MODEL 5
REMARK VINA RESULT:    -0.561      2.521      3.588
REMARK INTER + INTRA:          -0.451
REMARK INTER:                  -0.288
REMARK INTRA:                  -0.163
REMARK UNBOUND:                 0.242
REMARK SMILES Oc1cc(O)c2cc(O)c(-c3cc(O)c(O)c(O)c3)[o+]c2c1
REMARK SMILES IDX 10 1 20 2 21 3 22 4 2 5 3 6 4 7 6 8 7 9 8 10 11 11 12 12
REMARK SMILES IDX 13 13 19 14 15 15 17 16 14 17 16 19 18 21 9 23 1 25 5 27
REMARK H PARENT 14 18 16 20 18 22 9 24 1 26 5 28
REMARK Flexibility Score: inf
ROOT
ATOM      1  C   UNL     1     -11.663 -15.784  31.261  1.00  0.00     0.402 A 
ATOM      2  O   UNL     1     -12.472 -16.791  30.942  1.00  0.00    -0.202 OA
ATOM      3  C   UNL     1     -12.405 -17.445  29.788  1.00  0.00     0.368 A 
ATOM      4  C   UNL     1     -13.296 -18.493  29.545  1.00  0.00     0.162 A 
ATOM      5  C   UNL     1     -13.245 -19.199  28.340  1.00  0.00     0.128 A 
ATOM      6  C   UNL     1     -12.298 -18.856  27.373  1.00  0.00     0.093 A 
ATOM      7  C   UNL     1     -11.393 -17.811  27.591  1.00  0.00     0.136 A 
ATOM      8  C   UNL     1     -11.442 -17.089  28.812  1.00  0.00     0.125 A 
ATOM      9  C   UNL     1     -10.584 -16.018  29.112  1.00  0.00     0.078 A 
ATOM     10  C   UNL     1     -10.696 -15.351  30.336  1.00  0.00     0.223 A 
ENDROOT
BRANCH   1  11
ATOM     11  C   UNL     1     -11.831 -15.142  32.584  1.00  0.00     0.091 A 
ATOM     12  C   UNL     1     -13.097 -14.674  32.969  1.00  0.00     0.068 A 
ATOM     13  C   UNL     1     -13.287 -14.080  34.224  1.00  0.00     0.162 A 
ATOM     14  C   UNL     1     -10.760 -15.041  33.490  1.00  0.00     0.068 A 
ATOM     15  C   UNL     1     -12.212 -13.964  35.113  1.00  0.00     0.200 A 
ATOM     16  C   UNL     1     -10.945 -14.450  34.747  1.00  0.00     0.162 A 
BRANCH  13  17
ATOM     17  O   UNL     1     -14.544 -13.604  34.594  1.00  0.00    -0.504 OA
ATOM     18  H   UNL     1     -14.649 -12.833  35.242  1.00  0.00     0.293 HD
ENDBRANCH  13  17
BRANCH  15  19
ATOM     19  O   UNL     1     -12.419 -13.367  36.358  1.00  0.00    -0.502 OA
ATOM     20  H   UNL     1     -11.653 -13.026  36.926  1.00  0.00     0.293 HD
ENDBRANCH  15  19
BRANCH  16  21
ATOM     21  O   UNL     1      -9.875 -14.347  35.636  1.00  0.00    -0.504 OA
ATOM     22  H   UNL     1      -8.925 -14.211  35.310  1.00  0.00     0.293 HD
ENDBRANCH  16  21
ENDBRANCH   1  11
BRANCH  10  23
ATOM     23  O   UNL     1      -9.877 -14.256  30.613  1.00  0.00    -0.500 OA
ATOM     24  H   UNL     1      -9.324 -13.808  29.891  1.00  0.00     0.294 HD
ENDBRANCH  10  23
BRANCH   5  25
ATOM     25  O   UNL     1     -14.132 -20.244  28.093  1.00  0.00    -0.507 OA
ATOM     26  H   UNL     1     -13.876 -21.209  28.265  1.00  0.00     0.293 HD
ENDBRANCH   5  25
BRANCH   7  27
ATOM     27  O   UNL     1     -10.473 -17.532  26.576  1.00  0.00    -0.507 OA
ATOM     28  H   UNL     1     -10.636 -16.883  25.821  1.00  0.00     0.293 HD
ENDBRANCH   7  27
TORSDOF 7
ENDMDL
MODEL 6
REMARK VINA RESULT:    -0.444      2.610      3.354
REMARK INTER + INTRA:          -0.306
REMARK INTER:                  -0.550
REMARK INTRA:                   0.244
REMARK UNBOUND:                 0.242
REMARK SMILES Oc1cc(O)c2cc(O)c(-c3cc(O)c(O)c(O)c3)[o+]c2c1
REMARK SMILES IDX 10 1 20 2 21 3 22 4 2 5 3 6 4 7 6 8 7 9 8 10 11 11 12 12
REMARK SMILES IDX 13 13 19 14 15 15 17 16 14 17 16 19 18 21 9 23 1 25 5 27
REMARK H PARENT 14 18 16 20 18 22 9 24 1 26 5 28
REMARK Flexibility Score: inf
ROOT
ATOM      1  C   UNL     1     -11.808 -15.739  31.234  1.00  0.00     0.402 A 
ATOM      2  O   UNL     1     -12.655 -15.366  30.278  1.00  0.00    -0.202 OA
ATOM      3  C   UNL     1     -12.638 -15.871  29.049  1.00  0.00     0.368 A 
ATOM      4  C   UNL     1     -13.571 -15.418  28.114  1.00  0.00     0.162 A 
ATOM      5  C   UNL     1     -13.577 -15.935  26.815  1.00  0.00     0.128 A 
ATOM      6  C   UNL     1     -12.646 -16.911  26.451  1.00  0.00     0.093 A 
ATOM      7  C   UNL     1     -11.701 -17.382  27.370  1.00  0.00     0.136 A 
ATOM      8  C   UNL     1     -11.689 -16.859  28.689  1.00  0.00     0.125 A 
ATOM      9  C   UNL     1     -10.771 -17.262  29.672  1.00  0.00     0.078 A 
ATOM     10  C   UNL     1     -10.818 -16.696  30.950  1.00  0.00     0.223 A 
ENDROOT
BRANCH   1  11
ATOM     11  C   UNL     1     -11.936 -15.108  32.567  1.00  0.00     0.091 A 
ATOM     12  C   UNL     1     -13.194 -14.667  33.005  1.00  0.00     0.068 A 
ATOM     13  C   UNL     1     -13.345 -14.084  34.271  1.00  0.00     0.162 A 
ATOM     14  C   UNL     1     -10.832 -14.992  33.431  1.00  0.00     0.068 A 
ATOM     15  C   UNL     1     -12.238 -13.952  35.118  1.00  0.00     0.200 A 
ATOM     16  C   UNL     1     -10.978 -14.412  34.699  1.00  0.00     0.162 A 
BRANCH  13  17
ATOM     17  O   UNL     1     -14.595 -13.635  34.694  1.00  0.00    -0.504 OA
ATOM     18  H   UNL     1     -14.689 -12.937  35.422  1.00  0.00     0.293 HD
ENDBRANCH  13  17
BRANCH  15  19
ATOM     19  O   UNL     1     -12.406 -13.367  36.374  1.00  0.00    -0.502 OA
ATOM     20  H   UNL     1     -13.024 -13.761  37.073  1.00  0.00     0.293 HD
ENDBRANCH  15  19
BRANCH  16  21
ATOM     21  O   UNL     1      -9.875 -14.294  35.545  1.00  0.00    -0.504 OA
ATOM     22  H   UNL     1      -9.915 -14.589  36.513  1.00  0.00     0.293 HD
ENDBRANCH  16  21
ENDBRANCH   1  11
BRANCH  10  23
ATOM     23  O   UNL     1      -9.875 -17.060  31.912  1.00  0.00    -0.500 OA
ATOM     24  H   UNL     1      -8.882 -17.061  31.710  1.00  0.00     0.294 HD
ENDBRANCH  10  23
BRANCH   5  25
ATOM     25  O   UNL     1     -14.503 -15.486  25.877  1.00  0.00    -0.507 OA
ATOM     26  H   UNL     1     -14.859 -16.095  25.150  1.00  0.00     0.293 HD
ENDBRANCH   5  25
BRANCH   7  27
ATOM     27  O   UNL     1     -10.806 -18.362  26.929  1.00  0.00    -0.507 OA
ATOM     28  H   UNL     1      -9.830 -18.397  27.180  1.00  0.00     0.293 HD
ENDBRANCH   7  27
TORSDOF 7
ENDMDL
MODEL 7
REMARK VINA RESULT:    -0.383      1.000      7.063
REMARK INTER + INTRA:          -0.230
REMARK INTER:                  -0.692
REMARK INTRA:                   0.462
REMARK UNBOUND:                 0.242
REMARK SMILES Oc1cc(O)c2cc(O)c(-c3cc(O)c(O)c(O)c3)[o+]c2c1
REMARK SMILES IDX 10 1 20 2 21 3 22 4 2 5 3 6 4 7 6 8 7 9 8 10 11 11 12 12
REMARK SMILES IDX 13 13 19 14 15 15 17 16 14 17 16 19 18 21 9 23 1 25 5 27
REMARK H PARENT 14 18 16 20 18 22 9 24 1 26 5 28
REMARK Flexibility Score: inf
ROOT
ATOM      1  C   UNL     1      -9.964 -16.003  32.954  1.00  0.00     0.402 A 
ATOM      2  O   UNL     1     -10.031 -14.679  33.064  1.00  0.00    -0.202 OA
ATOM      3  C   UNL     1     -10.029 -14.041  34.229  1.00  0.00     0.368 A 
ATOM      4  C   UNL     1     -10.100 -12.647  34.243  1.00  0.00     0.162 A 
ATOM      5  C   UNL     1     -10.097 -11.951  35.455  1.00  0.00     0.128 A 
ATOM      6  C   UNL     1     -10.022 -12.654  36.660  1.00  0.00     0.093 A 
ATOM      7  C   UNL     1      -9.951 -14.052  36.674  1.00  0.00     0.136 A 
ATOM      8  C   UNL     1      -9.956 -14.763  35.446  1.00  0.00     0.125 A 
ATOM      9  C   UNL     1      -9.900 -16.164  35.364  1.00  0.00     0.078 A 
ATOM     10  C   UNL     1      -9.914 -16.795  34.116  1.00  0.00     0.223 A 
ENDROOT
BRANCH   1  11
ATOM     11  C   UNL     1      -9.963 -16.594  31.597  1.00  0.00     0.091 A 
ATOM     12  C   UNL     1     -10.056 -17.987  31.451  1.00  0.00     0.068 A 
ATOM     13  C   UNL     1     -10.077 -18.571  30.177  1.00  0.00     0.162 A 
ATOM     14  C   UNL     1      -9.927 -15.787  30.446  1.00  0.00     0.068 A 
ATOM     15  C   UNL     1     -10.020 -17.762  29.035  1.00  0.00     0.200 A 
ATOM     16  C   UNL     1      -9.949 -16.365  29.170  1.00  0.00     0.162 A 
BRANCH  13  17
ATOM     17  O   UNL     1     -10.156 -19.955  30.038  1.00  0.00    -0.504 OA
ATOM     18  H   UNL     1     -10.684 -20.384  29.288  1.00  0.00     0.293 HD
ENDBRANCH  13  17
BRANCH  15  19
ATOM     19  O   UNL     1     -10.039 -18.361  27.774  1.00  0.00    -0.502 OA
ATOM     20  H   UNL     1     -10.864 -18.356  27.187  1.00  0.00     0.293 HD
ENDBRANCH  15  19
BRANCH  16  21
ATOM     21  O   UNL     1      -9.905 -15.556  28.034  1.00  0.00    -0.504 OA
ATOM     22  H   UNL     1      -9.129 -15.596  27.384  1.00  0.00     0.293 HD
ENDBRANCH  16  21
ENDBRANCH   1  11
BRANCH  10  23
ATOM     23  O   UNL     1      -9.909 -18.187  34.036  1.00  0.00    -0.500 OA
ATOM     24  H   UNL     1     -10.749 -18.733  34.192  1.00  0.00     0.294 HD
ENDBRANCH  10  23
BRANCH   5  25
ATOM     25  O   UNL     1     -10.168 -10.560  35.475  1.00  0.00    -0.507 OA
ATOM     26  H   UNL     1      -9.557 -10.006  36.063  1.00  0.00     0.293 HD
ENDBRANCH   5  25
BRANCH   7  27
ATOM     27  O   UNL     1      -9.875 -14.681  37.921  1.00  0.00    -0.507 OA
ATOM     28  H   UNL     1      -9.015 -14.875  38.410  1.00  0.00     0.293 HD
ENDBRANCH   7  27
TORSDOF 7
ENDMDL
MODEL 8
REMARK VINA RESULT:    -0.358      2.590      3.304
REMARK INTER + INTRA:          -0.200
REMARK INTER:                  -0.471
REMARK INTRA:                   0.270
REMARK UNBOUND:                 0.242
REMARK SMILES Oc1cc(O)c2cc(O)c(-c3cc(O)c(O)c(O)c3)[o+]c2c1
REMARK SMILES IDX 10 1 20 2 21 3 22 4 2 5 3 6 4 7 6 8 7 9 8 10 11 11 12 12
REMARK SMILES IDX 13 13 19 14 15 15 17 16 14 17 16 19 18 21 9 23 1 25 5 27
REMARK H PARENT 14 18 16 20 18 22 9 24 1 26 5 28
REMARK Flexibility Score: inf
ROOT
ATOM      1  C   UNL     1     -11.818 -15.755  31.246  1.00  0.00     0.402 A 
ATOM      2  O   UNL     1     -12.652 -15.387  30.276  1.00  0.00    -0.202 OA
ATOM      3  C   UNL     1     -12.600 -15.877  29.043  1.00  0.00     0.368 A 
ATOM      4  C   UNL     1     -13.521 -15.430  28.093  1.00  0.00     0.162 A 
ATOM      5  C   UNL     1     -13.491 -15.932  26.789  1.00  0.00     0.128 A 
ATOM      6  C   UNL     1     -12.535 -16.886  26.433  1.00  0.00     0.093 A 
ATOM      7  C   UNL     1     -11.601 -17.351  27.366  1.00  0.00     0.136 A 
ATOM      8  C   UNL     1     -11.626 -16.843  28.691  1.00  0.00     0.125 A 
ATOM      9  C   UNL     1     -10.721 -17.241  29.688  1.00  0.00     0.078 A 
ATOM     10  C   UNL     1     -10.805 -16.691  30.971  1.00  0.00     0.223 A 
ENDROOT
BRANCH   1  11
ATOM     11  C   UNL     1     -11.984 -15.143  32.583  1.00  0.00     0.091 A 
ATOM     12  C   UNL     1     -10.864 -14.978  33.411  1.00  0.00     0.068 A 
ATOM     13  C   UNL     1     -10.990 -14.384  34.674  1.00  0.00     0.162 A 
ATOM     14  C   UNL     1     -13.234 -14.670  33.022  1.00  0.00     0.068 A 
ATOM     15  C   UNL     1     -12.241 -13.933  35.114  1.00  0.00     0.200 A 
ATOM     16  C   UNL     1     -13.366 -14.073  34.283  1.00  0.00     0.162 A 
BRANCH  13  17
ATOM     17  O   UNL     1      -9.876 -14.236  35.497  1.00  0.00    -0.504 OA
ATOM     18  H   UNL     1      -9.611 -13.334  35.875  1.00  0.00     0.293 HD
ENDBRANCH  13  17
BRANCH  15  19
ATOM     19  O   UNL     1     -12.350 -13.346  36.375  1.00  0.00    -0.502 OA
ATOM     20  H   UNL     1     -13.241 -13.061  36.762  1.00  0.00     0.293 HD
ENDBRANCH  15  19
BRANCH  16  21
ATOM     21  O   UNL     1     -14.611 -13.613  34.712  1.00  0.00    -0.504 OA
ATOM     22  H   UNL     1     -14.703 -12.776  35.275  1.00  0.00     0.293 HD
ENDBRANCH  16  21
ENDBRANCH   1  11
BRANCH  10  23
ATOM     23  O   UNL     1      -9.875 -17.050  31.948  1.00  0.00    -0.500 OA
ATOM     24  H   UNL     1      -9.329 -17.901  31.877  1.00  0.00     0.294 HD
ENDBRANCH  10  23
BRANCH   5  25
ATOM     25  O   UNL     1     -14.406 -15.489  25.837  1.00  0.00    -0.507 OA
ATOM     26  H   UNL     1     -15.065 -16.122  25.399  1.00  0.00     0.293 HD
ENDBRANCH   5  25
BRANCH   7  27
ATOM     27  O   UNL     1     -10.680 -18.310  26.933  1.00  0.00    -0.507 OA
ATOM     28  H   UNL     1     -10.425 -18.461  25.969  1.00  0.00     0.293 HD
ENDBRANCH   7  27
TORSDOF 7
ENDMDL
MODEL 9
REMARK VINA RESULT:    -0.112      4.084      6.974
REMARK INTER + INTRA:           0.103
REMARK INTER:                   0.452
REMARK INTRA:                  -0.348
REMARK UNBOUND:                 0.242
REMARK SMILES Oc1cc(O)c2cc(O)c(-c3cc(O)c(O)c(O)c3)[o+]c2c1
REMARK SMILES IDX 10 1 20 2 21 3 22 4 2 5 3 6 4 7 6 8 7 9 8 10 11 11 12 12
REMARK SMILES IDX 13 13 19 14 15 15 17 16 14 17 16 19 18 21 9 23 1 25 5 27
REMARK H PARENT 14 18 16 20 18 22 9 24 1 26 5 28
REMARK Flexibility Score: inf
ROOT
ATOM      1  C   UNL     1     -12.837 -15.925  30.164  1.00  0.00     0.402 A 
ATOM      2  O   UNL     1     -13.966 -15.494  30.723  1.00  0.00    -0.202 OA
ATOM      3  C   UNL     1     -14.746 -14.570  30.173  1.00  0.00     0.368 A 
ATOM      4  C   UNL     1     -15.914 -14.183  30.835  1.00  0.00     0.162 A 
ATOM      5  C   UNL     1     -16.754 -13.216  30.277  1.00  0.00     0.128 A 
ATOM      6  C   UNL     1     -16.426 -12.632  29.052  1.00  0.00     0.093 A 
ATOM      7  C   UNL     1     -15.261 -13.001  28.368  1.00  0.00     0.136 A 
ATOM      8  C   UNL     1     -14.403 -13.982  28.931  1.00  0.00     0.125 A 
ATOM      9  C   UNL     1     -13.210 -14.404  28.323  1.00  0.00     0.078 A 
ATOM     10  C   UNL     1     -12.412 -15.372  28.942  1.00  0.00     0.223 A 
ENDROOT
BRANCH   1  11
ATOM     11  C   UNL     1     -12.059 -16.967  30.871  1.00  0.00     0.091 A 
ATOM     12  C   UNL     1     -11.334 -16.625  32.023  1.00  0.00     0.068 A 
ATOM     13  C   UNL     1     -10.605 -17.597  32.722  1.00  0.00     0.162 A 
ATOM     14  C   UNL     1     -12.076 -18.307  30.446  1.00  0.00     0.068 A 
ATOM     15  C   UNL     1     -10.609 -18.926  32.281  1.00  0.00     0.200 A 
ATOM     16  C   UNL     1     -11.350 -19.284  31.142  1.00  0.00     0.162 A 
BRANCH  13  17
ATOM     17  O   UNL     1      -9.876 -17.248  33.857  1.00  0.00    -0.504 OA
ATOM     18  H   UNL     1      -9.794 -17.875  34.648  1.00  0.00     0.293 HD
ENDBRANCH  13  17
BRANCH  15  19
ATOM     19  O   UNL     1      -9.875 -19.880  32.988  1.00  0.00    -0.502 OA
ATOM     20  H   UNL     1      -9.434 -20.668  32.530  1.00  0.00     0.293 HD
ENDBRANCH  15  19
BRANCH  16  21
ATOM     21  O   UNL     1     -11.366 -20.609  30.708  1.00  0.00    -0.504 OA
ATOM     22  H   UNL     1     -12.047 -21.274  31.057  1.00  0.00     0.293 HD
ENDBRANCH  16  21
ENDBRANCH   1  11
BRANCH  10  23
ATOM     23  O   UNL     1     -11.202 -15.756  28.364  1.00  0.00    -0.500 OA
ATOM     24  H   UNL     1     -10.318 -15.372  28.676  1.00  0.00     0.294 HD
ENDBRANCH  10  23
BRANCH   5  25
ATOM     25  O   UNL     1     -17.920 -12.826  30.933  1.00  0.00    -0.507 OA
ATOM     26  H   UNL     1     -18.829 -13.170  30.649  1.00  0.00     0.293 HD
ENDBRANCH   5  25
BRANCH   7  27
ATOM     27  O   UNL     1     -15.005 -12.373  27.145  1.00  0.00    -0.507 OA
ATOM     28  H   UNL     1     -15.620 -11.704  26.708  1.00  0.00     0.293 HD
ENDBRANCH   7  27
TORSDOF 7
ENDMDL
