MODEL 1
REMARK VINA RESULT:    -3.945      0.000      0.000
REMARK INTER + INTRA:          -7.286
REMARK INTER:                  -6.252
REMARK INTRA:                  -1.034
REMARK UNBOUND:                -1.034
REMARK SMILES CCCCCCCCCCCC(=O)[O-]
REMARK SMILES IDX 7 1 8 2 9 3 10 4 11 5 12 6 13 7 14 8 6 9 5 10 4 11 3 12 2 13
REMARK SMILES IDX 1 14
REMARK H PARENT
REMARK Flexibility Score: inf
ROOT
ATOM      1  C   UNL     1      49.433   6.483  22.387  1.00  0.00     0.000 C 
ENDROOT
BRANCH   1   2
ATOM      2  C   UNL     1      49.349   5.292  21.415  1.00  0.00     0.000 C 
BRANCH   2   3
ATOM      3  C   UNL     1      49.594   3.944  22.114  1.00  0.00     0.000 C 
BRANCH   3   4
ATOM      4  C   UNL     1      50.551   3.035  21.324  1.00  0.00     0.006 C 
BRANCH   4   5
ATOM      5  C   UNL     1      50.586   3.390  19.831  1.00  0.00     0.053 C 
BRANCH   5   6
ATOM      6  C   UNL     1      51.959   3.230  19.253  1.00  0.00     0.041 C 
ATOM      7  O   UNL     1      52.606   4.239  18.868  1.00  0.00    -0.550 OA
ATOM      8  O   UNL     1      52.509   1.962  19.107  1.00  0.00    -0.550 OA
ENDBRANCH   5   6
ENDBRANCH   4   5
ENDBRANCH   3   4
ENDBRANCH   2   3
ENDBRANCH   1   2
BRANCH   1   9
ATOM      9  C   UNL     1      48.683   7.722  21.872  1.00  0.00     0.000 C 
BRANCH   9  10
ATOM     10  C   UNL     1      47.859   7.429  20.607  1.00  0.00    -0.000 C 
BRANCH  10  11
ATOM     11  C   UNL     1      47.990   8.530  19.538  1.00  0.00    -0.000 C 
BRANCH  11  12
ATOM     12  C   UNL     1      49.394   9.144  19.400  1.00  0.00    -0.000 C 
BRANCH  12  13
ATOM     13  C   UNL     1      50.288   8.379  18.413  1.00  0.00    -0.003 C 
ATOM     14  C   UNL     1      51.265   7.466  19.149  1.00  0.00     0.004 C 
ENDBRANCH  12  13
ENDBRANCH  11  12
ENDBRANCH  10  11
ENDBRANCH   9  10
ENDBRANCH   1   9
TORSDOF 10
ENDMDL
MODEL 2
REMARK VINA RESULT:    -3.930      3.951      4.908
REMARK INTER + INTRA:          -7.261
REMARK INTER:                  -6.198
REMARK INTRA:                  -1.063
REMARK UNBOUND:                -1.034
REMARK SMILES CCCCCCCCCCCC(=O)[O-]
REMARK SMILES IDX 7 1 8 2 9 3 10 4 11 5 12 6 13 7 14 8 6 9 5 10 4 11 3 12 2 13
REMARK SMILES IDX 1 14
REMARK H PARENT
REMARK Flexibility Score: inf
ROOT
ATOM      1  C   UNL     1      48.438   6.397  21.383  1.00  0.00     0.000 C 
ENDROOT
BRANCH   1   2
ATOM      2  C   UNL     1      49.526   6.706  22.427  1.00  0.00     0.000 C 
BRANCH   2   3
ATOM      3  C   UNL     1      49.255   8.013  23.190  1.00  0.00     0.000 C 
BRANCH   3   4
ATOM      4  C   UNL     1      50.013   8.085  24.527  1.00  0.00     0.006 C 
BRANCH   4   5
ATOM      5  C   UNL     1      50.318   6.692  25.093  1.00  0.00     0.053 C 
BRANCH   5   6
ATOM      6  C   UNL     1      49.540   6.417  26.344  1.00  0.00     0.041 C 
ATOM      7  O   UNL     1      49.240   7.360  27.122  1.00  0.00    -0.550 OA
ATOM      8  O   UNL     1      49.178   5.116  26.667  1.00  0.00    -0.550 OA
ENDBRANCH   5   6
ENDBRANCH   4   5
ENDBRANCH   3   4
ENDBRANCH   2   3
ENDBRANCH   1   2
BRANCH   1   9
ATOM      9  C   UNL     1      47.231   7.343  21.487  1.00  0.00     0.000 C 
BRANCH   9  10
ATOM     10  C   UNL     1      46.970   8.112  20.180  1.00  0.00    -0.000 C 
BRANCH  10  11
ATOM     11  C   UNL     1      48.071   9.141  19.861  1.00  0.00    -0.000 C 
BRANCH  11  12
ATOM     12  C   UNL     1      48.936   8.814  18.630  1.00  0.00    -0.000 C 
BRANCH  12  13
ATOM     13  C   UNL     1      50.439   8.978  18.894  1.00  0.00    -0.003 C 
ATOM     14  C   UNL     1      51.106   7.627  19.134  1.00  0.00     0.004 C 
ENDBRANCH  12  13
ENDBRANCH  11  12
ENDBRANCH  10  11
ENDBRANCH   9  10
ENDBRANCH   1   9
TORSDOF 10
ENDMDL
MODEL 3
REMARK VINA RESULT:    -3.803      2.755      5.117
REMARK INTER + INTRA:          -7.060
REMARK INTER:                  -6.207
REMARK INTRA:                  -0.852
REMARK UNBOUND:                -1.034
REMARK SMILES CCCCCCCCCCCC(=O)[O-]
REMARK SMILES IDX 7 1 8 2 9 3 10 4 11 5 12 6 13 7 14 8 6 9 5 10 4 11 3 12 2 13
REMARK SMILES IDX 1 14
REMARK H PARENT
REMARK Flexibility Score: inf
ROOT
ATOM      1  C   UNL     1      47.575   6.211  21.299  1.00  0.00     0.000 C 
ENDROOT
BRANCH   1   2
ATOM      2  C   UNL     1      48.246   7.596  21.339  1.00  0.00     0.000 C 
BRANCH   2   3
ATOM      3  C   UNL     1      49.779   7.510  21.256  1.00  0.00     0.000 C 
BRANCH   3   4
ATOM      4  C   UNL     1      50.276   7.169  19.841  1.00  0.00     0.006 C 
BRANCH   4   5
ATOM      5  C   UNL     1      50.822   8.400  19.107  1.00  0.00     0.053 C 
BRANCH   5   6
ATOM      6  C   UNL     1      49.754   9.098  18.320  1.00  0.00     0.041 C 
ATOM      7  O   UNL     1      49.224  10.149  18.766  1.00  0.00    -0.550 OA
ATOM      8  O   UNL     1      49.321   8.567  17.112  1.00  0.00    -0.550 OA
ENDBRANCH   5   6
ENDBRANCH   4   5
ENDBRANCH   3   4
ENDBRANCH   2   3
ENDBRANCH   1   2
BRANCH   1   9
ATOM      9  C   UNL     1      48.061   5.284  22.426  1.00  0.00     0.000 C 
BRANCH   9  10
ATOM     10  C   UNL     1      48.389   3.868  21.924  1.00  0.00    -0.000 C 
BRANCH  10  11
ATOM     11  C   UNL     1      49.884   3.678  21.604  1.00  0.00    -0.000 C 
BRANCH  11  12
ATOM     12  C   UNL     1      50.183   2.866  20.332  1.00  0.00    -0.000 C 
BRANCH  12  13
ATOM     13  C   UNL     1      51.663   2.475  20.204  1.00  0.00    -0.003 C 
ATOM     14  C   UNL     1      52.342   3.250  19.079  1.00  0.00     0.004 C 
ENDBRANCH  12  13
ENDBRANCH  11  12
ENDBRANCH  10  11
ENDBRANCH   9  10
ENDBRANCH   1   9
TORSDOF 10
ENDMDL
MODEL 4
REMARK VINA RESULT:    -3.803      3.115      5.214
REMARK INTER + INTRA:          -7.060
REMARK INTER:                  -5.798
REMARK INTRA:                  -1.262
REMARK UNBOUND:                -1.034
REMARK SMILES CCCCCCCCCCCC(=O)[O-]
REMARK SMILES IDX 7 1 8 2 9 3 10 4 11 5 12 6 13 7 14 8 6 9 5 10 4 11 3 12 2 13
REMARK SMILES IDX 1 14
REMARK H PARENT
REMARK Flexibility Score: inf
ROOT
ATOM      1  C   UNL     1      47.968   5.148  22.441  1.00  0.00     0.000 C 
ENDROOT
BRANCH   1   2
ATOM      2  C   UNL     1      49.044   5.697  21.487  1.00  0.00     0.000 C 
BRANCH   2   3
ATOM      3  C   UNL     1      48.719   7.115  20.988  1.00  0.00     0.000 C 
BRANCH   3   4
ATOM      4  C   UNL     1      49.984   7.946  20.708  1.00  0.00     0.006 C 
BRANCH   4   5
ATOM      5  C   UNL     1      50.507   7.739  19.280  1.00  0.00     0.053 C 
BRANCH   5   6
ATOM      6  C   UNL     1      49.888   8.703  18.315  1.00  0.00     0.041 C 
ATOM      7  O   UNL     1      49.662   8.353  17.127  1.00  0.00    -0.550 OA
ATOM      8  O   UNL     1      49.594  10.000  18.719  1.00  0.00    -0.550 OA
ENDBRANCH   5   6
ENDBRANCH   4   5
ENDBRANCH   3   4
ENDBRANCH   2   3
ENDBRANCH   1   2
BRANCH   1   9
ATOM      9  C   UNL     1      48.526   4.805  23.831  1.00  0.00     0.000 C 
BRANCH   9  10
ATOM     10  C   UNL     1      50.027   5.120  23.958  1.00  0.00    -0.000 C 
BRANCH  10  11
ATOM     11  C   UNL     1      50.333   6.143  25.067  1.00  0.00    -0.000 C 
BRANCH  11  12
ATOM     12  C   UNL     1      49.322   7.297  25.191  1.00  0.00    -0.000 C 
BRANCH  12  13
ATOM     13  C   UNL     1      49.724   8.535  24.377  1.00  0.00    -0.003 C 
ATOM     14  C   UNL     1      48.504   9.383  24.027  1.00  0.00     0.004 C 
ENDBRANCH  12  13
ENDBRANCH  11  12
ENDBRANCH  10  11
ENDBRANCH   9  10
ENDBRANCH   1   9
TORSDOF 10
ENDMDL
MODEL 5
REMARK VINA RESULT:    -3.767      2.744      5.332
REMARK INTER + INTRA:          -7.003
REMARK INTER:                  -6.180
REMARK INTRA:                  -0.823
REMARK UNBOUND:                -1.034
REMARK SMILES CCCCCCCCCCCC(=O)[O-]
REMARK SMILES IDX 7 1 8 2 9 3 10 4 11 5 12 6 13 7 14 8 6 9 5 10 4 11 3 12 2 13
REMARK SMILES IDX 1 14
REMARK H PARENT
REMARK Flexibility Score: inf
ROOT
ATOM      1  C   UNL     1      49.620   3.840  23.676  1.00  0.00     0.000 C 
ENDROOT
BRANCH   1   2
ATOM      2  C   UNL     1      49.287   5.285  23.263  1.00  0.00     0.000 C 
BRANCH   2   3
ATOM      3  C   UNL     1      49.302   5.480  21.738  1.00  0.00     0.000 C 
BRANCH   3   4
ATOM      4  C   UNL     1      48.929   6.913  21.323  1.00  0.00     0.006 C 
BRANCH   4   5
ATOM      5  C   UNL     1      50.043   7.589  20.512  1.00  0.00     0.053 C 
BRANCH   5   6
ATOM      6  C   UNL     1      49.490   8.522  19.478  1.00  0.00     0.041 C 
ATOM      7  O   UNL     1      48.246   8.610  19.304  1.00  0.00    -0.550 OA
ATOM      8  O   UNL     1      50.351   9.268  18.682  1.00  0.00    -0.550 OA
ENDBRANCH   5   6
ENDBRANCH   4   5
ENDBRANCH   3   4
ENDBRANCH   2   3
ENDBRANCH   1   2
BRANCH   1   9
ATOM      9  C   UNL     1      49.999   2.953  22.478  1.00  0.00     0.000 C 
BRANCH   9  10
ATOM     10  C   UNL     1      51.360   2.263  22.662  1.00  0.00    -0.000 C 
BRANCH  10  11
ATOM     11  C   UNL     1      52.133   2.100  21.340  1.00  0.00    -0.000 C 
BRANCH  11  12
ATOM     12  C   UNL     1      51.412   2.634  20.090  1.00  0.00    -0.000 C 
BRANCH  12  13
ATOM     13  C   UNL     1      52.374   3.231  19.052  1.00  0.00    -0.003 C 
ATOM     14  C   UNL     1      51.936   4.634  18.639  1.00  0.00     0.004 C 
ENDBRANCH  12  13
ENDBRANCH  11  12
ENDBRANCH  10  11
ENDBRANCH   9  10
ENDBRANCH   1   9
TORSDOF 10
ENDMDL
MODEL 6
REMARK VINA RESULT:    -3.754      1.314      2.122
REMARK INTER + INTRA:          -6.982
REMARK INTER:                  -6.246
REMARK INTRA:                  -0.736
REMARK UNBOUND:                -1.034
REMARK SMILES CCCCCCCCCCCC(=O)[O-]
REMARK SMILES IDX 7 1 8 2 9 3 10 4 11 5 12 6 13 7 14 8 6 9 5 10 4 11 3 12 2 13
REMARK SMILES IDX 1 14
REMARK H PARENT
REMARK Flexibility Score: inf
ROOT
ATOM      1  C   UNL     1      49.580   4.549  23.232  1.00  0.00     0.000 C 
ENDROOT
BRANCH   1   2
ATOM      2  C   UNL     1      50.021   3.288  22.467  1.00  0.00     0.000 C 
BRANCH   2   3
ATOM      3  C   UNL     1      49.679   3.357  20.970  1.00  0.00     0.000 C 
BRANCH   3   4
ATOM      4  C   UNL     1      50.891   3.053  20.073  1.00  0.00     0.006 C 
BRANCH   4   5
ATOM      5  C   UNL     1      51.892   2.109  20.753  1.00  0.00     0.053 C 
BRANCH   5   6
ATOM      6  C   UNL     1      53.151   1.963  19.954  1.00  0.00     0.041 C 
ATOM      7  O   UNL     1      53.405   0.881  19.363  1.00  0.00    -0.550 OA
ATOM      8  O   UNL     1      54.061   3.012  19.891  1.00  0.00    -0.550 OA
ENDBRANCH   5   6
ENDBRANCH   4   5
ENDBRANCH   3   4
ENDBRANCH   2   3
ENDBRANCH   1   2
BRANCH   1   9
ATOM      9  C   UNL     1      48.448   5.308  22.520  1.00  0.00     0.000 C 
BRANCH   9  10
ATOM     10  C   UNL     1      48.541   6.830  22.721  1.00  0.00    -0.000 C 
BRANCH  10  11
ATOM     11  C   UNL     1      49.659   7.477  21.883  1.00  0.00    -0.000 C 
BRANCH  11  12
ATOM     12  C   UNL     1      49.329   7.677  20.393  1.00  0.00    -0.000 C 
BRANCH  12  13
ATOM     13  C   UNL     1      50.477   8.326  19.607  1.00  0.00    -0.003 C 
ATOM     14  C   UNL     1      51.378   7.268  18.975  1.00  0.00     0.004 C 
ENDBRANCH  12  13
ENDBRANCH  11  12
ENDBRANCH  10  11
ENDBRANCH   9  10
ENDBRANCH   1   9
TORSDOF 10
ENDMDL
MODEL 7
REMARK VINA RESULT:    -3.699      4.000      5.773
REMARK INTER + INTRA:          -6.895
REMARK INTER:                  -5.917
REMARK INTRA:                  -0.978
REMARK UNBOUND:                -1.034
REMARK SMILES CCCCCCCCCCCC(=O)[O-]
REMARK SMILES IDX 7 1 8 2 9 3 10 4 11 5 12 6 13 7 14 8 6 9 5 10 4 11 3 12 2 13
REMARK SMILES IDX 1 14
REMARK H PARENT
REMARK Flexibility Score: inf
ROOT
ATOM      1  C   UNL     1      48.116   6.979  22.261  1.00  0.00     0.000 C 
ENDROOT
BRANCH   1   2
ATOM      2  C   UNL     1      49.532   7.435  22.656  1.00  0.00     0.000 C 
BRANCH   2   3
ATOM      3  C   UNL     1      49.693   7.608  24.176  1.00  0.00     0.000 C 
BRANCH   3   4
ATOM      4  C   UNL     1      50.417   6.420  24.831  1.00  0.00     0.006 C 
BRANCH   4   5
ATOM      5  C   UNL     1      49.436   5.392  25.411  1.00  0.00     0.053 C 
BRANCH   5   6
ATOM      6  C   UNL     1      49.708   5.119  26.859  1.00  0.00     0.041 C 
ATOM      7  O   UNL     1      50.075   6.051  27.621  1.00  0.00    -0.550 OA
ATOM      8  O   UNL     1      49.592   3.827  27.358  1.00  0.00    -0.550 OA
ENDBRANCH   5   6
ENDBRANCH   4   5
ENDBRANCH   3   4
ENDBRANCH   2   3
ENDBRANCH   1   2
BRANCH   1   9
ATOM      9  C   UNL     1      48.099   5.577  21.630  1.00  0.00     0.000 C 
BRANCH   9  10
ATOM     10  C   UNL     1      49.513   5.028  21.378  1.00  0.00    -0.000 C 
BRANCH  10  11
ATOM     11  C   UNL     1      49.750   3.658  22.041  1.00  0.00    -0.000 C 
BRANCH  11  12
ATOM     12  C   UNL     1      50.752   2.743  21.315  1.00  0.00    -0.000 C 
BRANCH  12  13
ATOM     13  C   UNL     1      50.825   3.013  19.806  1.00  0.00    -0.003 C 
ATOM     14  C   UNL     1      52.233   2.768  19.270  1.00  0.00     0.004 C 
ENDBRANCH  12  13
ENDBRANCH  11  12
ENDBRANCH  10  11
ENDBRANCH   9  10
ENDBRANCH   1   9
TORSDOF 10
ENDMDL
MODEL 8
REMARK VINA RESULT:    -3.688      4.148      6.557
REMARK INTER + INTRA:          -6.878
REMARK INTER:                  -5.905
REMARK INTRA:                  -0.973
REMARK UNBOUND:                -1.034
REMARK SMILES CCCCCCCCCCCC(=O)[O-]
REMARK SMILES IDX 7 1 8 2 9 3 10 4 11 5 12 6 13 7 14 8 6 9 5 10 4 11 3 12 2 13
REMARK SMILES IDX 1 14
REMARK H PARENT
REMARK Flexibility Score: inf
ROOT
ATOM      1  C   UNL     1      49.977   6.196  24.719  1.00  0.00     0.000 C 
ENDROOT
BRANCH   1   2
ATOM      2  C   UNL     1      50.401   7.598  24.243  1.00  0.00     0.000 C 
BRANCH   2   3
ATOM      3  C   UNL     1      49.197   8.506  23.943  1.00  0.00     0.000 C 
BRANCH   3   4
ATOM      4  C   UNL     1      48.598   8.251  22.549  1.00  0.00     0.006 C 
BRANCH   4   5
ATOM      5  C   UNL     1      49.639   7.703  21.564  1.00  0.00     0.053 C 
BRANCH   5   6
ATOM      6  C   UNL     1      49.447   8.259  20.186  1.00  0.00     0.041 C 
ATOM      7  O   UNL     1      50.443   8.592  19.493  1.00  0.00    -0.550 OA
ATOM      8  O   UNL     1      48.165   8.442  19.682  1.00  0.00    -0.550 OA
ENDBRANCH   5   6
ENDBRANCH   4   5
ENDBRANCH   3   4
ENDBRANCH   2   3
ENDBRANCH   1   2
BRANCH   1   9
ATOM      9  C   UNL     1      50.464   5.881  26.143  1.00  0.00     0.000 C 
BRANCH   9  10
ATOM     10  C   UNL     1      49.318   5.876  27.169  1.00  0.00    -0.000 C 
BRANCH  10  11
ATOM     11  C   UNL     1      49.257   7.169  28.004  1.00  0.00    -0.000 C 
BRANCH  11  12
ATOM     12  C   UNL     1      47.893   7.880  28.011  1.00  0.00    -0.000 C 
BRANCH  12  13
ATOM     13  C   UNL     1      46.986   7.448  26.850  1.00  0.00    -0.003 C 
ATOM     14  C   UNL     1      46.290   8.650  26.218  1.00  0.00     0.004 C 
ENDBRANCH  12  13
ENDBRANCH  11  12
ENDBRANCH  10  11
ENDBRANCH   9  10
ENDBRANCH   1   9
TORSDOF 10
ENDMDL
MODEL 9
REMARK VINA RESULT:    -3.620      4.106      5.229
REMARK INTER + INTRA:          -6.771
REMARK INTER:                  -5.629
REMARK INTRA:                  -1.141
REMARK UNBOUND:                -1.034
REMARK SMILES CCCCCCCCCCCC(=O)[O-]
REMARK SMILES IDX 7 1 8 2 9 3 10 4 11 5 12 6 13 7 14 8 6 9 5 10 4 11 3 12 2 13
REMARK SMILES IDX 1 14
REMARK H PARENT
REMARK Flexibility Score: inf
ROOT
ATOM      1  C   UNL     1      47.879   8.414  23.258  1.00  0.00     0.000 C 
ENDROOT
BRANCH   1   2
ATOM      2  C   UNL     1      48.411   8.142  24.677  1.00  0.00     0.000 C 
BRANCH   2   3
ATOM      3  C   UNL     1      49.941   7.991  24.713  1.00  0.00     0.000 C 
BRANCH   3   4
ATOM      4  C   UNL     1      50.387   6.522  24.813  1.00  0.00     0.006 C 
BRANCH   4   5
ATOM      5  C   UNL     1      49.304   5.630  25.435  1.00  0.00     0.053 C 
BRANCH   5   6
ATOM      6  C   UNL     1      49.635   5.257  26.848  1.00  0.00     0.041 C 
ATOM      7  O   UNL     1      49.607   4.051  27.208  1.00  0.00    -0.550 OA
ATOM      8  O   UNL     1      49.939   6.245  27.776  1.00  0.00    -0.550 OA
ENDBRANCH   5   6
ENDBRANCH   4   5
ENDBRANCH   3   4
ENDBRANCH   2   3
ENDBRANCH   1   2
BRANCH   1   9
ATOM      9  C   UNL     1      47.105   7.220  22.676  1.00  0.00     0.000 C 
BRANCH   9  10
ATOM     10  C   UNL     1      47.659   6.766  21.315  1.00  0.00    -0.000 C 
BRANCH  10  11
ATOM     11  C   UNL     1      49.169   6.462  21.355  1.00  0.00    -0.000 C 
BRANCH  11  12
ATOM     12  C   UNL     1      50.069   7.523  20.697  1.00  0.00    -0.000 C 
BRANCH  12  13
ATOM     13  C   UNL     1      49.293   8.485  19.786  1.00  0.00    -0.003 C 
ATOM     14  C   UNL     1      50.149   8.934  18.605  1.00  0.00     0.004 C 
ENDBRANCH  12  13
ENDBRANCH  11  12
ENDBRANCH  10  11
ENDBRANCH   9  10
ENDBRANCH   1   9
TORSDOF 10
ENDMDL
