MODEL 1
REMARK VINA RESULT:    -7.244      0.000      0.000
REMARK INTER + INTRA:          -8.786
REMARK INTER:                  -8.514
REMARK INTRA:                  -0.272
REMARK UNBOUND:                -0.272
REMARK SMILES O=c1cc(-c2ccc(O)c(O)c2)oc2cc(O)cc(O)c12
REMARK SMILES IDX 4 1 3 2 2 3 1 4 21 5 19 6 18 7 16 8 15 9 14 10 13 11 5 12
REMARK SMILES IDX 6 13 7 14 8 15 12 16 10 17 9 18 11 20 20 22 17 24
REMARK H PARENT 9 19 11 21 20 23 17 25
REMARK Flexibility Score: inf
ROOT
ATOM      1  C   UNL     1       0.384  -8.013  14.809  1.00  0.00     0.138 A 
ATOM      2  C   UNL     1       1.267  -6.977  14.466  1.00  0.00     0.100 A 
ATOM      3  C   UNL     1       2.456  -6.823  15.180  1.00  0.00     0.197 A 
ATOM      4  O   UNL     1       3.243  -5.889  14.865  1.00  0.00    -0.289 OA
ATOM      5  C   UNL     1       2.753  -7.706  16.237  1.00  0.00     0.107 A 
ATOM      6  C   UNL     1       3.935  -7.621  17.010  1.00  0.00     0.134 A 
ATOM      7  C   UNL     1       4.153  -8.537  18.049  1.00  0.00     0.093 A 
ATOM      8  C   UNL     1       3.211  -9.534  18.330  1.00  0.00     0.123 A 
ATOM      9  C   UNL     1       2.044  -9.621  17.571  1.00  0.00     0.094 A 
ATOM     10  C   UNL     1       1.808  -8.719  16.529  1.00  0.00     0.146 A 
ATOM     11  O   UNL     1       0.689  -8.825  15.820  1.00  0.00    -0.456 OA
ENDROOT
BRANCH   1  12
ATOM     12  C   UNL     1      -0.895  -8.224  14.087  1.00  0.00     0.021 A 
ATOM     13  C   UNL     1      -1.181  -9.487  13.540  1.00  0.00     0.016 A 
ATOM     14  C   UNL     1      -2.374  -9.710  12.849  1.00  0.00     0.051 A 
ATOM     15  C   UNL     1      -3.300  -8.672  12.684  1.00  0.00     0.157 A 
ATOM     16  C   UNL     1      -1.825  -7.181  13.906  1.00  0.00     0.062 A 
ATOM     17  C   UNL     1      -3.021  -7.402  13.212  1.00  0.00     0.158 A 
BRANCH  15  18
ATOM     18  O   UNL     1      -4.491  -8.898  11.996  1.00  0.00    -0.504 OA
ATOM     19  H   UNL     1      -5.305  -8.311  12.135  1.00  0.00     0.293 HD
ENDBRANCH  15  18
BRANCH  17  20
ATOM     20  O   UNL     1      -3.917  -6.344  13.055  1.00  0.00    -0.504 OA
ATOM     21  H   UNL     1      -4.632  -6.140  13.741  1.00  0.00     0.293 HD
ENDBRANCH  17  20
ENDBRANCH   1  12
BRANCH   6  22
ATOM     22  O   UNL     1       4.891  -6.638  16.752  1.00  0.00    -0.507 OA
ATOM     23  H   UNL     1       4.906  -6.124  15.879  1.00  0.00     0.293 HD
ENDBRANCH   6  22
BRANCH   8  24
ATOM     24  O   UNL     1       3.428 -10.444  19.364  1.00  0.00    -0.508 OA
ATOM     25  H   UNL     1       2.697 -11.069  19.680  1.00  0.00     0.293 HD
ENDBRANCH   8  24
TORSDOF 5
ENDMDL
MODEL 2
REMARK VINA RESULT:    -7.192      4.277      5.598
REMARK INTER + INTRA:          -8.726
REMARK INTER:                  -8.409
REMARK INTRA:                  -0.317
REMARK UNBOUND:                -0.272
REMARK SMILES O=c1cc(-c2ccc(O)c(O)c2)oc2cc(O)cc(O)c12
REMARK SMILES IDX 4 1 3 2 2 3 1 4 21 5 19 6 18 7 16 8 15 9 14 10 13 11 5 12
REMARK SMILES IDX 6 13 7 14 8 15 12 16 10 17 9 18 11 20 20 22 17 24
REMARK H PARENT 9 19 11 21 20 23 17 25
REMARK Flexibility Score: inf
ROOT
ATOM      1  C   UNL     1      -2.801  -9.487  13.771  1.00  0.00     0.138 A 
ATOM      2  C   UNL     1      -2.618  -8.125  14.061  1.00  0.00     0.100 A 
ATOM      3  C   UNL     1      -1.508  -7.456  13.544  1.00  0.00     0.197 A 
ATOM      4  O   UNL     1      -1.352  -6.233  13.812  1.00  0.00    -0.289 OA
ATOM      5  C   UNL     1      -0.585  -8.155  12.742  1.00  0.00     0.107 A 
ATOM      6  C   UNL     1       0.565  -7.553  12.178  1.00  0.00     0.134 A 
ATOM      7  C   UNL     1       1.438  -8.321  11.394  1.00  0.00     0.093 A 
ATOM      8  C   UNL     1       1.183  -9.678  11.164  1.00  0.00     0.123 A 
ATOM      9  C   UNL     1       0.051 -10.276  11.719  1.00  0.00     0.094 A 
ATOM     10  C   UNL     1      -0.833  -9.528  12.502  1.00  0.00     0.146 A 
ATOM     11  O   UNL     1      -1.905 -10.122  13.017  1.00  0.00    -0.456 OA
ENDROOT
BRANCH   1  12
ATOM     12  C   UNL     1      -3.962 -10.251  14.293  1.00  0.00     0.021 A 
ATOM     13  C   UNL     1      -5.023  -9.564  14.906  1.00  0.00     0.016 A 
ATOM     14  C   UNL     1      -6.123 -10.260  15.412  1.00  0.00     0.051 A 
ATOM     15  C   UNL     1      -6.178 -11.656  15.323  1.00  0.00     0.157 A 
ATOM     16  C   UNL     1      -4.017 -11.657  14.219  1.00  0.00     0.062 A 
ATOM     17  C   UNL     1      -5.118 -12.357  14.728  1.00  0.00     0.158 A 
BRANCH  15  18
ATOM     18  O   UNL     1      -7.279 -12.348  15.828  1.00  0.00    -0.504 OA
ATOM     19  H   UNL     1      -8.224 -12.119  15.545  1.00  0.00     0.293 HD
ENDBRANCH  15  18
BRANCH  17  20
ATOM     20  O   UNL     1      -5.137 -13.748  14.634  1.00  0.00    -0.504 OA
ATOM     21  H   UNL     1      -4.286 -14.295  14.582  1.00  0.00     0.293 HD
ENDBRANCH  17  20
ENDBRANCH   1  12
BRANCH   6  22
ATOM     22  O   UNL     1       0.844  -6.202  12.390  1.00  0.00    -0.507 OA
ATOM     23  H   UNL     1       0.206  -5.599  12.897  1.00  0.00     0.293 HD
ENDBRANCH   6  22
BRANCH   8  24
ATOM     24  O   UNL     1       2.052 -10.441  10.386  1.00  0.00    -0.508 OA
ATOM     25  H   UNL     1       2.527 -10.048   9.583  1.00  0.00     0.293 HD
ENDBRANCH   8  24
TORSDOF 5
ENDMDL
MODEL 3
REMARK VINA RESULT:    -7.180      3.465      4.479
REMARK INTER + INTRA:          -8.712
REMARK INTER:                  -8.395
REMARK INTRA:                  -0.316
REMARK UNBOUND:                -0.272
REMARK SMILES O=c1cc(-c2ccc(O)c(O)c2)oc2cc(O)cc(O)c12
REMARK SMILES IDX 4 1 3 2 2 3 1 4 21 5 19 6 18 7 16 8 15 9 14 10 13 11 5 12
REMARK SMILES IDX 6 13 7 14 8 15 12 16 10 17 9 18 11 20 20 22 17 24
REMARK H PARENT 9 19 11 21 20 23 17 25
REMARK Flexibility Score: inf
ROOT
ATOM      1  C   UNL     1      -1.493  -7.620  13.172  1.00  0.00     0.138 A 
ATOM      2  C   UNL     1      -0.689  -6.732  13.905  1.00  0.00     0.100 A 
ATOM      3  C   UNL     1       0.694  -6.741  13.716  1.00  0.00     0.197 A 
ATOM      4  O   UNL     1       1.407  -5.941  14.380  1.00  0.00    -0.289 OA
ATOM      5  C   UNL     1       1.265  -7.643  12.797  1.00  0.00     0.107 A 
ATOM      6  C   UNL     1       2.655  -7.717  12.544  1.00  0.00     0.134 A 
ATOM      7  C   UNL     1       3.144  -8.647  11.616  1.00  0.00     0.093 A 
ATOM      8  C   UNL     1       2.270  -9.503  10.936  1.00  0.00     0.123 A 
ATOM      9  C   UNL     1       0.898  -9.435  11.183  1.00  0.00     0.094 A 
ATOM     10  C   UNL     1       0.390  -8.513  12.103  1.00  0.00     0.146 A 
ATOM     11  O   UNL     1      -0.921  -8.467  12.318  1.00  0.00    -0.456 OA
ENDROOT
BRANCH   1  12
ATOM     12  C   UNL     1      -2.968  -7.656  13.332  1.00  0.00     0.021 A 
ATOM     13  C   UNL     1      -3.611  -6.635  14.052  1.00  0.00     0.016 A 
ATOM     14  C   UNL     1      -4.998  -6.650  14.222  1.00  0.00     0.051 A 
ATOM     15  C   UNL     1      -5.765  -7.691  13.685  1.00  0.00     0.157 A 
ATOM     16  C   UNL     1      -3.744  -8.707  12.805  1.00  0.00     0.062 A 
ATOM     17  C   UNL     1      -5.134  -8.725  12.977  1.00  0.00     0.158 A 
BRANCH  15  18
ATOM     18  O   UNL     1      -7.149  -7.701  13.855  1.00  0.00    -0.504 OA
ATOM     19  H   UNL     1      -7.584  -7.316  14.685  1.00  0.00     0.293 HD
ENDBRANCH  15  18
BRANCH  17  20
ATOM     20  O   UNL     1      -5.868  -9.782  12.439  1.00  0.00    -0.504 OA
ATOM     21  H   UNL     1      -5.761 -10.733  12.769  1.00  0.00     0.293 HD
ENDBRANCH  17  20
ENDBRANCH   1  12
BRANCH   6  22
ATOM     22  O   UNL     1       3.550  -6.875  13.207  1.00  0.00    -0.507 OA
ATOM     23  H   UNL     1       4.553  -6.981  13.110  1.00  0.00     0.293 HD
ENDBRANCH   6  22
BRANCH   8  24
ATOM     24  O   UNL     1       2.757 -10.429  10.015  1.00  0.00    -0.508 OA
ATOM     25  H   UNL     1       2.206 -11.229   9.727  1.00  0.00     0.293 HD
ENDBRANCH   8  24
TORSDOF 5
ENDMDL
MODEL 4
REMARK VINA RESULT:    -6.997      5.186      7.054
REMARK INTER + INTRA:          -8.496
REMARK INTER:                  -8.179
REMARK INTRA:                  -0.318
REMARK UNBOUND:                -0.272
REMARK SMILES O=c1cc(-c2ccc(O)c(O)c2)oc2cc(O)cc(O)c12
REMARK SMILES IDX 4 1 3 2 2 3 1 4 21 5 19 6 18 7 16 8 15 9 14 10 13 11 5 12
REMARK SMILES IDX 6 13 7 14 8 15 12 16 10 17 9 18 11 20 20 22 17 24
REMARK H PARENT 9 19 11 21 20 23 17 25
REMARK Flexibility Score: inf
ROOT
ATOM      1  C   UNL     1      -5.238  -9.711  14.239  1.00  0.00     0.138 A 
ATOM      2  C   UNL     1      -4.756  -8.474  13.781  1.00  0.00     0.100 A 
ATOM      3  C   UNL     1      -3.532  -8.418  13.115  1.00  0.00     0.197 A 
ATOM      4  O   UNL     1      -3.106  -7.302  12.709  1.00  0.00    -0.289 OA
ATOM      5  C   UNL     1      -2.793  -9.601  12.914  1.00  0.00     0.107 A 
ATOM      6  C   UNL     1      -1.545  -9.633  12.248  1.00  0.00     0.134 A 
ATOM      7  C   UNL     1      -0.871 -10.853  12.094  1.00  0.00     0.093 A 
ATOM      8  C   UNL     1      -1.421 -12.040  12.592  1.00  0.00     0.123 A 
ATOM      9  C   UNL     1      -2.651 -12.013  13.250  1.00  0.00     0.094 A 
ATOM     10  C   UNL     1      -3.340 -10.808  13.413  1.00  0.00     0.146 A 
ATOM     11  O   UNL     1      -4.511 -10.810  14.042  1.00  0.00    -0.456 OA
ENDROOT
BRANCH   1  12
ATOM     12  C   UNL     1      -6.533  -9.832  14.954  1.00  0.00     0.021 A 
ATOM     13  C   UNL     1      -7.365  -8.706  15.074  1.00  0.00     0.016 A 
ATOM     14  C   UNL     1      -8.585  -8.792  15.748  1.00  0.00     0.051 A 
ATOM     15  C   UNL     1      -8.991 -10.002  16.324  1.00  0.00     0.157 A 
ATOM     16  C   UNL     1      -6.941 -11.044  15.547  1.00  0.00     0.062 A 
ATOM     17  C   UNL     1      -8.164 -11.131  16.225  1.00  0.00     0.158 A 
BRANCH  15  18
ATOM     18  O   UNL     1     -10.211 -10.085  16.995  1.00  0.00    -0.504 OA
ATOM     19  H   UNL     1     -11.087  -9.870  16.532  1.00  0.00     0.293 HD
ENDBRANCH  15  18
BRANCH  17  20
ATOM     20  O   UNL     1      -8.534 -12.348  16.798  1.00  0.00    -0.504 OA
ATOM     21  H   UNL     1      -9.284 -12.418  17.474  1.00  0.00     0.293 HD
ENDBRANCH  17  20
ENDBRANCH   1  12
BRANCH   6  22
ATOM     22  O   UNL     1      -0.973  -8.465  11.741  1.00  0.00    -0.507 OA
ATOM     23  H   UNL     1      -0.393  -7.864  12.313  1.00  0.00     0.293 HD
ENDBRANCH   6  22
BRANCH   8  24
ATOM     24  O   UNL     1      -0.750 -13.252  12.440  1.00  0.00    -0.508 OA
ATOM     25  H   UNL     1      -1.194 -14.052  12.007  1.00  0.00     0.293 HD
ENDBRANCH   8  24
TORSDOF 5
ENDMDL
MODEL 5
REMARK VINA RESULT:    -6.993      4.338      8.258
REMARK INTER + INTRA:          -8.492
REMARK INTER:                  -8.198
REMARK INTRA:                  -0.294
REMARK UNBOUND:                -0.272
REMARK SMILES O=c1cc(-c2ccc(O)c(O)c2)oc2cc(O)cc(O)c12
REMARK SMILES IDX 4 1 3 2 2 3 1 4 21 5 19 6 18 7 16 8 15 9 14 10 13 11 5 12
REMARK SMILES IDX 6 13 7 14 8 15 12 16 10 17 9 18 11 20 20 22 17 24
REMARK H PARENT 9 19 11 21 20 23 17 25
REMARK Flexibility Score: inf
ROOT
ATOM      1  C   UNL     1      -4.205  -9.548  13.642  1.00  0.00     0.138 A 
ATOM      2  C   UNL     1      -5.143  -8.780  12.933  1.00  0.00     0.100 A 
ATOM      3  C   UNL     1      -6.489  -8.831  13.298  1.00  0.00     0.197 A 
ATOM      4  O   UNL     1      -7.324  -8.139  12.655  1.00  0.00    -0.289 OA
ATOM      5  C   UNL     1      -6.889  -9.655  14.369  1.00  0.00     0.107 A 
ATOM      6  C   UNL     1      -8.231  -9.764  14.804  1.00  0.00     0.134 A 
ATOM      7  C   UNL     1      -8.547 -10.611  15.876  1.00  0.00     0.093 A 
ATOM      8  C   UNL     1      -7.548 -11.350  16.519  1.00  0.00     0.123 A 
ATOM      9  C   UNL     1      -6.223 -11.247  16.093  1.00  0.00     0.094 A 
ATOM     10  C   UNL     1      -5.887 -10.406  15.028  1.00  0.00     0.146 A 
ATOM     11  O   UNL     1      -4.617 -10.324  14.643  1.00  0.00    -0.456 OA
ENDROOT
BRANCH   1  12
ATOM     12  C   UNL     1      -2.761  -9.535  13.298  1.00  0.00     0.021 A 
ATOM     13  C   UNL     1      -1.931 -10.572  13.757  1.00  0.00     0.016 A 
ATOM     14  C   UNL     1      -0.568 -10.578  13.453  1.00  0.00     0.051 A 
ATOM     15  C   UNL     1      -0.008  -9.543  12.694  1.00  0.00     0.157 A 
ATOM     16  C   UNL     1      -2.189  -8.490  12.545  1.00  0.00     0.062 A 
ATOM     17  C   UNL     1      -0.822  -8.494  12.241  1.00  0.00     0.158 A 
BRANCH  15  18
ATOM     18  O   UNL     1       1.354  -9.555  12.391  1.00  0.00    -0.504 OA
ATOM     19  H   UNL     1       1.947  -8.758  12.586  1.00  0.00     0.293 HD
ENDBRANCH  15  18
BRANCH  17  20
ATOM     20  O   UNL     1      -0.293  -7.443  11.492  1.00  0.00    -0.504 OA
ATOM     21  H   UNL     1       0.020  -6.582  11.922  1.00  0.00     0.293 HD
ENDBRANCH  17  20
ENDBRANCH   1  12
BRANCH   6  22
ATOM     22  O   UNL     1      -9.248  -9.039  14.182  1.00  0.00    -0.507 OA
ATOM     23  H   UNL     1      -9.578  -9.273  13.253  1.00  0.00     0.293 HD
ENDBRANCH   6  22
BRANCH   8  24
ATOM     24  O   UNL     1      -7.863 -12.194  17.584  1.00  0.00    -0.508 OA
ATOM     25  H   UNL     1      -8.428 -11.876  18.361  1.00  0.00     0.293 HD
ENDBRANCH   8  24
TORSDOF 5
ENDMDL
MODEL 6
REMARK VINA RESULT:    -6.965      3.889      6.941
REMARK INTER + INTRA:          -8.459
REMARK INTER:                  -8.141
REMARK INTRA:                  -0.318
REMARK UNBOUND:                -0.272
REMARK SMILES O=c1cc(-c2ccc(O)c(O)c2)oc2cc(O)cc(O)c12
REMARK SMILES IDX 4 1 3 2 2 3 1 4 21 5 19 6 18 7 16 8 15 9 14 10 13 11 5 12
REMARK SMILES IDX 6 13 7 14 8 15 12 16 10 17 9 18 11 20 20 22 17 24
REMARK H PARENT 9 19 11 21 20 23 17 25
REMARK Flexibility Score: inf
ROOT
ATOM      1  C   UNL     1      -0.165  -7.806  12.962  1.00  0.00     0.138 A 
ATOM      2  C   UNL     1      -0.320  -6.764  13.891  1.00  0.00     0.100 A 
ATOM      3  C   UNL     1      -1.592  -6.466  14.384  1.00  0.00     0.197 A 
ATOM      4  O   UNL     1      -1.721  -5.528  15.216  1.00  0.00    -0.289 OA
ATOM      5  C   UNL     1      -2.702  -7.210  13.939  1.00  0.00     0.107 A 
ATOM      6  C   UNL     1      -4.024  -6.975  14.388  1.00  0.00     0.134 A 
ATOM      7  C   UNL     1      -5.076  -7.758  13.892  1.00  0.00     0.093 A 
ATOM      8  C   UNL     1      -4.831  -8.771  12.957  1.00  0.00     0.123 A 
ATOM      9  C   UNL     1      -3.530  -9.007  12.511  1.00  0.00     0.094 A 
ATOM     10  C   UNL     1      -2.467  -8.238  12.995  1.00  0.00     0.146 A 
ATOM     11  O   UNL     1      -1.237  -8.484  12.555  1.00  0.00    -0.456 OA
ENDROOT
BRANCH   1  12
ATOM     12  C   UNL     1       1.161  -8.167  12.404  1.00  0.00     0.021 A 
ATOM     13  C   UNL     1       2.308  -7.485  12.847  1.00  0.00     0.016 A 
ATOM     14  C   UNL     1       3.567  -7.801  12.332  1.00  0.00     0.051 A 
ATOM     15  C   UNL     1       3.702  -8.799  11.358  1.00  0.00     0.157 A 
ATOM     16  C   UNL     1       1.303  -9.161  11.415  1.00  0.00     0.062 A 
ATOM     17  C   UNL     1       2.565  -9.478  10.896  1.00  0.00     0.158 A 
BRANCH  15  18
ATOM     18  O   UNL     1       4.961  -9.113  10.848  1.00  0.00    -0.504 OA
ATOM     19  H   UNL     1       5.629  -9.658  11.381  1.00  0.00     0.293 HD
ENDBRANCH  15  18
BRANCH  17  20
ATOM     20  O   UNL     1       2.664 -10.468   9.919  1.00  0.00    -0.504 OA
ATOM     21  H   UNL     1       2.834 -11.439  10.153  1.00  0.00     0.293 HD
ENDBRANCH  17  20
ENDBRANCH   1  12
BRANCH   6  22
ATOM     22  O   UNL     1      -4.297  -5.972  15.319  1.00  0.00    -0.507 OA
ATOM     23  H   UNL     1      -3.837  -5.070  15.282  1.00  0.00     0.293 HD
ENDBRANCH   6  22
BRANCH   8  24
ATOM     24  O   UNL     1      -5.878  -9.549  12.463  1.00  0.00    -0.508 OA
ATOM     25  H   UNL     1      -5.783 -10.550  12.347  1.00  0.00     0.293 HD
ENDBRANCH   8  24
TORSDOF 5
ENDMDL
MODEL 7
REMARK VINA RESULT:    -6.942      2.795      4.378
REMARK INTER + INTRA:          -8.431
REMARK INTER:                  -8.154
REMARK INTRA:                  -0.277
REMARK UNBOUND:                -0.272
REMARK SMILES O=c1cc(-c2ccc(O)c(O)c2)oc2cc(O)cc(O)c12
REMARK SMILES IDX 4 1 3 2 2 3 1 4 21 5 19 6 18 7 16 8 15 9 14 10 13 11 5 12
REMARK SMILES IDX 6 13 7 14 8 15 12 16 10 17 9 18 11 20 20 22 17 24
REMARK H PARENT 9 19 11 21 20 23 17 25
REMARK Flexibility Score: inf
ROOT
ATOM      1  C   UNL     1       1.028  -8.344  13.255  1.00  0.00     0.138 A 
ATOM      2  C   UNL     1       1.574  -7.840  14.446  1.00  0.00     0.100 A 
ATOM      3  C   UNL     1       2.785  -7.146  14.407  1.00  0.00     0.197 A 
ATOM      4  O   UNL     1       3.269  -6.699  15.483  1.00  0.00    -0.289 OA
ATOM      5  C   UNL     1       3.443  -6.965  13.175  1.00  0.00     0.107 A 
ATOM      6  C   UNL     1       4.672  -6.274  13.047  1.00  0.00     0.134 A 
ATOM      7  C   UNL     1       5.266  -6.141  11.784  1.00  0.00     0.093 A 
ATOM      8  C   UNL     1       4.655  -6.685  10.648  1.00  0.00     0.123 A 
ATOM      9  C   UNL     1       3.444  -7.368  10.769  1.00  0.00     0.094 A 
ATOM     10  C   UNL     1       2.835  -7.510  12.020  1.00  0.00     0.146 A 
ATOM     11  O   UNL     1       1.680  -8.163  12.108  1.00  0.00    -0.456 OA
ENDROOT
BRANCH   1  12
ATOM     12  C   UNL     1      -0.255  -9.090  13.235  1.00  0.00     0.021 A 
ATOM     13  C   UNL     1      -0.370 -10.289  13.959  1.00  0.00     0.016 A 
ATOM     14  C   UNL     1      -1.564 -11.013  13.951  1.00  0.00     0.051 A 
ATOM     15  C   UNL     1      -2.662 -10.557  13.211  1.00  0.00     0.157 A 
ATOM     16  C   UNL     1      -1.360  -8.643  12.483  1.00  0.00     0.062 A 
ATOM     17  C   UNL     1      -2.558  -9.369  12.472  1.00  0.00     0.158 A 
BRANCH  15  18
ATOM     18  O   UNL     1      -3.854 -11.281  13.207  1.00  0.00    -0.504 OA
ATOM     19  H   UNL     1      -3.900 -12.226  12.843  1.00  0.00     0.293 HD
ENDBRANCH  15  18
BRANCH  17  20
ATOM     20  O   UNL     1      -3.629  -8.894  11.716  1.00  0.00    -0.504 OA
ATOM     21  H   UNL     1      -4.520  -9.374  11.686  1.00  0.00     0.293 HD
ENDBRANCH  17  20
ENDBRANCH   1  12
BRANCH   6  22
ATOM     22  O   UNL     1       5.303  -5.721  14.162  1.00  0.00    -0.507 OA
ATOM     23  H   UNL     1       4.904  -4.938  14.667  1.00  0.00     0.293 HD
ENDBRANCH   6  22
BRANCH   8  24
ATOM     24  O   UNL     1       5.246  -6.554   9.392  1.00  0.00    -0.508 OA
ATOM     25  H   UNL     1       4.757  -6.119   8.620  1.00  0.00     0.293 HD
ENDBRANCH   8  24
TORSDOF 5
ENDMDL
MODEL 8
REMARK VINA RESULT:    -6.846      5.552      7.742
REMARK INTER + INTRA:          -8.319
REMARK INTER:                  -8.048
REMARK INTRA:                  -0.270
REMARK UNBOUND:                -0.272
REMARK SMILES O=c1cc(-c2ccc(O)c(O)c2)oc2cc(O)cc(O)c12
REMARK SMILES IDX 4 1 3 2 2 3 1 4 21 5 19 6 18 7 16 8 15 9 14 10 13 11 5 12
REMARK SMILES IDX 6 13 7 14 8 15 12 16 10 17 9 18 11 20 20 22 17 24
REMARK H PARENT 9 19 11 21 20 23 17 25
REMARK Flexibility Score: inf
ROOT
ATOM      1  C   UNL     1      -6.467  -8.967  14.447  1.00  0.00     0.138 A 
ATOM      2  C   UNL     1      -5.941  -7.768  13.939  1.00  0.00     0.100 A 
ATOM      3  C   UNL     1      -4.705  -7.780  13.293  1.00  0.00     0.197 A 
ATOM      4  O   UNL     1      -4.240  -6.698  12.841  1.00  0.00    -0.289 OA
ATOM      5  C   UNL     1      -3.999  -8.992  13.162  1.00  0.00     0.107 A 
ATOM      6  C   UNL     1      -2.742  -9.092  12.521  1.00  0.00     0.134 A 
ATOM      7  C   UNL     1      -2.101 -10.337  12.437  1.00  0.00     0.093 A 
ATOM      8  C   UNL     1      -2.695 -11.482  12.982  1.00  0.00     0.123 A 
ATOM      9  C   UNL     1      -3.934 -11.388  13.616  1.00  0.00     0.094 A 
ATOM     10  C   UNL     1      -4.589 -10.157  13.709  1.00  0.00     0.146 A 
ATOM     11  O   UNL     1      -5.770 -10.094  14.316  1.00  0.00    -0.456 OA
ENDROOT
BRANCH   1  12
ATOM     12  C   UNL     1      -7.776  -9.016  15.144  1.00  0.00     0.021 A 
ATOM     13  C   UNL     1      -7.848  -9.537  16.448  1.00  0.00     0.016 A 
ATOM     14  C   UNL     1      -9.069  -9.600  17.123  1.00  0.00     0.051 A 
ATOM     15  C   UNL     1     -10.243  -9.152  16.504  1.00  0.00     0.157 A 
ATOM     16  C   UNL     1      -8.963  -8.578  14.523  1.00  0.00     0.062 A 
ATOM     17  C   UNL     1     -10.189  -8.643  15.197  1.00  0.00     0.158 A 
BRANCH  15  18
ATOM     18  O   UNL     1     -11.460  -9.215  17.182  1.00  0.00    -0.504 OA
ATOM     19  H   UNL     1     -12.096  -8.427  17.205  1.00  0.00     0.293 HD
ENDBRANCH  15  18
BRANCH  17  20
ATOM     20  O   UNL     1     -11.341  -8.199  14.549  1.00  0.00    -0.504 OA
ATOM     21  H   UNL     1     -11.421  -8.192  13.540  1.00  0.00     0.293 HD
ENDBRANCH  17  20
ENDBRANCH   1  12
BRANCH   6  22
ATOM     22  O   UNL     1      -2.127  -7.968  11.968  1.00  0.00    -0.507 OA
ATOM     23  H   UNL     1      -1.139  -7.957  11.743  1.00  0.00     0.293 HD
ENDBRANCH   6  22
BRANCH   8  24
ATOM     24  O   UNL     1      -2.057 -12.719  12.900  1.00  0.00    -0.508 OA
ATOM     25  H   UNL     1      -2.518 -13.526  12.498  1.00  0.00     0.293 HD
ENDBRANCH   8  24
TORSDOF 5
ENDMDL
MODEL 9
REMARK VINA RESULT:    -6.825      6.615      8.943
REMARK INTER + INTRA:          -8.293
REMARK INTER:                  -7.975
REMARK INTRA:                  -0.318
REMARK UNBOUND:                -0.272
REMARK SMILES O=c1cc(-c2ccc(O)c(O)c2)oc2cc(O)cc(O)c12
REMARK SMILES IDX 4 1 3 2 2 3 1 4 21 5 19 6 18 7 16 8 15 9 14 10 13 11 5 12
REMARK SMILES IDX 6 13 7 14 8 15 12 16 10 17 9 18 11 20 20 22 17 24
REMARK H PARENT 9 19 11 21 20 23 17 25
REMARK Flexibility Score: inf
ROOT
ATOM      1  C   UNL     1      -7.775  -9.024  14.616  1.00  0.00     0.138 A 
ATOM      2  C   UNL     1      -6.966  -8.298  13.727  1.00  0.00     0.100 A 
ATOM      3  C   UNL     1      -5.759  -8.848  13.292  1.00  0.00     0.197 A 
ATOM      4  O   UNL     1      -5.039  -8.188  12.495  1.00  0.00    -0.289 OA
ATOM      5  C   UNL     1      -5.367 -10.119  13.754  1.00  0.00     0.107 A 
ATOM      6  C   UNL     1      -4.161 -10.749  13.364  1.00  0.00     0.134 A 
ATOM      7  C   UNL     1      -3.842 -12.015  13.874  1.00  0.00     0.093 A 
ATOM      8  C   UNL     1      -4.704 -12.663  14.767  1.00  0.00     0.123 A 
ATOM      9  C   UNL     1      -5.893 -12.046  15.156  1.00  0.00     0.094 A 
ATOM     10  C   UNL     1      -6.231 -10.784  14.657  1.00  0.00     0.146 A 
ATOM     11  O   UNL     1      -7.371 -10.219  15.042  1.00  0.00    -0.456 OA
ENDROOT
BRANCH   1  12
ATOM     12  C   UNL     1      -9.068  -8.490  15.113  1.00  0.00     0.021 A 
ATOM     13  C   UNL     1      -9.539  -7.256  14.631  1.00  0.00     0.016 A 
ATOM     14  C   UNL     1     -10.749  -6.729  15.087  1.00  0.00     0.051 A 
ATOM     15  C   UNL     1     -11.506  -7.420  16.041  1.00  0.00     0.157 A 
ATOM     16  C   UNL     1      -9.829  -9.174  16.082  1.00  0.00     0.062 A 
ATOM     17  C   UNL     1     -11.041  -8.645  16.542  1.00  0.00     0.158 A 
BRANCH  15  18
ATOM     18  O   UNL     1     -12.715  -6.892  16.493  1.00  0.00    -0.504 OA
ATOM     19  H   UNL     1     -13.600  -7.341  16.289  1.00  0.00     0.293 HD
ENDBRANCH  15  18
BRANCH  17  20
ATOM     20  O   UNL     1     -11.766  -9.353  17.501  1.00  0.00    -0.504 OA
ATOM     21  H   UNL     1     -11.634  -9.202  18.494  1.00  0.00     0.293 HD
ENDBRANCH  17  20
ENDBRANCH   1  12
BRANCH   6  22
ATOM     22  O   UNL     1      -3.283 -10.127  12.475  1.00  0.00    -0.507 OA
ATOM     23  H   UNL     1      -2.463 -10.602  12.116  1.00  0.00     0.293 HD
ENDBRANCH   6  22
BRANCH   8  24
ATOM     24  O   UNL     1      -4.385 -13.921  15.275  1.00  0.00    -0.508 OA
ATOM     25  H   UNL     1      -3.424 -14.225  15.371  1.00  0.00     0.293 HD
ENDBRANCH   8  24
TORSDOF 5
ENDMDL
