MODEL 1
REMARK VINA RESULT:    -4.165      0.000      0.000
REMARK INTER + INTRA:         -10.923
REMARK INTER:                  -8.060
REMARK INTRA:                  -2.863
REMARK UNBOUND:                -2.863
REMARK SMILES CCCCCCCCCCCCCCCCCC(=O)[O-]
REMARK SMILES IDX 10 1 11 2 12 3 13 4 14 5 15 6 16 7 17 8 18 9 19 10 20 11
REMARK SMILES IDX 9 12 8 13 7 14 6 15 5 16 4 17 3 18 2 19 1 20
REMARK H PARENT
REMARK Flexibility Score: inf
ROOT
ATOM      1  C   UNL     1      -1.464  43.820  20.164  1.00  0.00     0.000 C 
ENDROOT
BRANCH   1   2
ATOM      2  C   UNL     1      -2.310  44.499  19.071  1.00  0.00     0.000 C 
BRANCH   2   3
ATOM      3  C   UNL     1      -3.607  43.735  18.757  1.00  0.00     0.000 C 
BRANCH   3   4
ATOM      4  C   UNL     1      -4.827  44.283  19.521  1.00  0.00     0.000 C 
BRANCH   4   5
ATOM      5  C   UNL     1      -5.496  43.292  20.495  1.00  0.00     0.000 C 
BRANCH   5   6
ATOM      6  C   UNL     1      -4.863  41.890  20.540  1.00  0.00     0.000 C 
BRANCH   6   7
ATOM      7  C   UNL     1      -4.261  41.552  21.912  1.00  0.00     0.006 C 
BRANCH   7   8
ATOM      8  C   UNL     1      -5.362  41.261  22.935  1.00  0.00     0.053 C 
BRANCH   8   9
ATOM      9  C   UNL     1      -6.208  40.111  22.487  1.00  0.00     0.041 C 
ATOM     10  O   UNL     1      -7.452  40.255  22.348  1.00  0.00    -0.550 OA
ATOM     11  O   UNL     1      -5.630  38.868  22.273  1.00  0.00    -0.550 OA
ENDBRANCH   8   9
ENDBRANCH   7   8
ENDBRANCH   6   7
ENDBRANCH   5   6
ENDBRANCH   4   5
ENDBRANCH   3   4
ENDBRANCH   2   3
ENDBRANCH   1   2
BRANCH   1  12
ATOM     12  C   UNL     1      -1.750  44.288  21.604  1.00  0.00     0.000 C 
BRANCH  12  13
ATOM     13  C   UNL     1      -0.654  43.868  22.598  1.00  0.00    -0.000 C 
BRANCH  13  14
ATOM     14  C   UNL     1      -0.954  44.321  24.037  1.00  0.00    -0.000 C 
BRANCH  14  15
ATOM     15  C   UNL     1      -1.426  43.166  24.935  1.00  0.00    -0.000 C 
BRANCH  15  16
ATOM     16  C   UNL     1      -2.953  43.160  25.065  1.00  0.00    -0.000 C 
BRANCH  16  17
ATOM     17  C   UNL     1      -3.514  44.591  25.066  1.00  0.00    -0.000 C 
BRANCH  17  18
ATOM     18  C   UNL     1      -4.802  44.715  24.225  1.00  0.00    -0.000 C 
BRANCH  18  19
ATOM     19  C   UNL     1      -4.703  45.766  23.104  1.00  0.00    -0.003 C 
ATOM     20  C   UNL     1      -3.925  47.012  23.519  1.00  0.00     0.004 C 
ENDBRANCH  18  19
ENDBRANCH  17  18
ENDBRANCH  16  17
ENDBRANCH  15  16
ENDBRANCH  14  15
ENDBRANCH  13  14
ENDBRANCH  12  13
ENDBRANCH   1  12
TORSDOF 16
ENDMDL
MODEL 2
REMARK VINA RESULT:    -3.998      4.447      6.747
REMARK INTER + INTRA:         -10.601
REMARK INTER:                  -8.448
REMARK INTRA:                  -2.153
REMARK UNBOUND:                -2.863
REMARK SMILES CCCCCCCCCCCCCCCCCC(=O)[O-]
REMARK SMILES IDX 10 1 11 2 12 3 13 4 14 5 15 6 16 7 17 8 18 9 19 10 20 11
REMARK SMILES IDX 9 12 8 13 7 14 6 15 5 16 4 17 3 18 2 19 1 20
REMARK H PARENT
REMARK Flexibility Score: inf
ROOT
ATOM      1  C   UNL     1      -2.146  44.244  19.742  1.00  0.00     0.000 C 
ENDROOT
BRANCH   1   2
ATOM      2  C   UNL     1      -1.605  44.356  21.179  1.00  0.00     0.000 C 
BRANCH   2   3
ATOM      3  C   UNL     1      -0.612  43.236  21.535  1.00  0.00     0.000 C 
BRANCH   3   4
ATOM      4  C   UNL     1      -0.648  42.853  23.026  1.00  0.00     0.000 C 
BRANCH   4   5
ATOM      5  C   UNL     1       0.451  43.491  23.899  1.00  0.00     0.000 C 
BRANCH   5   6
ATOM      6  C   UNL     1       1.764  43.813  23.165  1.00  0.00     0.000 C 
BRANCH   6   7
ATOM      7  C   UNL     1       2.964  43.937  24.116  1.00  0.00     0.006 C 
BRANCH   7   8
ATOM      8  C   UNL     1       4.193  44.477  23.379  1.00  0.00     0.053 C 
BRANCH   8   9
ATOM      9  C   UNL     1       5.260  43.432  23.298  1.00  0.00     0.041 C 
ATOM     10  O   UNL     1       5.394  42.589  24.226  1.00  0.00    -0.550 OA
ATOM     11  O   UNL     1       6.140  43.421  22.225  1.00  0.00    -0.550 OA
ENDBRANCH   8   9
ENDBRANCH   7   8
ENDBRANCH   6   7
ENDBRANCH   5   6
ENDBRANCH   4   5
ENDBRANCH   3   4
ENDBRANCH   2   3
ENDBRANCH   1   2
BRANCH   1  12
ATOM     12  C   UNL     1      -3.455  45.010  19.470  1.00  0.00     0.000 C 
BRANCH  12  13
ATOM     13  C   UNL     1      -4.661  44.078  19.257  1.00  0.00    -0.000 C 
BRANCH  13  14
ATOM     14  C   UNL     1      -5.428  43.797  20.560  1.00  0.00    -0.000 C 
BRANCH  14  15
ATOM     15  C   UNL     1      -5.022  42.465  21.210  1.00  0.00    -0.000 C 
BRANCH  15  16
ATOM     16  C   UNL     1      -4.351  42.699  22.568  1.00  0.00    -0.000 C 
BRANCH  16  17
ATOM     17  C   UNL     1      -4.733  44.072  23.144  1.00  0.00    -0.000 C 
BRANCH  17  18
ATOM     18  C   UNL     1      -3.721  44.566  24.198  1.00  0.00    -0.000 C 
BRANCH  18  19
ATOM     19  C   UNL     1      -3.153  45.964  23.896  1.00  0.00    -0.003 C 
ATOM     20  C   UNL     1      -4.106  46.833  23.078  1.00  0.00     0.004 C 
ENDBRANCH  18  19
ENDBRANCH  17  18
ENDBRANCH  16  17
ENDBRANCH  15  16
ENDBRANCH  14  15
ENDBRANCH  13  14
ENDBRANCH  12  13
ENDBRANCH   1  12
TORSDOF 16
ENDMDL
MODEL 3
REMARK VINA RESULT:    -3.955      3.975      5.905
REMARK INTER + INTRA:         -10.517
REMARK INTER:                  -8.221
REMARK INTRA:                  -2.297
REMARK UNBOUND:                -2.863
REMARK SMILES CCCCCCCCCCCCCCCCCC(=O)[O-]
REMARK SMILES IDX 10 1 11 2 12 3 13 4 14 5 15 6 16 7 17 8 18 9 19 10 20 11
REMARK SMILES IDX 9 12 8 13 7 14 6 15 5 16 4 17 3 18 2 19 1 20
REMARK H PARENT
REMARK Flexibility Score: inf
ROOT
ATOM      1  C   UNL     1      -4.424  44.177  19.184  1.00  0.00     0.000 C 
ENDROOT
BRANCH   1   2
ATOM      2  C   UNL     1      -3.411  45.035  19.964  1.00  0.00     0.000 C 
BRANCH   2   3
ATOM      3  C   UNL     1      -2.137  44.261  20.343  1.00  0.00     0.000 C 
BRANCH   3   4
ATOM      4  C   UNL     1      -1.738  44.450  21.819  1.00  0.00     0.000 C 
BRANCH   4   5
ATOM      5  C   UNL     1      -0.872  43.324  22.419  1.00  0.00     0.000 C 
BRANCH   5   6
ATOM      6  C   UNL     1       0.622  43.383  22.054  1.00  0.00     0.000 C 
BRANCH   6   7
ATOM      7  C   UNL     1       1.531  43.511  23.284  1.00  0.00     0.006 C 
BRANCH   7   8
ATOM      8  C   UNL     1       2.939  42.989  22.982  1.00  0.00     0.053 C 
BRANCH   8   9
ATOM      9  C   UNL     1       3.916  43.489  23.999  1.00  0.00     0.041 C 
ATOM     10  O   UNL     1       3.891  44.695  24.362  1.00  0.00    -0.550 OA
ATOM     11  O   UNL     1       4.885  42.636  24.507  1.00  0.00    -0.550 OA
ENDBRANCH   8   9
ENDBRANCH   7   8
ENDBRANCH   6   7
ENDBRANCH   5   6
ENDBRANCH   4   5
ENDBRANCH   3   4
ENDBRANCH   2   3
ENDBRANCH   1   2
BRANCH   1  12
ATOM     12  C   UNL     1      -4.319  42.657  19.420  1.00  0.00     0.000 C 
BRANCH  12  13
ATOM     13  C   UNL     1      -5.205  42.168  20.578  1.00  0.00    -0.000 C 
BRANCH  13  14
ATOM     14  C   UNL     1      -4.532  41.067  21.414  1.00  0.00    -0.000 C 
BRANCH  14  15
ATOM     15  C   UNL     1      -4.158  41.541  22.827  1.00  0.00    -0.000 C 
BRANCH  15  16
ATOM     16  C   UNL     1      -4.759  42.920  23.121  1.00  0.00    -0.000 C 
BRANCH  16  17
ATOM     17  C   UNL     1      -4.146  43.531  24.391  1.00  0.00    -0.000 C 
BRANCH  17  18
ATOM     18  C   UNL     1      -4.572  45.000  24.598  1.00  0.00    -0.000 C 
BRANCH  18  19
ATOM     19  C   UNL     1      -4.872  45.742  23.283  1.00  0.00    -0.003 C 
ATOM     20  C   UNL     1      -4.130  47.072  23.164  1.00  0.00     0.004 C 
ENDBRANCH  18  19
ENDBRANCH  17  18
ENDBRANCH  16  17
ENDBRANCH  15  16
ENDBRANCH  14  15
ENDBRANCH  13  14
ENDBRANCH  12  13
ENDBRANCH   1  12
TORSDOF 16
ENDMDL
MODEL 4
REMARK VINA RESULT:    -3.935      2.544      4.018
REMARK INTER + INTRA:         -10.478
REMARK INTER:                  -8.036
REMARK INTRA:                  -2.442
REMARK UNBOUND:                -2.863
REMARK SMILES CCCCCCCCCCCCCCCCCC(=O)[O-]
REMARK SMILES IDX 10 1 11 2 12 3 13 4 14 5 15 6 16 7 17 8 18 9 19 10 20 11
REMARK SMILES IDX 9 12 8 13 7 14 6 15 5 16 4 17 3 18 2 19 1 20
REMARK H PARENT
REMARK Flexibility Score: inf
ROOT
ATOM      1  C   UNL     1      -1.660  41.760  18.293  1.00  0.00     0.000 C 
ENDROOT
BRANCH   1   2
ATOM      2  C   UNL     1      -2.202  42.793  17.288  1.00  0.00     0.000 C 
BRANCH   2   3
ATOM      3  C   UNL     1      -3.739  42.865  17.272  1.00  0.00     0.000 C 
BRANCH   3   4
ATOM      4  C   UNL     1      -4.275  44.287  17.520  1.00  0.00     0.000 C 
BRANCH   4   5
ATOM      5  C   UNL     1      -4.197  44.779  18.980  1.00  0.00     0.000 C 
BRANCH   5   6
ATOM      6  C   UNL     1      -5.053  43.986  19.983  1.00  0.00     0.000 C 
BRANCH   6   7
ATOM      7  C   UNL     1      -4.457  43.977  21.398  1.00  0.00     0.006 C 
BRANCH   7   8
ATOM      8  C   UNL     1      -3.827  45.331  21.736  1.00  0.00     0.053 C 
BRANCH   8   9
ATOM      9  C   UNL     1      -4.413  45.884  22.997  1.00  0.00     0.041 C 
ATOM     10  O   UNL     1      -4.856  45.107  23.884  1.00  0.00    -0.550 OA
ATOM     11  O   UNL     1      -4.516  47.258  23.169  1.00  0.00    -0.550 OA
ENDBRANCH   8   9
ENDBRANCH   7   8
ENDBRANCH   6   7
ENDBRANCH   5   6
ENDBRANCH   4   5
ENDBRANCH   3   4
ENDBRANCH   2   3
ENDBRANCH   1   2
BRANCH   1  12
ATOM     12  C   UNL     1      -1.696  42.197  19.771  1.00  0.00     0.000 C 
BRANCH  12  13
ATOM     13  C   UNL     1      -0.865  43.464  20.040  1.00  0.00    -0.000 C 
BRANCH  13  14
ATOM     14  C   UNL     1      -0.717  43.766  21.541  1.00  0.00    -0.000 C 
BRANCH  14  15
ATOM     15  C   UNL     1       0.562  43.162  22.142  1.00  0.00    -0.000 C 
BRANCH  15  16
ATOM     16  C   UNL     1       0.755  43.618  23.593  1.00  0.00    -0.000 C 
BRANCH  16  17
ATOM     17  C   UNL     1      -0.585  44.018  24.230  1.00  0.00    -0.000 C 
BRANCH  17  18
ATOM     18  C   UNL     1      -1.122  42.937  25.191  1.00  0.00    -0.000 C 
BRANCH  18  19
ATOM     19  C   UNL     1      -2.636  42.695  25.058  1.00  0.00    -0.003 C 
ATOM     20  C   UNL     1      -2.992  41.753  23.910  1.00  0.00     0.004 C 
ENDBRANCH  18  19
ENDBRANCH  17  18
ENDBRANCH  16  17
ENDBRANCH  15  16
ENDBRANCH  14  15
ENDBRANCH  13  14
ENDBRANCH  12  13
ENDBRANCH   1  12
TORSDOF 16
ENDMDL
MODEL 5
REMARK VINA RESULT:    -3.930      2.428      3.952
REMARK INTER + INTRA:         -10.469
REMARK INTER:                  -7.868
REMARK INTRA:                  -2.602
REMARK UNBOUND:                -2.863
REMARK SMILES CCCCCCCCCCCCCCCCCC(=O)[O-]
REMARK SMILES IDX 10 1 11 2 12 3 13 4 14 5 15 6 16 7 17 8 18 9 19 10 20 11
REMARK SMILES IDX 9 12 8 13 7 14 6 15 5 16 4 17 3 18 2 19 1 20
REMARK H PARENT
REMARK Flexibility Score: inf
ROOT
ATOM      1  C   UNL     1       0.552  43.519  23.622  1.00  0.00     0.000 C 
ENDROOT
BRANCH   1   2
ATOM      2  C   UNL     1       0.721  43.372  22.099  1.00  0.00     0.000 C 
BRANCH   2   3
ATOM      3  C   UNL     1       0.041  42.111  21.540  1.00  0.00     0.000 C 
BRANCH   3   4
ATOM      4  C   UNL     1      -1.256  42.420  20.768  1.00  0.00     0.000 C 
BRANCH   4   5
ATOM      5  C   UNL     1      -1.327  43.822  20.130  1.00  0.00     0.000 C 
BRANCH   5   6
ATOM      6  C   UNL     1      -2.595  44.628  20.461  1.00  0.00     0.000 C 
BRANCH   6   7
ATOM      7  C   UNL     1      -3.887  43.871  20.123  1.00  0.00     0.006 C 
BRANCH   7   8
ATOM      8  C   UNL     1      -4.488  44.373  18.807  1.00  0.00     0.053 C 
BRANCH   8   9
ATOM      9  C   UNL     1      -4.122  43.460  17.679  1.00  0.00     0.041 C 
ATOM     10  O   UNL     1      -3.746  43.936  16.574  1.00  0.00    -0.550 OA
ATOM     11  O   UNL     1      -4.245  42.086  17.832  1.00  0.00    -0.550 OA
ENDBRANCH   8   9
ENDBRANCH   7   8
ENDBRANCH   6   7
ENDBRANCH   5   6
ENDBRANCH   4   5
ENDBRANCH   3   4
ENDBRANCH   2   3
ENDBRANCH   1   2
BRANCH   1  12
ATOM     12  C   UNL     1      -0.813  44.067  24.083  1.00  0.00     0.000 C 
BRANCH  12  13
ATOM     13  C   UNL     1      -1.445  43.230  25.209  1.00  0.00    -0.000 C 
BRANCH  13  14
ATOM     14  C   UNL     1      -2.451  42.193  24.682  1.00  0.00    -0.000 C 
BRANCH  14  15
ATOM     15  C   UNL     1      -3.447  42.793  23.677  1.00  0.00    -0.000 C 
BRANCH  15  16
ATOM     16  C   UNL     1      -4.745  43.214  24.375  1.00  0.00    -0.000 C 
BRANCH  16  17
ATOM     17  C   UNL     1      -4.810  44.740  24.548  1.00  0.00    -0.000 C 
BRANCH  17  18
ATOM     18  C   UNL     1      -5.022  45.472  23.206  1.00  0.00    -0.000 C 
BRANCH  18  19
ATOM     19  C   UNL     1      -4.009  46.605  22.959  1.00  0.00    -0.003 C 
ATOM     20  C   UNL     1      -3.578  47.312  24.242  1.00  0.00     0.004 C 
ENDBRANCH  18  19
ENDBRANCH  17  18
ENDBRANCH  16  17
ENDBRANCH  15  16
ENDBRANCH  14  15
ENDBRANCH  13  14
ENDBRANCH  12  13
ENDBRANCH   1  12
TORSDOF 16
ENDMDL
MODEL 6
REMARK VINA RESULT:    -3.916      3.003      4.867
REMARK INTER + INTRA:         -10.442
REMARK INTER:                  -8.617
REMARK INTRA:                  -1.825
REMARK UNBOUND:                -2.863
REMARK SMILES CCCCCCCCCCCCCCCCCC(=O)[O-]
REMARK SMILES IDX 10 1 11 2 12 3 13 4 14 5 15 6 16 7 17 8 18 9 19 10 20 11
REMARK SMILES IDX 9 12 8 13 7 14 6 15 5 16 4 17 3 18 2 19 1 20
REMARK H PARENT
REMARK Flexibility Score: inf
ROOT
ATOM      1  C   UNL     1      -3.576  45.145  19.594  1.00  0.00     0.000 C 
ENDROOT
BRANCH   1   2
ATOM      2  C   UNL     1      -4.730  44.201  19.209  1.00  0.00     0.000 C 
BRANCH   2   3
ATOM      3  C   UNL     1      -5.420  43.569  20.429  1.00  0.00     0.000 C 
BRANCH   3   4
ATOM      4  C   UNL     1      -5.254  42.039  20.486  1.00  0.00     0.000 C 
BRANCH   4   5
ATOM      5  C   UNL     1      -4.449  41.505  21.689  1.00  0.00     0.000 C 
BRANCH   5   6
ATOM      6  C   UNL     1      -5.221  41.446  23.018  1.00  0.00     0.000 C 
BRANCH   6   7
ATOM      7  C   UNL     1      -4.463  42.110  24.177  1.00  0.00     0.006 C 
BRANCH   7   8
ATOM      8  C   UNL     1      -4.718  43.620  24.204  1.00  0.00     0.053 C 
BRANCH   8   9
ATOM      9  C   UNL     1      -3.841  44.283  25.218  1.00  0.00     0.041 C 
ATOM     10  O   UNL     1      -4.072  45.468  25.578  1.00  0.00    -0.550 OA
ATOM     11  O   UNL     1      -2.738  43.611  25.727  1.00  0.00    -0.550 OA
ENDBRANCH   8   9
ENDBRANCH   7   8
ENDBRANCH   6   7
ENDBRANCH   5   6
ENDBRANCH   4   5
ENDBRANCH   3   4
ENDBRANCH   2   3
ENDBRANCH   1   2
BRANCH   1  12
ATOM     12  C   UNL     1      -3.092  45.031  21.053  1.00  0.00     0.000 C 
BRANCH  12  13
ATOM     13  C   UNL     1      -1.719  44.348  21.176  1.00  0.00    -0.000 C 
BRANCH  13  14
ATOM     14  C   UNL     1      -1.614  43.450  22.421  1.00  0.00    -0.000 C 
BRANCH  14  15
ATOM     15  C   UNL     1      -0.164  43.252  22.887  1.00  0.00    -0.000 C 
BRANCH  15  16
ATOM     16  C   UNL     1       0.808  43.319  21.703  1.00  0.00    -0.000 C 
BRANCH  16  17
ATOM     17  C   UNL     1       2.245  43.581  22.182  1.00  0.00    -0.000 C 
BRANCH  17  18
ATOM     18  C   UNL     1       2.337  43.703  23.717  1.00  0.00    -0.000 C 
BRANCH  18  19
ATOM     19  C   UNL     1       3.704  44.209  24.211  1.00  0.00    -0.003 C 
ATOM     20  C   UNL     1       4.753  43.103  24.307  1.00  0.00     0.004 C 
ENDBRANCH  18  19
ENDBRANCH  17  18
ENDBRANCH  16  17
ENDBRANCH  15  16
ENDBRANCH  14  15
ENDBRANCH  13  14
ENDBRANCH  12  13
ENDBRANCH   1  12
TORSDOF 16
ENDMDL
MODEL 7
REMARK VINA RESULT:    -3.890      2.366      5.385
REMARK INTER + INTRA:         -10.390
REMARK INTER:                  -7.412
REMARK INTRA:                  -2.978
REMARK UNBOUND:                -2.863
REMARK SMILES CCCCCCCCCCCCCCCCCC(=O)[O-]
REMARK SMILES IDX 10 1 11 2 12 3 13 4 14 5 15 6 16 7 17 8 18 9 19 10 20 11
REMARK SMILES IDX 9 12 8 13 7 14 6 15 5 16 4 17 3 18 2 19 1 20
REMARK H PARENT
REMARK Flexibility Score: inf
ROOT
ATOM      1  C   UNL     1      -3.453  41.067  22.219  1.00  0.00     0.000 C 
ENDROOT
BRANCH   1   2
ATOM      2  C   UNL     1      -2.953  40.720  20.804  1.00  0.00     0.000 C 
BRANCH   2   3
ATOM      3  C   UNL     1      -1.597  41.365  20.473  1.00  0.00     0.000 C 
BRANCH   3   4
ATOM      4  C   UNL     1      -0.812  41.789  21.728  1.00  0.00     0.000 C 
BRANCH   4   5
ATOM      5  C   UNL     1      -0.360  43.263  21.759  1.00  0.00     0.000 C 
BRANCH   5   6
ATOM      6  C   UNL     1       0.483  43.664  22.982  1.00  0.00     0.000 C 
BRANCH   6   7
ATOM      7  C   UNL     1      -0.335  43.708  24.281  1.00  0.00     0.006 C 
BRANCH   7   8
ATOM      8  C   UNL     1      -1.676  44.414  24.060  1.00  0.00     0.053 C 
BRANCH   8   9
ATOM      9  C   UNL     1      -2.743  43.794  24.907  1.00  0.00     0.041 C 
ATOM     10  O   UNL     1      -2.635  42.598  25.289  1.00  0.00    -0.550 OA
ATOM     11  O   UNL     1      -3.880  44.521  25.231  1.00  0.00    -0.550 OA
ENDBRANCH   8   9
ENDBRANCH   7   8
ENDBRANCH   6   7
ENDBRANCH   5   6
ENDBRANCH   4   5
ENDBRANCH   3   4
ENDBRANCH   2   3
ENDBRANCH   1   2
BRANCH   1  12
ATOM     12  C   UNL     1      -4.723  41.937  22.273  1.00  0.00     0.000 C 
BRANCH  12  13
ATOM     13  C   UNL     1      -5.268  42.288  20.878  1.00  0.00    -0.000 C 
BRANCH  13  14
ATOM     14  C   UNL     1      -5.432  43.803  20.670  1.00  0.00    -0.000 C 
BRANCH  14  15
ATOM     15  C   UNL     1      -4.539  44.629  21.609  1.00  0.00    -0.000 C 
BRANCH  15  16
ATOM     16  C   UNL     1      -3.207  44.978  20.934  1.00  0.00    -0.000 C 
BRANCH  16  17
ATOM     17  C   UNL     1      -3.389  45.170  19.420  1.00  0.00    -0.000 C 
BRANCH  17  18
ATOM     18  C   UNL     1      -2.381  44.338  18.600  1.00  0.00    -0.000 C 
BRANCH  18  19
ATOM     19  C   UNL     1      -3.046  43.288  17.693  1.00  0.00    -0.003 C 
ATOM     20  C   UNL     1      -4.262  43.830  16.942  1.00  0.00     0.004 C 
ENDBRANCH  18  19
ENDBRANCH  17  18
ENDBRANCH  16  17
ENDBRANCH  15  16
ENDBRANCH  14  15
ENDBRANCH  13  14
ENDBRANCH  12  13
ENDBRANCH   1  12
TORSDOF 16
ENDMDL
MODEL 8
REMARK VINA RESULT:    -3.852      1.379      2.281
REMARK INTER + INTRA:         -10.319
REMARK INTER:                  -7.599
REMARK INTRA:                  -2.719
REMARK UNBOUND:                -2.863
REMARK SMILES CCCCCCCCCCCCCCCCCC(=O)[O-]
REMARK SMILES IDX 10 1 11 2 12 3 13 4 14 5 15 6 16 7 17 8 18 9 19 10 20 11
REMARK SMILES IDX 9 12 8 13 7 14 6 15 5 16 4 17 3 18 2 19 1 20
REMARK H PARENT
REMARK Flexibility Score: inf
ROOT
ATOM      1  C   UNL     1      -1.874  41.844  18.943  1.00  0.00     0.000 C 
ENDROOT
BRANCH   1   2
ATOM      2  C   UNL     1      -2.954  41.905  17.847  1.00  0.00     0.000 C 
BRANCH   2   3
ATOM      3  C   UNL     1      -3.104  43.306  17.232  1.00  0.00     0.000 C 
BRANCH   3   4
ATOM      4  C   UNL     1      -4.269  44.108  17.843  1.00  0.00     0.000 C 
BRANCH   4   5
ATOM      5  C   UNL     1      -3.875  45.101  18.956  1.00  0.00     0.000 C 
BRANCH   5   6
ATOM      6  C   UNL     1      -4.339  44.714  20.371  1.00  0.00     0.000 C 
BRANCH   6   7
ATOM      7  C   UNL     1      -5.311  43.526  20.376  1.00  0.00     0.006 C 
BRANCH   7   8
ATOM      8  C   UNL     1      -4.780  42.387  21.251  1.00  0.00     0.053 C 
BRANCH   8   9
ATOM      9  C   UNL     1      -5.557  41.132  21.012  1.00  0.00     0.041 C 
ATOM     10  O   UNL     1      -5.461  40.527  19.910  1.00  0.00    -0.550 OA
ATOM     11  O   UNL     1      -6.427  40.658  21.984  1.00  0.00    -0.550 OA
ENDBRANCH   8   9
ENDBRANCH   7   8
ENDBRANCH   6   7
ENDBRANCH   5   6
ENDBRANCH   4   5
ENDBRANCH   3   4
ENDBRANCH   2   3
ENDBRANCH   1   2
BRANCH   1  12
ATOM     12  C   UNL     1      -0.833  42.980  18.906  1.00  0.00     0.000 C 
BRANCH  12  13
ATOM     13  C   UNL     1      -0.162  43.221  20.269  1.00  0.00    -0.000 C 
BRANCH  13  14
ATOM     14  C   UNL     1      -1.061  44.003  21.241  1.00  0.00    -0.000 C 
BRANCH  14  15
ATOM     15  C   UNL     1      -0.955  43.493  22.686  1.00  0.00    -0.000 C 
BRANCH  15  16
ATOM     16  C   UNL     1      -1.614  44.473  23.664  1.00  0.00    -0.000 C 
BRANCH  16  17
ATOM     17  C   UNL     1      -2.995  43.965  24.108  1.00  0.00    -0.000 C 
BRANCH  17  18
ATOM     18  C   UNL     1      -3.866  45.089  24.708  1.00  0.00    -0.000 C 
BRANCH  18  19
ATOM     19  C   UNL     1      -4.729  45.820  23.664  1.00  0.00    -0.003 C 
ATOM     20  C   UNL     1      -4.128  47.153  23.219  1.00  0.00     0.004 C 
ENDBRANCH  18  19
ENDBRANCH  17  18
ENDBRANCH  16  17
ENDBRANCH  15  16
ENDBRANCH  14  15
ENDBRANCH  13  14
ENDBRANCH  12  13
ENDBRANCH   1  12
TORSDOF 16
ENDMDL
MODEL 9
REMARK VINA RESULT:    -3.840      2.366      3.951
REMARK INTER + INTRA:         -10.295
REMARK INTER:                  -7.918
REMARK INTRA:                  -2.377
REMARK UNBOUND:                -2.863
REMARK SMILES CCCCCCCCCCCCCCCCCC(=O)[O-]
REMARK SMILES IDX 10 1 11 2 12 3 13 4 14 5 15 6 16 7 17 8 18 9 19 10 20 11
REMARK SMILES IDX 9 12 8 13 7 14 6 15 5 16 4 17 3 18 2 19 1 20
REMARK H PARENT
REMARK Flexibility Score: inf
ROOT
ATOM      1  C   UNL     1      -1.115  43.836  19.048  1.00  0.00     0.000 C 
ENDROOT
BRANCH   1   2
ATOM      2  C   UNL     1      -2.517  43.881  18.415  1.00  0.00     0.000 C 
BRANCH   2   3
ATOM      3  C   UNL     1      -3.457  44.880  19.110  1.00  0.00     0.000 C 
BRANCH   3   4
ATOM      4  C   UNL     1      -4.676  44.202  19.764  1.00  0.00     0.000 C 
BRANCH   4   5
ATOM      5  C   UNL     1      -4.690  44.213  21.306  1.00  0.00     0.000 C 
BRANCH   5   6
ATOM      6  C   UNL     1      -3.785  45.271  21.961  1.00  0.00     0.000 C 
BRANCH   6   7
ATOM      7  C   UNL     1      -4.539  46.173  22.948  1.00  0.00     0.006 C 
BRANCH   7   8
ATOM      8  C   UNL     1      -3.835  46.207  24.307  1.00  0.00     0.053 C 
BRANCH   8   9
ATOM      9  C   UNL     1      -4.490  45.260  25.263  1.00  0.00     0.041 C 
ATOM     10  O   UNL     1      -4.287  45.369  26.502  1.00  0.00    -0.550 OA
ATOM     11  O   UNL     1      -5.282  44.227  24.782  1.00  0.00    -0.550 OA
ENDBRANCH   8   9
ENDBRANCH   7   8
ENDBRANCH   6   7
ENDBRANCH   5   6
ENDBRANCH   4   5
ENDBRANCH   3   4
ENDBRANCH   2   3
ENDBRANCH   1   2
BRANCH   1  12
ATOM     12  C   UNL     1      -1.005  43.009  20.344  1.00  0.00     0.000 C 
BRANCH  12  13
ATOM     13  C   UNL     1      -0.726  43.875  21.585  1.00  0.00    -0.000 C 
BRANCH  13  14
ATOM     14  C   UNL     1       0.617  43.535  22.254  1.00  0.00    -0.000 C 
BRANCH  14  15
ATOM     15  C   UNL     1       0.464  43.174  23.739  1.00  0.00    -0.000 C 
BRANCH  15  16
ATOM     16  C   UNL     1      -0.707  43.937  24.372  1.00  0.00    -0.000 C 
BRANCH  16  17
ATOM     17  C   UNL     1      -1.682  42.974  25.067  1.00  0.00    -0.000 C 
BRANCH  17  18
ATOM     18  C   UNL     1      -1.270  41.497  24.894  1.00  0.00    -0.000 C 
BRANCH  18  19
ATOM     19  C   UNL     1      -2.148  40.730  23.889  1.00  0.00    -0.003 C 
ATOM     20  C   UNL     1      -3.425  41.480  23.515  1.00  0.00     0.004 C 
ENDBRANCH  18  19
ENDBRANCH  17  18
ENDBRANCH  16  17
ENDBRANCH  15  16
ENDBRANCH  14  15
ENDBRANCH  13  14
ENDBRANCH  12  13
ENDBRANCH   1  12
TORSDOF 16
ENDMDL
