MODEL 1
REMARK VINA RESULT:    -5.908      0.000      0.000
REMARK INTER + INTRA:          -7.254
REMARK INTER:                  -6.944
REMARK INTRA:                  -0.310
REMARK UNBOUND:                -0.310
REMARK SMILES O=c1cc(-c2ccc(O)c(O)c2)oc2cc(O)cc(O)c12
REMARK SMILES IDX 4 1 3 2 2 3 1 4 21 5 19 6 18 7 16 8 15 9 14 10 13 11 5 12
REMARK SMILES IDX 6 13 7 14 8 15 12 16 10 17 9 18 11 20 20 22 17 24
REMARK H PARENT 9 19 11 21 20 23 17 25
REMARK Flexibility Score: inf
ROOT
ATOM      1  C   UNL     1     -18.332  23.511  44.031  1.00  0.00     0.138 A 
ATOM      2  C   UNL     1     -17.988  22.219  44.452  1.00  0.00     0.100 A 
ATOM      3  C   UNL     1     -16.703  21.732  44.211  1.00  0.00     0.197 A 
ATOM      4  O   UNL     1     -16.406  20.593  44.656  1.00  0.00    -0.289 OA
ATOM      5  C   UNL     1     -15.767  22.534  43.515  1.00  0.00     0.107 A 
ATOM      6  C   UNL     1     -14.442  22.126  43.177  1.00  0.00     0.134 A 
ATOM      7  C   UNL     1     -13.566  23.047  42.590  1.00  0.00     0.093 A 
ATOM      8  C   UNL     1     -13.984  24.340  42.274  1.00  0.00     0.123 A 
ATOM      9  C   UNL     1     -15.294  24.731  42.550  1.00  0.00     0.094 A 
ATOM     10  C   UNL     1     -16.181  23.847  43.168  1.00  0.00     0.146 A 
ATOM     11  O   UNL     1     -17.417  24.263  43.428  1.00  0.00    -0.456 OA
ENDROOT
BRANCH   1  12
ATOM     12  C   UNL     1     -19.685  24.077  44.260  1.00  0.00     0.021 A 
ATOM     13  C   UNL     1     -20.476  23.574  45.308  1.00  0.00     0.016 A 
ATOM     14  C   UNL     1     -21.750  24.094  45.549  1.00  0.00     0.051 A 
ATOM     15  C   UNL     1     -22.252  25.131  44.758  1.00  0.00     0.157 A 
ATOM     16  C   UNL     1     -20.189  25.131  43.474  1.00  0.00     0.062 A 
ATOM     17  C   UNL     1     -21.468  25.656  43.717  1.00  0.00     0.158 A 
BRANCH  15  18
ATOM     18  O   UNL     1     -23.527  25.629  45.022  1.00  0.00    -0.504 OA
ATOM     19  H   UNL     1     -23.673  26.547  45.426  1.00  0.00     0.293 HD
ENDBRANCH  15  18
BRANCH  17  20
ATOM     20  O   UNL     1     -21.958  26.698  42.932  1.00  0.00    -0.504 OA
ATOM     21  H   UNL     1     -22.474  26.522  42.078  1.00  0.00     0.293 HD
ENDBRANCH  17  20
ENDBRANCH   1  12
BRANCH   6  22
ATOM     22  O   UNL     1     -13.948  20.832  43.372  1.00  0.00    -0.507 OA
ATOM     23  H   UNL     1     -14.504  19.992  43.338  1.00  0.00     0.293 HD
ENDBRANCH   6  22
BRANCH   8  24
ATOM     24  O   UNL     1     -13.089  25.224  41.675  1.00  0.00    -0.508 OA
ATOM     25  H   UNL     1     -12.392  25.721  42.219  1.00  0.00     0.293 HD
ENDBRANCH   8  24
TORSDOF 5
ENDMDL
MODEL 2
REMARK VINA RESULT:    -5.863      1.402      2.191
REMARK INTER + INTRA:          -7.201
REMARK INTER:                  -6.904
REMARK INTRA:                  -0.296
REMARK UNBOUND:                -0.310
REMARK SMILES O=c1cc(-c2ccc(O)c(O)c2)oc2cc(O)cc(O)c12
REMARK SMILES IDX 4 1 3 2 2 3 1 4 21 5 19 6 18 7 16 8 15 9 14 10 13 11 5 12
REMARK SMILES IDX 6 13 7 14 8 15 12 16 10 17 9 18 11 20 20 22 17 24
REMARK H PARENT 9 19 11 21 20 23 17 25
REMARK Flexibility Score: inf
ROOT
ATOM      1  C   UNL     1     -17.682  24.719  43.010  1.00  0.00     0.138 A 
ATOM      2  C   UNL     1     -17.811  23.376  43.387  1.00  0.00     0.100 A 
ATOM      3  C   UNL     1     -16.678  22.563  43.444  1.00  0.00     0.197 A 
ATOM      4  O   UNL     1     -16.817  21.378  43.846  1.00  0.00    -0.289 OA
ATOM      5  C   UNL     1     -15.414  23.093  43.092  1.00  0.00     0.107 A 
ATOM      6  C   UNL     1     -14.197  22.347  43.074  1.00  0.00     0.134 A 
ATOM      7  C   UNL     1     -12.988  23.007  42.822  1.00  0.00     0.093 A 
ATOM      8  C   UNL     1     -12.958  24.370  42.527  1.00  0.00     0.123 A 
ATOM      9  C   UNL     1     -14.147  25.097  42.488  1.00  0.00     0.094 A 
ATOM     10  C   UNL     1     -15.366  24.475  42.770  1.00  0.00     0.146 A 
ATOM     11  O   UNL     1     -16.476  25.206  42.737  1.00  0.00    -0.456 OA
ENDROOT
BRANCH   1  12
ATOM     12  C   UNL     1     -18.854  25.628  42.930  1.00  0.00     0.021 A 
ATOM     13  C   UNL     1     -18.685  26.934  42.440  1.00  0.00     0.016 A 
ATOM     14  C   UNL     1     -19.772  27.806  42.349  1.00  0.00     0.051 A 
ATOM     15  C   UNL     1     -21.048  27.387  42.735  1.00  0.00     0.157 A 
ATOM     16  C   UNL     1     -20.144  25.206  43.305  1.00  0.00     0.062 A 
ATOM     17  C   UNL     1     -21.238  26.080  43.212  1.00  0.00     0.158 A 
BRANCH  15  18
ATOM     18  O   UNL     1     -22.114  28.280  42.634  1.00  0.00    -0.504 OA
ATOM     19  H   UNL     1     -22.977  28.037  42.161  1.00  0.00     0.293 HD
ENDBRANCH  15  18
BRANCH  17  20
ATOM     20  O   UNL     1     -22.511  25.652  43.588  1.00  0.00    -0.504 OA
ATOM     21  H   UNL     1     -23.295  26.291  43.628  1.00  0.00     0.293 HD
ENDBRANCH  17  20
ENDBRANCH   1  12
BRANCH   6  22
ATOM     22  O   UNL     1     -14.125  20.964  43.272  1.00  0.00    -0.507 OA
ATOM     23  H   UNL     1     -13.736  20.308  42.613  1.00  0.00     0.293 HD
ENDBRANCH   6  22
BRANCH   8  24
ATOM     24  O   UNL     1     -11.737  24.989  42.265  1.00  0.00    -0.508 OA
ATOM     25  H   UNL     1     -11.533  25.922  42.605  1.00  0.00     0.293 HD
ENDBRANCH   8  24
TORSDOF 5
ENDMDL
MODEL 3
REMARK VINA RESULT:    -5.692      4.507      6.625
REMARK INTER + INTRA:          -7.001
REMARK INTER:                  -6.690
REMARK INTRA:                  -0.311
REMARK UNBOUND:                -0.310
REMARK SMILES O=c1cc(-c2ccc(O)c(O)c2)oc2cc(O)cc(O)c12
REMARK SMILES IDX 4 1 3 2 2 3 1 4 21 5 19 6 18 7 16 8 15 9 14 10 13 11 5 12
REMARK SMILES IDX 6 13 7 14 8 15 12 16 10 17 9 18 11 20 20 22 17 24
REMARK H PARENT 9 19 11 21 20 23 17 25
REMARK Flexibility Score: inf
ROOT
ATOM      1  C   UNL     1     -21.194  26.301  43.592  1.00  0.00     0.138 A 
ATOM      2  C   UNL     1     -19.801  26.323  43.439  1.00  0.00     0.100 A 
ATOM      3  C   UNL     1     -19.196  27.390  42.775  1.00  0.00     0.197 A 
ATOM      4  O   UNL     1     -17.940  27.412  42.708  1.00  0.00    -0.289 OA
ATOM      5  C   UNL     1     -19.995  28.426  42.234  1.00  0.00     0.107 A 
ATOM      6  C   UNL     1     -19.490  29.543  41.502  1.00  0.00     0.134 A 
ATOM      7  C   UNL     1     -20.365  30.566  41.116  1.00  0.00     0.093 A 
ATOM      8  C   UNL     1     -21.732  30.484  41.381  1.00  0.00     0.123 A 
ATOM      9  C   UNL     1     -22.244  29.371  42.048  1.00  0.00     0.094 A 
ATOM     10  C   UNL     1     -21.392  28.351  42.477  1.00  0.00     0.146 A 
ATOM     11  O   UNL     1     -21.917  27.314  43.122  1.00  0.00    -0.456 OA
ENDROOT
BRANCH   1  12
ATOM     12  C   UNL     1     -21.890  25.190  44.288  1.00  0.00     0.021 A 
ATOM     13  C   UNL     1     -21.173  24.381  45.188  1.00  0.00     0.016 A 
ATOM     14  C   UNL     1     -21.805  23.333  45.860  1.00  0.00     0.051 A 
ATOM     15  C   UNL     1     -23.164  23.080  45.656  1.00  0.00     0.157 A 
ATOM     16  C   UNL     1     -23.262  24.939  44.095  1.00  0.00     0.062 A 
ATOM     17  C   UNL     1     -23.899  23.887  44.772  1.00  0.00     0.158 A 
BRANCH  15  18
ATOM     18  O   UNL     1     -23.768  22.026  46.341  1.00  0.00    -0.504 OA
ATOM     19  H   UNL     1     -24.024  21.160  45.879  1.00  0.00     0.293 HD
ENDBRANCH  15  18
BRANCH  17  20
ATOM     20  O   UNL     1     -25.257  23.646  44.572  1.00  0.00    -0.504 OA
ATOM     21  H   UNL     1     -25.652  23.572  43.642  1.00  0.00     0.293 HD
ENDBRANCH  17  20
ENDBRANCH   1  12
BRANCH   6  22
ATOM     22  O   UNL     1     -18.155  29.682  41.110  1.00  0.00    -0.507 OA
ATOM     23  H   UNL     1     -17.363  29.614  41.730  1.00  0.00     0.293 HD
ENDBRANCH   6  22
BRANCH   8  24
ATOM     24  O   UNL     1     -22.574  31.515  40.967  1.00  0.00    -0.508 OA
ATOM     25  H   UNL     1     -23.568  31.364  40.834  1.00  0.00     0.293 HD
ENDBRANCH   8  24
TORSDOF 5
ENDMDL
MODEL 4
REMARK VINA RESULT:    -5.574      1.532      7.335
REMARK INTER + INTRA:          -6.862
REMARK INTER:                  -6.549
REMARK INTRA:                  -0.313
REMARK UNBOUND:                -0.310
REMARK SMILES O=c1cc(-c2ccc(O)c(O)c2)oc2cc(O)cc(O)c12
REMARK SMILES IDX 4 1 3 2 2 3 1 4 21 5 19 6 18 7 16 8 15 9 14 10 13 11 5 12
REMARK SMILES IDX 6 13 7 14 8 15 12 16 10 17 9 18 11 20 20 22 17 24
REMARK H PARENT 9 19 11 21 20 23 17 25
REMARK Flexibility Score: inf
ROOT
ATOM      1  C   UNL     1     -18.030  23.737  43.587  1.00  0.00     0.138 A 
ATOM      2  C   UNL     1     -18.230  24.719  42.608  1.00  0.00     0.100 A 
ATOM      3  C   UNL     1     -19.406  25.471  42.614  1.00  0.00     0.197 A 
ATOM      4  O   UNL     1     -19.529  26.387  41.760  1.00  0.00    -0.289 OA
ATOM      5  C   UNL     1     -20.399  25.214  43.589  1.00  0.00     0.107 A 
ATOM      6  C   UNL     1     -21.654  25.890  43.668  1.00  0.00     0.134 A 
ATOM      7  C   UNL     1     -22.509  25.634  44.746  1.00  0.00     0.093 A 
ATOM      8  C   UNL     1     -22.183  24.684  45.715  1.00  0.00     0.123 A 
ATOM      9  C   UNL     1     -20.984  23.978  45.618  1.00  0.00     0.094 A 
ATOM     10  C   UNL     1     -20.093  24.237  44.573  1.00  0.00     0.146 A 
ATOM     11  O   UNL     1     -18.954  23.553  44.525  1.00  0.00    -0.456 OA
ENDROOT
BRANCH   1  12
ATOM     12  C   UNL     1     -16.799  22.908  43.626  1.00  0.00     0.021 A 
ATOM     13  C   UNL     1     -15.652  23.339  42.936  1.00  0.00     0.016 A 
ATOM     14  C   UNL     1     -14.480  22.581  42.961  1.00  0.00     0.051 A 
ATOM     15  C   UNL     1     -14.426  21.386  43.684  1.00  0.00     0.157 A 
ATOM     16  C   UNL     1     -16.736  21.710  44.363  1.00  0.00     0.062 A 
ATOM     17  C   UNL     1     -15.557  20.948  44.392  1.00  0.00     0.158 A 
BRANCH  15  18
ATOM     18  O   UNL     1     -13.242  20.650  43.690  1.00  0.00    -0.504 OA
ATOM     19  H   UNL     1     -13.192  19.713  44.074  1.00  0.00     0.293 HD
ENDBRANCH  15  18
BRANCH  17  20
ATOM     20  O   UNL     1     -15.507  19.763  45.124  1.00  0.00    -0.504 OA
ATOM     21  H   UNL     1     -15.918  18.905  44.775  1.00  0.00     0.293 HD
ENDBRANCH  17  20
ENDBRANCH   1  12
BRANCH   6  22
ATOM     22  O   UNL     1     -22.115  26.797  42.707  1.00  0.00    -0.507 OA
ATOM     23  H   UNL     1     -23.021  27.237  42.720  1.00  0.00     0.293 HD
ENDBRANCH   6  22
BRANCH   8  24
ATOM     24  O   UNL     1     -23.067  24.444  46.765  1.00  0.00    -0.508 OA
ATOM     25  H   UNL     1     -22.757  24.013  47.629  1.00  0.00     0.293 HD
ENDBRANCH   8  24
TORSDOF 5
ENDMDL
MODEL 5
REMARK VINA RESULT:    -5.542      2.452      6.193
REMARK INTER + INTRA:          -6.824
REMARK INTER:                  -6.507
REMARK INTRA:                  -0.317
REMARK UNBOUND:                -0.310
REMARK SMILES O=c1cc(-c2ccc(O)c(O)c2)oc2cc(O)cc(O)c12
REMARK SMILES IDX 4 1 3 2 2 3 1 4 21 5 19 6 18 7 16 8 15 9 14 10 13 11 5 12
REMARK SMILES IDX 6 13 7 14 8 15 12 16 10 17 9 18 11 20 20 22 17 24
REMARK H PARENT 9 19 11 21 20 23 17 25
REMARK Flexibility Score: inf
ROOT
ATOM      1  C   UNL     1     -19.355  23.642  44.372  1.00  0.00     0.138 A 
ATOM      2  C   UNL     1     -20.634  24.014  44.809  1.00  0.00     0.100 A 
ATOM      3  C   UNL     1     -21.163  25.248  44.427  1.00  0.00     0.197 A 
ATOM      4  O   UNL     1     -22.337  25.527  44.784  1.00  0.00    -0.289 OA
ATOM      5  C   UNL     1     -20.392  26.126  43.628  1.00  0.00     0.107 A 
ATOM      6  C   UNL     1     -20.812  27.425  43.212  1.00  0.00     0.134 A 
ATOM      7  C   UNL     1     -20.013  28.157  42.326  1.00  0.00     0.093 A 
ATOM      8  C   UNL     1     -18.783  27.665  41.889  1.00  0.00     0.123 A 
ATOM      9  C   UNL     1     -18.338  26.420  42.333  1.00  0.00     0.094 A 
ATOM     10  C   UNL     1     -19.128  25.650  43.189  1.00  0.00     0.146 A 
ATOM     11  O   UNL     1     -18.674  24.462  43.578  1.00  0.00    -0.456 OA
ENDROOT
BRANCH   1  12
ATOM     12  C   UNL     1     -18.744  22.343  44.750  1.00  0.00     0.021 A 
ATOM     13  C   UNL     1     -19.503  21.407  45.474  1.00  0.00     0.016 A 
ATOM     14  C   UNL     1     -18.954  20.175  45.837  1.00  0.00     0.051 A 
ATOM     15  C   UNL     1     -17.644  19.851  45.474  1.00  0.00     0.157 A 
ATOM     16  C   UNL     1     -17.429  22.007  44.376  1.00  0.00     0.062 A 
ATOM     17  C   UNL     1     -16.877  20.768  44.738  1.00  0.00     0.158 A 
BRANCH  15  18
ATOM     18  O   UNL     1     -17.123  18.613  45.851  1.00  0.00    -0.504 OA
ATOM     19  H   UNL     1     -16.125  18.451  45.930  1.00  0.00     0.293 HD
ENDBRANCH  15  18
BRANCH  17  20
ATOM     20  O   UNL     1     -15.573  20.446  44.364  1.00  0.00    -0.504 OA
ATOM     21  H   UNL     1     -14.808  20.477  45.027  1.00  0.00     0.293 HD
ENDBRANCH  17  20
ENDBRANCH   1  12
BRANCH   6  22
ATOM     22  O   UNL     1     -21.984  28.047  43.656  1.00  0.00    -0.507 OA
ATOM     23  H   UNL     1     -22.915  27.693  43.506  1.00  0.00     0.293 HD
ENDBRANCH   6  22
BRANCH   8  24
ATOM     24  O   UNL     1     -18.007  28.429  41.020  1.00  0.00    -0.508 OA
ATOM     25  H   UNL     1     -17.291  28.007  40.439  1.00  0.00     0.293 HD
ENDBRANCH   8  24
TORSDOF 5
ENDMDL
MODEL 6
REMARK VINA RESULT:    -5.512      2.000      3.933
REMARK INTER + INTRA:          -6.789
REMARK INTER:                  -6.514
REMARK INTRA:                  -0.275
REMARK UNBOUND:                -0.310
REMARK SMILES O=c1cc(-c2ccc(O)c(O)c2)oc2cc(O)cc(O)c12
REMARK SMILES IDX 4 1 3 2 2 3 1 4 21 5 19 6 18 7 16 8 15 9 14 10 13 11 5 12
REMARK SMILES IDX 6 13 7 14 8 15 12 16 10 17 9 18 11 20 20 22 17 24
REMARK H PARENT 9 19 11 21 20 23 17 25
REMARK Flexibility Score: inf
ROOT
ATOM      1  C   UNL     1     -20.764  24.529  44.312  1.00  0.00     0.138 A 
ATOM      2  C   UNL     1     -20.147  25.358  43.365  1.00  0.00     0.100 A 
ATOM      3  C   UNL     1     -18.897  25.010  42.853  1.00  0.00     0.197 A 
ATOM      4  O   UNL     1     -18.397  25.740  41.958  1.00  0.00    -0.289 OA
ATOM      5  C   UNL     1     -18.248  23.840  43.316  1.00  0.00     0.107 A 
ATOM      6  C   UNL     1     -16.955  23.408  42.895  1.00  0.00     0.134 A 
ATOM      7  C   UNL     1     -16.464  22.172  43.335  1.00  0.00     0.093 A 
ATOM      8  C   UNL     1     -17.191  21.383  44.226  1.00  0.00     0.123 A 
ATOM      9  C   UNL     1     -18.432  21.822  44.687  1.00  0.00     0.094 A 
ATOM     10  C   UNL     1     -18.965  23.033  44.239  1.00  0.00     0.146 A 
ATOM     11  O   UNL     1     -20.158  23.408  44.691  1.00  0.00    -0.456 OA
ENDROOT
BRANCH   1  12
ATOM     12  C   UNL     1     -22.093  24.853  44.891  1.00  0.00     0.021 A 
ATOM     13  C   UNL     1     -22.249  26.027  45.649  1.00  0.00     0.016 A 
ATOM     14  C   UNL     1     -23.489  26.358  46.199  1.00  0.00     0.051 A 
ATOM     15  C   UNL     1     -24.597  25.531  45.994  1.00  0.00     0.157 A 
ATOM     16  C   UNL     1     -23.215  24.030  44.677  1.00  0.00     0.062 A 
ATOM     17  C   UNL     1     -24.462  24.363  45.227  1.00  0.00     0.158 A 
BRANCH  15  18
ATOM     18  O   UNL     1     -25.822  25.887  46.557  1.00  0.00    -0.504 OA
ATOM     19  H   UNL     1     -25.966  25.917  47.560  1.00  0.00     0.293 HD
ENDBRANCH  15  18
BRANCH  17  20
ATOM     20  O   UNL     1     -25.566  23.539  45.009  1.00  0.00    -0.504 OA
ATOM     21  H   UNL     1     -25.955  22.967  45.749  1.00  0.00     0.293 HD
ENDBRANCH  17  20
ENDBRANCH   1  12
BRANCH   6  22
ATOM     22  O   UNL     1     -16.109  24.159  42.073  1.00  0.00    -0.507 OA
ATOM     23  H   UNL     1     -15.794  23.875  41.159  1.00  0.00     0.293 HD
ENDBRANCH   6  22
BRANCH   8  24
ATOM     24  O   UNL     1     -16.663  20.167  44.654  1.00  0.00    -0.508 OA
ATOM     25  H   UNL     1     -16.501  19.977  45.637  1.00  0.00     0.293 HD
ENDBRANCH   8  24
TORSDOF 5
ENDMDL
MODEL 7
REMARK VINA RESULT:    -5.490      2.463      6.812
REMARK INTER + INTRA:          -6.763
REMARK INTER:                  -6.446
REMARK INTRA:                  -0.317
REMARK UNBOUND:                -0.310
REMARK SMILES O=c1cc(-c2ccc(O)c(O)c2)oc2cc(O)cc(O)c12
REMARK SMILES IDX 4 1 3 2 2 3 1 4 21 5 19 6 18 7 16 8 15 9 14 10 13 11 5 12
REMARK SMILES IDX 6 13 7 14 8 15 12 16 10 17 9 18 11 20 20 22 17 24
REMARK H PARENT 9 19 11 21 20 23 17 25
REMARK Flexibility Score: inf
ROOT
ATOM      1  C   UNL     1     -18.026  24.989  43.025  1.00  0.00     0.138 A 
ATOM      2  C   UNL     1     -19.326  24.743  43.488  1.00  0.00     0.100 A 
ATOM      3  C   UNL     1     -20.294  25.744  43.395  1.00  0.00     0.197 A 
ATOM      4  O   UNL     1     -21.466  25.473  43.761  1.00  0.00    -0.289 OA
ATOM      5  C   UNL     1     -19.947  27.010  42.863  1.00  0.00     0.107 A 
ATOM      6  C   UNL     1     -20.840  28.118  42.757  1.00  0.00     0.134 A 
ATOM      7  C   UNL     1     -20.417  29.283  42.106  1.00  0.00     0.093 A 
ATOM      8  C   UNL     1     -19.118  29.403  41.613  1.00  0.00     0.123 A 
ATOM      9  C   UNL     1     -18.221  28.346  41.760  1.00  0.00     0.094 A 
ATOM     10  C   UNL     1     -18.623  27.157  42.372  1.00  0.00     0.146 A 
ATOM     11  O   UNL     1     -17.741  26.167  42.480  1.00  0.00    -0.456 OA
ENDROOT
BRANCH   1  12
ATOM     12  C   UNL     1     -16.958  23.960  43.102  1.00  0.00     0.021 A 
ATOM     13  C   UNL     1     -17.285  22.652  43.502  1.00  0.00     0.016 A 
ATOM     14  C   UNL     1     -16.301  21.665  43.576  1.00  0.00     0.051 A 
ATOM     15  C   UNL     1     -14.976  21.960  43.243  1.00  0.00     0.157 A 
ATOM     16  C   UNL     1     -15.625  24.250  42.755  1.00  0.00     0.062 A 
ATOM     17  C   UNL     1     -14.635  23.258  42.827  1.00  0.00     0.158 A 
BRANCH  15  18
ATOM     18  O   UNL     1     -14.015  20.954  43.327  1.00  0.00    -0.504 OA
ATOM     19  H   UNL     1     -14.126  20.155  43.941  1.00  0.00     0.293 HD
ENDBRANCH  15  18
BRANCH  17  20
ATOM     20  O   UNL     1     -13.318  23.556  42.482  1.00  0.00    -0.504 OA
ATOM     21  H   UNL     1     -12.887  23.174  41.649  1.00  0.00     0.293 HD
ENDBRANCH  17  20
ENDBRANCH   1  12
BRANCH   6  22
ATOM     22  O   UNL     1     -22.133  28.134  43.291  1.00  0.00    -0.507 OA
ATOM     23  H   UNL     1     -22.846  28.804  43.050  1.00  0.00     0.293 HD
ENDBRANCH   6  22
BRANCH   8  24
ATOM     24  O   UNL     1     -18.728  30.585  40.986  1.00  0.00    -0.508 OA
ATOM     25  H   UNL     1     -18.328  31.355  41.510  1.00  0.00     0.293 HD
ENDBRANCH   8  24
TORSDOF 5
ENDMDL
MODEL 8
REMARK VINA RESULT:    -5.436      2.893      5.069
REMARK INTER + INTRA:          -6.700
REMARK INTER:                  -6.403
REMARK INTRA:                  -0.296
REMARK UNBOUND:                -0.310
REMARK SMILES O=c1cc(-c2ccc(O)c(O)c2)oc2cc(O)cc(O)c12
REMARK SMILES IDX 4 1 3 2 2 3 1 4 21 5 19 6 18 7 16 8 15 9 14 10 13 11 5 12
REMARK SMILES IDX 6 13 7 14 8 15 12 16 10 17 9 18 11 20 20 22 17 24
REMARK H PARENT 9 19 11 21 20 23 17 25
REMARK Flexibility Score: inf
ROOT
ATOM      1  C   UNL     1     -19.164  24.255  43.771  1.00  0.00     0.138 A 
ATOM      2  C   UNL     1     -18.179  23.434  43.205  1.00  0.00     0.100 A 
ATOM      3  C   UNL     1     -18.000  22.137  43.687  1.00  0.00     0.197 A 
ATOM      4  O   UNL     1     -17.150  21.404  43.118  1.00  0.00    -0.289 OA
ATOM      5  C   UNL     1     -18.792  21.671  44.765  1.00  0.00     0.107 A 
ATOM      6  C   UNL     1     -18.669  20.382  45.365  1.00  0.00     0.134 A 
ATOM      7  C   UNL     1     -19.586  19.989  46.347  1.00  0.00     0.093 A 
ATOM      8  C   UNL     1     -20.582  20.859  46.794  1.00  0.00     0.123 A 
ATOM      9  C   UNL     1     -20.676  22.140  46.252  1.00  0.00     0.094 A 
ATOM     10  C   UNL     1     -19.799  22.550  45.245  1.00  0.00     0.146 A 
ATOM     11  O   UNL     1     -19.931  23.774  44.745  1.00  0.00    -0.456 OA
ENDROOT
BRANCH   1  12
ATOM     12  C   UNL     1     -19.396  25.642  43.298  1.00  0.00     0.021 A 
ATOM     13  C   UNL     1     -20.491  26.370  43.797  1.00  0.00     0.016 A 
ATOM     14  C   UNL     1     -20.727  27.679  43.373  1.00  0.00     0.051 A 
ATOM     15  C   UNL     1     -19.871  28.290  42.452  1.00  0.00     0.157 A 
ATOM     16  C   UNL     1     -18.529  26.266  42.381  1.00  0.00     0.062 A 
ATOM     17  C   UNL     1     -18.764  27.583  41.955  1.00  0.00     0.158 A 
BRANCH  15  18
ATOM     18  O   UNL     1     -20.133  29.598  42.047  1.00  0.00    -0.504 OA
ATOM     19  H   UNL     1     -20.198  29.855  41.068  1.00  0.00     0.293 HD
ENDBRANCH  15  18
BRANCH  17  20
ATOM     20  O   UNL     1     -17.900  28.190  41.045  1.00  0.00    -0.504 OA
ATOM     21  H   UNL     1     -18.132  29.068  40.598  1.00  0.00     0.293 HD
ENDBRANCH  17  20
ENDBRANCH   1  12
BRANCH   6  22
ATOM     22  O   UNL     1     -17.658  19.467  45.053  1.00  0.00    -0.507 OA
ATOM     23  H   UNL     1     -17.339  19.259  44.120  1.00  0.00     0.293 HD
ENDBRANCH   6  22
BRANCH   8  24
ATOM     24  O   UNL     1     -21.466  20.438  47.785  1.00  0.00    -0.508 OA
ATOM     25  H   UNL     1     -21.391  20.774  48.739  1.00  0.00     0.293 HD
ENDBRANCH   8  24
TORSDOF 5
ENDMDL
MODEL 9
REMARK VINA RESULT:    -5.400      2.520      4.176
REMARK INTER + INTRA:          -6.657
REMARK INTER:                  -6.367
REMARK INTRA:                  -0.290
REMARK UNBOUND:                -0.310
REMARK SMILES O=c1cc(-c2ccc(O)c(O)c2)oc2cc(O)cc(O)c12
REMARK SMILES IDX 4 1 3 2 2 3 1 4 21 5 19 6 18 7 16 8 15 9 14 10 13 11 5 12
REMARK SMILES IDX 6 13 7 14 8 15 12 16 10 17 9 18 11 20 20 22 17 24
REMARK H PARENT 9 19 11 21 20 23 17 25
REMARK Flexibility Score: inf
ROOT
ATOM      1  C   UNL     1     -19.565  25.748  43.272  1.00  0.00     0.138 A 
ATOM      2  C   UNL     1     -20.380  25.033  44.161  1.00  0.00     0.100 A 
ATOM      3  C   UNL     1     -19.990  23.763  44.588  1.00  0.00     0.197 A 
ATOM      4  O   UNL     1     -20.711  23.173  45.433  1.00  0.00    -0.289 OA
ATOM      5  C   UNL     1     -18.790  23.194  44.096  1.00  0.00     0.107 A 
ATOM      6  C   UNL     1     -18.314  21.891  44.430  1.00  0.00     0.134 A 
ATOM      7  C   UNL     1     -17.055  21.480  43.975  1.00  0.00     0.093 A 
ATOM      8  C   UNL     1     -16.284  22.299  43.150  1.00  0.00     0.123 A 
ATOM      9  C   UNL     1     -16.764  23.553  42.773  1.00  0.00     0.094 A 
ATOM     10  C   UNL     1     -18.001  24.006  43.240  1.00  0.00     0.146 A 
ATOM     11  O   UNL     1     -18.417  25.213  42.869  1.00  0.00    -0.456 OA
ENDROOT
BRANCH   1  12
ATOM     12  C   UNL     1     -19.933  27.101  42.785  1.00  0.00     0.021 A 
ATOM     13  C   UNL     1     -18.922  27.986  42.370  1.00  0.00     0.016 A 
ATOM     14  C   UNL     1     -19.242  29.261  41.902  1.00  0.00     0.051 A 
ATOM     15  C   UNL     1     -20.575  29.674  41.829  1.00  0.00     0.157 A 
ATOM     16  C   UNL     1     -21.276  27.517  42.698  1.00  0.00     0.062 A 
ATOM     17  C   UNL     1     -21.599  28.798  42.225  1.00  0.00     0.158 A 
BRANCH  15  18
ATOM     18  O   UNL     1     -20.864  30.954  41.358  1.00  0.00    -0.504 OA
ATOM     19  H   UNL     1     -20.136  31.625  41.140  1.00  0.00     0.293 HD
ENDBRANCH  15  18
BRANCH  17  20
ATOM     20  O   UNL     1     -22.931  29.199  42.145  1.00  0.00    -0.504 OA
ATOM     21  H   UNL     1     -23.373  29.725  42.889  1.00  0.00     0.293 HD
ENDBRANCH  17  20
ENDBRANCH   1  12
BRANCH   6  22
ATOM     22  O   UNL     1     -19.041  20.960  45.178  1.00  0.00    -0.507 OA
ATOM     23  H   UNL     1     -18.668  20.414  45.938  1.00  0.00     0.293 HD
ENDBRANCH   6  22
BRANCH   8  24
ATOM     24  O   UNL     1     -15.043  21.850  42.703  1.00  0.00    -0.508 OA
ATOM     25  H   UNL     1     -14.893  20.881  42.444  1.00  0.00     0.293 HD
ENDBRANCH   8  24
TORSDOF 5
ENDMDL
