MODEL 1
REMARK VINA RESULT:    -2.814      0.000      0.000
REMARK INTER + INTRA:          -9.916
REMARK INTER:                  -6.104
REMARK INTRA:                  -3.812
REMARK UNBOUND:                -3.812
REMARK SMILES CCCCCCCCCCCCCCCCCCCCCC(=O)[O-]
REMARK SMILES IDX 12 1 11 2 10 3 9 4 8 5 7 6 6 7 5 8 4 9 3 10 2 11 1 12 13 13
REMARK SMILES IDX 14 14 15 15 16 16 17 17 18 18 19 19 20 20 21 21 22 22 23 23
REMARK SMILES IDX 24 24
REMARK H PARENT
REMARK Flexibility Score: inf
ROOT
ATOM      1  C   UNL     1     112.643  54.792 229.177  1.00  0.00     0.000 C 
ENDROOT
BRANCH   1   2
ATOM      2  C   UNL     1     112.894  53.821 228.011  1.00  0.00     0.000 C 
BRANCH   2   3
ATOM      3  C   UNL     1     114.060  54.265 227.110  1.00  0.00     0.000 C 
BRANCH   3   4
ATOM      4  C   UNL     1     113.580  54.992 225.843  1.00  0.00    -0.000 C 
BRANCH   4   5
ATOM      5  C   UNL     1     114.107  56.435 225.751  1.00  0.00    -0.000 C 
BRANCH   5   6
ATOM      6  C   UNL     1     113.084  57.470 226.245  1.00  0.00    -0.000 C 
BRANCH   6   7
ATOM      7  C   UNL     1     111.640  57.088 225.891  1.00  0.00    -0.000 C 
BRANCH   7   8
ATOM      8  C   UNL     1     110.801  56.876 227.157  1.00  0.00    -0.000 C 
BRANCH   8   9
ATOM      9  C   UNL     1     109.746  55.780 226.942  1.00  0.00    -0.000 C 
BRANCH   9  10
ATOM     10  C   UNL     1     109.463  55.505 225.454  1.00  0.00    -0.000 C 
BRANCH  10  11
ATOM     11  C   UNL     1     109.252  54.023 225.099  1.00  0.00    -0.003 C 
ATOM     12  C   UNL     1     110.428  53.136 225.508  1.00  0.00     0.004 C 
ENDBRANCH  10  11
ENDBRANCH   9  10
ENDBRANCH   8   9
ENDBRANCH   7   8
ENDBRANCH   6   7
ENDBRANCH   5   6
ENDBRANCH   4   5
ENDBRANCH   3   4
ENDBRANCH   2   3
ENDBRANCH   1   2
BRANCH   1  13
ATOM     13  C   UNL     1     113.828  55.744 229.421  1.00  0.00     0.000 C 
BRANCH  13  14
ATOM     14  C   UNL     1     113.415  57.023 230.168  1.00  0.00     0.000 C 
BRANCH  14  15
ATOM     15  C   UNL     1     111.995  56.932 230.755  1.00  0.00     0.000 C 
BRANCH  15  16
ATOM     16  C   UNL     1     111.955  57.264 232.255  1.00  0.00     0.000 C 
BRANCH  16  17
ATOM     17  C   UNL     1     113.077  56.566 233.043  1.00  0.00     0.000 C 
BRANCH  17  18
ATOM     18  C   UNL     1     112.717  55.126 233.451  1.00  0.00     0.000 C 
BRANCH  18  19
ATOM     19  C   UNL     1     113.445  54.022 232.664  1.00  0.00     0.000 C 
BRANCH  19  20
ATOM     20  C   UNL     1     112.677  52.692 232.642  1.00  0.00     0.006 C 
BRANCH  20  21
ATOM     21  C   UNL     1     111.264  52.885 232.084  1.00  0.00     0.053 C 
BRANCH  21  22
ATOM     22  C   UNL     1     110.252  52.265 232.994  1.00  0.00     0.041 C 
ATOM     23  O   UNL     1     109.508  51.339 232.578  1.00  0.00    -0.550 OA
ATOM     24  O   UNL     1     110.096  52.744 234.289  1.00  0.00    -0.550 OA
ENDBRANCH  21  22
ENDBRANCH  20  21
ENDBRANCH  19  20
ENDBRANCH  18  19
ENDBRANCH  17  18
ENDBRANCH  16  17
ENDBRANCH  15  16
ENDBRANCH  14  15
ENDBRANCH  13  14
ENDBRANCH   1  13
TORSDOF 20
ENDMDL
MODEL 2
REMARK VINA RESULT:    -2.772      1.219      2.933
REMARK INTER + INTRA:          -9.826
REMARK INTER:                  -6.246
REMARK INTRA:                  -3.580
REMARK UNBOUND:                -3.812
REMARK SMILES CCCCCCCCCCCCCCCCCCCCCC(=O)[O-]
REMARK SMILES IDX 12 1 11 2 10 3 9 4 8 5 7 6 6 7 5 8 4 9 3 10 2 11 1 12 13 13
REMARK SMILES IDX 14 14 15 15 16 16 17 17 18 18 19 19 20 20 21 21 22 22 23 23
REMARK SMILES IDX 24 24
REMARK H PARENT
REMARK Flexibility Score: inf
ROOT
ATOM      1  C   UNL     1     111.386  55.688 230.074  1.00  0.00     0.000 C 
ENDROOT
BRANCH   1   2
ATOM      2  C   UNL     1     112.763  56.194 229.615  1.00  0.00     0.000 C 
BRANCH   2   3
ATOM      3  C   UNL     1     113.729  55.049 229.260  1.00  0.00     0.000 C 
BRANCH   3   4
ATOM      4  C   UNL     1     113.008  53.841 228.640  1.00  0.00    -0.000 C 
BRANCH   4   5
ATOM      5  C   UNL     1     113.212  53.744 227.119  1.00  0.00    -0.000 C 
BRANCH   5   6
ATOM      6  C   UNL     1     111.924  53.365 226.372  1.00  0.00    -0.000 C 
BRANCH   6   7
ATOM      7  C   UNL     1     111.303  54.555 225.626  1.00  0.00    -0.000 C 
BRANCH   7   8
ATOM      8  C   UNL     1     110.266  55.271 226.501  1.00  0.00    -0.000 C 
BRANCH   8   9
ATOM      9  C   UNL     1     110.430  56.796 226.412  1.00  0.00    -0.000 C 
BRANCH   9  10
ATOM     10  C   UNL     1     111.898  57.232 226.251  1.00  0.00    -0.000 C 
BRANCH  10  11
ATOM     11  C   UNL     1     112.102  58.534 225.457  1.00  0.00    -0.003 C 
ATOM     12  C   UNL     1     111.870  59.790 226.297  1.00  0.00     0.004 C 
ENDBRANCH  10  11
ENDBRANCH   9  10
ENDBRANCH   8   9
ENDBRANCH   7   8
ENDBRANCH   6   7
ENDBRANCH   5   6
ENDBRANCH   4   5
ENDBRANCH   3   4
ENDBRANCH   2   3
ENDBRANCH   1   2
BRANCH   1  13
ATOM     13  C   UNL     1     110.916  56.353 231.380  1.00  0.00     0.000 C 
BRANCH  13  14
ATOM     14  C   UNL     1     112.085  56.874 232.233  1.00  0.00     0.000 C 
BRANCH  14  15
ATOM     15  C   UNL     1     111.831  56.718 233.742  1.00  0.00     0.000 C 
BRANCH  15  16
ATOM     16  C   UNL     1     113.033  56.107 234.481  1.00  0.00     0.000 C 
BRANCH  16  17
ATOM     17  C   UNL     1     113.909  55.237 233.563  1.00  0.00     0.000 C 
BRANCH  17  18
ATOM     18  C   UNL     1     113.531  53.744 233.614  1.00  0.00     0.000 C 
BRANCH  18  19
ATOM     19  C   UNL     1     113.244  53.097 232.247  1.00  0.00     0.000 C 
BRANCH  19  20
ATOM     20  C   UNL     1     111.768  52.712 232.063  1.00  0.00     0.006 C 
BRANCH  20  21
ATOM     21  C   UNL     1     110.949  53.071 233.305  1.00  0.00     0.053 C 
BRANCH  21  22
ATOM     22  C   UNL     1     109.670  52.294 233.332  1.00  0.00     0.041 C 
ATOM     23  O   UNL     1     108.727  52.653 234.085  1.00  0.00    -0.550 OA
ATOM     24  O   UNL     1     109.538  51.145 232.562  1.00  0.00    -0.550 OA
ENDBRANCH  21  22
ENDBRANCH  20  21
ENDBRANCH  19  20
ENDBRANCH  18  19
ENDBRANCH  17  18
ENDBRANCH  16  17
ENDBRANCH  15  16
ENDBRANCH  14  15
ENDBRANCH  13  14
ENDBRANCH   1  13
TORSDOF 20
ENDMDL
MODEL 3
REMARK VINA RESULT:    -2.769      2.783      6.689
REMARK INTER + INTRA:          -9.818
REMARK INTER:                  -6.624
REMARK INTRA:                  -3.195
REMARK UNBOUND:                -3.812
REMARK SMILES CCCCCCCCCCCCCCCCCCCCCC(=O)[O-]
REMARK SMILES IDX 12 1 11 2 10 3 9 4 8 5 7 6 6 7 5 8 4 9 3 10 2 11 1 12 13 13
REMARK SMILES IDX 14 14 15 15 16 16 17 17 18 18 19 19 20 20 21 21 22 22 23 23
REMARK SMILES IDX 24 24
REMARK H PARENT
REMARK Flexibility Score: inf
ROOT
ATOM      1  C   UNL     1     113.460  56.014 231.060  1.00  0.00     0.000 C 
ENDROOT
BRANCH   1   2
ATOM      2  C   UNL     1     113.657  55.470 232.485  1.00  0.00     0.000 C 
BRANCH   2   3
ATOM      3  C   UNL     1     114.124  54.004 232.502  1.00  0.00     0.000 C 
BRANCH   3   4
ATOM      4  C   UNL     1     113.086  53.063 233.136  1.00  0.00    -0.000 C 
BRANCH   4   5
ATOM      5  C   UNL     1     111.897  52.775 232.204  1.00  0.00    -0.000 C 
BRANCH   5   6
ATOM      6  C   UNL     1     110.597  52.494 232.974  1.00  0.00    -0.000 C 
BRANCH   6   7
ATOM      7  C   UNL     1     109.761  53.761 233.204  1.00  0.00    -0.000 C 
BRANCH   7   8
ATOM      8  C   UNL     1     109.802  54.677 231.974  1.00  0.00    -0.000 C 
BRANCH   8   9
ATOM      9  C   UNL     1     109.941  56.150 232.389  1.00  0.00    -0.000 C 
BRANCH   9  10
ATOM     10  C   UNL     1     110.084  57.101 231.186  1.00  0.00    -0.000 C 
BRANCH  10  11
ATOM     11  C   UNL     1     109.055  56.882 230.064  1.00  0.00    -0.003 C 
ATOM     12  C   UNL     1     109.698  56.536 228.721  1.00  0.00     0.004 C 
ENDBRANCH  10  11
ENDBRANCH   9  10
ENDBRANCH   8   9
ENDBRANCH   7   8
ENDBRANCH   6   7
ENDBRANCH   5   6
ENDBRANCH   4   5
ENDBRANCH   3   4
ENDBRANCH   2   3
ENDBRANCH   1   2
BRANCH   1  13
ATOM     13  C   UNL     1     113.842  54.989 229.977  1.00  0.00     0.000 C 
BRANCH  13  14
ATOM     14  C   UNL     1     112.642  54.568 229.112  1.00  0.00     0.000 C 
BRANCH  14  15
ATOM     15  C   UNL     1     113.022  53.533 228.039  1.00  0.00     0.000 C 
BRANCH  15  16
ATOM     16  C   UNL     1     113.914  54.127 226.937  1.00  0.00     0.000 C 
BRANCH  16  17
ATOM     17  C   UNL     1     113.236  55.290 226.192  1.00  0.00     0.000 C 
BRANCH  17  18
ATOM     18  C   UNL     1     112.273  54.814 225.088  1.00  0.00     0.000 C 
BRANCH  18  19
ATOM     19  C   UNL     1     110.932  55.567 225.021  1.00  0.00     0.000 C 
BRANCH  19  20
ATOM     20  C   UNL     1     109.739  54.710 225.470  1.00  0.00     0.006 C 
BRANCH  20  21
ATOM     21  C   UNL     1     110.177  53.275 225.773  1.00  0.00     0.053 C 
BRANCH  21  22
ATOM     22  C   UNL     1     109.618  52.330 224.756  1.00  0.00     0.041 C 
ATOM     23  O   UNL     1     109.451  51.116 225.044  1.00  0.00    -0.550 OA
ATOM     24  O   UNL     1     109.325  52.781 223.475  1.00  0.00    -0.550 OA
ENDBRANCH  21  22
ENDBRANCH  20  21
ENDBRANCH  19  20
ENDBRANCH  18  19
ENDBRANCH  17  18
ENDBRANCH  16  17
ENDBRANCH  15  16
ENDBRANCH  14  15
ENDBRANCH  13  14
ENDBRANCH   1  13
TORSDOF 20
ENDMDL
MODEL 4
REMARK VINA RESULT:    -2.749     14.622     17.298
REMARK INTER + INTRA:          -9.776
REMARK INTER:                  -5.483
REMARK INTRA:                  -4.293
REMARK UNBOUND:                -3.812
REMARK SMILES CCCCCCCCCCCCCCCCCCCCCC(=O)[O-]
REMARK SMILES IDX 12 1 11 2 10 3 9 4 8 5 7 6 6 7 5 8 4 9 3 10 2 11 1 12 13 13
REMARK SMILES IDX 14 14 15 15 16 16 17 17 18 18 19 19 20 20 21 21 22 22 23 23
REMARK SMILES IDX 24 24
REMARK H PARENT
REMARK Flexibility Score: inf
ROOT
ATOM      1  C   UNL     1      95.416  66.334 226.757  1.00  0.00     0.000 C 
ENDROOT
BRANCH   1   2
ATOM      2  C   UNL     1      94.996  64.992 226.136  1.00  0.00     0.000 C 
BRANCH   2   3
ATOM      3  C   UNL     1      94.523  65.134 224.678  1.00  0.00     0.000 C 
BRANCH   3   4
ATOM      4  C   UNL     1      95.671  64.971 223.668  1.00  0.00    -0.000 C 
BRANCH   4   5
ATOM      5  C   UNL     1      96.838  64.138 224.225  1.00  0.00    -0.000 C 
BRANCH   5   6
ATOM      6  C   UNL     1      98.181  64.883 224.157  1.00  0.00    -0.000 C 
BRANCH   6   7
ATOM      7  C   UNL     1      98.758  65.186 225.548  1.00  0.00    -0.000 C 
BRANCH   7   8
ATOM      8  C   UNL     1      99.002  66.690 225.726  1.00  0.00    -0.000 C 
BRANCH   8   9
ATOM      9  C   UNL     1     100.042  66.952 226.827  1.00  0.00    -0.000 C 
BRANCH   9  10
ATOM     10  C   UNL     1     101.179  65.914 226.836  1.00  0.00    -0.000 C 
BRANCH  10  11
ATOM     11  C   UNL     1     101.379  65.185 228.176  1.00  0.00    -0.003 C 
ATOM     12  C   UNL     1     102.834  65.179 228.643  1.00  0.00     0.004 C 
ENDBRANCH  10  11
ENDBRANCH   9  10
ENDBRANCH   8   9
ENDBRANCH   7   8
ENDBRANCH   6   7
ENDBRANCH   5   6
ENDBRANCH   4   5
ENDBRANCH   3   4
ENDBRANCH   2   3
ENDBRANCH   1   2
BRANCH   1  13
ATOM     13  C   UNL     1      96.133  66.163 228.108  1.00  0.00     0.000 C 
BRANCH  13  14
ATOM     14  C   UNL     1      96.409  64.689 228.448  1.00  0.00     0.000 C 
BRANCH  14  15
ATOM     15  C   UNL     1      97.863  64.446 228.889  1.00  0.00     0.000 C 
BRANCH  15  16
ATOM     16  C   UNL     1      98.283  62.974 228.749  1.00  0.00     0.000 C 
BRANCH  16  17
ATOM     17  C   UNL     1      97.766  62.335 227.449  1.00  0.00     0.000 C 
BRANCH  17  18
ATOM     18  C   UNL     1      98.893  61.740 226.584  1.00  0.00     0.000 C 
BRANCH  18  19
ATOM     19  C   UNL     1     100.273  61.675 227.263  1.00  0.00     0.000 C 
BRANCH  19  20
ATOM     20  C   UNL     1     101.430  61.997 226.306  1.00  0.00     0.006 C 
BRANCH  20  21
ATOM     21  C   UNL     1     100.906  62.340 224.909  1.00  0.00     0.053 C 
BRANCH  21  22
ATOM     22  C   UNL     1     101.817  63.316 224.232  1.00  0.00     0.041 C 
ATOM     23  O   UNL     1     101.364  64.106 223.363  1.00  0.00    -0.550 OA
ATOM     24  O   UNL     1     103.174  63.321 224.528  1.00  0.00    -0.550 OA
ENDBRANCH  21  22
ENDBRANCH  20  21
ENDBRANCH  19  20
ENDBRANCH  18  19
ENDBRANCH  17  18
ENDBRANCH  16  17
ENDBRANCH  15  16
ENDBRANCH  14  15
ENDBRANCH  13  14
ENDBRANCH   1  13
TORSDOF 20
ENDMDL
MODEL 5
REMARK VINA RESULT:    -2.732      3.410      7.464
REMARK INTER + INTRA:          -9.738
REMARK INTER:                  -7.032
REMARK INTRA:                  -2.706
REMARK UNBOUND:                -3.812
REMARK SMILES CCCCCCCCCCCCCCCCCCCCCC(=O)[O-]
REMARK SMILES IDX 12 1 11 2 10 3 9 4 8 5 7 6 6 7 5 8 4 9 3 10 2 11 1 12 13 13
REMARK SMILES IDX 14 14 15 15 16 16 17 17 18 18 19 19 20 20 21 21 22 22 23 23
REMARK SMILES IDX 24 24
REMARK H PARENT
REMARK Flexibility Score: inf
ROOT
ATOM      1  C   UNL     1     112.706  54.230 228.282  1.00  0.00     0.000 C 
ENDROOT
BRANCH   1   2
ATOM      2  C   UNL     1     112.872  53.841 229.760  1.00  0.00     0.000 C 
BRANCH   2   3
ATOM      3  C   UNL     1     113.677  54.880 230.561  1.00  0.00     0.000 C 
BRANCH   3   4
ATOM      4  C   UNL     1     113.912  54.448 232.018  1.00  0.00    -0.000 C 
BRANCH   4   5
ATOM      5  C   UNL     1     113.134  53.174 232.391  1.00  0.00    -0.000 C 
BRANCH   5   6
ATOM      6  C   UNL     1     112.285  53.350 233.660  1.00  0.00    -0.000 C 
BRANCH   6   7
ATOM      7  C   UNL     1     110.813  52.971 233.442  1.00  0.00    -0.000 C 
BRANCH   7   8
ATOM      8  C   UNL     1     110.212  53.752 232.266  1.00  0.00    -0.000 C 
BRANCH   8   9
ATOM      9  C   UNL     1     109.804  55.169 232.698  1.00  0.00    -0.000 C 
BRANCH   9  10
ATOM     10  C   UNL     1     110.556  56.269 231.928  1.00  0.00    -0.000 C 
BRANCH  10  11
ATOM     11  C   UNL     1     110.261  56.318 230.418  1.00  0.00    -0.003 C 
ATOM     12  C   UNL     1     108.780  56.527 230.104  1.00  0.00     0.004 C 
ENDBRANCH  10  11
ENDBRANCH   9  10
ENDBRANCH   8   9
ENDBRANCH   7   8
ENDBRANCH   6   7
ENDBRANCH   5   6
ENDBRANCH   4   5
ENDBRANCH   3   4
ENDBRANCH   2   3
ENDBRANCH   1   2
BRANCH   1  13
ATOM     13  C   UNL     1     113.304  53.186 227.323  1.00  0.00     0.000 C 
BRANCH  13  14
ATOM     14  C   UNL     1     112.808  53.357 225.878  1.00  0.00     0.000 C 
BRANCH  14  15
ATOM     15  C   UNL     1     111.279  53.507 225.792  1.00  0.00     0.000 C 
BRANCH  15  16
ATOM     16  C   UNL     1     110.849  54.921 225.367  1.00  0.00     0.000 C 
BRANCH  16  17
ATOM     17  C   UNL     1     109.678  55.458 226.207  1.00  0.00     0.000 C 
BRANCH  17  18
ATOM     18  C   UNL     1     108.636  56.219 225.365  1.00  0.00     0.000 C 
BRANCH  18  19
ATOM     19  C   UNL     1     107.260  55.539 225.259  1.00  0.00     0.000 C 
BRANCH  19  20
ATOM     20  C   UNL     1     107.069  54.772 223.942  1.00  0.00     0.006 C 
BRANCH  20  21
ATOM     21  C   UNL     1     107.467  53.303 224.099  1.00  0.00     0.053 C 
BRANCH  21  22
ATOM     22  C   UNL     1     108.608  52.968 223.191  1.00  0.00     0.041 C 
ATOM     23  O   UNL     1     108.916  53.745 222.249  1.00  0.00    -0.550 OA
ATOM     24  O   UNL     1     109.301  51.775 223.354  1.00  0.00    -0.550 OA
ENDBRANCH  21  22
ENDBRANCH  20  21
ENDBRANCH  19  20
ENDBRANCH  18  19
ENDBRANCH  17  18
ENDBRANCH  16  17
ENDBRANCH  15  16
ENDBRANCH  14  15
ENDBRANCH  13  14
ENDBRANCH   1  13
TORSDOF 20
ENDMDL
MODEL 6
REMARK VINA RESULT:    -2.729     14.168     17.076
REMARK INTER + INTRA:          -9.732
REMARK INTER:                  -5.949
REMARK INTRA:                  -3.782
REMARK UNBOUND:                -3.812
REMARK SMILES CCCCCCCCCCCCCCCCCCCCCC(=O)[O-]
REMARK SMILES IDX 12 1 11 2 10 3 9 4 8 5 7 6 6 7 5 8 4 9 3 10 2 11 1 12 13 13
REMARK SMILES IDX 14 14 15 15 16 16 17 17 18 18 19 19 20 20 21 21 22 22 23 23
REMARK SMILES IDX 24 24
REMARK H PARENT
REMARK Flexibility Score: inf
ROOT
ATOM      1  C   UNL     1      98.720  64.963 228.879  1.00  0.00     0.000 C 
ENDROOT
BRANCH   1   2
ATOM      2  C   UNL     1      98.643  63.428 228.875  1.00  0.00     0.000 C 
BRANCH   2   3
ATOM      3  C   UNL     1      97.199  62.906 228.985  1.00  0.00     0.000 C 
BRANCH   3   4
ATOM      4  C   UNL     1      97.053  61.466 228.466  1.00  0.00    -0.000 C 
BRANCH   4   5
ATOM      5  C   UNL     1      98.399  60.726 228.381  1.00  0.00    -0.000 C 
BRANCH   5   6
ATOM      6  C   UNL     1      98.735  60.274 226.952  1.00  0.00    -0.000 C 
BRANCH   6   7
ATOM      7  C   UNL     1      99.655  59.044 226.923  1.00  0.00    -0.000 C 
BRANCH   7   8
ATOM      8  C   UNL     1     100.871  59.288 226.020  1.00  0.00    -0.000 C 
BRANCH   8   9
ATOM      9  C   UNL     1     101.433  60.704 226.224  1.00  0.00    -0.000 C 
BRANCH   9  10
ATOM     10  C   UNL     1     101.767  61.412 224.899  1.00  0.00    -0.000 C 
BRANCH  10  11
ATOM     11  C   UNL     1     102.892  62.458 224.990  1.00  0.00    -0.003 C 
ATOM     12  C   UNL     1     102.712  63.430 226.156  1.00  0.00     0.004 C 
ENDBRANCH  10  11
ENDBRANCH   9  10
ENDBRANCH   8   9
ENDBRANCH   7   8
ENDBRANCH   6   7
ENDBRANCH   5   6
ENDBRANCH   4   5
ENDBRANCH   3   4
ENDBRANCH   2   3
ENDBRANCH   1   2
BRANCH   1  13
ATOM     13  C   UNL     1      97.338  65.627 228.746  1.00  0.00     0.000 C 
BRANCH  13  14
ATOM     14  C   UNL     1      97.245  66.559 227.526  1.00  0.00     0.000 C 
BRANCH  14  15
ATOM     15  C   UNL     1      95.841  66.570 226.896  1.00  0.00     0.000 C 
BRANCH  15  16
ATOM     16  C   UNL     1      95.415  65.184 226.386  1.00  0.00     0.000 C 
BRANCH  16  17
ATOM     17  C   UNL     1      95.424  65.093 224.850  1.00  0.00     0.000 C 
BRANCH  17  18
ATOM     18  C   UNL     1      96.607  64.272 224.305  1.00  0.00     0.000 C 
BRANCH  18  19
ATOM     19  C   UNL     1      97.363  63.439 225.355  1.00  0.00     0.000 C 
BRANCH  19  20
ATOM     20  C   UNL     1      98.887  63.471 225.165  1.00  0.00     0.006 C 
BRANCH  20  21
ATOM     21  C   UNL     1      99.399  64.912 225.084  1.00  0.00     0.053 C 
BRANCH  21  22
ATOM     22  C   UNL     1     100.238  65.102 223.860  1.00  0.00     0.041 C 
ATOM     23  O   UNL     1     100.484  64.127 223.102  1.00  0.00    -0.550 OA
ATOM     24  O   UNL     1     100.789  66.346 223.581  1.00  0.00    -0.550 OA
ENDBRANCH  21  22
ENDBRANCH  20  21
ENDBRANCH  19  20
ENDBRANCH  18  19
ENDBRANCH  17  18
ENDBRANCH  16  17
ENDBRANCH  15  16
ENDBRANCH  14  15
ENDBRANCH  13  14
ENDBRANCH   1  13
TORSDOF 20
ENDMDL
MODEL 7
REMARK VINA RESULT:    -2.710      2.010      3.231
REMARK INTER + INTRA:          -9.691
REMARK INTER:                  -7.693
REMARK INTRA:                  -1.998
REMARK UNBOUND:                -3.812
REMARK SMILES CCCCCCCCCCCCCCCCCCCCCC(=O)[O-]
REMARK SMILES IDX 12 1 11 2 10 3 9 4 8 5 7 6 6 7 5 8 4 9 3 10 2 11 1 12 13 13
REMARK SMILES IDX 14 14 15 15 16 16 17 17 18 18 19 19 20 20 21 21 22 22 23 23
REMARK SMILES IDX 24 24
REMARK H PARENT
REMARK Flexibility Score: inf
ROOT
ATOM      1  C   UNL     1     112.639  54.624 231.036  1.00  0.00     0.000 C 
ENDROOT
BRANCH   1   2
ATOM      2  C   UNL     1     113.768  55.054 230.084  1.00  0.00     0.000 C 
BRANCH   2   3
ATOM      3  C   UNL     1     113.242  55.567 228.732  1.00  0.00     0.000 C 
BRANCH   3   4
ATOM      4  C   UNL     1     114.090  55.079 227.547  1.00  0.00    -0.000 C 
BRANCH   4   5
ATOM      5  C   UNL     1     113.234  54.576 226.372  1.00  0.00    -0.000 C 
BRANCH   5   6
ATOM      6  C   UNL     1     112.000  53.786 226.835  1.00  0.00    -0.000 C 
BRANCH   6   7
ATOM      7  C   UNL     1     111.063  53.420 225.675  1.00  0.00    -0.000 C 
BRANCH   7   8
ATOM      8  C   UNL     1     110.313  54.657 225.164  1.00  0.00    -0.000 C 
BRANCH   8   9
ATOM      9  C   UNL     1     108.811  54.366 225.013  1.00  0.00    -0.000 C 
BRANCH   9  10
ATOM     10  C   UNL     1     108.294  54.617 223.585  1.00  0.00    -0.000 C 
BRANCH  10  11
ATOM     11  C   UNL     1     108.505  53.449 222.606  1.00  0.00    -0.003 C 
ATOM     12  C   UNL     1     108.560  52.088 223.301  1.00  0.00     0.004 C 
ENDBRANCH  10  11
ENDBRANCH   9  10
ENDBRANCH   8   9
ENDBRANCH   7   8
ENDBRANCH   6   7
ENDBRANCH   5   6
ENDBRANCH   4   5
ENDBRANCH   3   4
ENDBRANCH   2   3
ENDBRANCH   1   2
BRANCH   1  13
ATOM     13  C   UNL     1     112.683  53.122 231.367  1.00  0.00     0.000 C 
BRANCH  13  14
ATOM     14  C   UNL     1     113.194  52.844 232.790  1.00  0.00     0.000 C 
BRANCH  14  15
ATOM     15  C   UNL     1     113.328  54.126 233.630  1.00  0.00     0.000 C 
BRANCH  15  16
ATOM     16  C   UNL     1     112.665  53.998 235.011  1.00  0.00     0.000 C 
BRANCH  16  17
ATOM     17  C   UNL     1     111.210  53.505 234.922  1.00  0.00     0.000 C 
BRANCH  17  18
ATOM     18  C   UNL     1     110.277  54.513 234.226  1.00  0.00     0.000 C 
BRANCH  18  19
ATOM     19  C   UNL     1     109.539  53.973 232.988  1.00  0.00     0.000 C 
BRANCH  19  20
ATOM     20  C   UNL     1     108.884  52.604 233.229  1.00  0.00     0.006 C 
BRANCH  20  21
ATOM     21  C   UNL     1     109.628  51.500 232.473  1.00  0.00     0.053 C 
BRANCH  21  22
ATOM     22  C   UNL     1     108.733  50.321 232.253  1.00  0.00     0.041 C 
ATOM     23  O   UNL     1     107.524  50.492 231.944  1.00  0.00    -0.550 OA
ATOM     24  O   UNL     1     109.221  49.034 232.436  1.00  0.00    -0.550 OA
ENDBRANCH  21  22
ENDBRANCH  20  21
ENDBRANCH  19  20
ENDBRANCH  18  19
ENDBRANCH  17  18
ENDBRANCH  16  17
ENDBRANCH  15  16
ENDBRANCH  14  15
ENDBRANCH  13  14
ENDBRANCH   1  13
TORSDOF 20
ENDMDL
MODEL 8
REMARK VINA RESULT:    -2.694     13.858     18.262
REMARK INTER + INTRA:          -9.656
REMARK INTER:                  -6.225
REMARK INTRA:                  -3.431
REMARK UNBOUND:                -3.812
REMARK SMILES CCCCCCCCCCCCCCCCCCCCCC(=O)[O-]
REMARK SMILES IDX 12 1 11 2 10 3 9 4 8 5 7 6 6 7 5 8 4 9 3 10 2 11 1 12 13 13
REMARK SMILES IDX 14 14 15 15 16 16 17 17 18 18 19 19 20 20 21 21 22 22 23 23
REMARK SMILES IDX 24 24
REMARK H PARENT
REMARK Flexibility Score: inf
ROOT
ATOM      1  C   UNL     1      94.092  54.072 223.149  1.00  0.00     0.000 C 
ENDROOT
BRANCH   1   2
ATOM      2  C   UNL     1      95.150  54.502 224.178  1.00  0.00     0.000 C 
BRANCH   2   3
ATOM      3  C   UNL     1      94.675  55.664 225.069  1.00  0.00     0.000 C 
BRANCH   3   4
ATOM      4  C   UNL     1      94.767  57.025 224.360  1.00  0.00    -0.000 C 
BRANCH   4   5
ATOM      5  C   UNL     1      96.088  57.206 223.593  1.00  0.00    -0.000 C 
BRANCH   5   6
ATOM      6  C   UNL     1      95.869  57.591 222.121  1.00  0.00    -0.000 C 
BRANCH   6   7
ATOM      7  C   UNL     1      97.167  57.554 221.302  1.00  0.00    -0.000 C 
BRANCH   7   8
ATOM      8  C   UNL     1      98.264  56.779 222.044  1.00  0.00    -0.000 C 
BRANCH   8   9
ATOM      9  C   UNL     1      99.624  56.951 221.351  1.00  0.00    -0.000 C 
BRANCH   9  10
ATOM     10  C   UNL     1     100.074  55.689 220.593  1.00  0.00    -0.000 C 
BRANCH  10  11
ATOM     11  C   UNL     1     101.530  55.718 220.096  1.00  0.00    -0.003 C 
ATOM     12  C   UNL     1     102.481  56.413 221.070  1.00  0.00     0.004 C 
ENDBRANCH  10  11
ENDBRANCH   9  10
ENDBRANCH   8   9
ENDBRANCH   7   8
ENDBRANCH   6   7
ENDBRANCH   5   6
ENDBRANCH   4   5
ENDBRANCH   3   4
ENDBRANCH   2   3
ENDBRANCH   1   2
BRANCH   1  13
ATOM     13  C   UNL     1      94.584  54.214 221.697  1.00  0.00     0.000 C 
BRANCH  13  14
ATOM     14  C   UNL     1      96.024  53.708 221.510  1.00  0.00     0.000 C 
BRANCH  14  15
ATOM     15  C   UNL     1      96.610  54.085 220.138  1.00  0.00     0.000 C 
BRANCH  15  16
ATOM     16  C   UNL     1      95.527  54.239 219.058  1.00  0.00     0.000 C 
BRANCH  16  17
ATOM     17  C   UNL     1      95.757  55.468 218.163  1.00  0.00     0.000 C 
BRANCH  17  18
ATOM     18  C   UNL     1      97.153  56.092 218.349  1.00  0.00     0.000 C 
BRANCH  18  19
ATOM     19  C   UNL     1      97.989  56.217 217.063  1.00  0.00     0.000 C 
BRANCH  19  20
ATOM     20  C   UNL     1      98.546  57.631 216.843  1.00  0.00     0.006 C 
BRANCH  20  21
ATOM     21  C   UNL     1      99.874  57.819 217.583  1.00  0.00     0.053 C 
BRANCH  21  22
ATOM     22  C   UNL     1      99.848  59.075 218.395  1.00  0.00     0.041 C 
ATOM     23  O   UNL     1      98.750  59.622 218.681  1.00  0.00    -0.550 OA
ATOM     24  O   UNL     1     101.038  59.667 218.798  1.00  0.00    -0.550 OA
ENDBRANCH  21  22
ENDBRANCH  20  21
ENDBRANCH  19  20
ENDBRANCH  18  19
ENDBRANCH  17  18
ENDBRANCH  16  17
ENDBRANCH  15  16
ENDBRANCH  14  15
ENDBRANCH  13  14
ENDBRANCH   1  13
TORSDOF 20
ENDMDL
MODEL 9
REMARK VINA RESULT:    -2.661      1.376      2.937
REMARK INTER + INTRA:          -9.583
REMARK INTER:                  -6.151
REMARK INTRA:                  -3.432
REMARK UNBOUND:                -3.812
REMARK SMILES CCCCCCCCCCCCCCCCCCCCCC(=O)[O-]
REMARK SMILES IDX 12 1 11 2 10 3 9 4 8 5 7 6 6 7 5 8 4 9 3 10 2 11 1 12 13 13
REMARK SMILES IDX 14 14 15 15 16 16 17 17 18 18 19 19 20 20 21 21 22 22 23 23
REMARK SMILES IDX 24 24
REMARK H PARENT
REMARK Flexibility Score: inf
ROOT
ATOM      1  C   UNL     1     110.481  57.018 231.229  1.00  0.00     0.000 C 
ENDROOT
BRANCH   1   2
ATOM      2  C   UNL     1     110.462  57.732 229.867  1.00  0.00     0.000 C 
BRANCH   2   3
ATOM      3  C   UNL     1     109.749  56.912 228.777  1.00  0.00     0.000 C 
BRANCH   3   4
ATOM      4  C   UNL     1     110.668  55.856 228.140  1.00  0.00    -0.000 C 
BRANCH   4   5
ATOM      5  C   UNL     1     111.653  56.461 227.125  1.00  0.00    -0.000 C 
BRANCH   5   6
ATOM      6  C   UNL     1     112.055  55.465 226.026  1.00  0.00    -0.000 C 
BRANCH   6   7
ATOM      7  C   UNL     1     111.821  54.004 226.439  1.00  0.00    -0.000 C 
BRANCH   7   8
ATOM      8  C   UNL     1     110.971  53.268 225.396  1.00  0.00    -0.000 C 
BRANCH   8   9
ATOM      9  C   UNL     1     109.556  53.863 225.319  1.00  0.00    -0.000 C 
BRANCH   9  10
ATOM     10  C   UNL     1     109.304  54.643 224.016  1.00  0.00    -0.000 C 
BRANCH  10  11
ATOM     11  C   UNL     1     108.393  55.874 224.166  1.00  0.00    -0.003 C 
ATOM     12  C   UNL     1     107.926  56.102 225.603  1.00  0.00     0.004 C 
ENDBRANCH  10  11
ENDBRANCH   9  10
ENDBRANCH   8   9
ENDBRANCH   7   8
ENDBRANCH   6   7
ENDBRANCH   5   6
ENDBRANCH   4   5
ENDBRANCH   3   4
ENDBRANCH   2   3
ENDBRANCH   1   2
BRANCH   1  13
ATOM     13  C   UNL     1     111.893  56.936 231.835  1.00  0.00     0.000 C 
BRANCH  13  14
ATOM     14  C   UNL     1     112.922  57.770 231.053  1.00  0.00     0.000 C 
BRANCH  14  15
ATOM     15  C   UNL     1     113.779  56.914 230.105  1.00  0.00     0.000 C 
BRANCH  15  16
ATOM     16  C   UNL     1     114.049  55.507 230.663  1.00  0.00     0.000 C 
BRANCH  16  17
ATOM     17  C   UNL     1     113.377  54.404 229.828  1.00  0.00     0.000 C 
BRANCH  17  18
ATOM     18  C   UNL     1     112.548  53.427 230.683  1.00  0.00     0.000 C 
BRANCH  18  19
ATOM     19  C   UNL     1     113.029  53.258 232.135  1.00  0.00     0.000 C 
BRANCH  19  20
ATOM     20  C   UNL     1     111.885  53.317 233.158  1.00  0.00     0.006 C 
BRANCH  20  21
ATOM     21  C   UNL     1     110.524  53.336 232.458  1.00  0.00     0.053 C 
BRANCH  21  22
ATOM     22  C   UNL     1     109.616  52.303 233.049  1.00  0.00     0.041 C 
ATOM     23  O   UNL     1     109.574  51.143 232.562  1.00  0.00    -0.550 OA
ATOM     24  O   UNL     1     108.782  52.636 234.109  1.00  0.00    -0.550 OA
ENDBRANCH  21  22
ENDBRANCH  20  21
ENDBRANCH  19  20
ENDBRANCH  18  19
ENDBRANCH  17  18
ENDBRANCH  16  17
ENDBRANCH  15  16
ENDBRANCH  14  15
ENDBRANCH  13  14
ENDBRANCH   1  13
TORSDOF 20
ENDMDL
