MODEL 1
REMARK VINA RESULT:    -3.897      0.000      0.000
REMARK INTER + INTRA:          -7.244
REMARK INTER:                  -6.176
REMARK INTRA:                  -1.069
REMARK UNBOUND:                -1.069
REMARK SMILES CCCCCCCCCCCC(=O)[O-]
REMARK SMILES IDX 7 1 8 2 9 3 10 4 11 5 12 6 13 7 14 8 6 9 5 10 4 11 3 12 2 13
REMARK SMILES IDX 1 14
REMARK H PARENT
REMARK Flexibility Score: inf
ROOT
ATOM      1  C   UNL     1      -8.343  -4.540   6.325  1.00  0.00     0.000 C 
ENDROOT
BRANCH   1   2
ATOM      2  C   UNL     1      -8.703  -3.051   6.294  1.00  0.00     0.000 C 
BRANCH   2   3
ATOM      3  C   UNL     1      -7.649  -2.213   7.027  1.00  0.00     0.000 C 
BRANCH   3   4
ATOM      4  C   UNL     1      -7.152  -1.060   6.147  1.00  0.00     0.006 C 
BRANCH   4   5
ATOM      5  C   UNL     1      -5.767  -0.584   6.596  1.00  0.00     0.053 C 
BRANCH   5   6
ATOM      6  C   UNL     1      -5.847   0.800   7.159  1.00  0.00     0.041 C 
ATOM      7  O   UNL     1      -6.954   1.272   7.528  1.00  0.00    -0.550 OA
ATOM      8  O   UNL     1      -4.704   1.588   7.232  1.00  0.00    -0.550 OA
ENDBRANCH   5   6
ENDBRANCH   4   5
ENDBRANCH   3   4
ENDBRANCH   2   3
ENDBRANCH   1   2
BRANCH   1   9
ATOM      9  C   UNL     1      -7.052  -4.810   5.544  1.00  0.00     0.000 C 
BRANCH   9  10
ATOM     10  C   UNL     1      -5.961  -5.376   6.461  1.00  0.00    -0.000 C 
BRANCH  10  11
ATOM     11  C   UNL     1      -4.564  -5.092   5.896  1.00  0.00    -0.000 C 
BRANCH  11  12
ATOM     12  C   UNL     1      -4.572  -3.829   5.021  1.00  0.00    -0.000 C 
BRANCH  12  13
ATOM     13  C   UNL     1      -3.403  -2.883   5.339  1.00  0.00    -0.003 C 
ATOM     14  C   UNL     1      -2.399  -3.491   6.317  1.00  0.00     0.004 C 
ENDBRANCH  12  13
ENDBRANCH  11  12
ENDBRANCH  10  11
ENDBRANCH   9  10
ENDBRANCH   1   9
TORSDOF 10
ENDMDL
MODEL 2
REMARK VINA RESULT:    -3.816      1.027      3.258
REMARK INTER + INTRA:          -7.116
REMARK INTER:                  -5.667
REMARK INTRA:                  -1.449
REMARK UNBOUND:                -1.069
REMARK SMILES CCCCCCCCCCCC(=O)[O-]
REMARK SMILES IDX 7 1 8 2 9 3 10 4 11 5 12 6 13 7 14 8 6 9 5 10 4 11 3 12 2 13
REMARK SMILES IDX 1 14
REMARK H PARENT
REMARK Flexibility Score: inf
ROOT
ATOM      1  C   UNL     1      -4.579  -3.600   4.753  1.00  0.00     0.000 C 
ENDROOT
BRANCH   1   2
ATOM      2  C   UNL     1      -4.773  -2.281   5.509  1.00  0.00     0.000 C 
BRANCH   2   3
ATOM      3  C   UNL     1      -6.247  -1.862   5.517  1.00  0.00     0.000 C 
BRANCH   3   4
ATOM      4  C   UNL     1      -6.697  -1.456   6.926  1.00  0.00     0.006 C 
BRANCH   4   5
ATOM      5  C   UNL     1      -5.586  -0.702   7.661  1.00  0.00     0.053 C 
BRANCH   5   6
ATOM      6  C   UNL     1      -5.741   0.774   7.474  1.00  0.00     0.041 C 
ATOM      7  O   UNL     1      -4.734   1.494   7.243  1.00  0.00    -0.550 OA
ATOM      8  O   UNL     1      -6.993   1.363   7.604  1.00  0.00    -0.550 OA
ENDBRANCH   5   6
ENDBRANCH   4   5
ENDBRANCH   3   4
ENDBRANCH   2   3
ENDBRANCH   1   2
BRANCH   1   9
ATOM      9  C   UNL     1      -3.806  -4.615   5.604  1.00  0.00     0.000 C 
BRANCH   9  10
ATOM     10  C   UNL     1      -4.447  -4.775   6.988  1.00  0.00    -0.000 C 
BRANCH  10  11
ATOM     11  C   UNL     1      -5.552  -5.838   6.964  1.00  0.00    -0.000 C 
BRANCH  11  12
ATOM     12  C   UNL     1      -6.937  -5.195   7.126  1.00  0.00    -0.000 C 
BRANCH  12  13
ATOM     13  C   UNL     1      -7.740  -5.182   5.816  1.00  0.00    -0.003 C 
ATOM     14  C   UNL     1      -9.033  -4.373   5.922  1.00  0.00     0.004 C 
ENDBRANCH  12  13
ENDBRANCH  11  12
ENDBRANCH  10  11
ENDBRANCH   9  10
ENDBRANCH   1   9
TORSDOF 10
ENDMDL
MODEL 3
REMARK VINA RESULT:    -3.743      0.926      3.316
REMARK INTER + INTRA:          -7.000
REMARK INTER:                  -5.578
REMARK INTRA:                  -1.422
REMARK UNBOUND:                -1.069
REMARK SMILES CCCCCCCCCCCC(=O)[O-]
REMARK SMILES IDX 7 1 8 2 9 3 10 4 11 5 12 6 13 7 14 8 6 9 5 10 4 11 3 12 2 13
REMARK SMILES IDX 1 14
REMARK H PARENT
REMARK Flexibility Score: inf
ROOT
ATOM      1  C   UNL     1      -4.390  -3.967   5.008  1.00  0.00     0.000 C 
ENDROOT
BRANCH   1   2
ATOM      2  C   UNL     1      -4.011  -2.550   5.450  1.00  0.00     0.000 C 
BRANCH   2   3
ATOM      3  C   UNL     1      -3.961  -2.444   6.979  1.00  0.00     0.000 C 
BRANCH   3   4
ATOM      4  C   UNL     1      -5.103  -1.568   7.508  1.00  0.00     0.006 C 
BRANCH   4   5
ATOM      5  C   UNL     1      -5.496  -0.499   6.484  1.00  0.00     0.053 C 
BRANCH   5   6
ATOM      6  C   UNL     1      -5.687   0.824   7.155  1.00  0.00     0.041 C 
ATOM      7  O   UNL     1      -6.840   1.209   7.482  1.00  0.00    -0.550 OA
ATOM      8  O   UNL     1      -4.596   1.655   7.376  1.00  0.00    -0.550 OA
ENDBRANCH   5   6
ENDBRANCH   4   5
ENDBRANCH   3   4
ENDBRANCH   2   3
ENDBRANCH   1   2
BRANCH   1   9
ATOM      9  C   UNL     1      -4.466  -4.917   6.209  1.00  0.00     0.000 C 
BRANCH   9  10
ATOM     10  C   UNL     1      -5.796  -5.680   6.225  1.00  0.00    -0.000 C 
BRANCH  10  11
ATOM     11  C   UNL     1      -6.803  -5.013   7.169  1.00  0.00    -0.000 C 
BRANCH  11  12
ATOM     12  C   UNL     1      -8.083  -4.618   6.418  1.00  0.00    -0.000 C 
BRANCH  12  13
ATOM     13  C   UNL     1      -8.041  -3.171   5.901  1.00  0.00    -0.003 C 
ATOM     14  C   UNL     1      -8.757  -2.191   6.830  1.00  0.00     0.004 C 
ENDBRANCH  12  13
ENDBRANCH  11  12
ENDBRANCH  10  11
ENDBRANCH   9  10
ENDBRANCH   1   9
TORSDOF 10
ENDMDL
MODEL 4
REMARK VINA RESULT:    -3.685      1.371      2.856
REMARK INTER + INTRA:          -6.908
REMARK INTER:                  -5.545
REMARK INTRA:                  -1.363
REMARK UNBOUND:                -1.069
REMARK SMILES CCCCCCCCCCCC(=O)[O-]
REMARK SMILES IDX 7 1 8 2 9 3 10 4 11 5 12 6 13 7 14 8 6 9 5 10 4 11 3 12 2 13
REMARK SMILES IDX 1 14
REMARK H PARENT
REMARK Flexibility Score: inf
ROOT
ATOM      1  C   UNL     1      -4.809  -3.204   4.898  1.00  0.00     0.000 C 
ENDROOT
BRANCH   1   2
ATOM      2  C   UNL     1      -5.527  -1.924   5.339  1.00  0.00     0.000 C 
BRANCH   2   3
ATOM      3  C   UNL     1      -6.897  -2.243   5.950  1.00  0.00     0.000 C 
BRANCH   3   4
ATOM      4  C   UNL     1      -7.130  -1.435   7.233  1.00  0.00     0.006 C 
BRANCH   4   5
ATOM      5  C   UNL     1      -5.836  -0.759   7.698  1.00  0.00     0.053 C 
BRANCH   5   6
ATOM      6  C   UNL     1      -5.913   0.720   7.487  1.00  0.00     0.041 C 
ATOM      7  O   UNL     1      -7.028   1.304   7.481  1.00  0.00    -0.550 OA
ATOM      8  O   UNL     1      -4.754   1.449   7.248  1.00  0.00    -0.550 OA
ENDBRANCH   5   6
ENDBRANCH   4   5
ENDBRANCH   3   4
ENDBRANCH   2   3
ENDBRANCH   1   2
BRANCH   1   9
ATOM      9  C   UNL     1      -3.369  -3.236   5.424  1.00  0.00     0.000 C 
BRANCH   9  10
ATOM     10  C   UNL     1      -3.343  -3.336   6.954  1.00  0.00    -0.000 C 
BRANCH  10  11
ATOM     11  C   UNL     1      -3.740  -4.742   7.421  1.00  0.00    -0.000 C 
BRANCH  11  12
ATOM     12  C   UNL     1      -5.107  -4.724   8.121  1.00  0.00    -0.000 C 
BRANCH  12  13
ATOM     13  C   UNL     1      -6.130  -5.649   7.443  1.00  0.00    -0.003 C 
ATOM     14  C   UNL     1      -5.474  -6.802   6.684  1.00  0.00     0.004 C 
ENDBRANCH  12  13
ENDBRANCH  11  12
ENDBRANCH  10  11
ENDBRANCH   9  10
ENDBRANCH   1   9
TORSDOF 10
ENDMDL
MODEL 5
REMARK VINA RESULT:    -3.573      2.952      4.893
REMARK INTER + INTRA:          -6.730
REMARK INTER:                  -5.563
REMARK INTRA:                  -1.168
REMARK UNBOUND:                -1.069
REMARK SMILES CCCCCCCCCCCC(=O)[O-]
REMARK SMILES IDX 7 1 8 2 9 3 10 4 11 5 12 6 13 7 14 8 6 9 5 10 4 11 3 12 2 13
REMARK SMILES IDX 1 14
REMARK H PARENT
REMARK Flexibility Score: inf
ROOT
ATOM      1  C   UNL     1      -7.031  -1.035   5.888  1.00  0.00     0.000 C 
ENDROOT
BRANCH   1   2
ATOM      2  C   UNL     1      -5.537  -0.694   5.895  1.00  0.00     0.000 C 
BRANCH   2   3
ATOM      3  C   UNL     1      -4.719  -1.816   6.546  1.00  0.00     0.000 C 
BRANCH   3   4
ATOM      4  C   UNL     1      -4.070  -2.712   5.484  1.00  0.00     0.006 C 
BRANCH   4   5
ATOM      5  C   UNL     1      -2.746  -3.292   5.990  1.00  0.00     0.053 C 
BRANCH   5   6
ATOM      6  C   UNL     1      -2.875  -4.764   6.225  1.00  0.00     0.041 C 
ATOM      7  O   UNL     1      -3.451  -5.193   7.259  1.00  0.00    -0.550 OA
ATOM      8  O   UNL     1      -2.315  -5.663   5.326  1.00  0.00    -0.550 OA
ENDBRANCH   5   6
ENDBRANCH   4   5
ENDBRANCH   3   4
ENDBRANCH   2   3
ENDBRANCH   1   2
BRANCH   1   9
ATOM      9  C   UNL     1      -7.438  -1.755   7.179  1.00  0.00     0.000 C 
BRANCH   9  10
ATOM     10  C   UNL     1      -8.550  -2.776   6.913  1.00  0.00    -0.000 C 
BRANCH  10  11
ATOM     11  C   UNL     1      -8.222  -4.129   7.556  1.00  0.00    -0.000 C 
BRANCH  11  12
ATOM     12  C   UNL     1      -6.949  -4.734   6.944  1.00  0.00    -0.000 C 
BRANCH  12  13
ATOM     13  C   UNL     1      -7.033  -4.862   5.415  1.00  0.00    -0.003 C 
ATOM     14  C   UNL     1      -8.101  -5.858   4.962  1.00  0.00     0.004 C 
ENDBRANCH  12  13
ENDBRANCH  11  12
ENDBRANCH  10  11
ENDBRANCH   9  10
ENDBRANCH   1   9
TORSDOF 10
ENDMDL
MODEL 6
REMARK VINA RESULT:    -3.523      2.241      4.265
REMARK INTER + INTRA:          -6.651
REMARK INTER:                  -5.328
REMARK INTRA:                  -1.323
REMARK UNBOUND:                -1.069
REMARK SMILES CCCCCCCCCCCC(=O)[O-]
REMARK SMILES IDX 7 1 8 2 9 3 10 4 11 5 12 6 13 7 14 8 6 9 5 10 4 11 3 12 2 13
REMARK SMILES IDX 1 14
REMARK H PARENT
REMARK Flexibility Score: inf
ROOT
ATOM      1  C   UNL     1      -6.833  -5.006   6.670  1.00  0.00     0.000 C 
ENDROOT
BRANCH   1   2
ATOM      2  C   UNL     1      -5.469  -5.092   5.976  1.00  0.00     0.000 C 
BRANCH   2   3
ATOM      3  C   UNL     1      -5.359  -4.060   4.847  1.00  0.00     0.000 C 
BRANCH   3   4
ATOM      4  C   UNL     1      -4.102  -3.197   5.012  1.00  0.00     0.006 C 
BRANCH   4   5
ATOM      5  C   UNL     1      -3.188  -3.759   6.105  1.00  0.00     0.053 C 
BRANCH   5   6
ATOM      6  C   UNL     1      -1.933  -2.952   6.204  1.00  0.00     0.041 C 
ATOM      7  O   UNL     1      -1.047  -3.044   5.314  1.00  0.00    -0.550 OA
ATOM      8  O   UNL     1      -1.718  -2.134   7.307  1.00  0.00    -0.550 OA
ENDBRANCH   5   6
ENDBRANCH   4   5
ENDBRANCH   3   4
ENDBRANCH   2   3
ENDBRANCH   1   2
BRANCH   1   9
ATOM      9  C   UNL     1      -7.750  -4.002   5.960  1.00  0.00     0.000 C 
BRANCH   9  10
ATOM     10  C   UNL     1      -8.284  -2.954   6.942  1.00  0.00    -0.000 C 
BRANCH  10  11
ATOM     11  C   UNL     1      -7.196  -1.937   7.309  1.00  0.00    -0.000 C 
BRANCH  11  12
ATOM     12  C   UNL     1      -7.006  -0.907   6.185  1.00  0.00    -0.000 C 
BRANCH  12  13
ATOM     13  C   UNL     1      -5.636  -0.212   6.247  1.00  0.00    -0.003 C 
ATOM     14  C   UNL     1      -5.052  -0.181   7.659  1.00  0.00     0.004 C 
ENDBRANCH  12  13
ENDBRANCH  11  12
ENDBRANCH  10  11
ENDBRANCH   9  10
ENDBRANCH   1   9
TORSDOF 10
ENDMDL
MODEL 7
REMARK VINA RESULT:    -3.506      5.366      6.807
REMARK INTER + INTRA:          -6.623
REMARK INTER:                  -5.990
REMARK INTRA:                  -0.634
REMARK UNBOUND:                -1.069
REMARK SMILES CCCCCCCCCCCC(=O)[O-]
REMARK SMILES IDX 7 1 8 2 9 3 10 4 11 5 12 6 13 7 14 8 6 9 5 10 4 11 3 12 2 13
REMARK SMILES IDX 1 14
REMARK H PARENT
REMARK Flexibility Score: inf
ROOT
ATOM      1  C   UNL     1      -4.455  -9.044   5.488  1.00  0.00     0.000 C 
ENDROOT
BRANCH   1   2
ATOM      2  C   UNL     1      -5.741  -8.689   6.243  1.00  0.00     0.000 C 
BRANCH   2   3
ATOM      3  C   UNL     1      -5.522  -7.486   7.168  1.00  0.00     0.000 C 
BRANCH   3   4
ATOM      4  C   UNL     1      -5.411  -6.186   6.363  1.00  0.00     0.006 C 
BRANCH   4   5
ATOM      5  C   UNL     1      -4.217  -5.349   6.833  1.00  0.00     0.053 C 
BRANCH   5   6
ATOM      6  C   UNL     1      -3.286  -5.080   5.694  1.00  0.00     0.041 C 
ATOM      7  O   UNL     1      -2.466  -5.960   5.322  1.00  0.00    -0.550 OA
ATOM      8  O   UNL     1      -3.288  -3.837   5.073  1.00  0.00    -0.550 OA
ENDBRANCH   5   6
ENDBRANCH   4   5
ENDBRANCH   3   4
ENDBRANCH   2   3
ENDBRANCH   1   2
BRANCH   1   9
ATOM      9  C   UNL     1      -4.604 -10.375   4.742  1.00  0.00     0.000 C 
BRANCH   9  10
ATOM     10  C   UNL     1      -3.348 -10.690   3.921  1.00  0.00    -0.000 C 
BRANCH  10  11
ATOM     11  C   UNL     1      -2.631  -9.403   3.495  1.00  0.00    -0.000 C 
BRANCH  11  12
ATOM     12  C   UNL     1      -1.960  -9.575   2.124  1.00  0.00    -0.000 C 
BRANCH  12  13
ATOM     13  C   UNL     1      -2.480 -10.804   1.362  1.00  0.00    -0.003 C 
ATOM     14  C   UNL     1      -2.297 -10.684  -0.151  1.00  0.00     0.004 C 
ENDBRANCH  12  13
ENDBRANCH  11  12
ENDBRANCH  10  11
ENDBRANCH   9  10
ENDBRANCH   1   9
TORSDOF 10
ENDMDL
MODEL 8
REMARK VINA RESULT:    -3.497      3.005      5.013
REMARK INTER + INTRA:          -6.611
REMARK INTER:                  -5.295
REMARK INTRA:                  -1.315
REMARK UNBOUND:                -1.069
REMARK SMILES CCCCCCCCCCCC(=O)[O-]
REMARK SMILES IDX 7 1 8 2 9 3 10 4 11 5 12 6 13 7 14 8 6 9 5 10 4 11 3 12 2 13
REMARK SMILES IDX 1 14
REMARK H PARENT
REMARK Flexibility Score: inf
ROOT
ATOM      1  C   UNL     1      -6.820  -1.583   5.484  1.00  0.00     0.000 C 
ENDROOT
BRANCH   1   2
ATOM      2  C   UNL     1      -5.296  -1.546   5.631  1.00  0.00     0.000 C 
BRANCH   2   3
ATOM      3  C   UNL     1      -4.865  -2.001   7.030  1.00  0.00     0.000 C 
BRANCH   3   4
ATOM      4  C   UNL     1      -3.429  -2.540   7.017  1.00  0.00     0.006 C 
BRANCH   4   5
ATOM      5  C   UNL     1      -3.176  -3.398   5.774  1.00  0.00     0.053 C 
BRANCH   5   6
ATOM      6  C   UNL     1      -2.917  -4.819   6.164  1.00  0.00     0.041 C 
ATOM      7  O   UNL     1      -2.366  -5.609   5.353  1.00  0.00    -0.550 OA
ATOM      8  O   UNL     1      -3.328  -5.285   7.407  1.00  0.00    -0.550 OA
ENDBRANCH   5   6
ENDBRANCH   4   5
ENDBRANCH   3   4
ENDBRANCH   2   3
ENDBRANCH   1   2
BRANCH   1   9
ATOM      9  C   UNL     1      -7.510  -1.329   6.830  1.00  0.00     0.000 C 
BRANCH   9  10
ATOM     10  C   UNL     1      -8.805  -2.141   6.948  1.00  0.00    -0.000 C 
BRANCH  10  11
ATOM     11  C   UNL     1      -8.513  -3.583   7.380  1.00  0.00    -0.000 C 
BRANCH  11  12
ATOM     12  C   UNL     1      -9.065  -4.586   6.355  1.00  0.00    -0.000 C 
BRANCH  12  13
ATOM     13  C   UNL     1      -7.983  -5.100   5.391  1.00  0.00    -0.003 C 
ATOM     14  C   UNL     1      -6.621  -5.264   6.063  1.00  0.00     0.004 C 
ENDBRANCH  12  13
ENDBRANCH  11  12
ENDBRANCH  10  11
ENDBRANCH   9  10
ENDBRANCH   1   9
TORSDOF 10
ENDMDL
MODEL 9
REMARK VINA RESULT:    -3.286      2.481      4.720
REMARK INTER + INTRA:          -6.275
REMARK INTER:                  -4.967
REMARK INTRA:                  -1.308
REMARK UNBOUND:                -1.069
REMARK SMILES CCCCCCCCCCCC(=O)[O-]
REMARK SMILES IDX 7 1 8 2 9 3 10 4 11 5 12 6 13 7 14 8 6 9 5 10 4 11 3 12 2 13
REMARK SMILES IDX 1 14
REMARK H PARENT
REMARK Flexibility Score: inf
ROOT
ATOM      1  C   UNL     1      -7.051  -1.436   5.968  1.00  0.00     0.000 C 
ENDROOT
BRANCH   1   2
ATOM      2  C   UNL     1      -5.739  -2.150   6.310  1.00  0.00     0.000 C 
BRANCH   2   3
ATOM      3  C   UNL     1      -5.148  -2.839   5.075  1.00  0.00     0.000 C 
BRANCH   3   4
ATOM      4  C   UNL     1      -4.201  -3.976   5.478  1.00  0.00     0.006 C 
BRANCH   4   5
ATOM      5  C   UNL     1      -3.446  -3.631   6.765  1.00  0.00     0.053 C 
BRANCH   5   6
ATOM      6  C   UNL     1      -2.133  -2.989   6.445  1.00  0.00     0.041 C 
ATOM      7  O   UNL     1      -1.548  -3.245   5.360  1.00  0.00    -0.550 OA
ATOM      8  O   UNL     1      -1.531  -2.142   7.368  1.00  0.00    -0.550 OA
ENDBRANCH   5   6
ENDBRANCH   4   5
ENDBRANCH   3   4
ENDBRANCH   2   3
ENDBRANCH   1   2
BRANCH   1   9
ATOM      9  C   UNL     1      -8.146  -1.778   6.985  1.00  0.00     0.000 C 
BRANCH   9  10
ATOM     10  C   UNL     1      -9.420  -2.260   6.282  1.00  0.00    -0.000 C 
BRANCH  10  11
ATOM     11  C   UNL     1      -9.500  -3.792   6.275  1.00  0.00    -0.000 C 
BRANCH  11  12
ATOM     12  C   UNL     1      -8.550  -4.396   7.321  1.00  0.00    -0.000 C 
BRANCH  12  13
ATOM     13  C   UNL     1      -7.555  -5.394   6.708  1.00  0.00    -0.003 C 
ATOM     14  C   UNL     1      -7.725  -5.546   5.197  1.00  0.00     0.004 C 
ENDBRANCH  12  13
ENDBRANCH  11  12
ENDBRANCH  10  11
ENDBRANCH   9  10
ENDBRANCH   1   9
TORSDOF 10
ENDMDL
