MODEL 1
REMARK VINA RESULT:    -3.053      0.000      0.000
REMARK INTER + INTRA:          -7.295
REMARK INTER:                  -5.552
REMARK INTRA:                  -1.742
REMARK UNBOUND:                -1.742
REMARK SMILES CCCCCCCCCCCCCCCC(=O)[O-]
REMARK SMILES IDX 9 1 10 2 11 3 12 4 13 5 14 6 15 7 16 8 17 9 18 10 8 11 7 12
REMARK SMILES IDX 6 13 5 14 4 15 3 16 2 17 1 18
REMARK H PARENT
REMARK Flexibility Score: inf
ROOT
ATOM      1  C   UNL     1       2.115  19.341  10.444  1.00  0.00     0.000 C 
ENDROOT
BRANCH   1   2
ATOM      2  C   UNL     1       2.759  18.603  11.626  1.00  0.00     0.000 C 
BRANCH   2   3
ATOM      3  C   UNL     1       3.767  17.528  11.182  1.00  0.00     0.000 C 
BRANCH   3   4
ATOM      4  C   UNL     1       4.098  17.523   9.676  1.00  0.00     0.000 C 
BRANCH   4   5
ATOM      5  C   UNL     1       4.724  16.219   9.151  1.00  0.00     0.000 C 
BRANCH   5   6
ATOM      6  C   UNL     1       3.967  15.637   7.945  1.00  0.00     0.006 C 
BRANCH   6   7
ATOM      7  C   UNL     1       4.852  15.549   6.695  1.00  0.00     0.053 C 
BRANCH   7   8
ATOM      8  C   UNL     1       4.677  14.242   5.984  1.00  0.00     0.041 C 
ATOM      9  O   UNL     1       3.689  13.506   6.243  1.00  0.00    -0.550 OA
ATOM     10  O   UNL     1       5.624  13.821   5.060  1.00  0.00    -0.550 OA
ENDBRANCH   7   8
ENDBRANCH   6   7
ENDBRANCH   5   6
ENDBRANCH   4   5
ENDBRANCH   3   4
ENDBRANCH   2   3
ENDBRANCH   1   2
BRANCH   1  11
ATOM     11  C   UNL     1       1.328  20.567  10.925  1.00  0.00     0.000 C 
BRANCH  11  12
ATOM     12  C   UNL     1       0.590  21.239   9.761  1.00  0.00    -0.000 C 
BRANCH  12  13
ATOM     13  C   UNL     1       1.470  21.280   8.503  1.00  0.00    -0.000 C 
BRANCH  13  14
ATOM     14  C   UNL     1       0.737  20.790   7.241  1.00  0.00    -0.000 C 
BRANCH  14  15
ATOM     15  C   UNL     1       1.636  20.143   6.170  1.00  0.00    -0.000 C 
BRANCH  15  16
ATOM     16  C   UNL     1       2.588  19.083   6.748  1.00  0.00    -0.000 C 
BRANCH  16  17
ATOM     17  C   UNL     1       4.022  19.226   6.214  1.00  0.00    -0.003 C 
ATOM     18  C   UNL     1       4.931  20.013   7.159  1.00  0.00     0.004 C 
ENDBRANCH  16  17
ENDBRANCH  15  16
ENDBRANCH  14  15
ENDBRANCH  13  14
ENDBRANCH  12  13
ENDBRANCH  11  12
ENDBRANCH   1  11
TORSDOF 14
ENDMDL
MODEL 2
REMARK VINA RESULT:    -3.052      1.151      3.330
REMARK INTER + INTRA:          -7.293
REMARK INTER:                  -5.351
REMARK INTRA:                  -1.941
REMARK UNBOUND:                -1.742
REMARK SMILES CCCCCCCCCCCCCCCC(=O)[O-]
REMARK SMILES IDX 9 1 10 2 11 3 12 4 13 5 14 6 15 7 16 8 17 9 18 10 8 11 7 12
REMARK SMILES IDX 6 13 5 14 4 15 3 16 2 17 1 18
REMARK H PARENT
REMARK Flexibility Score: inf
ROOT
ATOM      1  C   UNL     1       3.210  20.216   5.384  1.00  0.00     0.000 C 
ENDROOT
BRANCH   1   2
ATOM      2  C   UNL     1       3.262  19.091   6.428  1.00  0.00     0.000 C 
BRANCH   2   3
ATOM      3  C   UNL     1       4.615  19.015   7.158  1.00  0.00     0.000 C 
BRANCH   3   4
ATOM      4  C   UNL     1       5.128  17.589   7.440  1.00  0.00     0.000 C 
BRANCH   4   5
ATOM      5  C   UNL     1       4.031  16.517   7.571  1.00  0.00     0.000 C 
BRANCH   5   6
ATOM      6  C   UNL     1       4.324  15.496   8.683  1.00  0.00     0.006 C 
BRANCH   6   7
ATOM      7  C   UNL     1       5.142  14.303   8.170  1.00  0.00     0.053 C 
BRANCH   7   8
ATOM      8  C   UNL     1       4.726  13.900   6.788  1.00  0.00     0.041 C 
ATOM      9  O   UNL     1       3.646  13.279   6.606  1.00  0.00    -0.550 OA
ATOM     10  O   UNL     1       5.550  14.179   5.706  1.00  0.00    -0.550 OA
ENDBRANCH   7   8
ENDBRANCH   6   7
ENDBRANCH   5   6
ENDBRANCH   4   5
ENDBRANCH   3   4
ENDBRANCH   2   3
ENDBRANCH   1   2
BRANCH   1  11
ATOM     11  C   UNL     1       1.795  20.798   5.275  1.00  0.00     0.000 C 
BRANCH  11  12
ATOM     12  C   UNL     1       0.846  20.132   6.279  1.00  0.00    -0.000 C 
BRANCH  12  13
ATOM     13  C   UNL     1       0.052  21.186   7.066  1.00  0.00    -0.000 C 
BRANCH  13  14
ATOM     14  C   UNL     1       0.478  21.281   8.542  1.00  0.00    -0.000 C 
BRANCH  14  15
ATOM     15  C   UNL     1       1.858  21.920   8.785  1.00  0.00    -0.000 C 
BRANCH  15  16
ATOM     16  C   UNL     1       2.804  21.015   9.592  1.00  0.00    -0.000 C 
BRANCH  16  17
ATOM     17  C   UNL     1       2.084  19.792  10.183  1.00  0.00    -0.003 C 
ATOM     18  C   UNL     1       3.043  18.655  10.539  1.00  0.00     0.004 C 
ENDBRANCH  16  17
ENDBRANCH  15  16
ENDBRANCH  14  15
ENDBRANCH  13  14
ENDBRANCH  12  13
ENDBRANCH  11  12
ENDBRANCH   1  11
TORSDOF 14
ENDMDL
MODEL 3
REMARK VINA RESULT:    -2.992      1.176      3.380
REMARK INTER + INTRA:          -7.183
REMARK INTER:                  -5.292
REMARK INTRA:                  -1.891
REMARK UNBOUND:                -1.742
REMARK SMILES CCCCCCCCCCCCCCCC(=O)[O-]
REMARK SMILES IDX 9 1 10 2 11 3 12 4 13 5 14 6 15 7 16 8 17 9 18 10 8 11 7 12
REMARK SMILES IDX 6 13 5 14 4 15 3 16 2 17 1 18
REMARK H PARENT
REMARK Flexibility Score: inf
ROOT
ATOM      1  C   UNL     1       4.716  18.675   6.672  1.00  0.00     0.000 C 
ENDROOT
BRANCH   1   2
ATOM      2  C   UNL     1       5.568  18.439   7.927  1.00  0.00     0.000 C 
BRANCH   2   3
ATOM      3  C   UNL     1       6.172  17.024   7.982  1.00  0.00     0.000 C 
BRANCH   3   4
ATOM      4  C   UNL     1       5.774  16.190   9.217  1.00  0.00     0.000 C 
BRANCH   4   5
ATOM      5  C   UNL     1       4.406  15.492   9.118  1.00  0.00     0.000 C 
BRANCH   5   6
ATOM      6  C   UNL     1       4.055  15.067   7.683  1.00  0.00     0.006 C 
BRANCH   6   7
ATOM      7  C   UNL     1       4.616  13.682   7.337  1.00  0.00     0.053 C 
BRANCH   7   8
ATOM      8  C   UNL     1       4.252  13.271   5.942  1.00  0.00     0.041 C 
ATOM      9  O   UNL     1       4.680  13.925   4.955  1.00  0.00    -0.550 OA
ATOM     10  O   UNL     1       3.411  12.185   5.737  1.00  0.00    -0.550 OA
ENDBRANCH   7   8
ENDBRANCH   6   7
ENDBRANCH   5   6
ENDBRANCH   4   5
ENDBRANCH   3   4
ENDBRANCH   2   3
ENDBRANCH   1   2
BRANCH   1  11
ATOM     11  C   UNL     1       3.221  18.556   6.993  1.00  0.00     0.000 C 
BRANCH  11  12
ATOM     12  C   UNL     1       2.432  19.719   6.378  1.00  0.00    -0.000 C 
BRANCH  12  13
ATOM     13  C   UNL     1       1.623  20.463   7.452  1.00  0.00    -0.000 C 
BRANCH  13  14
ATOM     14  C   UNL     1       2.322  20.482   8.824  1.00  0.00    -0.000 C 
BRANCH  14  15
ATOM     15  C   UNL     1       1.380  20.422  10.040  1.00  0.00    -0.000 C 
BRANCH  15  16
ATOM     16  C   UNL     1       1.876  19.465  11.137  1.00  0.00    -0.000 C 
BRANCH  16  17
ATOM     17  C   UNL     1       3.045  18.585  10.664  1.00  0.00    -0.003 C 
ATOM     18  C   UNL     1       4.289  18.729  11.541  1.00  0.00     0.004 C 
ENDBRANCH  16  17
ENDBRANCH  15  16
ENDBRANCH  14  15
ENDBRANCH  13  14
ENDBRANCH  12  13
ENDBRANCH  11  12
ENDBRANCH   1  11
TORSDOF 14
ENDMDL
MODEL 4
REMARK VINA RESULT:    -2.944      1.215      1.891
REMARK INTER + INTRA:          -7.095
REMARK INTER:                  -5.320
REMARK INTRA:                  -1.775
REMARK UNBOUND:                -1.742
REMARK SMILES CCCCCCCCCCCCCCCC(=O)[O-]
REMARK SMILES IDX 9 1 10 2 11 3 12 4 13 5 14 6 15 7 16 8 17 9 18 10 8 11 7 12
REMARK SMILES IDX 6 13 5 14 4 15 3 16 2 17 1 18
REMARK H PARENT
REMARK Flexibility Score: inf
ROOT
ATOM      1  C   UNL     1       2.133  20.825   9.820  1.00  0.00     0.000 C 
ENDROOT
BRANCH   1   2
ATOM      2  C   UNL     1       1.990  19.678  10.832  1.00  0.00     0.000 C 
BRANCH   2   3
ATOM      3  C   UNL     1       3.061  18.587  10.654  1.00  0.00     0.000 C 
BRANCH   3   4
ATOM      4  C   UNL     1       3.750  18.565   9.275  1.00  0.00     0.000 C 
BRANCH   4   5
ATOM      5  C   UNL     1       4.381  17.217   8.884  1.00  0.00     0.000 C 
BRANCH   5   6
ATOM      6  C   UNL     1       3.994  16.766   7.466  1.00  0.00     0.006 C 
BRANCH   6   7
ATOM      7  C   UNL     1       5.117  15.974   6.784  1.00  0.00     0.053 C 
BRANCH   7   8
ATOM      8  C   UNL     1       4.621  14.670   6.237  1.00  0.00     0.041 C 
ATOM      9  O   UNL     1       5.065  14.230   5.144  1.00  0.00    -0.550 OA
ATOM     10  O   UNL     1       3.642  13.958   6.919  1.00  0.00    -0.550 OA
ENDBRANCH   7   8
ENDBRANCH   6   7
ENDBRANCH   5   6
ENDBRANCH   4   5
ENDBRANCH   3   4
ENDBRANCH   2   3
ENDBRANCH   1   2
BRANCH   1  11
ATOM     11  C   UNL     1       0.801  21.102   9.113  1.00  0.00     0.000 C 
BRANCH  11  12
ATOM     12  C   UNL     1       1.029  21.544   7.662  1.00  0.00    -0.000 C 
BRANCH  12  13
ATOM     13  C   UNL     1       0.749  20.391   6.686  1.00  0.00    -0.000 C 
BRANCH  13  14
ATOM     14  C   UNL     1       2.028  19.662   6.236  1.00  0.00    -0.000 C 
BRANCH  14  15
ATOM     15  C   UNL     1       3.093  20.557   5.573  1.00  0.00    -0.000 C 
BRANCH  15  16
ATOM     16  C   UNL     1       4.529  20.148   5.939  1.00  0.00    -0.000 C 
BRANCH  16  17
ATOM     17  C   UNL     1       5.155  19.204   4.900  1.00  0.00    -0.003 C 
ATOM     18  C   UNL     1       5.126  19.778   3.483  1.00  0.00     0.004 C 
ENDBRANCH  16  17
ENDBRANCH  15  16
ENDBRANCH  14  15
ENDBRANCH  13  14
ENDBRANCH  12  13
ENDBRANCH  11  12
ENDBRANCH   1  11
TORSDOF 14
ENDMDL
MODEL 5
REMARK VINA RESULT:    -2.914      1.320      4.462
REMARK INTER + INTRA:          -7.042
REMARK INTER:                  -5.356
REMARK INTRA:                  -1.686
REMARK UNBOUND:                -1.742
REMARK SMILES CCCCCCCCCCCCCCCC(=O)[O-]
REMARK SMILES IDX 9 1 10 2 11 3 12 4 13 5 14 6 15 7 16 8 17 9 18 10 8 11 7 12
REMARK SMILES IDX 6 13 5 14 4 15 3 16 2 17 1 18
REMARK H PARENT
REMARK Flexibility Score: inf
ROOT
ATOM      1  C   UNL     1       0.264  21.548   7.055  1.00  0.00     0.000 C 
ENDROOT
BRANCH   1   2
ATOM      2  C   UNL     1       0.771  20.353   6.235  1.00  0.00     0.000 C 
BRANCH   2   3
ATOM      3  C   UNL     1       2.056  20.670   5.449  1.00  0.00     0.000 C 
BRANCH   3   4
ATOM      4  C   UNL     1       3.252  19.745   5.750  1.00  0.00     0.000 C 
BRANCH   4   5
ATOM      5  C   UNL     1       3.048  18.780   6.931  1.00  0.00     0.000 C 
BRANCH   5   6
ATOM      6  C   UNL     1       4.364  18.408   7.633  1.00  0.00     0.006 C 
BRANCH   6   7
ATOM      7  C   UNL     1       4.273  17.056   8.352  1.00  0.00     0.053 C 
BRANCH   7   8
ATOM      8  C   UNL     1       4.287  15.912   7.384  1.00  0.00     0.041 C 
ATOM      9  O   UNL     1       3.476  14.958   7.517  1.00  0.00    -0.550 OA
ATOM     10  O   UNL     1       5.221  15.884   6.356  1.00  0.00    -0.550 OA
ENDBRANCH   7   8
ENDBRANCH   6   7
ENDBRANCH   5   6
ENDBRANCH   4   5
ENDBRANCH   3   4
ENDBRANCH   2   3
ENDBRANCH   1   2
BRANCH   1  11
ATOM     11  C   UNL     1       1.240  21.889   8.189  1.00  0.00     0.000 C 
BRANCH  11  12
ATOM     12  C   UNL     1       1.007  20.986   9.406  1.00  0.00    -0.000 C 
BRANCH  12  13
ATOM     13  C   UNL     1       2.337  20.626  10.086  1.00  0.00    -0.000 C 
BRANCH  13  14
ATOM     14  C   UNL     1       2.342  19.206  10.681  1.00  0.00    -0.000 C 
BRANCH  14  15
ATOM     15  C   UNL     1       1.891  19.109  12.150  1.00  0.00    -0.000 C 
BRANCH  15  16
ATOM     16  C   UNL     1       2.510  17.912  12.890  1.00  0.00    -0.000 C 
BRANCH  16  17
ATOM     17  C   UNL     1       3.772  17.379  12.193  1.00  0.00    -0.003 C 
ATOM     18  C   UNL     1       4.574  16.418  13.071  1.00  0.00     0.004 C 
ENDBRANCH  16  17
ENDBRANCH  15  16
ENDBRANCH  14  15
ENDBRANCH  13  14
ENDBRANCH  12  13
ENDBRANCH  11  12
ENDBRANCH   1  11
TORSDOF 14
ENDMDL
MODEL 6
REMARK VINA RESULT:    -2.888      1.541      2.145
REMARK INTER + INTRA:          -6.994
REMARK INTER:                  -5.375
REMARK INTRA:                  -1.618
REMARK UNBOUND:                -1.742
REMARK SMILES CCCCCCCCCCCCCCCC(=O)[O-]
REMARK SMILES IDX 9 1 10 2 11 3 12 4 13 5 14 6 15 7 16 8 17 9 18 10 8 11 7 12
REMARK SMILES IDX 6 13 5 14 4 15 3 16 2 17 1 18
REMARK H PARENT
REMARK Flexibility Score: inf
ROOT
ATOM      1  C   UNL     1       2.535  18.913  10.694  1.00  0.00     0.000 C 
ENDROOT
BRANCH   1   2
ATOM      2  C   UNL     1       3.786  18.837  11.581  1.00  0.00     0.000 C 
BRANCH   2   3
ATOM      3  C   UNL     1       4.381  17.418  11.655  1.00  0.00     0.000 C 
BRANCH   3   4
ATOM      4  C   UNL     1       5.739  17.241  10.947  1.00  0.00     0.000 C 
BRANCH   4   5
ATOM      5  C   UNL     1       5.659  16.690   9.512  1.00  0.00     0.000 C 
BRANCH   5   6
ATOM      6  C   UNL     1       4.435  15.786   9.288  1.00  0.00     0.006 C 
BRANCH   6   7
ATOM      7  C   UNL     1       4.140  15.572   7.798  1.00  0.00     0.053 C 
BRANCH   7   8
ATOM      8  C   UNL     1       4.404  14.158   7.379  1.00  0.00     0.041 C 
ATOM      9  O   UNL     1       3.632  13.581   6.568  1.00  0.00    -0.550 OA
ATOM     10  O   UNL     1       5.484  13.466   7.912  1.00  0.00    -0.550 OA
ENDBRANCH   7   8
ENDBRANCH   6   7
ENDBRANCH   5   6
ENDBRANCH   4   5
ENDBRANCH   3   4
ENDBRANCH   2   3
ENDBRANCH   1   2
BRANCH   1  11
ATOM     11  C   UNL     1       2.363  20.319  10.106  1.00  0.00     0.000 C 
BRANCH  11  12
ATOM     12  C   UNL     1       3.169  20.477   8.811  1.00  0.00    -0.000 C 
BRANCH  12  13
ATOM     13  C   UNL     1       3.267  19.141   8.059  1.00  0.00    -0.000 C 
BRANCH  13  14
ATOM     14  C   UNL     1       2.701  19.213   6.629  1.00  0.00    -0.000 C 
BRANCH  14  15
ATOM     15  C   UNL     1       1.472  20.125   6.457  1.00  0.00    -0.000 C 
BRANCH  15  16
ATOM     16  C   UNL     1       1.618  21.111   5.286  1.00  0.00    -0.000 C 
BRANCH  16  17
ATOM     17  C   UNL     1       2.966  20.968   4.561  1.00  0.00    -0.003 C 
ATOM     18  C   UNL     1       3.008  21.726   3.233  1.00  0.00     0.004 C 
ENDBRANCH  16  17
ENDBRANCH  15  16
ENDBRANCH  14  15
ENDBRANCH  13  14
ENDBRANCH  12  13
ENDBRANCH  11  12
ENDBRANCH   1  11
TORSDOF 14
ENDMDL
MODEL 7
REMARK VINA RESULT:    -2.885      1.481      4.169
REMARK INTER + INTRA:          -6.989
REMARK INTER:                  -5.098
REMARK INTRA:                  -1.891
REMARK UNBOUND:                -1.742
REMARK SMILES CCCCCCCCCCCCCCCC(=O)[O-]
REMARK SMILES IDX 9 1 10 2 11 3 12 4 13 5 14 6 15 7 16 8 17 9 18 10 8 11 7 12
REMARK SMILES IDX 6 13 5 14 4 15 3 16 2 17 1 18
REMARK H PARENT
REMARK Flexibility Score: inf
ROOT
ATOM      1  C   UNL     1       2.542  20.213   5.400  1.00  0.00     0.000 C 
ENDROOT
BRANCH   1   2
ATOM      2  C   UNL     1       4.056  20.331   5.628  1.00  0.00     0.000 C 
BRANCH   2   3
ATOM      3  C   UNL     1       4.858  19.243   4.892  1.00  0.00     0.000 C 
BRANCH   3   4
ATOM      4  C   UNL     1       4.860  17.859   5.572  1.00  0.00     0.000 C 
BRANCH   4   5
ATOM      5  C   UNL     1       5.838  17.714   6.751  1.00  0.00     0.000 C 
BRANCH   5   6
ATOM      6  C   UNL     1       5.189  17.074   7.990  1.00  0.00     0.006 C 
BRANCH   6   7
ATOM      7  C   UNL     1       3.949  16.245   7.629  1.00  0.00     0.053 C 
BRANCH   7   8
ATOM      8  C   UNL     1       4.261  14.780   7.572  1.00  0.00     0.041 C 
ATOM      9  O   UNL     1       3.735  14.053   6.689  1.00  0.00    -0.550 OA
ATOM     10  O   UNL     1       5.107  14.213   8.516  1.00  0.00    -0.550 OA
ENDBRANCH   7   8
ENDBRANCH   6   7
ENDBRANCH   5   6
ENDBRANCH   4   5
ENDBRANCH   3   4
ENDBRANCH   2   3
ENDBRANCH   1   2
BRANCH   1  11
ATOM     11  C   UNL     1       1.804  19.990   6.726  1.00  0.00     0.000 C 
BRANCH  11  12
ATOM     12  C   UNL     1       2.590  20.583   7.901  1.00  0.00    -0.000 C 
BRANCH  12  13
ATOM     13  C   UNL     1       2.781  19.543   9.015  1.00  0.00    -0.000 C 
BRANCH  13  14
ATOM     14  C   UNL     1       2.018  19.897  10.305  1.00  0.00    -0.000 C 
BRANCH  14  15
ATOM     15  C   UNL     1       2.287  18.967  11.502  1.00  0.00    -0.000 C 
BRANCH  15  16
ATOM     16  C   UNL     1       3.411  17.953  11.232  1.00  0.00    -0.000 C 
BRANCH  16  17
ATOM     17  C   UNL     1       4.619  18.152  12.161  1.00  0.00    -0.003 C 
ATOM     18  C   UNL     1       5.927  18.361  11.397  1.00  0.00     0.004 C 
ENDBRANCH  16  17
ENDBRANCH  15  16
ENDBRANCH  14  15
ENDBRANCH  13  14
ENDBRANCH  12  13
ENDBRANCH  11  12
ENDBRANCH   1  11
TORSDOF 14
ENDMDL
MODEL 8
REMARK VINA RESULT:    -2.867      2.662      5.484
REMARK INTER + INTRA:          -6.955
REMARK INTER:                  -5.166
REMARK INTRA:                  -1.789
REMARK UNBOUND:                -1.742
REMARK SMILES CCCCCCCCCCCCCCCC(=O)[O-]
REMARK SMILES IDX 9 1 10 2 11 3 12 4 13 5 14 6 15 7 16 8 17 9 18 10 8 11 7 12
REMARK SMILES IDX 6 13 5 14 4 15 3 16 2 17 1 18
REMARK H PARENT
REMARK Flexibility Score: inf
ROOT
ATOM      1  C   UNL     1       0.823  20.170   6.332  1.00  0.00     0.000 C 
ENDROOT
BRANCH   1   2
ATOM      2  C   UNL     1       0.076  21.240   7.143  1.00  0.00     0.000 C 
BRANCH   2   3
ATOM      3  C   UNL     1       0.524  21.296   8.615  1.00  0.00     0.000 C 
BRANCH   3   4
ATOM      4  C   UNL     1       1.905  21.937   8.854  1.00  0.00     0.000 C 
BRANCH   4   5
ATOM      5  C   UNL     1       2.890  21.078   9.668  1.00  0.00     0.000 C 
BRANCH   5   6
ATOM      6  C   UNL     1       2.283  19.739  10.118  1.00  0.00     0.006 C 
BRANCH   6   7
ATOM      7  C   UNL     1       3.355  18.664  10.337  1.00  0.00     0.053 C 
BRANCH   7   8
ATOM      8  C   UNL     1       3.197  17.988  11.665  1.00  0.00     0.041 C 
ATOM      9  O   UNL     1       2.416  18.463  12.530  1.00  0.00    -0.550 OA
ATOM     10  O   UNL     1       3.941  16.852  11.959  1.00  0.00    -0.550 OA
ENDBRANCH   7   8
ENDBRANCH   6   7
ENDBRANCH   5   6
ENDBRANCH   4   5
ENDBRANCH   3   4
ENDBRANCH   2   3
ENDBRANCH   1   2
BRANCH   1  11
ATOM     11  C   UNL     1       1.814  20.815   5.356  1.00  0.00     0.000 C 
BRANCH  11  12
ATOM     12  C   UNL     1       3.171  20.102   5.398  1.00  0.00    -0.000 C 
BRANCH  12  13
ATOM     13  C   UNL     1       3.193  19.027   6.495  1.00  0.00    -0.000 C 
BRANCH  13  14
ATOM     14  C   UNL     1       4.601  18.458   6.751  1.00  0.00    -0.000 C 
BRANCH  14  15
ATOM     15  C   UNL     1       4.742  16.939   6.542  1.00  0.00    -0.000 C 
BRANCH  15  16
ATOM     16  C   UNL     1       4.033  16.117   7.630  1.00  0.00    -0.000 C 
BRANCH  16  17
ATOM     17  C   UNL     1       4.268  14.606   7.472  1.00  0.00    -0.003 C 
ATOM     18  C   UNL     1       4.609  14.206   6.036  1.00  0.00     0.004 C 
ENDBRANCH  16  17
ENDBRANCH  15  16
ENDBRANCH  14  15
ENDBRANCH  13  14
ENDBRANCH  12  13
ENDBRANCH  11  12
ENDBRANCH   1  11
TORSDOF 14
ENDMDL
MODEL 9
REMARK VINA RESULT:    -2.866      1.649      2.683
REMARK INTER + INTRA:          -6.955
REMARK INTER:                  -5.270
REMARK INTRA:                  -1.685
REMARK UNBOUND:                -1.742
REMARK SMILES CCCCCCCCCCCCCCCC(=O)[O-]
REMARK SMILES IDX 9 1 10 2 11 3 12 4 13 5 14 6 15 7 16 8 17 9 18 10 8 11 7 12
REMARK SMILES IDX 6 13 5 14 4 15 3 16 2 17 1 18
REMARK H PARENT
REMARK Flexibility Score: inf
ROOT
ATOM      1  C   UNL     1       2.140  21.675   9.236  1.00  0.00     0.000 C 
ENDROOT
BRANCH   1   2
ATOM      2  C   UNL     1       1.177  21.066  10.266  1.00  0.00     0.000 C 
BRANCH   2   3
ATOM      3  C   UNL     1       1.671  19.718  10.822  1.00  0.00     0.000 C 
BRANCH   3   4
ATOM      4  C   UNL     1       3.082  19.298  10.361  1.00  0.00     0.000 C 
BRANCH   4   5
ATOM      5  C   UNL     1       3.555  17.928  10.880  1.00  0.00     0.000 C 
BRANCH   5   6
ATOM      6  C   UNL     1       4.561  17.248   9.937  1.00  0.00     0.006 C 
BRANCH   6   7
ATOM      7  C   UNL     1       4.322  15.737   9.829  1.00  0.00     0.053 C 
BRANCH   7   8
ATOM      8  C   UNL     1       5.398  15.062   9.034  1.00  0.00     0.041 C 
ATOM      9  O   UNL     1       5.212  14.789   7.819  1.00  0.00    -0.550 OA
ATOM     10  O   UNL     1       6.592  14.702   9.645  1.00  0.00    -0.550 OA
ENDBRANCH   7   8
ENDBRANCH   6   7
ENDBRANCH   5   6
ENDBRANCH   4   5
ENDBRANCH   3   4
ENDBRANCH   2   3
ENDBRANCH   1   2
BRANCH   1  11
ATOM     11  C   UNL     1       1.373  22.224   8.026  1.00  0.00     0.000 C 
BRANCH  11  12
ATOM     12  C   UNL     1       0.160  21.346   7.698  1.00  0.00    -0.000 C 
BRANCH  12  13
ATOM     13  C   UNL     1       0.478  20.377   6.549  1.00  0.00    -0.000 C 
BRANCH  13  14
ATOM     14  C   UNL     1       1.552  20.918   5.588  1.00  0.00    -0.000 C 
BRANCH  14  15
ATOM     15  C   UNL     1       2.840  20.077   5.505  1.00  0.00    -0.000 C 
BRANCH  15  16
ATOM     16  C   UNL     1       2.938  19.021   6.618  1.00  0.00    -0.000 C 
BRANCH  16  17
ATOM     17  C   UNL     1       4.189  18.138   6.482  1.00  0.00    -0.003 C 
ATOM     18  C   UNL     1       4.993  18.438   5.217  1.00  0.00     0.004 C 
ENDBRANCH  16  17
ENDBRANCH  15  16
ENDBRANCH  14  15
ENDBRANCH  13  14
ENDBRANCH  12  13
ENDBRANCH  11  12
ENDBRANCH   1  11
TORSDOF 14
ENDMDL
