MODEL 1
REMARK VINA RESULT:     0.286      0.000      0.000
REMARK INTER + INTRA:           1.635
REMARK INTER:                   0.619
REMARK INTRA:                   1.016
REMARK UNBOUND:                 1.016
REMARK SMILES CCCCCCCCCCCCCCCCCCCCCC(=O)[O-]
REMARK SMILES IDX 12 1 11 2 10 3 9 4 8 5 7 6 6 7 5 8 4 9 3 10 2 11 1 12 13 13
REMARK SMILES IDX 14 14 15 15 16 16 17 17 18 18 19 19 20 20 21 21 22 22 23 23
REMARK SMILES IDX 24 24
REMARK H PARENT
REMARK Flexibility Score: inf
ROOT
ATOM      1  C   UNL     1      42.764  41.705  66.892  1.00  0.00     0.000 C 
ENDROOT
BRANCH   1   2
ATOM      2  C   UNL     1      42.109  43.059  66.588  1.00  0.00     0.000 C 
BRANCH   2   3
ATOM      3  C   UNL     1      40.659  43.091  67.092  1.00  0.00     0.000 C 
BRANCH   3   4
ATOM      4  C   UNL     1      39.706  42.257  66.219  1.00  0.00    -0.000 C 
BRANCH   4   5
ATOM      5  C   UNL     1      38.384  42.959  65.848  1.00  0.00    -0.000 C 
BRANCH   5   6
ATOM      6  C   UNL     1      37.394  43.078  67.028  1.00  0.00    -0.000 C 
BRANCH   6   7
ATOM      7  C   UNL     1      35.930  43.009  66.565  1.00  0.00    -0.000 C 
BRANCH   7   8
ATOM      8  C   UNL     1      35.830  42.471  65.129  1.00  0.00    -0.000 C 
BRANCH   8   9
ATOM      9  C   UNL     1      34.681  43.120  64.335  1.00  0.00    -0.000 C 
BRANCH   9  10
ATOM     10  C   UNL     1      33.271  42.682  64.795  1.00  0.00    -0.000 C 
BRANCH  10  11
ATOM     11  C   UNL     1      33.228  41.265  65.389  1.00  0.00    -0.003 C 
ATOM     12  C   UNL     1      32.673  41.232  66.813  1.00  0.00     0.004 C 
ENDBRANCH  10  11
ENDBRANCH   9  10
ENDBRANCH   8   9
ENDBRANCH   7   8
ENDBRANCH   6   7
ENDBRANCH   5   6
ENDBRANCH   4   5
ENDBRANCH   3   4
ENDBRANCH   2   3
ENDBRANCH   1   2
BRANCH   1  13
ATOM     13  C   UNL     1      42.436  40.628  65.845  1.00  0.00     0.000 C 
BRANCH  13  14
ATOM     14  C   UNL     1      43.458  39.473  65.803  1.00  0.00     0.000 C 
BRANCH  14  15
ATOM     15  C   UNL     1      43.478  38.668  67.110  1.00  0.00     0.000 C 
BRANCH  15  16
ATOM     16  C   UNL     1      42.755  37.327  66.944  1.00  0.00     0.000 C 
BRANCH  16  17
ATOM     17  C   UNL     1      41.442  37.502  66.172  1.00  0.00     0.000 C 
BRANCH  17  18
ATOM     18  C   UNL     1      40.281  37.809  67.125  1.00  0.00     0.000 C 
BRANCH  18  19
ATOM     19  C   UNL     1      39.727  39.218  66.884  1.00  0.00     0.000 C 
BRANCH  19  20
ATOM     20  C   UNL     1      39.440  39.447  65.395  1.00  0.00     0.006 C 
BRANCH  20  21
ATOM     21  C   UNL     1      37.939  39.340  65.101  1.00  0.00     0.053 C 
BRANCH  21  22
ATOM     22  C   UNL     1      37.167  39.162  66.369  1.00  0.00     0.041 C 
ATOM     23  O   UNL     1      37.150  38.043  66.949  1.00  0.00    -0.550 OA
ATOM     24  O   UNL     1      36.433  40.220  66.891  1.00  0.00    -0.550 OA
ENDBRANCH  21  22
ENDBRANCH  20  21
ENDBRANCH  19  20
ENDBRANCH  18  19
ENDBRANCH  17  18
ENDBRANCH  16  17
ENDBRANCH  15  16
ENDBRANCH  14  15
ENDBRANCH  13  14
ENDBRANCH   1  13
TORSDOF 20
ENDMDL
MODEL 2
REMARK VINA RESULT:     0.441     16.508     19.171
REMARK INTER + INTRA:           1.972
REMARK INTER:                   2.926
REMARK INTRA:                  -0.954
REMARK UNBOUND:                 1.016
REMARK SMILES CCCCCCCCCCCCCCCCCCCCCC(=O)[O-]
REMARK SMILES IDX 12 1 11 2 10 3 9 4 8 5 7 6 6 7 5 8 4 9 3 10 2 11 1 12 13 13
REMARK SMILES IDX 14 14 15 15 16 16 17 17 18 18 19 19 20 20 21 21 22 22 23 23
REMARK SMILES IDX 24 24
REMARK H PARENT
REMARK Flexibility Score: inf
ROOT
ATOM      1  C   UNL     1      31.369  23.196  61.039  1.00  0.00     0.000 C 
ENDROOT
BRANCH   1   2
ATOM      2  C   UNL     1      31.151  23.990  62.334  1.00  0.00     0.000 C 
BRANCH   2   3
ATOM      3  C   UNL     1      32.454  24.094  63.139  1.00  0.00     0.000 C 
BRANCH   3   4
ATOM      4  C   UNL     1      32.546  23.046  64.262  1.00  0.00    -0.000 C 
BRANCH   4   5
ATOM      5  C   UNL     1      31.974  23.498  65.620  1.00  0.00    -0.000 C 
BRANCH   5   6
ATOM      6  C   UNL     1      32.586  24.817  66.142  1.00  0.00    -0.000 C 
BRANCH   6   7
ATOM      7  C   UNL     1      34.110  24.719  66.316  1.00  0.00    -0.000 C 
BRANCH   7   8
ATOM      8  C   UNL     1      34.834  25.728  65.411  1.00  0.00    -0.000 C 
BRANCH   8   9
ATOM      9  C   UNL     1      36.069  26.350  66.089  1.00  0.00    -0.000 C 
BRANCH   9  10
ATOM     10  C   UNL     1      36.721  27.497  65.282  1.00  0.00    -0.000 C 
BRANCH  10  11
ATOM     11  C   UNL     1      38.134  27.864  65.764  1.00  0.00    -0.003 C 
ATOM     12  C   UNL     1      38.302  29.359  66.036  1.00  0.00     0.004 C 
ENDBRANCH  10  11
ENDBRANCH   9  10
ENDBRANCH   8   9
ENDBRANCH   7   8
ENDBRANCH   6   7
ENDBRANCH   5   6
ENDBRANCH   4   5
ENDBRANCH   3   4
ENDBRANCH   2   3
ENDBRANCH   1   2
BRANCH   1  13
ATOM     13  C   UNL     1      32.531  23.738  60.190  1.00  0.00     0.000 C 
BRANCH  13  14
ATOM     14  C   UNL     1      32.313  23.579  58.670  1.00  0.00     0.000 C 
BRANCH  14  15
ATOM     15  C   UNL     1      33.630  23.666  57.884  1.00  0.00     0.000 C 
BRANCH  15  16
ATOM     16  C   UNL     1      33.407  24.288  56.501  1.00  0.00     0.000 C 
BRANCH  16  17
ATOM     17  C   UNL     1      34.739  24.699  55.862  1.00  0.00     0.000 C 
BRANCH  17  18
ATOM     18  C   UNL     1      35.684  23.498  55.743  1.00  0.00     0.000 C 
BRANCH  18  19
ATOM     19  C   UNL     1      37.024  23.780  56.434  1.00  0.00     0.000 C 
BRANCH  19  20
ATOM     20  C   UNL     1      38.127  24.050  55.403  1.00  0.00     0.006 C 
BRANCH  20  21
ATOM     21  C   UNL     1      37.996  23.110  54.200  1.00  0.00     0.053 C 
BRANCH  21  22
ATOM     22  C   UNL     1      37.796  23.892  52.941  1.00  0.00     0.041 C 
ATOM     23  O   UNL     1      38.393  23.555  51.884  1.00  0.00    -0.550 OA
ATOM     24  O   UNL     1      36.981  25.017  52.944  1.00  0.00    -0.550 OA
ENDBRANCH  21  22
ENDBRANCH  20  21
ENDBRANCH  19  20
ENDBRANCH  18  19
ENDBRANCH  17  18
ENDBRANCH  16  17
ENDBRANCH  15  16
ENDBRANCH  14  15
ENDBRANCH  13  14
ENDBRANCH   1  13
TORSDOF 20
ENDMDL
MODEL 3
REMARK VINA RESULT:     0.533     17.517     20.405
REMARK INTER + INTRA:           2.172
REMARK INTER:                   3.018
REMARK INTRA:                  -0.846
REMARK UNBOUND:                 1.016
REMARK SMILES CCCCCCCCCCCCCCCCCCCCCC(=O)[O-]
REMARK SMILES IDX 12 1 11 2 10 3 9 4 8 5 7 6 6 7 5 8 4 9 3 10 2 11 1 12 13 13
REMARK SMILES IDX 14 14 15 15 16 16 17 17 18 18 19 19 20 20 21 21 22 22 23 23
REMARK SMILES IDX 24 24
REMARK H PARENT
REMARK Flexibility Score: inf
ROOT
ATOM      1  C   UNL     1      33.226  23.869  57.506  1.00  0.00     0.000 C 
ENDROOT
BRANCH   1   2
ATOM      2  C   UNL     1      34.624  24.036  56.895  1.00  0.00     0.000 C 
BRANCH   2   3
ATOM      3  C   UNL     1      34.710  23.344  55.527  1.00  0.00     0.000 C 
BRANCH   3   4
ATOM      4  C   UNL     1      35.408  24.210  54.464  1.00  0.00    -0.000 C 
BRANCH   4   5
ATOM      5  C   UNL     1      35.909  23.440  53.226  1.00  0.00    -0.000 C 
BRANCH   5   6
ATOM      6  C   UNL     1      36.846  24.267  52.320  1.00  0.00    -0.000 C 
BRANCH   6   7
ATOM      7  C   UNL     1      38.186  23.558  52.069  1.00  0.00    -0.000 C 
BRANCH   7   8
ATOM      8  C   UNL     1      38.703  22.886  53.351  1.00  0.00    -0.000 C 
BRANCH   8   9
ATOM      9  C   UNL     1      38.857  23.879  54.518  1.00  0.00    -0.000 C 
BRANCH   9  10
ATOM     10  C   UNL     1      38.685  23.240  55.916  1.00  0.00    -0.000 C 
BRANCH  10  11
ATOM     11  C   UNL     1      40.009  23.051  56.675  1.00  0.00    -0.003 C 
ATOM     12  C   UNL     1      40.503  24.335  57.340  1.00  0.00     0.004 C 
ENDBRANCH  10  11
ENDBRANCH   9  10
ENDBRANCH   8   9
ENDBRANCH   7   8
ENDBRANCH   6   7
ENDBRANCH   5   6
ENDBRANCH   4   5
ENDBRANCH   3   4
ENDBRANCH   2   3
ENDBRANCH   1   2
BRANCH   1  13
ATOM     13  C   UNL     1      33.260  23.586  59.017  1.00  0.00     0.000 C 
BRANCH  13  14
ATOM     14  C   UNL     1      31.874  23.277  59.620  1.00  0.00     0.000 C 
BRANCH  14  15
ATOM     15  C   UNL     1      31.593  24.107  60.882  1.00  0.00     0.000 C 
BRANCH  15  16
ATOM     16  C   UNL     1      31.288  23.202  62.081  1.00  0.00     0.000 C 
BRANCH  16  17
ATOM     17  C   UNL     1      29.795  23.236  62.429  1.00  0.00     0.000 C 
BRANCH  17  18
ATOM     18  C   UNL     1      29.584  23.566  63.911  1.00  0.00     0.000 C 
BRANCH  18  19
ATOM     19  C   UNL     1      30.684  22.941  64.778  1.00  0.00     0.000 C 
BRANCH  19  20
ATOM     20  C   UNL     1      31.381  24.005  65.632  1.00  0.00     0.006 C 
BRANCH  20  21
ATOM     21  C   UNL     1      32.528  24.666  64.860  1.00  0.00     0.053 C 
BRANCH  21  22
ATOM     22  C   UNL     1      33.763  24.725  65.702  1.00  0.00     0.041 C 
ATOM     23  O   UNL     1      34.769  25.372  65.306  1.00  0.00    -0.550 OA
ATOM     24  O   UNL     1      33.818  24.032  66.905  1.00  0.00    -0.550 OA
ENDBRANCH  21  22
ENDBRANCH  20  21
ENDBRANCH  19  20
ENDBRANCH  18  19
ENDBRANCH  17  18
ENDBRANCH  16  17
ENDBRANCH  15  16
ENDBRANCH  14  15
ENDBRANCH  13  14
ENDBRANCH   1  13
TORSDOF 20
ENDMDL
MODEL 4
REMARK VINA RESULT:     0.602     17.453     20.180
REMARK INTER + INTRA:           2.321
REMARK INTER:                   3.704
REMARK INTRA:                  -1.383
REMARK UNBOUND:                 1.016
REMARK SMILES CCCCCCCCCCCCCCCCCCCCCC(=O)[O-]
REMARK SMILES IDX 12 1 11 2 10 3 9 4 8 5 7 6 6 7 5 8 4 9 3 10 2 11 1 12 13 13
REMARK SMILES IDX 14 14 15 15 16 16 17 17 18 18 19 19 20 20 21 21 22 22 23 23
REMARK SMILES IDX 24 24
REMARK H PARENT
REMARK Flexibility Score: inf
ROOT
ATOM      1  C   UNL     1      32.851  24.119  58.774  1.00  0.00     0.000 C 
ENDROOT
BRANCH   1   2
ATOM      2  C   UNL     1      34.114  23.530  58.130  1.00  0.00     0.000 C 
BRANCH   2   3
ATOM      3  C   UNL     1      34.181  23.878  56.637  1.00  0.00     0.000 C 
BRANCH   3   4
ATOM      4  C   UNL     1      35.399  23.254  55.934  1.00  0.00    -0.000 C 
BRANCH   4   5
ATOM      5  C   UNL     1      36.658  24.144  55.907  1.00  0.00    -0.000 C 
BRANCH   5   6
ATOM      6  C   UNL     1      37.973  23.362  56.123  1.00  0.00    -0.000 C 
BRANCH   6   7
ATOM      7  C   UNL     1      39.043  23.730  55.084  1.00  0.00    -0.000 C 
BRANCH   7   8
ATOM      8  C   UNL     1      38.897  22.876  53.815  1.00  0.00    -0.000 C 
BRANCH   8   9
ATOM      9  C   UNL     1      38.441  23.700  52.597  1.00  0.00    -0.000 C 
BRANCH   9  10
ATOM     10  C   UNL     1      37.619  22.896  51.563  1.00  0.00    -0.000 C 
BRANCH  10  11
ATOM     11  C   UNL     1      36.176  23.400  51.396  1.00  0.00    -0.003 C 
ATOM     12  C   UNL     1      35.740  24.341  52.519  1.00  0.00     0.004 C 
ENDBRANCH  10  11
ENDBRANCH   9  10
ENDBRANCH   8   9
ENDBRANCH   7   8
ENDBRANCH   6   7
ENDBRANCH   5   6
ENDBRANCH   4   5
ENDBRANCH   3   4
ENDBRANCH   2   3
ENDBRANCH   1   2
BRANCH   1  13
ATOM     13  C   UNL     1      32.246  23.209  59.855  1.00  0.00     0.000 C 
BRANCH  13  14
ATOM     14  C   UNL     1      31.434  23.971  60.923  1.00  0.00     0.000 C 
BRANCH  14  15
ATOM     15  C   UNL     1      32.180  24.061  62.263  1.00  0.00     0.000 C 
BRANCH  15  16
ATOM     16  C   UNL     1      31.619  23.057  63.276  1.00  0.00     0.000 C 
BRANCH  16  17
ATOM     17  C   UNL     1      30.197  23.443  63.702  1.00  0.00     0.000 C 
BRANCH  17  18
ATOM     18  C   UNL     1      30.217  24.280  64.986  1.00  0.00     0.000 C 
BRANCH  18  19
ATOM     19  C   UNL     1      30.974  23.556  66.106  1.00  0.00     0.000 C 
BRANCH  19  20
ATOM     20  C   UNL     1      32.070  24.451  66.696  1.00  0.00     0.006 C 
BRANCH  20  21
ATOM     21  C   UNL     1      33.460  23.984  66.252  1.00  0.00     0.053 C 
BRANCH  21  22
ATOM     22  C   UNL     1      34.149  25.054  65.467  1.00  0.00     0.041 C 
ATOM     23  O   UNL     1      33.528  25.677  64.565  1.00  0.00    -0.550 OA
ATOM     24  O   UNL     1      35.489  25.337  65.703  1.00  0.00    -0.550 OA
ENDBRANCH  21  22
ENDBRANCH  20  21
ENDBRANCH  19  20
ENDBRANCH  18  19
ENDBRANCH  17  18
ENDBRANCH  16  17
ENDBRANCH  15  16
ENDBRANCH  14  15
ENDBRANCH  13  14
ENDBRANCH   1  13
TORSDOF 20
ENDMDL
MODEL 5
REMARK VINA RESULT:     1.080     16.422     19.159
REMARK INTER + INTRA:           3.358
REMARK INTER:                   4.294
REMARK INTRA:                  -0.936
REMARK UNBOUND:                 1.016
REMARK SMILES CCCCCCCCCCCCCCCCCCCCCC(=O)[O-]
REMARK SMILES IDX 12 1 11 2 10 3 9 4 8 5 7 6 6 7 5 8 4 9 3 10 2 11 1 12 13 13
REMARK SMILES IDX 14 14 15 15 16 16 17 17 18 18 19 19 20 20 21 21 22 22 23 23
REMARK SMILES IDX 24 24
REMARK H PARENT
REMARK Flexibility Score: inf
ROOT
ATOM      1  C   UNL     1      30.453  22.876  62.924  1.00  0.00     0.000 C 
ENDROOT
BRANCH   1   2
ATOM      2  C   UNL     1      29.860  23.516  64.187  1.00  0.00     0.000 C 
BRANCH   2   3
ATOM      3  C   UNL     1      30.965  24.116  65.067  1.00  0.00     0.000 C 
BRANCH   3   4
ATOM      4  C   UNL     1      31.360  23.197  66.236  1.00  0.00    -0.000 C 
BRANCH   4   5
ATOM      5  C   UNL     1      32.719  23.526  66.888  1.00  0.00    -0.000 C 
BRANCH   5   6
ATOM      6  C   UNL     1      33.807  23.943  65.875  1.00  0.00    -0.000 C 
BRANCH   6   7
ATOM      7  C   UNL     1      34.208  25.418  66.030  1.00  0.00    -0.000 C 
BRANCH   7   8
ATOM      8  C   UNL     1      35.485  25.730  65.233  1.00  0.00    -0.000 C 
BRANCH   8   9
ATOM      9  C   UNL     1      35.577  27.210  64.819  1.00  0.00    -0.000 C 
BRANCH   9  10
ATOM     10  C   UNL     1      36.871  27.916  65.285  1.00  0.00    -0.000 C 
BRANCH  10  11
ATOM     11  C   UNL     1      37.324  27.505  66.696  1.00  0.00    -0.003 C 
ATOM     12  C   UNL     1      38.595  26.656  66.691  1.00  0.00     0.004 C 
ENDBRANCH  10  11
ENDBRANCH   9  10
ENDBRANCH   8   9
ENDBRANCH   7   8
ENDBRANCH   6   7
ENDBRANCH   5   6
ENDBRANCH   4   5
ENDBRANCH   3   4
ENDBRANCH   2   3
ENDBRANCH   1   2
BRANCH   1  13
ATOM     13  C   UNL     1      30.725  23.893  61.804  1.00  0.00     0.000 C 
BRANCH  13  14
ATOM     14  C   UNL     1      32.087  23.698  61.106  1.00  0.00     0.000 C 
BRANCH  14  15
ATOM     15  C   UNL     1      31.935  23.441  59.600  1.00  0.00     0.000 C 
BRANCH  15  16
ATOM     16  C   UNL     1      33.286  23.539  58.884  1.00  0.00     0.000 C 
BRANCH  16  17
ATOM     17  C   UNL     1      33.124  24.147  57.485  1.00  0.00     0.000 C 
BRANCH  17  18
ATOM     18  C   UNL     1      34.229  23.657  56.542  1.00  0.00     0.000 C 
BRANCH  18  19
ATOM     19  C   UNL     1      34.903  24.832  55.823  1.00  0.00     0.000 C 
BRANCH  19  20
ATOM     20  C   UNL     1      35.545  24.375  54.509  1.00  0.00     0.006 C 
BRANCH  20  21
ATOM     21  C   UNL     1      36.274  23.039  54.687  1.00  0.00     0.053 C 
BRANCH  21  22
ATOM     22  C   UNL     1      37.725  23.265  54.972  1.00  0.00     0.041 C 
ATOM     23  O   UNL     1      38.486  23.710  54.071  1.00  0.00    -0.550 OA
ATOM     24  O   UNL     1      38.246  22.949  56.221  1.00  0.00    -0.550 OA
ENDBRANCH  21  22
ENDBRANCH  20  21
ENDBRANCH  19  20
ENDBRANCH  18  19
ENDBRANCH  17  18
ENDBRANCH  16  17
ENDBRANCH  15  16
ENDBRANCH  14  15
ENDBRANCH  13  14
ENDBRANCH   1  13
TORSDOF 20
ENDMDL
MODEL 6
REMARK VINA RESULT:     1.348     16.662     19.483
REMARK INTER + INTRA:           3.939
REMARK INTER:                   5.343
REMARK INTRA:                  -1.404
REMARK UNBOUND:                 1.016
REMARK SMILES CCCCCCCCCCCCCCCCCCCCCC(=O)[O-]
REMARK SMILES IDX 12 1 11 2 10 3 9 4 8 5 7 6 6 7 5 8 4 9 3 10 2 11 1 12 13 13
REMARK SMILES IDX 14 14 15 15 16 16 17 17 18 18 19 19 20 20 21 21 22 22 23 23
REMARK SMILES IDX 24 24
REMARK H PARENT
REMARK Flexibility Score: inf
ROOT
ATOM      1  C   UNL     1      32.561  23.596  60.096  1.00  0.00     0.000 C 
ENDROOT
BRANCH   1   2
ATOM      2  C   UNL     1      32.622  23.310  58.590  1.00  0.00     0.000 C 
BRANCH   2   3
ATOM      3  C   UNL     1      33.054  24.561  57.812  1.00  0.00     0.000 C 
BRANCH   3   4
ATOM      4  C   UNL     1      33.395  24.260  56.342  1.00  0.00    -0.000 C 
BRANCH   4   5
ATOM      5  C   UNL     1      34.858  23.847  56.086  1.00  0.00    -0.000 C 
BRANCH   5   6
ATOM      6  C   UNL     1      35.447  24.428  54.782  1.00  0.00    -0.000 C 
BRANCH   6   7
ATOM      7  C   UNL     1      35.478  23.393  53.647  1.00  0.00    -0.000 C 
BRANCH   7   8
ATOM      8  C   UNL     1      36.524  23.767  52.587  1.00  0.00    -0.000 C 
BRANCH   8   9
ATOM      9  C   UNL     1      37.779  22.877  52.654  1.00  0.00    -0.000 C 
BRANCH   9  10
ATOM     10  C   UNL     1      38.926  23.469  53.506  1.00  0.00    -0.000 C 
BRANCH  10  11
ATOM     11  C   UNL     1      39.012  22.875  54.923  1.00  0.00    -0.003 C 
ATOM     12  C   UNL     1      38.908  23.934  56.020  1.00  0.00     0.004 C 
ENDBRANCH  10  11
ENDBRANCH   9  10
ENDBRANCH   8   9
ENDBRANCH   7   8
ENDBRANCH   6   7
ENDBRANCH   5   6
ENDBRANCH   4   5
ENDBRANCH   3   4
ENDBRANCH   2   3
ENDBRANCH   1   2
BRANCH   1  13
ATOM     13  C   UNL     1      31.178  23.318  60.706  1.00  0.00     0.000 C 
BRANCH  13  14
ATOM     14  C   UNL     1      31.092  23.628  62.215  1.00  0.00     0.000 C 
BRANCH  14  15
ATOM     15  C   UNL     1      32.378  24.279  62.747  1.00  0.00     0.000 C 
BRANCH  15  16
ATOM     16  C   UNL     1      32.957  23.480  63.919  1.00  0.00     0.000 C 
BRANCH  16  17
ATOM     17  C   UNL     1      32.073  23.613  65.165  1.00  0.00     0.000 C 
BRANCH  17  18
ATOM     18  C   UNL     1      32.666  24.622  66.155  1.00  0.00     0.000 C 
BRANCH  18  19
ATOM     19  C   UNL     1      34.199  24.586  66.128  1.00  0.00     0.000 C 
BRANCH  19  20
ATOM     20  C   UNL     1      34.785  25.973  66.413  1.00  0.00     0.006 C 
BRANCH  20  21
ATOM     21  C   UNL     1      35.767  26.392  65.313  1.00  0.00     0.053 C 
BRANCH  21  22
ATOM     22  C   UNL     1      37.008  26.975  65.910  1.00  0.00     0.041 C 
ATOM     23  O   UNL     1      37.564  26.412  66.891  1.00  0.00    -0.550 OA
ATOM     24  O   UNL     1      37.529  28.163  65.410  1.00  0.00    -0.550 OA
ENDBRANCH  21  22
ENDBRANCH  20  21
ENDBRANCH  19  20
ENDBRANCH  18  19
ENDBRANCH  17  18
ENDBRANCH  16  17
ENDBRANCH  15  16
ENDBRANCH  14  15
ENDBRANCH  13  14
ENDBRANCH   1  13
TORSDOF 20
ENDMDL
MODEL 7
REMARK VINA RESULT:     2.075     17.049     19.902
REMARK INTER + INTRA:           5.518
REMARK INTER:                   6.094
REMARK INTRA:                  -0.576
REMARK UNBOUND:                 1.016
REMARK SMILES CCCCCCCCCCCCCCCCCCCCCC(=O)[O-]
REMARK SMILES IDX 12 1 11 2 10 3 9 4 8 5 7 6 6 7 5 8 4 9 3 10 2 11 1 12 13 13
REMARK SMILES IDX 14 14 15 15 16 16 17 17 18 18 19 19 20 20 21 21 22 22 23 23
REMARK SMILES IDX 24 24
REMARK H PARENT
REMARK Flexibility Score: inf
ROOT
ATOM      1  C   UNL     1      33.611  23.370  56.778  1.00  0.00     0.000 C 
ENDROOT
BRANCH   1   2
ATOM      2  C   UNL     1      34.949  24.088  56.555  1.00  0.00     0.000 C 
BRANCH   2   3
ATOM      3  C   UNL     1      34.988  24.757  55.174  1.00  0.00     0.000 C 
BRANCH   3   4
ATOM      4  C   UNL     1      35.368  23.779  54.048  1.00  0.00    -0.000 C 
BRANCH   4   5
ATOM      5  C   UNL     1      35.888  24.446  52.758  1.00  0.00    -0.000 C 
BRANCH   5   6
ATOM      6  C   UNL     1      37.251  25.150  52.932  1.00  0.00    -0.000 C 
BRANCH   6   7
ATOM      7  C   UNL     1      38.383  24.409  52.203  1.00  0.00    -0.000 C 
BRANCH   7   8
ATOM      8  C   UNL     1      38.533  22.974  52.731  1.00  0.00    -0.000 C 
BRANCH   8   9
ATOM      9  C   UNL     1      38.312  22.877  54.252  1.00  0.00    -0.000 C 
BRANCH   9  10
ATOM     10  C   UNL     1      39.553  23.252  55.094  1.00  0.00    -0.000 C 
BRANCH  10  11
ATOM     11  C   UNL     1      39.208  23.841  56.473  1.00  0.00    -0.003 C 
ATOM     12  C   UNL     1      40.439  24.324  57.240  1.00  0.00     0.004 C 
ENDBRANCH  10  11
ENDBRANCH   9  10
ENDBRANCH   8   9
ENDBRANCH   7   8
ENDBRANCH   6   7
ENDBRANCH   5   6
ENDBRANCH   4   5
ENDBRANCH   3   4
ENDBRANCH   2   3
ENDBRANCH   1   2
BRANCH   1  13
ATOM     13  C   UNL     1      32.736  24.046  57.846  1.00  0.00     0.000 C 
BRANCH  13  14
ATOM     14  C   UNL     1      32.669  23.266  59.176  1.00  0.00     0.000 C 
BRANCH  14  15
ATOM     15  C   UNL     1      31.982  24.073  60.287  1.00  0.00     0.000 C 
BRANCH  15  16
ATOM     16  C   UNL     1      32.705  23.894  61.627  1.00  0.00     0.000 C 
BRANCH  16  17
ATOM     17  C   UNL     1      31.846  24.410  62.788  1.00  0.00     0.000 C 
BRANCH  17  18
ATOM     18  C   UNL     1      31.624  23.313  63.836  1.00  0.00     0.000 C 
BRANCH  18  19
ATOM     19  C   UNL     1      32.424  23.600  65.113  1.00  0.00     0.000 C 
BRANCH  19  20
ATOM     20  C   UNL     1      33.209  24.911  64.985  1.00  0.00     0.006 C 
BRANCH  20  21
ATOM     21  C   UNL     1      34.719  24.651  65.009  1.00  0.00     0.053 C 
BRANCH  21  22
ATOM     22  C   UNL     1      35.472  25.940  65.108  1.00  0.00     0.041 C 
ATOM     23  O   UNL     1      35.016  26.984  64.571  1.00  0.00    -0.550 OA
ATOM     24  O   UNL     1      36.699  25.979  65.761  1.00  0.00    -0.550 OA
ENDBRANCH  21  22
ENDBRANCH  20  21
ENDBRANCH  19  20
ENDBRANCH  18  19
ENDBRANCH  17  18
ENDBRANCH  16  17
ENDBRANCH  15  16
ENDBRANCH  14  15
ENDBRANCH  13  14
ENDBRANCH   1  13
TORSDOF 20
ENDMDL
MODEL 8
REMARK VINA RESULT:     2.460      9.694     11.618
REMARK INTER + INTRA:           6.351
REMARK INTER:                   5.723
REMARK INTRA:                   0.628
REMARK UNBOUND:                 1.016
REMARK SMILES CCCCCCCCCCCCCCCCCCCCCC(=O)[O-]
REMARK SMILES IDX 12 1 11 2 10 3 9 4 8 5 7 6 6 7 5 8 4 9 3 10 2 11 1 12 13 13
REMARK SMILES IDX 14 14 15 15 16 16 17 17 18 18 19 19 20 20 21 21 22 22 23 23
REMARK SMILES IDX 24 24
REMARK H PARENT
REMARK Flexibility Score: inf
ROOT
ATOM      1  C   UNL     1      38.991  31.098  66.814  1.00  0.00     0.000 C 
ENDROOT
BRANCH   1   2
ATOM      2  C   UNL     1      39.923  32.074  66.084  1.00  0.00     0.000 C 
BRANCH   2   3
ATOM      3  C   UNL     1      40.853  32.787  67.075  1.00  0.00     0.000 C 
BRANCH   3   4
ATOM      4  C   UNL     1      40.618  34.307  67.125  1.00  0.00    -0.000 C 
BRANCH   4   5
ATOM      5  C   UNL     1      41.795  35.163  66.616  1.00  0.00    -0.000 C 
BRANCH   5   6
ATOM      6  C   UNL     1      41.765  36.621  67.124  1.00  0.00    -0.000 C 
BRANCH   6   7
ATOM      7  C   UNL     1      41.333  37.608  66.029  1.00  0.00    -0.000 C 
BRANCH   7   8
ATOM      8  C   UNL     1      40.946  38.967  66.632  1.00  0.00    -0.000 C 
BRANCH   8   9
ATOM      9  C   UNL     1      39.432  39.092  66.885  1.00  0.00    -0.000 C 
BRANCH   9  10
ATOM     10  C   UNL     1      38.636  39.653  65.684  1.00  0.00    -0.000 C 
BRANCH  10  11
ATOM     11  C   UNL     1      38.726  41.182  65.544  1.00  0.00    -0.003 C 
ATOM     12  C   UNL     1      37.510  41.789  64.847  1.00  0.00     0.004 C 
ENDBRANCH  10  11
ENDBRANCH   9  10
ENDBRANCH   8   9
ENDBRANCH   7   8
ENDBRANCH   6   7
ENDBRANCH   5   6
ENDBRANCH   4   5
ENDBRANCH   3   4
ENDBRANCH   2   3
ENDBRANCH   1   2
BRANCH   1  13
ATOM     13  C   UNL     1      38.685  29.832  65.997  1.00  0.00     0.000 C 
BRANCH  13  14
ATOM     14  C   UNL     1      39.151  28.528  66.679  1.00  0.00     0.000 C 
BRANCH  14  15
ATOM     15  C   UNL     1      38.513  27.283  66.045  1.00  0.00     0.000 C 
BRANCH  15  16
ATOM     16  C   UNL     1      37.288  26.823  66.842  1.00  0.00     0.000 C 
BRANCH  16  17
ATOM     17  C   UNL     1      36.298  26.071  65.944  1.00  0.00     0.000 C 
BRANCH  17  18
ATOM     18  C   UNL     1      35.015  25.727  66.708  1.00  0.00     0.000 C 
BRANCH  18  19
ATOM     19  C   UNL     1      34.162  24.718  65.930  1.00  0.00     0.000 C 
BRANCH  19  20
ATOM     20  C   UNL     1      32.867  24.397  66.683  1.00  0.00     0.006 C 
BRANCH  20  21
ATOM     21  C   UNL     1      31.647  24.539  65.766  1.00  0.00     0.053 C 
BRANCH  21  22
ATOM     22  C   UNL     1      32.027  24.282  64.343  1.00  0.00     0.041 C 
ATOM     23  O   UNL     1      33.054  24.822  63.853  1.00  0.00    -0.550 OA
ATOM     24  O   UNL     1      31.224  23.476  63.544  1.00  0.00    -0.550 OA
ENDBRANCH  21  22
ENDBRANCH  20  21
ENDBRANCH  19  20
ENDBRANCH  18  19
ENDBRANCH  17  18
ENDBRANCH  16  17
ENDBRANCH  15  16
ENDBRANCH  14  15
ENDBRANCH  13  14
ENDBRANCH   1  13
TORSDOF 20
ENDMDL
