MODEL 1
REMARK VINA RESULT:    -4.762      0.000      0.000
REMARK INTER + INTRA:         -12.869
REMARK INTER:                 -10.886
REMARK INTRA:                  -1.983
REMARK UNBOUND:                -1.983
REMARK SMILES CCCCCCCCCCCCCCCCCCCCCCCC(=O)[O-]
REMARK SMILES IDX 13 1 14 2 15 3 16 4 17 5 18 6 19 7 20 8 21 9 22 10 23 11
REMARK SMILES IDX 24 12 25 13 26 14 12 15 11 16 10 17 9 18 8 19 7 20 6 21 5 22
REMARK SMILES IDX 4 23 3 24 2 25 1 26
REMARK H PARENT
REMARK Flexibility Score: inf
ROOT
ATOM      1  C   UNL     1       9.507 -15.463  35.882  1.00  0.00     0.000 C 
ENDROOT
BRANCH   1   2
ATOM      2  C   UNL     1      10.746 -14.642  35.470  1.00  0.00     0.000 C 
BRANCH   2   3
ATOM      3  C   UNL     1      10.605 -13.940  34.105  1.00  0.00     0.000 C 
BRANCH   3   4
ATOM      4  C   UNL     1      11.030 -14.783  32.887  1.00  0.00     0.000 C 
BRANCH   4   5
ATOM      5  C   UNL     1       9.904 -15.103  31.882  1.00  0.00     0.000 C 
BRANCH   5   6
ATOM      6  C   UNL     1      10.374 -15.531  30.477  1.00  0.00     0.000 C 
BRANCH   6   7
ATOM      7  C   UNL     1      10.202 -17.028  30.167  1.00  0.00     0.000 C 
BRANCH   7   8
ATOM      8  C   UNL     1      11.141 -17.918  30.996  1.00  0.00     0.000 C 
BRANCH   8   9
ATOM      9  C   UNL     1      10.386 -19.099  31.629  1.00  0.00     0.000 C 
BRANCH   9  10
ATOM     10  C   UNL     1      10.385 -20.340  30.720  1.00  0.00     0.006 C 
BRANCH  10  11
ATOM     11  C   UNL     1       9.015 -20.571  30.070  1.00  0.00     0.053 C 
BRANCH  11  12
ATOM     12  C   UNL     1       9.085 -20.401  28.581  1.00  0.00     0.041 C 
ATOM     13  O   UNL     1      10.041 -20.897  27.928  1.00  0.00    -0.550 OA
ATOM     14  O   UNL     1       8.109 -19.661  27.920  1.00  0.00    -0.550 OA
ENDBRANCH  11  12
ENDBRANCH  10  11
ENDBRANCH   9  10
ENDBRANCH   8   9
ENDBRANCH   7   8
ENDBRANCH   6   7
ENDBRANCH   5   6
ENDBRANCH   4   5
ENDBRANCH   3   4
ENDBRANCH   2   3
ENDBRANCH   1   2
BRANCH   1  15
ATOM     15  C   UNL     1       9.572 -16.923  35.397  1.00  0.00     0.000 C 
BRANCH  15  16
ATOM     16  C   UNL     1       8.446 -17.260  34.398  1.00  0.00     0.000 C 
BRANCH  16  17
ATOM     17  C   UNL     1       7.025 -17.051  34.961  1.00  0.00     0.000 C 
BRANCH  17  18
ATOM     18  C   UNL     1       5.903 -17.766  34.191  1.00  0.00    -0.000 C 
BRANCH  18  19
ATOM     19  C   UNL     1       4.916 -18.497  35.120  1.00  0.00    -0.000 C 
BRANCH  19  20
ATOM     20  C   UNL     1       5.320 -18.407  36.601  1.00  0.00    -0.000 C 
BRANCH  20  21
ATOM     21  C   UNL     1       5.584 -19.763  37.281  1.00  0.00    -0.000 C 
BRANCH  21  22
ATOM     22  C   UNL     1       6.909 -19.790  38.069  1.00  0.00    -0.000 C 
BRANCH  22  23
ATOM     23  C   UNL     1       7.348 -21.220  38.431  1.00  0.00    -0.000 C 
BRANCH  23  24
ATOM     24  C   UNL     1       8.410 -21.259  39.553  1.00  0.00    -0.000 C 
BRANCH  24  25
ATOM     25  C   UNL     1       7.811 -21.210  40.970  1.00  0.00    -0.003 C 
ATOM     26  C   UNL     1       8.827 -20.809  42.037  1.00  0.00     0.004 C 
ENDBRANCH  24  25
ENDBRANCH  23  24
ENDBRANCH  22  23
ENDBRANCH  21  22
ENDBRANCH  20  21
ENDBRANCH  19  20
ENDBRANCH  18  19
ENDBRANCH  17  18
ENDBRANCH  16  17
ENDBRANCH  15  16
ENDBRANCH   1  15
TORSDOF 22
ENDMDL
MODEL 2
REMARK VINA RESULT:    -4.737      4.405      7.980
REMARK INTER + INTRA:         -12.812
REMARK INTER:                  -8.938
REMARK INTRA:                  -3.875
REMARK UNBOUND:                -1.983
REMARK SMILES CCCCCCCCCCCCCCCCCCCCCCCC(=O)[O-]
REMARK SMILES IDX 13 1 14 2 15 3 16 4 17 5 18 6 19 7 20 8 21 9 22 10 23 11
REMARK SMILES IDX 24 12 25 13 26 14 12 15 11 16 10 17 9 18 8 19 7 20 6 21 5 22
REMARK SMILES IDX 4 23 3 24 2 25 1 26
REMARK H PARENT
REMARK Flexibility Score: inf
ROOT
ATOM      1  C   UNL     1       7.361 -17.052  33.180  1.00  0.00     0.000 C 
ENDROOT
BRANCH   1   2
ATOM      2  C   UNL     1       6.755 -17.432  34.547  1.00  0.00     0.000 C 
BRANCH   2   3
ATOM      3  C   UNL     1       7.720 -17.241  35.734  1.00  0.00     0.000 C 
BRANCH   3   4
ATOM      4  C   UNL     1       9.217 -17.260  35.371  1.00  0.00     0.000 C 
BRANCH   4   5
ATOM      5  C   UNL     1       9.976 -15.944  35.638  1.00  0.00     0.000 C 
BRANCH   5   6
ATOM      6  C   UNL     1       9.096 -14.747  36.054  1.00  0.00     0.000 C 
BRANCH   6   7
ATOM      7  C   UNL     1       8.717 -13.794  34.906  1.00  0.00     0.000 C 
BRANCH   7   8
ATOM      8  C   UNL     1       9.544 -14.037  33.635  1.00  0.00     0.000 C 
BRANCH   8   9
ATOM      9  C   UNL     1      10.688 -13.017  33.502  1.00  0.00     0.000 C 
BRANCH   9  10
ATOM     10  C   UNL     1      12.072 -13.684  33.586  1.00  0.00     0.006 C 
BRANCH  10  11
ATOM     11  C   UNL     1      12.743 -13.438  34.944  1.00  0.00     0.053 C 
BRANCH  11  12
ATOM     12  C   UNL     1      12.657 -11.993  35.337  1.00  0.00     0.041 C 
ATOM     13  O   UNL     1      13.291 -11.118  34.690  1.00  0.00    -0.550 OA
ATOM     14  O   UNL     1      11.901 -11.619  36.444  1.00  0.00    -0.550 OA
ENDBRANCH  11  12
ENDBRANCH  10  11
ENDBRANCH   9  10
ENDBRANCH   8   9
ENDBRANCH   7   8
ENDBRANCH   6   7
ENDBRANCH   5   6
ENDBRANCH   4   5
ENDBRANCH   3   4
ENDBRANCH   2   3
ENDBRANCH   1   2
BRANCH   1  15
ATOM     15  C   UNL     1       7.110 -18.120  32.100  1.00  0.00     0.000 C 
BRANCH  15  16
ATOM     16  C   UNL     1       7.476 -17.623  30.686  1.00  0.00     0.000 C 
BRANCH  16  17
ATOM     17  C   UNL     1       8.139 -16.230  30.663  1.00  0.00     0.000 C 
BRANCH  17  18
ATOM     18  C   UNL     1       9.627 -16.218  30.277  1.00  0.00    -0.000 C 
BRANCH  18  19
ATOM     19  C   UNL     1      10.534 -16.786  31.383  1.00  0.00    -0.000 C 
BRANCH  19  20
ATOM     20  C   UNL     1      11.221 -18.099  30.970  1.00  0.00    -0.000 C 
BRANCH  20  21
ATOM     21  C   UNL     1      10.584 -19.371  31.559  1.00  0.00    -0.000 C 
BRANCH  21  22
ATOM     22  C   UNL     1      10.265 -20.432  30.487  1.00  0.00    -0.000 C 
BRANCH  22  23
ATOM     23  C   UNL     1       9.904 -19.804  29.129  1.00  0.00    -0.000 C 
BRANCH  23  24
ATOM     24  C   UNL     1       8.609 -20.385  28.520  1.00  0.00    -0.000 C 
BRANCH  24  25
ATOM     25  C   UNL     1       7.800 -21.250  29.504  1.00  0.00    -0.003 C 
ATOM     26  C   UNL     1       7.364 -22.587  28.909  1.00  0.00     0.004 C 
ENDBRANCH  24  25
ENDBRANCH  23  24
ENDBRANCH  22  23
ENDBRANCH  21  22
ENDBRANCH  20  21
ENDBRANCH  19  20
ENDBRANCH  18  19
ENDBRANCH  17  18
ENDBRANCH  16  17
ENDBRANCH  15  16
ENDBRANCH   1  15
TORSDOF 22
ENDMDL
MODEL 3
REMARK VINA RESULT:    -4.720      3.697      8.936
REMARK INTER + INTRA:         -12.773
REMARK INTER:                  -9.083
REMARK INTRA:                  -3.690
REMARK UNBOUND:                -1.983
REMARK SMILES CCCCCCCCCCCCCCCCCCCCCCCC(=O)[O-]
REMARK SMILES IDX 13 1 14 2 15 3 16 4 17 5 18 6 19 7 20 8 21 9 22 10 23 11
REMARK SMILES IDX 24 12 25 13 26 14 12 15 11 16 10 17 9 18 8 19 7 20 6 21 5 22
REMARK SMILES IDX 4 23 3 24 2 25 1 26
REMARK H PARENT
REMARK Flexibility Score: inf
ROOT
ATOM      1  C   UNL     1       9.196 -16.639  29.784  1.00  0.00     0.000 C 
ENDROOT
BRANCH   1   2
ATOM      2  C   UNL     1       8.060 -16.899  28.773  1.00  0.00     0.000 C 
BRANCH   2   3
ATOM      3  C   UNL     1       7.070 -17.996  29.213  1.00  0.00     0.000 C 
BRANCH   3   4
ATOM      4  C   UNL     1       5.779 -17.485  29.880  1.00  0.00     0.000 C 
BRANCH   4   5
ATOM      5  C   UNL     1       5.786 -17.495  31.422  1.00  0.00     0.000 C 
BRANCH   5   6
ATOM      6  C   UNL     1       6.782 -18.477  32.073  1.00  0.00     0.000 C 
BRANCH   6   7
ATOM      7  C   UNL     1       7.866 -17.816  32.942  1.00  0.00     0.000 C 
BRANCH   7   8
ATOM      8  C   UNL     1       7.285 -16.836  33.973  1.00  0.00     0.000 C 
BRANCH   8   9
ATOM      9  C   UNL     1       7.849 -17.096  35.380  1.00  0.00     0.000 C 
BRANCH   9  10
ATOM     10  C   UNL     1       9.388 -17.111  35.394  1.00  0.00     0.006 C 
BRANCH  10  11
ATOM     11  C   UNL     1       9.969 -15.752  35.806  1.00  0.00     0.053 C 
BRANCH  11  12
ATOM     12  C   UNL     1      10.616 -15.063  34.641  1.00  0.00     0.041 C 
ATOM     13  O   UNL     1      10.700 -15.642  33.525  1.00  0.00    -0.550 OA
ATOM     14  O   UNL     1      11.159 -13.792  34.801  1.00  0.00    -0.550 OA
ENDBRANCH  11  12
ENDBRANCH  10  11
ENDBRANCH   9  10
ENDBRANCH   8   9
ENDBRANCH   7   8
ENDBRANCH   6   7
ENDBRANCH   5   6
ENDBRANCH   4   5
ENDBRANCH   3   4
ENDBRANCH   2   3
ENDBRANCH   1   2
BRANCH   1  15
ATOM     15  C   UNL     1      10.420 -17.542  29.548  1.00  0.00     0.000 C 
BRANCH  15  16
ATOM     16  C   UNL     1      11.071 -18.006  30.868  1.00  0.00     0.000 C 
BRANCH  16  17
ATOM     17  C   UNL     1      10.492 -19.324  31.423  1.00  0.00     0.000 C 
BRANCH  17  18
ATOM     18  C   UNL     1      10.430 -20.487  30.419  1.00  0.00    -0.000 C 
BRANCH  18  19
ATOM     19  C   UNL     1       8.988 -20.880  30.052  1.00  0.00    -0.000 C 
BRANCH  19  20
ATOM     20  C   UNL     1       8.821 -21.187  28.554  1.00  0.00    -0.000 C 
BRANCH  20  21
ATOM     21  C   UNL     1       9.890 -20.555  27.644  1.00  0.00    -0.000 C 
BRANCH  21  22
ATOM     22  C   UNL     1       9.285 -19.664  26.541  1.00  0.00    -0.000 C 
BRANCH  22  23
ATOM     23  C   UNL     1      10.198 -19.557  25.306  1.00  0.00    -0.000 C 
BRANCH  23  24
ATOM     24  C   UNL     1      10.386 -18.103  24.818  1.00  0.00    -0.000 C 
BRANCH  24  25
ATOM     25  C   UNL     1      10.629 -17.098  25.957  1.00  0.00    -0.003 C 
ATOM     26  C   UNL     1      11.994 -16.418  25.877  1.00  0.00     0.004 C 
ENDBRANCH  24  25
ENDBRANCH  23  24
ENDBRANCH  22  23
ENDBRANCH  21  22
ENDBRANCH  20  21
ENDBRANCH  19  20
ENDBRANCH  18  19
ENDBRANCH  17  18
ENDBRANCH  16  17
ENDBRANCH  15  16
ENDBRANCH   1  15
TORSDOF 22
ENDMDL
MODEL 4
REMARK VINA RESULT:    -4.710      3.365      6.601
REMARK INTER + INTRA:         -12.751
REMARK INTER:                  -8.482
REMARK INTRA:                  -4.269
REMARK UNBOUND:                -1.983
REMARK SMILES CCCCCCCCCCCCCCCCCCCCCCCC(=O)[O-]
REMARK SMILES IDX 13 1 14 2 15 3 16 4 17 5 18 6 19 7 20 8 21 9 22 10 23 11
REMARK SMILES IDX 24 12 25 13 26 14 12 15 11 16 10 17 9 18 8 19 7 20 6 21 5 22
REMARK SMILES IDX 4 23 3 24 2 25 1 26
REMARK H PARENT
REMARK Flexibility Score: inf
ROOT
ATOM      1  C   UNL     1      11.174 -18.572  30.876  1.00  0.00     0.000 C 
ENDROOT
BRANCH   1   2
ATOM      2  C   UNL     1      10.611 -19.982  31.147  1.00  0.00     0.000 C 
BRANCH   2   3
ATOM      3  C   UNL     1       9.956 -20.640  29.916  1.00  0.00     0.000 C 
BRANCH   3   4
ATOM      4  C   UNL     1       8.438 -20.876  30.028  1.00  0.00     0.000 C 
BRANCH   4   5
ATOM      5  C   UNL     1       7.599 -19.623  30.350  1.00  0.00     0.000 C 
BRANCH   5   6
ATOM      6  C   UNL     1       7.265 -18.723  29.143  1.00  0.00     0.000 C 
BRANCH   6   7
ATOM      7  C   UNL     1       7.811 -17.287  29.236  1.00  0.00     0.000 C 
BRANCH   7   8
ATOM      8  C   UNL     1       8.621 -16.879  27.995  1.00  0.00     0.000 C 
BRANCH   8   9
ATOM      9  C   UNL     1       9.764 -17.870  27.716  1.00  0.00     0.000 C 
BRANCH   9  10
ATOM     10  C   UNL     1       9.880 -18.213  26.220  1.00  0.00     0.006 C 
BRANCH  10  11
ATOM     11  C   UNL     1       8.757 -19.152  25.761  1.00  0.00     0.053 C 
BRANCH  11  12
ATOM     12  C   UNL     1       8.991 -20.554  26.241  1.00  0.00     0.041 C 
ATOM     13  O   UNL     1       8.021 -21.281  26.583  1.00  0.00    -0.550 OA
ATOM     14  O   UNL     1      10.290 -21.043  26.344  1.00  0.00    -0.550 OA
ENDBRANCH  11  12
ENDBRANCH  10  11
ENDBRANCH   9  10
ENDBRANCH   8   9
ENDBRANCH   7   8
ENDBRANCH   6   7
ENDBRANCH   5   6
ENDBRANCH   4   5
ENDBRANCH   3   4
ENDBRANCH   2   3
ENDBRANCH   1   2
BRANCH   1  15
ATOM     15  C   UNL     1      10.467 -17.481  31.700  1.00  0.00     0.000 C 
BRANCH  15  16
ATOM     16  C   UNL     1       9.612 -18.068  32.842  1.00  0.00     0.000 C 
BRANCH  16  17
ATOM     17  C   UNL     1       8.400 -17.197  33.231  1.00  0.00     0.000 C 
BRANCH  17  18
ATOM     18  C   UNL     1       8.316 -16.816  34.719  1.00  0.00    -0.000 C 
BRANCH  18  19
ATOM     19  C   UNL     1       9.699 -16.720  35.387  1.00  0.00    -0.000 C 
BRANCH  19  20
ATOM     20  C   UNL     1       9.907 -15.388  36.128  1.00  0.00    -0.000 C 
BRANCH  20  21
ATOM     21  C   UNL     1      10.794 -14.370  35.386  1.00  0.00    -0.000 C 
BRANCH  21  22
ATOM     22  C   UNL     1      11.294 -14.892  34.025  1.00  0.00    -0.000 C 
BRANCH  22  23
ATOM     23  C   UNL     1      11.126 -13.854  32.900  1.00  0.00    -0.000 C 
BRANCH  23  24
ATOM     24  C   UNL     1       9.746 -13.931  32.210  1.00  0.00    -0.000 C 
BRANCH  24  25
ATOM     25  C   UNL     1       9.828 -14.239  30.704  1.00  0.00    -0.003 C 
ATOM     26  C   UNL     1       8.891 -13.374  29.863  1.00  0.00     0.004 C 
ENDBRANCH  24  25
ENDBRANCH  23  24
ENDBRANCH  22  23
ENDBRANCH  21  22
ENDBRANCH  20  21
ENDBRANCH  19  20
ENDBRANCH  18  19
ENDBRANCH  17  18
ENDBRANCH  16  17
ENDBRANCH  15  16
ENDBRANCH   1  15
TORSDOF 22
ENDMDL
MODEL 5
REMARK VINA RESULT:    -4.690      3.530      7.154
REMARK INTER + INTRA:         -12.706
REMARK INTER:                  -8.520
REMARK INTRA:                  -4.186
REMARK UNBOUND:                -1.983
REMARK SMILES CCCCCCCCCCCCCCCCCCCCCCCC(=O)[O-]
REMARK SMILES IDX 13 1 14 2 15 3 16 4 17 5 18 6 19 7 20 8 21 9 22 10 23 11
REMARK SMILES IDX 24 12 25 13 26 14 12 15 11 16 10 17 9 18 8 19 7 20 6 21 5 22
REMARK SMILES IDX 4 23 3 24 2 25 1 26
REMARK H PARENT
REMARK Flexibility Score: inf
ROOT
ATOM      1  C   UNL     1       8.038 -20.664  27.194  1.00  0.00     0.000 C 
ENDROOT
BRANCH   1   2
ATOM      2  C   UNL     1       6.932 -21.735  27.283  1.00  0.00     0.000 C 
BRANCH   2   3
ATOM      3  C   UNL     1       7.154 -22.770  28.404  1.00  0.00     0.000 C 
BRANCH   3   4
ATOM      4  C   UNL     1       6.457 -22.450  29.740  1.00  0.00     0.000 C 
BRANCH   4   5
ATOM      5  C   UNL     1       5.214 -21.543  29.633  1.00  0.00     0.000 C 
BRANCH   5   6
ATOM      6  C   UNL     1       5.307 -20.201  30.388  1.00  0.00     0.000 C 
BRANCH   6   7
ATOM      7  C   UNL     1       6.721 -19.827  30.868  1.00  0.00     0.000 C 
BRANCH   7   8
ATOM      8  C   UNL     1       7.024 -18.330  30.711  1.00  0.00     0.000 C 
BRANCH   8   9
ATOM      9  C   UNL     1       7.002 -17.901  29.234  1.00  0.00     0.000 C 
BRANCH   9  10
ATOM     10  C   UNL     1       8.166 -16.957  28.887  1.00  0.00     0.006 C 
BRANCH  10  11
ATOM     11  C   UNL     1       8.415 -16.888  27.375  1.00  0.00     0.053 C 
BRANCH  11  12
ATOM     12  C   UNL     1       9.871 -17.058  27.057  1.00  0.00     0.041 C 
ATOM     13  O   UNL     1      10.742 -16.399  27.686  1.00  0.00    -0.550 OA
ATOM     14  O   UNL     1      10.263 -17.921  26.038  1.00  0.00    -0.550 OA
ENDBRANCH  11  12
ENDBRANCH  10  11
ENDBRANCH   9  10
ENDBRANCH   8   9
ENDBRANCH   7   8
ENDBRANCH   6   7
ENDBRANCH   5   6
ENDBRANCH   4   5
ENDBRANCH   3   4
ENDBRANCH   2   3
ENDBRANCH   1   2
BRANCH   1  15
ATOM     15  C   UNL     1       9.378 -21.140  27.785  1.00  0.00     0.000 C 
BRANCH  15  16
ATOM     16  C   UNL     1       9.943 -20.154  28.828  1.00  0.00     0.000 C 
BRANCH  16  17
ATOM     17  C   UNL     1      10.205 -20.786  30.211  1.00  0.00     0.000 C 
BRANCH  17  18
ATOM     18  C   UNL     1      10.677 -19.809  31.300  1.00  0.00    -0.000 C 
BRANCH  18  19
ATOM     19  C   UNL     1      10.873 -18.377  30.770  1.00  0.00    -0.000 C 
BRANCH  19  20
ATOM     20  C   UNL     1      10.496 -17.305  31.807  1.00  0.00    -0.000 C 
BRANCH  20  21
ATOM     21  C   UNL     1       9.681 -17.827  33.005  1.00  0.00    -0.000 C 
BRANCH  21  22
ATOM     22  C   UNL     1       8.984 -16.699  33.791  1.00  0.00    -0.000 C 
BRANCH  22  23
ATOM     23  C   UNL     1       8.995 -16.948  35.310  1.00  0.00    -0.000 C 
BRANCH  23  24
ATOM     24  C   UNL     1      10.014 -16.061  36.060  1.00  0.00    -0.000 C 
BRANCH  24  25
ATOM     25  C   UNL     1      10.479 -14.838  35.250  1.00  0.00    -0.003 C 
ATOM     26  C   UNL     1       9.841 -13.531  35.717  1.00  0.00     0.004 C 
ENDBRANCH  24  25
ENDBRANCH  23  24
ENDBRANCH  22  23
ENDBRANCH  21  22
ENDBRANCH  20  21
ENDBRANCH  19  20
ENDBRANCH  18  19
ENDBRANCH  17  18
ENDBRANCH  16  17
ENDBRANCH  15  16
ENDBRANCH   1  15
TORSDOF 22
ENDMDL
MODEL 6
REMARK VINA RESULT:    -4.688      3.580      7.741
REMARK INTER + INTRA:         -12.701
REMARK INTER:                  -8.274
REMARK INTRA:                  -4.428
REMARK UNBOUND:                -1.983
REMARK SMILES CCCCCCCCCCCCCCCCCCCCCCCC(=O)[O-]
REMARK SMILES IDX 13 1 14 2 15 3 16 4 17 5 18 6 19 7 20 8 21 9 22 10 23 11
REMARK SMILES IDX 24 12 25 13 26 14 12 15 11 16 10 17 9 18 8 19 7 20 6 21 5 22
REMARK SMILES IDX 4 23 3 24 2 25 1 26
REMARK H PARENT
REMARK Flexibility Score: inf
ROOT
ATOM      1  C   UNL     1       7.106 -18.163  32.741  1.00  0.00     0.000 C 
ENDROOT
BRANCH   1   2
ATOM      2  C   UNL     1       7.306 -16.634  32.791  1.00  0.00     0.000 C 
BRANCH   2   3
ATOM      3  C   UNL     1       8.715 -16.202  33.242  1.00  0.00     0.000 C 
BRANCH   3   4
ATOM      4  C   UNL     1       9.327 -17.046  34.377  1.00  0.00     0.000 C 
BRANCH   4   5
ATOM      5  C   UNL     1       9.572 -16.291  35.700  1.00  0.00     0.000 C 
BRANCH   5   6
ATOM      6  C   UNL     1       9.431 -14.757  35.621  1.00  0.00     0.000 C 
BRANCH   6   7
ATOM      7  C   UNL     1       8.468 -14.143  36.653  1.00  0.00     0.000 C 
BRANCH   7   8
ATOM      8  C   UNL     1       7.312 -15.086  37.020  1.00  0.00     0.000 C 
BRANCH   8   9
ATOM      9  C   UNL     1       6.232 -15.110  35.925  1.00  0.00     0.000 C 
BRANCH   9  10
ATOM     10  C   UNL     1       5.354 -16.371  36.005  1.00  0.00     0.006 C 
BRANCH  10  11
ATOM     11  C   UNL     1       6.174 -17.616  36.369  1.00  0.00     0.053 C 
BRANCH  11  12
ATOM     12  C   UNL     1       5.299 -18.829  36.475  1.00  0.00     0.041 C 
ATOM     13  O   UNL     1       5.609 -19.773  37.250  1.00  0.00    -0.550 OA
ATOM     14  O   UNL     1       4.155 -18.931  35.688  1.00  0.00    -0.550 OA
ENDBRANCH  11  12
ENDBRANCH  10  11
ENDBRANCH   9  10
ENDBRANCH   8   9
ENDBRANCH   7   8
ENDBRANCH   6   7
ENDBRANCH   5   6
ENDBRANCH   4   5
ENDBRANCH   3   4
ENDBRANCH   2   3
ENDBRANCH   1   2
BRANCH   1  15
ATOM     15  C   UNL     1       6.666 -18.661  31.353  1.00  0.00     0.000 C 
BRANCH  15  16
ATOM     16  C   UNL     1       6.784 -17.566  30.272  1.00  0.00     0.000 C 
BRANCH  16  17
ATOM     17  C   UNL     1       6.836 -18.111  28.829  1.00  0.00     0.000 C 
BRANCH  17  18
ATOM     18  C   UNL     1       6.991 -19.636  28.710  1.00  0.00    -0.000 C 
BRANCH  18  19
ATOM     19  C   UNL     1       8.104 -20.045  27.728  1.00  0.00    -0.000 C 
BRANCH  19  20
ATOM     20  C   UNL     1       9.138 -20.989  28.366  1.00  0.00    -0.000 C 
BRANCH  20  21
ATOM     21  C   UNL     1       9.183 -20.951  29.905  1.00  0.00    -0.000 C 
BRANCH  21  22
ATOM     22  C   UNL     1      10.542 -20.474  30.452  1.00  0.00    -0.000 C 
BRANCH  22  23
ATOM     23  C   UNL     1      10.390 -19.399  31.544  1.00  0.00    -0.000 C 
BRANCH  23  24
ATOM     24  C   UNL     1      10.872 -18.004  31.088  1.00  0.00    -0.000 C 
BRANCH  24  25
ATOM     25  C   UNL     1      10.458 -17.649  29.649  1.00  0.00    -0.003 C 
ATOM     26  C   UNL     1      10.125 -16.170  29.468  1.00  0.00     0.004 C 
ENDBRANCH  24  25
ENDBRANCH  23  24
ENDBRANCH  22  23
ENDBRANCH  21  22
ENDBRANCH  20  21
ENDBRANCH  19  20
ENDBRANCH  18  19
ENDBRANCH  17  18
ENDBRANCH  16  17
ENDBRANCH  15  16
ENDBRANCH   1  15
TORSDOF 22
ENDMDL
MODEL 7
REMARK VINA RESULT:    -4.688      4.399      8.276
REMARK INTER + INTRA:         -12.700
REMARK INTER:                  -9.263
REMARK INTRA:                  -3.437
REMARK UNBOUND:                -1.983
REMARK SMILES CCCCCCCCCCCCCCCCCCCCCCCC(=O)[O-]
REMARK SMILES IDX 13 1 14 2 15 3 16 4 17 5 18 6 19 7 20 8 21 9 22 10 23 11
REMARK SMILES IDX 24 12 25 13 26 14 12 15 11 16 10 17 9 18 8 19 7 20 6 21 5 22
REMARK SMILES IDX 4 23 3 24 2 25 1 26
REMARK H PARENT
REMARK Flexibility Score: inf
ROOT
ATOM      1  C   UNL     1       9.569 -16.294  29.384  1.00  0.00     0.000 C 
ENDROOT
BRANCH   1   2
ATOM      2  C   UNL     1      10.371 -15.200  30.119  1.00  0.00     0.000 C 
BRANCH   2   3
ATOM      3  C   UNL     1       9.745 -14.757  31.457  1.00  0.00     0.000 C 
BRANCH   3   4
ATOM      4  C   UNL     1      10.670 -14.871  32.683  1.00  0.00     0.000 C 
BRANCH   4   5
ATOM      5  C   UNL     1      10.172 -14.148  33.952  1.00  0.00     0.000 C 
BRANCH   5   6
ATOM      6  C   UNL     1      10.834 -14.598  35.271  1.00  0.00     0.000 C 
BRANCH   6   7
ATOM      7  C   UNL     1       9.952 -15.488  36.165  1.00  0.00     0.000 C 
BRANCH   7   8
ATOM      8  C   UNL     1       9.536 -16.796  35.475  1.00  0.00     0.000 C 
BRANCH   8   9
ATOM      9  C   UNL     1       8.047 -17.104  35.701  1.00  0.00     0.000 C 
BRANCH   9  10
ATOM     10  C   UNL     1       7.186 -15.829  35.712  1.00  0.00     0.006 C 
BRANCH  10  11
ATOM     11  C   UNL     1       6.120 -15.869  36.815  1.00  0.00     0.053 C 
BRANCH  11  12
ATOM     12  C   UNL     1       6.436 -14.894  37.910  1.00  0.00     0.041 C 
ATOM     13  O   UNL     1       7.368 -14.058  37.770  1.00  0.00    -0.550 OA
ATOM     14  O   UNL     1       5.720 -14.934  39.103  1.00  0.00    -0.550 OA
ENDBRANCH  11  12
ENDBRANCH  10  11
ENDBRANCH   9  10
ENDBRANCH   8   9
ENDBRANCH   7   8
ENDBRANCH   6   7
ENDBRANCH   5   6
ENDBRANCH   4   5
ENDBRANCH   3   4
ENDBRANCH   2   3
ENDBRANCH   1   2
BRANCH   1  15
ATOM     15  C   UNL     1      10.351 -17.612  29.245  1.00  0.00     0.000 C 
BRANCH  15  16
ATOM     16  C   UNL     1      11.058 -18.017  30.555  1.00  0.00     0.000 C 
BRANCH  16  17
ATOM     17  C   UNL     1      10.256 -19.010  31.420  1.00  0.00     0.000 C 
BRANCH  17  18
ATOM     18  C   UNL     1       9.222 -18.373  32.363  1.00  0.00    -0.000 C 
BRANCH  18  19
ATOM     19  C   UNL     1       7.771 -18.665  31.941  1.00  0.00    -0.000 C 
BRANCH  19  20
ATOM     20  C   UNL     1       7.673 -19.792  30.899  1.00  0.00    -0.000 C 
BRANCH  20  21
ATOM     21  C   UNL     1       7.070 -19.370  29.546  1.00  0.00    -0.000 C 
BRANCH  21  22
ATOM     22  C   UNL     1       7.506 -20.285  28.385  1.00  0.00    -0.000 C 
BRANCH  22  23
ATOM     23  C   UNL     1       8.664 -21.220  28.777  1.00  0.00    -0.000 C 
BRANCH  23  24
ATOM     24  C   UNL     1       9.989 -20.870  28.065  1.00  0.00    -0.000 C 
BRANCH  24  25
ATOM     25  C   UNL     1       9.880 -20.857  26.530  1.00  0.00    -0.003 C 
ATOM     26  C   UNL     1      10.011 -19.459  25.930  1.00  0.00     0.004 C 
ENDBRANCH  24  25
ENDBRANCH  23  24
ENDBRANCH  22  23
ENDBRANCH  21  22
ENDBRANCH  20  21
ENDBRANCH  19  20
ENDBRANCH  18  19
ENDBRANCH  17  18
ENDBRANCH  16  17
ENDBRANCH  15  16
ENDBRANCH   1  15
TORSDOF 22
ENDMDL
MODEL 8
REMARK VINA RESULT:    -4.681      3.318      5.273
REMARK INTER + INTRA:         -12.685
REMARK INTER:                  -8.600
REMARK INTRA:                  -4.085
REMARK UNBOUND:                -1.983
REMARK SMILES CCCCCCCCCCCCCCCCCCCCCCCC(=O)[O-]
REMARK SMILES IDX 13 1 14 2 15 3 16 4 17 5 18 6 19 7 20 8 21 9 22 10 23 11
REMARK SMILES IDX 24 12 25 13 26 14 12 15 11 16 10 17 9 18 8 19 7 20 6 21 5 22
REMARK SMILES IDX 4 23 3 24 2 25 1 26
REMARK H PARENT
REMARK Flexibility Score: inf
ROOT
ATOM      1  C   UNL     1       7.869 -17.173  32.055  1.00  0.00     0.000 C 
ENDROOT
BRANCH   1   2
ATOM      2  C   UNL     1       8.876 -18.328  32.231  1.00  0.00     0.000 C 
BRANCH   2   3
ATOM      3  C   UNL     1      10.340 -17.928  31.956  1.00  0.00     0.000 C 
BRANCH   3   4
ATOM      4  C   UNL     1      11.101 -18.852  30.986  1.00  0.00     0.000 C 
BRANCH   4   5
ATOM      5  C   UNL     1      10.664 -20.331  31.006  1.00  0.00     0.000 C 
BRANCH   5   6
ATOM      6  C   UNL     1       9.992 -20.839  29.714  1.00  0.00     0.000 C 
BRANCH   6   7
ATOM      7  C   UNL     1       8.453 -20.846  29.745  1.00  0.00     0.000 C 
BRANCH   7   8
ATOM      8  C   UNL     1       7.837 -19.733  28.884  1.00  0.00     0.000 C 
BRANCH   8   9
ATOM      9  C   UNL     1       8.897 -19.045  28.007  1.00  0.00     0.000 C 
BRANCH   9  10
ATOM     10  C   UNL     1       8.896 -17.517  28.187  1.00  0.00     0.006 C 
BRANCH  10  11
ATOM     11  C   UNL     1      10.316 -16.937  28.161  1.00  0.00     0.053 C 
BRANCH  11  12
ATOM     12  C   UNL     1      10.416 -15.791  27.199  1.00  0.00     0.041 C 
ATOM     13  O   UNL     1       9.617 -14.820  27.279  1.00  0.00    -0.550 OA
ATOM     14  O   UNL     1      11.375 -15.814  26.190  1.00  0.00    -0.550 OA
ENDBRANCH  11  12
ENDBRANCH  10  11
ENDBRANCH   9  10
ENDBRANCH   8   9
ENDBRANCH   7   8
ENDBRANCH   6   7
ENDBRANCH   5   6
ENDBRANCH   4   5
ENDBRANCH   3   4
ENDBRANCH   2   3
ENDBRANCH   1   2
BRANCH   1  15
ATOM     15  C   UNL     1       8.520 -15.896  31.494  1.00  0.00     0.000 C 
BRANCH  15  16
ATOM     16  C   UNL     1       8.439 -14.714  32.481  1.00  0.00     0.000 C 
BRANCH  16  17
ATOM     17  C   UNL     1       9.805 -14.076  32.809  1.00  0.00     0.000 C 
BRANCH  17  18
ATOM     18  C   UNL     1      10.735 -14.931  33.685  1.00  0.00    -0.000 C 
BRANCH  18  19
ATOM     19  C   UNL     1      10.754 -14.475  35.155  1.00  0.00    -0.000 C 
BRANCH  19  20
ATOM     20  C   UNL     1      10.049 -15.471  36.092  1.00  0.00    -0.000 C 
BRANCH  20  21
ATOM     21  C   UNL     1       9.643 -16.801  35.431  1.00  0.00    -0.000 C 
BRANCH  21  22
ATOM     22  C   UNL     1       8.171 -17.175  35.695  1.00  0.00    -0.000 C 
BRANCH  22  23
ATOM     23  C   UNL     1       7.252 -15.942  35.749  1.00  0.00    -0.000 C 
BRANCH  23  24
ATOM     24  C   UNL     1       6.230 -16.001  36.906  1.00  0.00    -0.000 C 
BRANCH  24  25
ATOM     25  C   UNL     1       6.004 -14.645  37.599  1.00  0.00    -0.003 C 
ATOM     26  C   UNL     1       7.269 -14.084  38.246  1.00  0.00     0.004 C 
ENDBRANCH  24  25
ENDBRANCH  23  24
ENDBRANCH  22  23
ENDBRANCH  21  22
ENDBRANCH  20  21
ENDBRANCH  19  20
ENDBRANCH  18  19
ENDBRANCH  17  18
ENDBRANCH  16  17
ENDBRANCH  15  16
ENDBRANCH   1  15
TORSDOF 22
ENDMDL
MODEL 9
REMARK VINA RESULT:    -4.630      3.179      5.276
REMARK INTER + INTRA:         -12.568
REMARK INTER:                  -8.137
REMARK INTRA:                  -4.431
REMARK UNBOUND:                -1.983
REMARK SMILES CCCCCCCCCCCCCCCCCCCCCCCC(=O)[O-]
REMARK SMILES IDX 13 1 14 2 15 3 16 4 17 5 18 6 19 7 20 8 21 9 22 10 23 11
REMARK SMILES IDX 24 12 25 13 26 14 12 15 11 16 10 17 9 18 8 19 7 20 6 21 5 22
REMARK SMILES IDX 4 23 3 24 2 25 1 26
REMARK H PARENT
REMARK Flexibility Score: inf
ROOT
ATOM      1  C   UNL     1       8.840 -15.441  30.409  1.00  0.00     0.000 C 
ENDROOT
BRANCH   1   2
ATOM      2  C   UNL     1      10.294 -15.925  30.235  1.00  0.00     0.000 C 
BRANCH   2   3
ATOM      3  C   UNL     1      10.421 -17.434  29.944  1.00  0.00     0.000 C 
BRANCH   3   4
ATOM      4  C   UNL     1      11.119 -18.257  31.042  1.00  0.00     0.000 C 
BRANCH   4   5
ATOM      5  C   UNL     1      10.514 -19.652  31.304  1.00  0.00     0.000 C 
BRANCH   5   6
ATOM      6  C   UNL     1      10.291 -20.522  30.049  1.00  0.00     0.000 C 
BRANCH   6   7
ATOM      7  C   UNL     1       8.827 -20.921  29.792  1.00  0.00     0.000 C 
BRANCH   7   8
ATOM      8  C   UNL     1       7.832 -20.090  30.615  1.00  0.00     0.000 C 
BRANCH   8   9
ATOM      9  C   UNL     1       7.112 -19.046  29.744  1.00  0.00     0.000 C 
BRANCH   9  10
ATOM     10  C   UNL     1       7.437 -19.215  28.250  1.00  0.00     0.006 C 
BRANCH  10  11
ATOM     11  C   UNL     1       7.658 -17.865  27.556  1.00  0.00     0.053 C 
BRANCH  11  12
ATOM     12  C   UNL     1       8.911 -17.877  26.732  1.00  0.00     0.041 C 
ATOM     13  O   UNL     1       9.291 -16.835  26.133  1.00  0.00    -0.550 OA
ATOM     14  O   UNL     1       9.641 -19.054  26.597  1.00  0.00    -0.550 OA
ENDBRANCH  11  12
ENDBRANCH  10  11
ENDBRANCH   9  10
ENDBRANCH   8   9
ENDBRANCH   7   8
ENDBRANCH   6   7
ENDBRANCH   5   6
ENDBRANCH   4   5
ENDBRANCH   3   4
ENDBRANCH   2   3
ENDBRANCH   1   2
BRANCH   1  15
ATOM     15  C   UNL     1       8.416 -15.348  31.886  1.00  0.00     0.000 C 
BRANCH  15  16
ATOM     16  C   UNL     1       7.358 -16.406  32.261  1.00  0.00     0.000 C 
BRANCH  16  17
ATOM     17  C   UNL     1       7.879 -17.504  33.212  1.00  0.00     0.000 C 
BRANCH  17  18
ATOM     18  C   UNL     1       9.264 -17.240  33.823  1.00  0.00    -0.000 C 
BRANCH  18  19
ATOM     19  C   UNL     1       9.226 -17.127  35.358  1.00  0.00    -0.000 C 
BRANCH  19  20
ATOM     20  C   UNL     1      10.026 -15.923  35.883  1.00  0.00    -0.000 C 
BRANCH  20  21
ATOM     21  C   UNL     1       9.714 -14.587  35.184  1.00  0.00    -0.000 C 
BRANCH  21  22
ATOM     22  C   UNL     1       9.293 -13.479  36.169  1.00  0.00    -0.000 C 
BRANCH  22  23
ATOM     23  C   UNL     1       7.769 -13.262  36.193  1.00  0.00    -0.000 C 
BRANCH  23  24
ATOM     24  C   UNL     1       7.028 -14.063  35.100  1.00  0.00    -0.000 C 
BRANCH  24  25
ATOM     25  C   UNL     1       5.829 -14.868  35.633  1.00  0.00    -0.003 C 
ATOM     26  C   UNL     1       6.201 -15.814  36.773  1.00  0.00     0.004 C 
ENDBRANCH  24  25
ENDBRANCH  23  24
ENDBRANCH  22  23
ENDBRANCH  21  22
ENDBRANCH  20  21
ENDBRANCH  19  20
ENDBRANCH  18  19
ENDBRANCH  17  18
ENDBRANCH  16  17
ENDBRANCH  15  16
ENDBRANCH   1  15
TORSDOF 22
ENDMDL
