MODEL 1
REMARK VINA RESULT:    -2.153      0.000      0.000
REMARK INTER + INTRA:          -6.364
REMARK INTER:                  -3.916
REMARK INTRA:                  -2.448
REMARK UNBOUND:                -2.448
REMARK SMILES CCCCCCCCCCCCCCCC(=O)[O-]
REMARK SMILES IDX 9 1 10 2 11 3 12 4 13 5 14 6 15 7 16 8 17 9 18 10 8 11 7 12
REMARK SMILES IDX 6 13 5 14 4 15 3 16 2 17 1 18
REMARK H PARENT
REMARK Flexibility Score: inf
ROOT
ATOM      1  C   UNL     1      -2.888   9.995 -11.609  1.00  0.00     0.000 C 
ENDROOT
BRANCH   1   2
ATOM      2  C   UNL     1      -3.999  10.106 -10.553  1.00  0.00     0.000 C 
BRANCH   2   3
ATOM      3  C   UNL     1      -3.813   9.110  -9.395  1.00  0.00     0.000 C 
BRANCH   3   4
ATOM      4  C   UNL     1      -2.840   7.974  -9.746  1.00  0.00     0.000 C 
BRANCH   4   5
ATOM      5  C   UNL     1      -2.693   6.944  -8.611  1.00  0.00     0.000 C 
BRANCH   5   6
ATOM      6  C   UNL     1      -1.225   6.624  -8.291  1.00  0.00     0.006 C 
BRANCH   6   7
ATOM      7  C   UNL     1      -0.802   7.123  -6.904  1.00  0.00     0.053 C 
BRANCH   7   8
ATOM      8  C   UNL     1       0.179   6.178  -6.286  1.00  0.00     0.041 C 
ATOM      9  O   UNL     1       0.926   6.564  -5.349  1.00  0.00    -0.550 OA
ATOM     10  O   UNL     1       0.302   4.884  -6.777  1.00  0.00    -0.550 OA
ENDBRANCH   7   8
ENDBRANCH   6   7
ENDBRANCH   5   6
ENDBRANCH   4   5
ENDBRANCH   3   4
ENDBRANCH   2   3
ENDBRANCH   1   2
BRANCH   1  11
ATOM     11  C   UNL     1      -2.330  11.366 -12.032  1.00  0.00     0.000 C 
BRANCH  11  12
ATOM     12  C   UNL     1      -2.924  12.523 -11.215  1.00  0.00    -0.000 C 
BRANCH  12  13
ATOM     13  C   UNL     1      -1.843  13.411 -10.575  1.00  0.00    -0.000 C 
BRANCH  13  14
ATOM     14  C   UNL     1      -0.756  12.579  -9.860  1.00  0.00    -0.000 C 
BRANCH  14  15
ATOM     15  C   UNL     1      -1.274  11.815  -8.630  1.00  0.00    -0.000 C 
BRANCH  15  16
ATOM     16  C   UNL     1      -0.490  10.522  -8.355  1.00  0.00    -0.000 C 
BRANCH  16  17
ATOM     17  C   UNL     1       0.211   9.980  -9.611  1.00  0.00    -0.003 C 
ATOM     18  C   UNL     1       1.418   9.101  -9.283  1.00  0.00     0.004 C 
ENDBRANCH  16  17
ENDBRANCH  15  16
ENDBRANCH  14  15
ENDBRANCH  13  14
ENDBRANCH  12  13
ENDBRANCH  11  12
ENDBRANCH   1  11
TORSDOF 14
ENDMDL
MODEL 2
REMARK VINA RESULT:    -2.146      6.570      8.793
REMARK INTER + INTRA:          -6.351
REMARK INTER:                  -3.938
REMARK INTRA:                  -2.414
REMARK UNBOUND:                -2.448
REMARK SMILES CCCCCCCCCCCCCCCC(=O)[O-]
REMARK SMILES IDX 9 1 10 2 11 3 12 4 13 5 14 6 15 7 16 8 17 9 18 10 8 11 7 12
REMARK SMILES IDX 6 13 5 14 4 15 3 16 2 17 1 18
REMARK H PARENT
REMARK Flexibility Score: inf
ROOT
ATOM      1  C   UNL     1       1.070  16.160  -2.012  1.00  0.00     0.000 C 
ENDROOT
BRANCH   1   2
ATOM      2  C   UNL     1       1.962  16.332  -3.251  1.00  0.00     0.000 C 
BRANCH   2   3
ATOM      3  C   UNL     1       1.168  16.241  -4.566  1.00  0.00     0.000 C 
BRANCH   3   4
ATOM      4  C   UNL     1       1.635  15.078  -5.456  1.00  0.00     0.000 C 
BRANCH   4   5
ATOM      5  C   UNL     1       0.540  14.018  -5.671  1.00  0.00     0.000 C 
BRANCH   5   6
ATOM      6  C   UNL     1       1.058  12.776  -6.412  1.00  0.00     0.006 C 
BRANCH   6   7
ATOM      7  C   UNL     1       0.884  12.882  -7.933  1.00  0.00     0.053 C 
BRANCH   7   8
ATOM      8  C   UNL     1      -0.500  12.476  -8.330  1.00  0.00     0.041 C 
ATOM      9  O   UNL     1      -0.972  11.374  -7.946  1.00  0.00    -0.550 OA
ATOM     10  O   UNL     1      -1.251  13.295  -9.164  1.00  0.00    -0.550 OA
ENDBRANCH   7   8
ENDBRANCH   6   7
ENDBRANCH   5   6
ENDBRANCH   4   5
ENDBRANCH   3   4
ENDBRANCH   2   3
ENDBRANCH   1   2
BRANCH   1  11
ATOM     11  C   UNL     1      -0.430  16.287  -2.335  1.00  0.00     0.000 C 
BRANCH  11  12
ATOM     12  C   UNL     1      -1.262  15.141  -1.739  1.00  0.00    -0.000 C 
BRANCH  12  13
ATOM     13  C   UNL     1      -0.795  13.757  -2.224  1.00  0.00    -0.000 C 
BRANCH  13  14
ATOM     14  C   UNL     1      -0.318  12.864  -1.058  1.00  0.00    -0.000 C 
BRANCH  14  15
ATOM     15  C   UNL     1       1.158  12.445  -1.168  1.00  0.00    -0.000 C 
BRANCH  15  16
ATOM     16  C   UNL     1       1.651  12.368  -2.621  1.00  0.00    -0.000 C 
BRANCH  16  17
ATOM     17  C   UNL     1       3.093  12.876  -2.782  1.00  0.00    -0.003 C 
ATOM     18  C   UNL     1       3.674  13.431  -1.482  1.00  0.00     0.004 C 
ENDBRANCH  16  17
ENDBRANCH  15  16
ENDBRANCH  14  15
ENDBRANCH  13  14
ENDBRANCH  12  13
ENDBRANCH  11  12
ENDBRANCH   1  11
TORSDOF 14
ENDMDL
MODEL 3
REMARK VINA RESULT:    -2.100      7.396      9.000
REMARK INTER + INTRA:          -6.267
REMARK INTER:                  -4.243
REMARK INTRA:                  -2.024
REMARK UNBOUND:                -2.448
REMARK SMILES CCCCCCCCCCCCCCCC(=O)[O-]
REMARK SMILES IDX 9 1 10 2 11 3 12 4 13 5 14 6 15 7 16 8 17 9 18 10 8 11 7 12
REMARK SMILES IDX 6 13 5 14 4 15 3 16 2 17 1 18
REMARK H PARENT
REMARK Flexibility Score: inf
ROOT
ATOM      1  C   UNL     1      -1.954  16.590  -0.433  1.00  0.00     0.000 C 
ENDROOT
BRANCH   1   2
ATOM      2  C   UNL     1      -3.355  16.072  -0.794  1.00  0.00     0.000 C 
BRANCH   2   3
ATOM      3  C   UNL     1      -3.341  14.605  -1.259  1.00  0.00     0.000 C 
BRANCH   3   4
ATOM      4  C   UNL     1      -2.653  13.675  -0.248  1.00  0.00     0.000 C 
BRANCH   4   5
ATOM      5  C   UNL     1      -1.536  12.828  -0.883  1.00  0.00     0.000 C 
BRANCH   5   6
ATOM      6  C   UNL     1      -0.287  12.735   0.006  1.00  0.00     0.006 C 
BRANCH   6   7
ATOM      7  C   UNL     1       0.728  11.707  -0.508  1.00  0.00     0.053 C 
BRANCH   7   8
ATOM      8  C   UNL     1       0.569  10.408   0.215  1.00  0.00     0.041 C 
ATOM      9  O   UNL     1       1.034   9.347  -0.278  1.00  0.00    -0.550 OA
ATOM     10  O   UNL     1      -0.136  10.361   1.412  1.00  0.00    -0.550 OA
ENDBRANCH   7   8
ENDBRANCH   6   7
ENDBRANCH   5   6
ENDBRANCH   4   5
ENDBRANCH   3   4
ENDBRANCH   2   3
ENDBRANCH   1   2
BRANCH   1  11
ATOM     11  C   UNL     1      -1.262  17.303  -1.608  1.00  0.00     0.000 C 
BRANCH  11  12
ATOM     12  C   UNL     1       0.075  16.651  -1.992  1.00  0.00    -0.000 C 
BRANCH  12  13
ATOM     13  C   UNL     1      -0.099  15.477  -2.971  1.00  0.00    -0.000 C 
BRANCH  13  14
ATOM     14  C   UNL     1       1.117  14.525  -2.959  1.00  0.00    -0.000 C 
BRANCH  14  15
ATOM     15  C   UNL     1       0.943  13.292  -3.862  1.00  0.00    -0.000 C 
BRANCH  15  16
ATOM     16  C   UNL     1      -0.366  13.321  -4.668  1.00  0.00    -0.000 C 
BRANCH  16  17
ATOM     17  C   UNL     1      -0.128  13.228  -6.183  1.00  0.00    -0.003 C 
ATOM     18  C   UNL     1       1.180  13.888  -6.619  1.00  0.00     0.004 C 
ENDBRANCH  16  17
ENDBRANCH  15  16
ENDBRANCH  14  15
ENDBRANCH  13  14
ENDBRANCH  12  13
ENDBRANCH  11  12
ENDBRANCH   1  11
TORSDOF 14
ENDMDL
MODEL 4
REMARK VINA RESULT:    -2.079      7.753      9.434
REMARK INTER + INTRA:          -6.230
REMARK INTER:                  -3.677
REMARK INTRA:                  -2.553
REMARK UNBOUND:                -2.448
REMARK SMILES CCCCCCCCCCCCCCCC(=O)[O-]
REMARK SMILES IDX 9 1 10 2 11 3 12 4 13 5 14 6 15 7 16 8 17 9 18 10 8 11 7 12
REMARK SMILES IDX 6 13 5 14 4 15 3 16 2 17 1 18
REMARK H PARENT
REMARK Flexibility Score: inf
ROOT
ATOM      1  C   UNL     1      -0.427  13.989  -3.500  1.00  0.00     0.000 C 
ENDROOT
BRANCH   1   2
ATOM      2  C   UNL     1       1.006  13.448  -3.370  1.00  0.00     0.000 C 
BRANCH   2   3
ATOM      3  C   UNL     1       1.173  12.509  -2.163  1.00  0.00     0.000 C 
BRANCH   3   4
ATOM      4  C   UNL     1       1.843  13.202  -0.966  1.00  0.00     0.000 C 
BRANCH   4   5
ATOM      5  C   UNL     1       1.160  12.869   0.372  1.00  0.00     0.000 C 
BRANCH   5   6
ATOM      6  C   UNL     1       0.199  11.675   0.264  1.00  0.00     0.006 C 
BRANCH   6   7
ATOM      7  C   UNL     1       0.723  10.429   0.989  1.00  0.00     0.053 C 
BRANCH   7   8
ATOM      8  C   UNL     1       1.239   9.429   0.004  1.00  0.00     0.041 C 
ATOM      9  O   UNL     1       2.335   9.626  -0.584  1.00  0.00    -0.550 OA
ATOM     10  O   UNL     1       0.486   8.302  -0.302  1.00  0.00    -0.550 OA
ENDBRANCH   7   8
ENDBRANCH   6   7
ENDBRANCH   5   6
ENDBRANCH   4   5
ENDBRANCH   3   4
ENDBRANCH   2   3
ENDBRANCH   1   2
BRANCH   1  11
ATOM     11  C   UNL     1      -1.437  13.217  -2.634  1.00  0.00     0.000 C 
BRANCH  11  12
ATOM     12  C   UNL     1      -2.148  14.116  -1.610  1.00  0.00    -0.000 C 
BRANCH  12  13
ATOM     13  C   UNL     1      -1.676  15.579  -1.680  1.00  0.00    -0.000 C 
BRANCH  13  14
ATOM     14  C   UNL     1      -0.740  15.944  -0.507  1.00  0.00    -0.000 C 
BRANCH  14  15
ATOM     15  C   UNL     1       0.183  17.138  -0.804  1.00  0.00    -0.000 C 
BRANCH  15  16
ATOM     16  C   UNL     1       1.610  16.710  -1.185  1.00  0.00    -0.000 C 
BRANCH  16  17
ATOM     17  C   UNL     1       2.096  17.372  -2.483  1.00  0.00    -0.003 C 
ATOM     18  C   UNL     1       1.051  17.329  -3.598  1.00  0.00     0.004 C 
ENDBRANCH  16  17
ENDBRANCH  15  16
ENDBRANCH  14  15
ENDBRANCH  13  14
ENDBRANCH  12  13
ENDBRANCH  11  12
ENDBRANCH   1  11
TORSDOF 14
ENDMDL
MODEL 5
REMARK VINA RESULT:    -2.023      6.887      9.259
REMARK INTER + INTRA:          -6.127
REMARK INTER:                  -4.299
REMARK INTRA:                  -1.828
REMARK UNBOUND:                -2.448
REMARK SMILES CCCCCCCCCCCCCCCC(=O)[O-]
REMARK SMILES IDX 9 1 10 2 11 3 12 4 13 5 14 6 15 7 16 8 17 9 18 10 8 11 7 12
REMARK SMILES IDX 6 13 5 14 4 15 3 16 2 17 1 18
REMARK H PARENT
REMARK Flexibility Score: inf
ROOT
ATOM      1  C   UNL     1       1.490  14.574  -1.748  1.00  0.00     0.000 C 
ENDROOT
BRANCH   1   2
ATOM      2  C   UNL     1       1.878  15.371  -3.004  1.00  0.00     0.000 C 
BRANCH   2   3
ATOM      3  C   UNL     1       0.744  15.424  -4.043  1.00  0.00     0.000 C 
BRANCH   3   4
ATOM      4  C   UNL     1       1.130  14.754  -5.370  1.00  0.00     0.000 C 
BRANCH   4   5
ATOM      5  C   UNL     1       0.179  13.607  -5.756  1.00  0.00     0.000 C 
BRANCH   5   6
ATOM      6  C   UNL     1       0.732  12.740  -6.897  1.00  0.00     0.006 C 
BRANCH   6   7
ATOM      7  C   UNL     1       0.384  13.297  -8.283  1.00  0.00     0.053 C 
BRANCH   7   8
ATOM      8  C   UNL     1      -0.876  12.674  -8.795  1.00  0.00     0.041 C 
ATOM      9  O   UNL     1      -1.613  13.303  -9.598  1.00  0.00    -0.550 OA
ATOM     10  O   UNL     1      -1.261  11.416  -8.347  1.00  0.00    -0.550 OA
ENDBRANCH   7   8
ENDBRANCH   6   7
ENDBRANCH   5   6
ENDBRANCH   4   5
ENDBRANCH   3   4
ENDBRANCH   2   3
ENDBRANCH   1   2
BRANCH   1  11
ATOM     11  C   UNL     1       0.875  13.203  -2.080  1.00  0.00     0.000 C 
BRANCH  11  12
ATOM     12  C   UNL     1      -0.431  12.940  -1.315  1.00  0.00    -0.000 C 
BRANCH  12  13
ATOM     13  C   UNL     1      -1.653  13.590  -1.989  1.00  0.00    -0.000 C 
BRANCH  13  14
ATOM     14  C   UNL     1      -2.711  14.043  -0.960  1.00  0.00    -0.000 C 
BRANCH  14  15
ATOM     15  C   UNL     1      -2.897  15.569  -0.898  1.00  0.00    -0.000 C 
BRANCH  15  16
ATOM     16  C   UNL     1      -1.882  16.331  -1.766  1.00  0.00    -0.000 C 
BRANCH  16  17
ATOM     17  C   UNL     1      -0.926  17.196  -0.931  1.00  0.00    -0.003 C 
ATOM     18  C   UNL     1      -0.231  18.278  -1.758  1.00  0.00     0.004 C 
ENDBRANCH  16  17
ENDBRANCH  15  16
ENDBRANCH  14  15
ENDBRANCH  13  14
ENDBRANCH  12  13
ENDBRANCH  11  12
ENDBRANCH   1  11
TORSDOF 14
ENDMDL
MODEL 6
REMARK VINA RESULT:    -2.013      6.953      8.616
REMARK INTER + INTRA:          -6.109
REMARK INTER:                  -3.673
REMARK INTRA:                  -2.437
REMARK UNBOUND:                -2.448
REMARK SMILES CCCCCCCCCCCCCCCC(=O)[O-]
REMARK SMILES IDX 9 1 10 2 11 3 12 4 13 5 14 6 15 7 16 8 17 9 18 10 8 11 7 12
REMARK SMILES IDX 6 13 5 14 4 15 3 16 2 17 1 18
REMARK H PARENT
REMARK Flexibility Score: inf
ROOT
ATOM      1  C   UNL     1      -0.824  14.410  -2.837  1.00  0.00     0.000 C 
ENDROOT
BRANCH   1   2
ATOM      2  C   UNL     1      -1.662  13.281  -2.216  1.00  0.00     0.000 C 
BRANCH   2   3
ATOM      3  C   UNL     1      -1.503  13.200  -0.688  1.00  0.00     0.000 C 
BRANCH   3   4
ATOM      4  C   UNL     1      -0.300  12.343  -0.266  1.00  0.00     0.000 C 
BRANCH   4   5
ATOM      5  C   UNL     1       0.883  13.187   0.241  1.00  0.00     0.000 C 
BRANCH   5   6
ATOM      6  C   UNL     1       2.081  13.163  -0.720  1.00  0.00     0.006 C 
BRANCH   6   7
ATOM      7  C   UNL     1       1.899  12.159  -1.864  1.00  0.00     0.053 C 
BRANCH   7   8
ATOM      8  C   UNL     1       3.036  11.187  -1.893  1.00  0.00     0.041 C 
ATOM      9  O   UNL     1       3.351  10.612  -2.967  1.00  0.00    -0.550 OA
ATOM     10  O   UNL     1       3.718  10.881  -0.721  1.00  0.00    -0.550 OA
ENDBRANCH   7   8
ENDBRANCH   6   7
ENDBRANCH   5   6
ENDBRANCH   4   5
ENDBRANCH   3   4
ENDBRANCH   2   3
ENDBRANCH   1   2
BRANCH   1  11
ATOM     11  C   UNL     1      -0.910  15.723  -2.039  1.00  0.00     0.000 C 
BRANCH  11  12
ATOM     12  C   UNL     1       0.318  16.622  -2.246  1.00  0.00    -0.000 C 
BRANCH  12  13
ATOM     13  C   UNL     1       1.441  15.918  -3.029  1.00  0.00    -0.000 C 
BRANCH  13  14
ATOM     14  C   UNL     1       1.636  16.523  -4.436  1.00  0.00    -0.000 C 
BRANCH  14  15
ATOM     15  C   UNL     1       1.729  15.469  -5.552  1.00  0.00    -0.000 C 
BRANCH  15  16
ATOM     16  C   UNL     1       2.229  14.106  -5.047  1.00  0.00    -0.000 C 
BRANCH  16  17
ATOM     17  C   UNL     1       1.308  12.949  -5.466  1.00  0.00    -0.003 C 
ATOM     18  C   UNL     1       0.070  13.423  -6.229  1.00  0.00     0.004 C 
ENDBRANCH  16  17
ENDBRANCH  15  16
ENDBRANCH  14  15
ENDBRANCH  13  14
ENDBRANCH  12  13
ENDBRANCH  11  12
ENDBRANCH   1  11
TORSDOF 14
ENDMDL
MODEL 7
REMARK VINA RESULT:    -2.008      3.320      5.157
REMARK INTER + INTRA:          -6.100
REMARK INTER:                  -3.772
REMARK INTRA:                  -2.328
REMARK UNBOUND:                -2.448
REMARK SMILES CCCCCCCCCCCCCCCC(=O)[O-]
REMARK SMILES IDX 9 1 10 2 11 3 12 4 13 5 14 6 15 7 16 8 17 9 18 10 8 11 7 12
REMARK SMILES IDX 6 13 5 14 4 15 3 16 2 17 1 18
REMARK H PARENT
REMARK Flexibility Score: inf
ROOT
ATOM      1  C   UNL     1      -5.502   8.336 -10.217  1.00  0.00     0.000 C 
ENDROOT
BRANCH   1   2
ATOM      2  C   UNL     1      -5.119   8.802  -8.803  1.00  0.00     0.000 C 
BRANCH   2   3
ATOM      3  C   UNL     1      -3.687   9.359  -8.734  1.00  0.00     0.000 C 
BRANCH   3   4
ATOM      4  C   UNL     1      -2.668   8.452  -9.441  1.00  0.00     0.000 C 
BRANCH   4   5
ATOM      5  C   UNL     1      -1.339   9.170  -9.739  1.00  0.00     0.000 C 
BRANCH   5   6
ATOM      6  C   UNL     1      -1.082  10.353  -8.793  1.00  0.00     0.006 C 
BRANCH   6   7
ATOM      7  C   UNL     1       0.107  11.215  -9.237  1.00  0.00     0.053 C 
BRANCH   7   8
ATOM      8  C   UNL     1      -0.164  12.660  -8.963  1.00  0.00     0.041 C 
ATOM      9  O   UNL     1      -1.332  13.046  -8.696  1.00  0.00    -0.550 OA
ATOM     10  O   UNL     1       0.866  13.589  -9.052  1.00  0.00    -0.550 OA
ENDBRANCH   7   8
ENDBRANCH   6   7
ENDBRANCH   5   6
ENDBRANCH   4   5
ENDBRANCH   3   4
ENDBRANCH   2   3
ENDBRANCH   1   2
BRANCH   1  11
ATOM     11  C   UNL     1      -6.437   9.325 -10.937  1.00  0.00     0.000 C 
BRANCH  11  12
ATOM     12  C   UNL     1      -5.671  10.356 -11.779  1.00  0.00    -0.000 C 
BRANCH  12  13
ATOM     13  C   UNL     1      -4.467   9.743 -12.514  1.00  0.00    -0.000 C 
BRANCH  13  14
ATOM     14  C   UNL     1      -3.232  10.669 -12.481  1.00  0.00    -0.000 C 
BRANCH  14  15
ATOM     15  C   UNL     1      -3.350  11.816 -11.463  1.00  0.00    -0.000 C 
BRANCH  15  16
ATOM     16  C   UNL     1      -2.623  13.093 -11.914  1.00  0.00    -0.000 C 
BRANCH  16  17
ATOM     17  C   UNL     1      -3.499  13.986 -12.806  1.00  0.00    -0.003 C 
ATOM     18  C   UNL     1      -4.964  14.005 -12.369  1.00  0.00     0.004 C 
ENDBRANCH  16  17
ENDBRANCH  15  16
ENDBRANCH  14  15
ENDBRANCH  13  14
ENDBRANCH  12  13
ENDBRANCH  11  12
ENDBRANCH   1  11
TORSDOF 14
ENDMDL
MODEL 8
REMARK VINA RESULT:    -2.001      5.769      7.915
REMARK INTER + INTRA:          -6.087
REMARK INTER:                  -3.590
REMARK INTRA:                  -2.497
REMARK UNBOUND:                -2.448
REMARK SMILES CCCCCCCCCCCCCCCC(=O)[O-]
REMARK SMILES IDX 9 1 10 2 11 3 12 4 13 5 14 6 15 7 16 8 17 9 18 10 8 11 7 12
REMARK SMILES IDX 6 13 5 14 4 15 3 16 2 17 1 18
REMARK H PARENT
REMARK Flexibility Score: inf
ROOT
ATOM      1  C   UNL     1       3.985  13.914  -5.989  1.00  0.00     0.000 C 
ENDROOT
BRANCH   1   2
ATOM      2  C   UNL     1       3.837  12.524  -5.352  1.00  0.00     0.000 C 
BRANCH   2   3
ATOM      3  C   UNL     1       2.668  11.722  -5.951  1.00  0.00     0.000 C 
BRANCH   3   4
ATOM      4  C   UNL     1       2.383  12.100  -7.412  1.00  0.00     0.000 C 
BRANCH   4   5
ATOM      5  C   UNL     1       0.904  11.915  -7.796  1.00  0.00     0.000 C 
BRANCH   5   6
ATOM      6  C   UNL     1       0.176  13.252  -8.007  1.00  0.00     0.006 C 
BRANCH   6   7
ATOM      7  C   UNL     1       0.333  13.790  -9.434  1.00  0.00     0.053 C 
BRANCH   7   8
ATOM      8  C   UNL     1      -0.770  13.283 -10.308  1.00  0.00     0.041 C 
ATOM      9  O   UNL     1      -1.968  13.373  -9.932  1.00  0.00    -0.550 OA
ATOM     10  O   UNL     1      -0.471  12.666 -11.517  1.00  0.00    -0.550 OA
ENDBRANCH   7   8
ENDBRANCH   6   7
ENDBRANCH   5   6
ENDBRANCH   4   5
ENDBRANCH   3   4
ENDBRANCH   2   3
ENDBRANCH   1   2
BRANCH   1  11
ATOM     11  C   UNL     1       3.342  15.028  -5.144  1.00  0.00     0.000 C 
BRANCH  11  12
ATOM     12  C   UNL     1       1.931  15.397  -5.626  1.00  0.00    -0.000 C 
BRANCH  12  13
ATOM     13  C   UNL     1       0.878  15.293  -4.508  1.00  0.00    -0.000 C 
BRANCH  13  14
ATOM     14  C   UNL     1       0.248  13.885  -4.432  1.00  0.00    -0.000 C 
BRANCH  14  15
ATOM     15  C   UNL     1       0.540  13.150  -3.113  1.00  0.00    -0.000 C 
BRANCH  15  16
ATOM     16  C   UNL     1       1.406  13.975  -2.147  1.00  0.00    -0.000 C 
BRANCH  16  17
ATOM     17  C   UNL     1       2.737  13.285  -1.812  1.00  0.00    -0.003 C 
ATOM     18  C   UNL     1       2.682  11.768  -2.002  1.00  0.00     0.004 C 
ENDBRANCH  16  17
ENDBRANCH  15  16
ENDBRANCH  14  15
ENDBRANCH  13  14
ENDBRANCH  12  13
ENDBRANCH  11  12
ENDBRANCH   1  11
TORSDOF 14
ENDMDL
MODEL 9
REMARK VINA RESULT:    -1.976      3.005      5.596
REMARK INTER + INTRA:          -6.042
REMARK INTER:                  -3.287
REMARK INTRA:                  -2.755
REMARK UNBOUND:                -2.448
REMARK SMILES CCCCCCCCCCCCCCCC(=O)[O-]
REMARK SMILES IDX 9 1 10 2 11 3 12 4 13 5 14 6 15 7 16 8 17 9 18 10 8 11 7 12
REMARK SMILES IDX 6 13 5 14 4 15 3 16 2 17 1 18
REMARK H PARENT
REMARK Flexibility Score: inf
ROOT
ATOM      1  C   UNL     1      -0.420   9.987 -11.462  1.00  0.00     0.000 C 
ENDROOT
BRANCH   1   2
ATOM      2  C   UNL     1      -1.285  10.460 -12.641  1.00  0.00     0.000 C 
BRANCH   2   3
ATOM      3  C   UNL     1      -1.333  11.993 -12.759  1.00  0.00     0.000 C 
BRANCH   3   4
ATOM      4  C   UNL     1      -2.619  12.590 -12.167  1.00  0.00     0.000 C 
BRANCH   4   5
ATOM      5  C   UNL     1      -2.360  13.417 -10.895  1.00  0.00     0.000 C 
BRANCH   5   6
ATOM      6  C   UNL     1      -0.863  13.630 -10.623  1.00  0.00     0.006 C 
BRANCH   6   7
ATOM      7  C   UNL     1      -0.455  13.204  -9.208  1.00  0.00     0.053 C 
BRANCH   7   8
ATOM      8  C   UNL     1       0.903  12.576  -9.222  1.00  0.00     0.041 C 
ATOM      9  O   UNL     1       1.752  12.922 -10.084  1.00  0.00    -0.550 OA
ATOM     10  O   UNL     1       1.214  11.573  -8.312  1.00  0.00    -0.550 OA
ENDBRANCH   7   8
ENDBRANCH   6   7
ENDBRANCH   5   6
ENDBRANCH   4   5
ENDBRANCH   3   4
ENDBRANCH   2   3
ENDBRANCH   1   2
BRANCH   1  11
ATOM     11  C   UNL     1      -1.148   8.978 -10.556  1.00  0.00     0.000 C 
BRANCH  11  12
ATOM     12  C   UNL     1      -1.500   9.566  -9.181  1.00  0.00    -0.000 C 
BRANCH  12  13
ATOM     13  C   UNL     1      -2.889  10.227  -9.158  1.00  0.00    -0.000 C 
BRANCH  13  14
ATOM     14  C   UNL     1      -4.009   9.216  -8.830  1.00  0.00    -0.000 C 
BRANCH  14  15
ATOM     15  C   UNL     1      -5.149   9.203  -9.863  1.00  0.00    -0.000 C 
BRANCH  15  16
ATOM     16  C   UNL     1      -4.825  10.025 -11.121  1.00  0.00    -0.000 C 
BRANCH  16  17
ATOM     17  C   UNL     1      -4.931   9.197 -12.410  1.00  0.00    -0.003 C 
ATOM     18  C   UNL     1      -4.114   7.906 -12.354  1.00  0.00     0.004 C 
ENDBRANCH  16  17
ENDBRANCH  15  16
ENDBRANCH  14  15
ENDBRANCH  13  14
ENDBRANCH  12  13
ENDBRANCH  11  12
ENDBRANCH   1  11
TORSDOF 14
ENDMDL
