MODEL 1
REMARK VINA RESULT:    -4.710      0.000      0.000
REMARK INTER + INTRA:         -11.374
REMARK INTER:                  -8.840
REMARK INTRA:                  -2.534
REMARK UNBOUND:                -2.534
REMARK SMILES CCCCCCCCC=CCCCCCCCC(=O)[O-]
REMARK SMILES IDX 10 1 9 2 11 3 12 4 13 5 14 6 15 7 16 8 17 9 18 10 19 11
REMARK SMILES IDX 20 12 8 13 7 14 6 15 5 16 4 17 3 18 2 19 1 20
REMARK H PARENT
REMARK Flexibility Score: inf
ROOT
ATOM      1  C   UNL     1      15.749  10.630  29.711  1.00  0.00    -0.031 C 
ATOM      2  C   UNL     1      15.468  10.998  28.447  1.00  0.00    -0.031 C 
ENDROOT
BRANCH   1   3
ATOM      3  C   UNL     1      17.109  10.188  30.195  1.00  0.00     0.027 C 
BRANCH   3   4
ATOM      4  C   UNL     1      17.587  11.019  31.394  1.00  0.00     0.004 C 
BRANCH   4   5
ATOM      5  C   UNL     1      18.249  12.338  30.957  1.00  0.00     0.000 C 
BRANCH   5   6
ATOM      6  C   UNL     1      17.763  13.546  31.775  1.00  0.00     0.000 C 
BRANCH   6   7
ATOM      7  C   UNL     1      16.880  13.135  32.967  1.00  0.00     0.000 C 
BRANCH   7   8
ATOM      8  C   UNL     1      17.662  13.082  34.289  1.00  0.00     0.006 C 
BRANCH   8   9
ATOM      9  C   UNL     1      19.019  13.792  34.204  1.00  0.00     0.053 C 
BRANCH   9  10
ATOM     10  C   UNL     1      20.135  12.802  34.325  1.00  0.00     0.041 C 
ATOM     11  O   UNL     1      19.893  11.612  34.660  1.00  0.00    -0.550 OA
ATOM     12  O   UNL     1      21.435  13.181  34.020  1.00  0.00    -0.550 OA
ENDBRANCH   9  10
ENDBRANCH   8   9
ENDBRANCH   7   8
ENDBRANCH   6   7
ENDBRANCH   5   6
ENDBRANCH   4   5
ENDBRANCH   3   4
ENDBRANCH   1   3
BRANCH   2  13
ATOM     13  C   UNL     1      16.488  11.122  27.341  1.00  0.00     0.027 C 
BRANCH  13  14
ATOM     14  C   UNL     1      17.199  12.483  27.370  1.00  0.00     0.004 C 
BRANCH  14  15
ATOM     15  C   UNL     1      16.554  13.496  26.410  1.00  0.00     0.000 C 
BRANCH  15  16
ATOM     16  C   UNL     1      16.020  14.714  27.176  1.00  0.00     0.000 C 
BRANCH  16  17
ATOM     17  C   UNL     1      16.267  14.619  28.690  1.00  0.00    -0.000 C 
BRANCH  17  18
ATOM     18  C   UNL     1      14.962  14.616  29.504  1.00  0.00    -0.000 C 
BRANCH  18  19
ATOM     19  C   UNL     1      13.712  14.670  28.612  1.00  0.00    -0.003 C 
ATOM     20  C   UNL     1      12.847  13.415  28.727  1.00  0.00     0.004 C 
ENDBRANCH  18  19
ENDBRANCH  17  18
ENDBRANCH  16  17
ENDBRANCH  15  16
ENDBRANCH  14  15
ENDBRANCH  13  14
ENDBRANCH   2  13
TORSDOF 15
ENDMDL
MODEL 2
REMARK VINA RESULT:    -4.680     11.224     13.440
REMARK INTER + INTRA:         -11.317
REMARK INTER:                  -8.558
REMARK INTRA:                  -2.759
REMARK UNBOUND:                -2.534
REMARK SMILES CCCCCCCCC=CCCCCCCCC(=O)[O-]
REMARK SMILES IDX 10 1 9 2 11 3 12 4 13 5 14 6 15 7 16 8 17 9 18 10 19 11
REMARK SMILES IDX 20 12 8 13 7 14 6 15 5 16 4 17 3 18 2 19 1 20
REMARK H PARENT
REMARK Flexibility Score: inf
ROOT
ATOM      1  C   UNL     1      14.391  23.520  36.634  1.00  0.00    -0.031 C 
ATOM      2  C   UNL     1      14.971  22.410  36.139  1.00  0.00    -0.031 C 
ENDROOT
BRANCH   1   3
ATOM      3  C   UNL     1      13.772  24.612  35.796  1.00  0.00     0.027 C 
BRANCH   3   4
ATOM      4  C   UNL     1      12.408  25.053  36.350  1.00  0.00     0.004 C 
BRANCH   4   5
ATOM      5  C   UNL     1      11.790  23.992  37.276  1.00  0.00     0.000 C 
BRANCH   5   6
ATOM      6  C   UNL     1      10.423  23.493  36.777  1.00  0.00     0.000 C 
BRANCH   6   7
ATOM      7  C   UNL     1      10.383  21.966  36.594  1.00  0.00     0.000 C 
BRANCH   7   8
ATOM      8  C   UNL     1      11.449  21.461  35.609  1.00  0.00     0.006 C 
BRANCH   8   9
ATOM      9  C   UNL     1      10.853  21.013  34.269  1.00  0.00     0.053 C 
BRANCH   9  10
ATOM     10  C   UNL     1      10.886  22.135  33.280  1.00  0.00     0.041 C 
ATOM     11  O   UNL     1      10.001  22.221  32.388  1.00  0.00    -0.550 OA
ATOM     12  O   UNL     1      11.866  23.114  33.374  1.00  0.00    -0.550 OA
ENDBRANCH   9  10
ENDBRANCH   8   9
ENDBRANCH   7   8
ENDBRANCH   6   7
ENDBRANCH   5   6
ENDBRANCH   4   5
ENDBRANCH   3   4
ENDBRANCH   1   3
BRANCH   2  13
ATOM     13  C   UNL     1      15.004  22.037  34.677  1.00  0.00     0.027 C 
BRANCH  13  14
ATOM     14  C   UNL     1      16.369  22.337  34.040  1.00  0.00     0.004 C 
BRANCH  14  15
ATOM     15  C   UNL     1      17.528  22.141  35.031  1.00  0.00     0.000 C 
BRANCH  15  16
ATOM     16  C   UNL     1      18.452  23.367  35.043  1.00  0.00     0.000 C 
BRANCH  16  17
ATOM     17  C   UNL     1      17.773  24.629  34.485  1.00  0.00    -0.000 C 
BRANCH  17  18
ATOM     18  C   UNL     1      17.313  25.591  35.593  1.00  0.00    -0.000 C 
BRANCH  18  19
ATOM     19  C   UNL     1      17.796  25.160  36.986  1.00  0.00    -0.003 C 
ATOM     20  C   UNL     1      17.151  25.967  38.113  1.00  0.00     0.004 C 
ENDBRANCH  18  19
ENDBRANCH  17  18
ENDBRANCH  16  17
ENDBRANCH  15  16
ENDBRANCH  14  15
ENDBRANCH  13  14
ENDBRANCH   2  13
TORSDOF 15
ENDMDL
MODEL 3
REMARK VINA RESULT:    -4.603     11.288     13.799
REMARK INTER + INTRA:         -11.174
REMARK INTER:                  -8.470
REMARK INTRA:                  -2.704
REMARK UNBOUND:                -2.534
REMARK SMILES CCCCCCCCC=CCCCCCCCC(=O)[O-]
REMARK SMILES IDX 10 1 9 2 11 3 12 4 13 5 14 6 15 7 16 8 17 9 18 10 19 11
REMARK SMILES IDX 20 12 8 13 7 14 6 15 5 16 4 17 3 18 2 19 1 20
REMARK H PARENT
REMARK Flexibility Score: inf
ROOT
ATOM      1  C   UNL     1      16.354  25.197  37.162  1.00  0.00    -0.031 C 
ATOM      2  C   UNL     1      17.494  25.846  37.463  1.00  0.00    -0.031 C 
ENDROOT
BRANCH   1   3
ATOM      3  C   UNL     1      15.408  25.591  36.053  1.00  0.00     0.027 C 
BRANCH   3   4
ATOM      4  C   UNL     1      14.454  24.445  35.683  1.00  0.00     0.004 C 
BRANCH   4   5
ATOM      5  C   UNL     1      14.563  23.262  36.660  1.00  0.00     0.000 C 
BRANCH   5   6
ATOM      6  C   UNL     1      14.514  21.899  35.950  1.00  0.00     0.000 C 
BRANCH   6   7
ATOM      7  C   UNL     1      14.121  22.021  34.467  1.00  0.00     0.000 C 
BRANCH   7   8
ATOM      8  C   UNL     1      12.660  21.620  34.209  1.00  0.00     0.006 C 
BRANCH   8   9
ATOM      9  C   UNL     1      11.923  21.209  35.491  1.00  0.00     0.053 C 
BRANCH   9  10
ATOM     10  C   UNL     1      10.941  22.265  35.890  1.00  0.00     0.041 C 
ATOM     11  O   UNL     1      10.163  22.072  36.861  1.00  0.00    -0.550 OA
ATOM     12  O   UNL     1      10.920  23.482  35.221  1.00  0.00    -0.550 OA
ENDBRANCH   9  10
ENDBRANCH   8   9
ENDBRANCH   7   8
ENDBRANCH   6   7
ENDBRANCH   5   6
ENDBRANCH   4   5
ENDBRANCH   3   4
ENDBRANCH   1   3
BRANCH   2  13
ATOM     13  C   UNL     1      18.056  27.006  36.676  1.00  0.00     0.027 C 
BRANCH  13  14
ATOM     14  C   UNL     1      19.250  26.583  35.807  1.00  0.00     0.004 C 
BRANCH  14  15
ATOM     15  C   UNL     1      18.806  25.994  34.458  1.00  0.00     0.000 C 
BRANCH  15  16
ATOM     16  C   UNL     1      19.256  24.533  34.324  1.00  0.00     0.000 C 
BRANCH  16  17
ATOM     17  C   UNL     1      18.081  23.542  34.378  1.00  0.00    -0.000 C 
BRANCH  17  18
ATOM     18  C   UNL     1      18.278  22.448  35.440  1.00  0.00    -0.000 C 
BRANCH  18  19
ATOM     19  C   UNL     1      19.657  22.522  36.114  1.00  0.00    -0.003 C 
ATOM     20  C   UNL     1      19.580  22.958  37.577  1.00  0.00     0.004 C 
ENDBRANCH  18  19
ENDBRANCH  17  18
ENDBRANCH  16  17
ENDBRANCH  15  16
ENDBRANCH  14  15
ENDBRANCH  13  14
ENDBRANCH   2  13
TORSDOF 15
ENDMDL
MODEL 4
REMARK VINA RESULT:    -4.575      3.441      7.140
REMARK INTER + INTRA:         -11.121
REMARK INTER:                  -8.507
REMARK INTRA:                  -2.614
REMARK UNBOUND:                -2.534
REMARK SMILES CCCCCCCCC=CCCCCCCCC(=O)[O-]
REMARK SMILES IDX 10 1 9 2 11 3 12 4 13 5 14 6 15 7 16 8 17 9 18 10 19 11
REMARK SMILES IDX 20 12 8 13 7 14 6 15 5 16 4 17 3 18 2 19 1 20
REMARK H PARENT
REMARK Flexibility Score: inf
ROOT
ATOM      1  C   UNL     1      19.058  11.542  31.908  1.00  0.00    -0.031 C 
ATOM      2  C   UNL     1      20.140  10.797  32.202  1.00  0.00    -0.031 C 
ENDROOT
BRANCH   1   3
ATOM      3  C   UNL     1      17.631  11.127  32.172  1.00  0.00     0.027 C 
BRANCH   3   4
ATOM      4  C   UNL     1      16.708  12.340  32.356  1.00  0.00     0.004 C 
BRANCH   4   5
ATOM      5  C   UNL     1      17.497  13.658  32.456  1.00  0.00     0.000 C 
BRANCH   5   6
ATOM      6  C   UNL     1      17.079  14.682  31.388  1.00  0.00     0.000 C 
BRANCH   6   7
ATOM      7  C   UNL     1      17.437  14.227  29.963  1.00  0.00     0.000 C 
BRANCH   7   8
ATOM      8  C   UNL     1      16.311  14.504  28.954  1.00  0.00     0.006 C 
BRANCH   8   9
ATOM      9  C   UNL     1      14.916  14.419  29.586  1.00  0.00     0.053 C 
BRANCH   9  10
ATOM     10  C   UNL     1      14.116  13.333  28.940  1.00  0.00     0.041 C 
ATOM     11  O   UNL     1      12.873  13.261  29.131  1.00  0.00    -0.550 OA
ATOM     12  O   UNL     1      14.734  12.428  28.087  1.00  0.00    -0.550 OA
ENDBRANCH   9  10
ENDBRANCH   8   9
ENDBRANCH   7   8
ENDBRANCH   6   7
ENDBRANCH   5   6
ENDBRANCH   4   5
ENDBRANCH   3   4
ENDBRANCH   1   3
BRANCH   2  13
ATOM     13  C   UNL     1      20.101   9.477  32.933  1.00  0.00     0.027 C 
BRANCH  13  14
ATOM     14  C   UNL     1      20.475   9.632  34.414  1.00  0.00     0.004 C 
BRANCH  14  15
ATOM     15  C   UNL     1      19.434   8.993  35.346  1.00  0.00     0.000 C 
BRANCH  15  16
ATOM     16  C   UNL     1      18.240   9.933  35.561  1.00  0.00     0.000 C 
BRANCH  16  17
ATOM     17  C   UNL     1      18.589  11.146  36.440  1.00  0.00    -0.000 C 
BRANCH  17  18
ATOM     18  C   UNL     1      18.417  12.482  35.700  1.00  0.00    -0.000 C 
BRANCH  18  19
ATOM     19  C   UNL     1      19.602  13.435  35.921  1.00  0.00    -0.003 C 
ATOM     20  C   UNL     1      20.647  13.350  34.808  1.00  0.00     0.004 C 
ENDBRANCH  18  19
ENDBRANCH  17  18
ENDBRANCH  16  17
ENDBRANCH  15  16
ENDBRANCH  14  15
ENDBRANCH  13  14
ENDBRANCH   2  13
TORSDOF 15
ENDMDL
MODEL 5
REMARK VINA RESULT:    -4.550     11.036     12.842
REMARK INTER + INTRA:         -11.073
REMARK INTER:                  -8.453
REMARK INTRA:                  -2.621
REMARK UNBOUND:                -2.534
REMARK SMILES CCCCCCCCC=CCCCCCCCC(=O)[O-]
REMARK SMILES IDX 10 1 9 2 11 3 12 4 13 5 14 6 15 7 16 8 17 9 18 10 19 11
REMARK SMILES IDX 20 12 8 13 7 14 6 15 5 16 4 17 3 18 2 19 1 20
REMARK H PARENT
REMARK Flexibility Score: inf
ROOT
ATOM      1  C   UNL     1      12.031  24.729  34.374  1.00  0.00    -0.031 C 
ATOM      2  C   UNL     1      11.117  23.905  33.827  1.00  0.00    -0.031 C 
ENDROOT
BRANCH   1   3
ATOM      3  C   UNL     1      13.489  24.389  34.566  1.00  0.00     0.027 C 
BRANCH   3   4
ATOM      4  C   UNL     1      13.824  24.121  36.041  1.00  0.00     0.004 C 
BRANCH   4   5
ATOM      5  C   UNL     1      14.632  22.825  36.224  1.00  0.00     0.000 C 
BRANCH   5   6
ATOM      6  C   UNL     1      14.789  22.034  34.914  1.00  0.00     0.000 C 
BRANCH   6   7
ATOM      7  C   UNL     1      16.205  22.146  34.322  1.00  0.00     0.000 C 
BRANCH   7   8
ATOM      8  C   UNL     1      17.180  22.873  35.261  1.00  0.00     0.006 C 
BRANCH   8   9
ATOM      9  C   UNL     1      17.812  24.113  34.615  1.00  0.00     0.053 C 
BRANCH   9  10
ATOM     10  C   UNL     1      19.260  23.872  34.328  1.00  0.00     0.041 C 
ATOM     11  O   UNL     1      19.754  22.723  34.480  1.00  0.00    -0.550 OA
ATOM     12  O   UNL     1      20.054  24.903  33.845  1.00  0.00    -0.550 OA
ENDBRANCH   9  10
ENDBRANCH   8   9
ENDBRANCH   7   8
ENDBRANCH   6   7
ENDBRANCH   5   6
ENDBRANCH   4   5
ENDBRANCH   3   4
ENDBRANCH   1   3
BRANCH   2  13
ATOM     13  C   UNL     1      11.427  22.554  33.229  1.00  0.00     0.027 C 
BRANCH  13  14
ATOM     14  C   UNL     1      10.752  21.415  34.009  1.00  0.00     0.004 C 
BRANCH  14  15
ATOM     15  C   UNL     1      11.277  21.306  35.449  1.00  0.00     0.000 C 
BRANCH  15  16
ATOM     16  C   UNL     1      10.181  21.668  36.461  1.00  0.00     0.000 C 
BRANCH  16  17
ATOM     17  C   UNL     1      10.580  22.837  37.377  1.00  0.00    -0.000 C 
BRANCH  17  18
ATOM     18  C   UNL     1       9.390  23.742  37.734  1.00  0.00    -0.000 C 
BRANCH  18  19
ATOM     19  C   UNL     1       9.511  25.145  37.117  1.00  0.00    -0.003 C 
ATOM     20  C   UNL     1      10.743  25.904  37.610  1.00  0.00     0.004 C 
ENDBRANCH  18  19
ENDBRANCH  17  18
ENDBRANCH  16  17
ENDBRANCH  15  16
ENDBRANCH  14  15
ENDBRANCH  13  14
ENDBRANCH   2  13
TORSDOF 15
ENDMDL
MODEL 6
REMARK VINA RESULT:    -4.549     10.770     12.690
REMARK INTER + INTRA:         -11.072
REMARK INTER:                  -8.312
REMARK INTRA:                  -2.760
REMARK UNBOUND:                -2.534
REMARK SMILES CCCCCCCCC=CCCCCCCCC(=O)[O-]
REMARK SMILES IDX 10 1 9 2 11 3 12 4 13 5 14 6 15 7 16 8 17 9 18 10 19 11
REMARK SMILES IDX 20 12 8 13 7 14 6 15 5 16 4 17 3 18 2 19 1 20
REMARK H PARENT
REMARK Flexibility Score: inf
ROOT
ATOM      1  C   UNL     1      13.469  25.226  35.027  1.00  0.00    -0.031 C 
ATOM      2  C   UNL     1      12.151  25.503  35.034  1.00  0.00    -0.031 C 
ENDROOT
BRANCH   1   3
ATOM      3  C   UNL     1      14.306  24.998  36.262  1.00  0.00     0.027 C 
BRANCH   3   4
ATOM      4  C   UNL     1      14.347  23.515  36.659  1.00  0.00     0.004 C 
BRANCH   4   5
ATOM      5  C   UNL     1      15.703  22.866  36.333  1.00  0.00     0.000 C 
BRANCH   5   6
ATOM      6  C   UNL     1      15.743  22.253  34.924  1.00  0.00     0.000 C 
BRANCH   6   7
ATOM      7  C   UNL     1      16.574  23.092  33.938  1.00  0.00     0.000 C 
BRANCH   7   8
ATOM      8  C   UNL     1      17.535  24.057  34.649  1.00  0.00     0.006 C 
BRANCH   8   9
ATOM      9  C   UNL     1      19.008  23.672  34.462  1.00  0.00     0.053 C 
BRANCH   9  10
ATOM     10  C   UNL     1      19.485  22.855  35.621  1.00  0.00     0.041 C 
ATOM     11  O   UNL     1      20.157  21.808  35.424  1.00  0.00    -0.550 OA
ATOM     12  O   UNL     1      19.231  23.276  36.920  1.00  0.00    -0.550 OA
ENDBRANCH   9  10
ENDBRANCH   8   9
ENDBRANCH   7   8
ENDBRANCH   6   7
ENDBRANCH   5   6
ENDBRANCH   4   5
ENDBRANCH   3   4
ENDBRANCH   1   3
BRANCH   2  13
ATOM     13  C   UNL     1      11.286  25.530  36.271  1.00  0.00     0.027 C 
BRANCH  13  14
ATOM     14  C   UNL     1      10.270  24.379  36.283  1.00  0.00     0.004 C 
BRANCH  14  15
ATOM     15  C   UNL     1      10.805  23.140  37.018  1.00  0.00     0.000 C 
BRANCH  15  16
ATOM     16  C   UNL     1      10.449  21.855  36.258  1.00  0.00     0.000 C 
BRANCH  16  17
ATOM     17  C   UNL     1      11.680  21.162  35.652  1.00  0.00    -0.000 C 
BRANCH  17  18
ATOM     18  C   UNL     1      12.097  21.770  34.303  1.00  0.00    -0.000 C 
BRANCH  18  19
ATOM     19  C   UNL     1      10.977  21.701  33.254  1.00  0.00    -0.003 C 
ATOM     20  C   UNL     1      10.623  23.071  32.674  1.00  0.00     0.004 C 
ENDBRANCH  18  19
ENDBRANCH  17  18
ENDBRANCH  16  17
ENDBRANCH  15  16
ENDBRANCH  14  15
ENDBRANCH  13  14
ENDBRANCH   2  13
TORSDOF 15
ENDMDL
MODEL 7
REMARK VINA RESULT:    -4.510     10.844     12.485
REMARK INTER + INTRA:         -11.000
REMARK INTER:                  -8.579
REMARK INTRA:                  -2.421
REMARK UNBOUND:                -2.534
REMARK SMILES CCCCCCCCC=CCCCCCCCC(=O)[O-]
REMARK SMILES IDX 10 1 9 2 11 3 12 4 13 5 14 6 15 7 16 8 17 9 18 10 19 11
REMARK SMILES IDX 20 12 8 13 7 14 6 15 5 16 4 17 3 18 2 19 1 20
REMARK H PARENT
REMARK Flexibility Score: inf
ROOT
ATOM      1  C   UNL     1      12.199  21.219  35.383  1.00  0.00    -0.031 C 
ATOM      2  C   UNL     1      11.173  21.497  34.557  1.00  0.00    -0.031 C 
ENDROOT
BRANCH   1   3
ATOM      3  C   UNL     1      13.629  21.643  35.151  1.00  0.00     0.027 C 
BRANCH   3   4
ATOM      4  C   UNL     1      14.169  22.490  36.313  1.00  0.00     0.004 C 
BRANCH   4   5
ATOM      5  C   UNL     1      15.211  23.520  35.842  1.00  0.00     0.000 C 
BRANCH   5   6
ATOM      6  C   UNL     1      15.611  23.328  34.369  1.00  0.00     0.000 C 
BRANCH   6   7
ATOM      7  C   UNL     1      16.973  22.631  34.213  1.00  0.00     0.000 C 
BRANCH   7   8
ATOM      8  C   UNL     1      17.718  22.487  35.549  1.00  0.00     0.006 C 
BRANCH   8   9
ATOM      9  C   UNL     1      18.737  23.610  35.785  1.00  0.00     0.053 C 
BRANCH   9  10
ATOM     10  C   UNL     1      19.901  23.462  34.856  1.00  0.00     0.041 C 
ATOM     11  O   UNL     1      20.598  22.413  34.875  1.00  0.00    -0.550 OA
ATOM     12  O   UNL     1      20.186  24.462  33.935  1.00  0.00    -0.550 OA
ENDBRANCH   9  10
ENDBRANCH   8   9
ENDBRANCH   7   8
ENDBRANCH   6   7
ENDBRANCH   5   6
ENDBRANCH   4   5
ENDBRANCH   3   4
ENDBRANCH   1   3
BRANCH   2  13
ATOM     13  C   UNL     1      11.273  22.362  33.324  1.00  0.00     0.027 C 
BRANCH  13  14
ATOM     14  C   UNL     1      10.877  23.818  33.613  1.00  0.00     0.004 C 
BRANCH  14  15
ATOM     15  C   UNL     1      12.080  24.675  34.034  1.00  0.00     0.000 C 
BRANCH  15  16
ATOM     16  C   UNL     1      11.863  25.278  35.429  1.00  0.00     0.000 C 
BRANCH  16  17
ATOM     17  C   UNL     1      10.563  24.791  36.090  1.00  0.00    -0.000 C 
BRANCH  17  18
ATOM     18  C   UNL     1      10.818  23.982  37.373  1.00  0.00    -0.000 C 
BRANCH  18  19
ATOM     19  C   UNL     1       9.600  23.145  37.793  1.00  0.00    -0.003 C 
ATOM     20  C   UNL     1       8.542  23.966  38.531  1.00  0.00     0.004 C 
ENDBRANCH  18  19
ENDBRANCH  17  18
ENDBRANCH  16  17
ENDBRANCH  15  16
ENDBRANCH  14  15
ENDBRANCH  13  14
ENDBRANCH   2  13
TORSDOF 15
ENDMDL
MODEL 8
REMARK VINA RESULT:    -4.468     11.285     13.190
REMARK INTER + INTRA:         -10.920
REMARK INTER:                  -7.871
REMARK INTRA:                  -3.049
REMARK UNBOUND:                -2.534
REMARK SMILES CCCCCCCCC=CCCCCCCCC(=O)[O-]
REMARK SMILES IDX 10 1 9 2 11 3 12 4 13 5 14 6 15 7 16 8 17 9 18 10 19 11
REMARK SMILES IDX 20 12 8 13 7 14 6 15 5 16 4 17 3 18 2 19 1 20
REMARK H PARENT
REMARK Flexibility Score: inf
ROOT
ATOM      1  C   UNL     1      13.841  24.347  35.524  1.00  0.00    -0.031 C 
ATOM      2  C   UNL     1      13.029  25.407  35.702  1.00  0.00    -0.031 C 
ENDROOT
BRANCH   1   3
ATOM      3  C   UNL     1      14.264  23.396  36.617  1.00  0.00     0.027 C 
BRANCH   3   4
ATOM      4  C   UNL     1      14.913  22.125  36.049  1.00  0.00     0.004 C 
BRANCH   4   5
ATOM      5  C   UNL     1      14.992  22.153  34.513  1.00  0.00     0.000 C 
BRANCH   5   6
ATOM      6  C   UNL     1      16.439  22.128  33.993  1.00  0.00     0.000 C 
BRANCH   6   7
ATOM      7  C   UNL     1      17.470  22.393  35.103  1.00  0.00     0.000 C 
BRANCH   7   8
ATOM      8  C   UNL     1      18.322  23.643  34.830  1.00  0.00     0.006 C 
BRANCH   8   9
ATOM      9  C   UNL     1      17.519  24.945  34.943  1.00  0.00     0.053 C 
BRANCH   9  10
ATOM     10  C   UNL     1      17.560  25.463  36.346  1.00  0.00     0.041 C 
ATOM     11  O   UNL     1      16.587  26.116  36.809  1.00  0.00    -0.550 OA
ATOM     12  O   UNL     1      18.650  25.183  37.159  1.00  0.00    -0.550 OA
ENDBRANCH   9  10
ENDBRANCH   8   9
ENDBRANCH   7   8
ENDBRANCH   6   7
ENDBRANCH   5   6
ENDBRANCH   4   5
ENDBRANCH   3   4
ENDBRANCH   1   3
BRANCH   2  13
ATOM     13  C   UNL     1      12.336  25.750  36.998  1.00  0.00     0.027 C 
BRANCH  13  14
ATOM     14  C   UNL     1      10.934  25.127  37.079  1.00  0.00     0.004 C 
BRANCH  14  15
ATOM     15  C   UNL     1      10.872  23.965  38.083  1.00  0.00     0.000 C 
BRANCH  15  16
ATOM     16  C   UNL     1      10.297  22.702  37.425  1.00  0.00     0.000 C 
BRANCH  16  17
ATOM     17  C   UNL     1      10.596  22.629  35.919  1.00  0.00    -0.000 C 
BRANCH  17  18
ATOM     18  C   UNL     1      11.318  21.330  35.522  1.00  0.00    -0.000 C 
BRANCH  18  19
ATOM     19  C   UNL     1      11.494  21.196  34.001  1.00  0.00    -0.003 C 
ATOM     20  C   UNL     1      11.396  22.537  33.272  1.00  0.00     0.004 C 
ENDBRANCH  18  19
ENDBRANCH  17  18
ENDBRANCH  16  17
ENDBRANCH  15  16
ENDBRANCH  14  15
ENDBRANCH  13  14
ENDBRANCH   2  13
TORSDOF 15
ENDMDL
MODEL 9
REMARK VINA RESULT:    -4.466      1.842      3.520
REMARK INTER + INTRA:         -10.917
REMARK INTER:                  -8.242
REMARK INTRA:                  -2.675
REMARK UNBOUND:                -2.534
REMARK SMILES CCCCCCCCC=CCCCCCCCC(=O)[O-]
REMARK SMILES IDX 10 1 9 2 11 3 12 4 13 5 14 6 15 7 16 8 17 9 18 10 19 11
REMARK SMILES IDX 20 12 8 13 7 14 6 15 5 16 4 17 3 18 2 19 1 20
REMARK H PARENT
REMARK Flexibility Score: inf
ROOT
ATOM      1  C   UNL     1      17.648  14.061  31.296  1.00  0.00    -0.031 C 
ATOM      2  C   UNL     1      18.036  13.199  30.338  1.00  0.00    -0.031 C 
ENDROOT
BRANCH   1   3
ATOM      3  C   UNL     1      16.726  13.716  32.440  1.00  0.00     0.027 C 
BRANCH   3   4
ATOM      4  C   UNL     1      17.484  13.070  33.609  1.00  0.00     0.004 C 
BRANCH   4   5
ATOM      5  C   UNL     1      18.744  13.866  33.993  1.00  0.00     0.000 C 
BRANCH   5   6
ATOM      6  C   UNL     1      19.992  12.976  34.120  1.00  0.00     0.000 C 
BRANCH   6   7
ATOM      7  C   UNL     1      19.851  11.649  33.355  1.00  0.00     0.000 C 
BRANCH   7   8
ATOM      8  C   UNL     1      19.979  10.423  34.272  1.00  0.00     0.006 C 
BRANCH   8   9
ATOM      9  C   UNL     1      18.636   9.723  34.518  1.00  0.00     0.053 C 
BRANCH   9  10
ATOM     10  C   UNL     1      18.215   9.886  35.944  1.00  0.00     0.041 C 
ATOM     11  O   UNL     1      17.709   8.917  36.570  1.00  0.00    -0.550 OA
ATOM     12  O   UNL     1      18.428  11.092  36.598  1.00  0.00    -0.550 OA
ENDBRANCH   9  10
ENDBRANCH   8   9
ENDBRANCH   7   8
ENDBRANCH   6   7
ENDBRANCH   5   6
ENDBRANCH   4   5
ENDBRANCH   3   4
ENDBRANCH   1   3
BRANCH   2  13
ATOM     13  C   UNL     1      17.693  11.729  30.315  1.00  0.00     0.027 C 
BRANCH  13  14
ATOM     14  C   UNL     1      16.602  11.413  29.280  1.00  0.00     0.004 C 
BRANCH  14  15
ATOM     15  C   UNL     1      15.189  11.515  29.875  1.00  0.00     0.000 C 
BRANCH  15  16
ATOM     16  C   UNL     1      14.303  12.440  29.029  1.00  0.00     0.000 C 
BRANCH  16  17
ATOM     17  C   UNL     1      14.318  13.895  29.526  1.00  0.00    -0.000 C 
BRANCH  17  18
ATOM     18  C   UNL     1      14.530  14.907  28.388  1.00  0.00    -0.000 C 
BRANCH  18  19
ATOM     19  C   UNL     1      16.006  15.040  27.984  1.00  0.00    -0.003 C 
ATOM     20  C   UNL     1      16.333  14.305  26.684  1.00  0.00     0.004 C 
ENDBRANCH  18  19
ENDBRANCH  17  18
ENDBRANCH  16  17
ENDBRANCH  15  16
ENDBRANCH  14  15
ENDBRANCH  13  14
ENDBRANCH   2  13
TORSDOF 15
ENDMDL
