MODEL 1
REMARK VINA RESULT:    -4.585      0.000      0.000
REMARK INTER + INTRA:          -9.986
REMARK INTER:                  -7.802
REMARK INTRA:                  -2.184
REMARK UNBOUND:                -2.184
REMARK SMILES CCCCCCCCCCCCCC(=O)[O-]
REMARK SMILES IDX 8 1 9 2 10 3 11 4 12 5 13 6 14 7 15 8 16 9 7 10 6 11 5 12
REMARK SMILES IDX 4 13 3 14 2 15 1 16
REMARK H PARENT
REMARK Flexibility Score: inf
ROOT
ATOM      1  C   UNL     1     119.390 177.523 129.490  1.00  0.00     0.000 C 
ENDROOT
BRANCH   1   2
ATOM      2  C   UNL     1     118.491 176.485 128.793  1.00  0.00     0.000 C 
BRANCH   2   3
ATOM      3  C   UNL     1     117.648 177.087 127.655  1.00  0.00     0.000 C 
BRANCH   3   4
ATOM      4  C   UNL     1     118.084 178.517 127.293  1.00  0.00     0.000 C 
BRANCH   4   5
ATOM      5  C   UNL     1     117.711 178.903 125.850  1.00  0.00     0.006 C 
BRANCH   5   6
ATOM      6  C   UNL     1     117.108 177.724 125.075  1.00  0.00     0.053 C 
BRANCH   6   7
ATOM      7  C   UNL     1     115.692 177.994 124.669  1.00  0.00     0.041 C 
ATOM      8  O   UNL     1     114.852 178.385 125.522  1.00  0.00    -0.550 OA
ATOM      9  O   UNL     1     115.292 177.780 123.357  1.00  0.00    -0.550 OA
ENDBRANCH   6   7
ENDBRANCH   5   6
ENDBRANCH   4   5
ENDBRANCH   3   4
ENDBRANCH   2   3
ENDBRANCH   1   2
BRANCH   1  10
ATOM     10  C   UNL     1     120.905 177.279 129.359  1.00  0.00     0.000 C 
BRANCH  10  11
ATOM     11  C   UNL     1     121.672 178.517 128.866  1.00  0.00    -0.000 C 
BRANCH  11  12
ATOM     12  C   UNL     1     121.814 178.566 127.333  1.00  0.00    -0.000 C 
BRANCH  12  13
ATOM     13  C   UNL     1     121.715 177.207 126.616  1.00  0.00    -0.000 C 
BRANCH  13  14
ATOM     14  C   UNL     1     121.068 177.307 125.224  1.00  0.00    -0.000 C 
BRANCH  14  15
ATOM     15  C   UNL     1     120.331 176.019 124.823  1.00  0.00    -0.003 C 
ATOM     16  C   UNL     1     120.346 174.960 125.925  1.00  0.00     0.004 C 
ENDBRANCH  14  15
ENDBRANCH  13  14
ENDBRANCH  12  13
ENDBRANCH  11  12
ENDBRANCH  10  11
ENDBRANCH   1  10
TORSDOF 12
ENDMDL
MODEL 2
REMARK VINA RESULT:    -4.516      1.239      3.123
REMARK INTER + INTRA:          -9.868
REMARK INTER:                  -8.294
REMARK INTRA:                  -1.574
REMARK UNBOUND:                -2.184
REMARK SMILES CCCCCCCCCCCCCC(=O)[O-]
REMARK SMILES IDX 8 1 9 2 10 3 11 4 12 5 13 6 14 7 15 8 16 9 7 10 6 11 5 12
REMARK SMILES IDX 4 13 3 14 2 15 1 16
REMARK H PARENT
REMARK Flexibility Score: inf
ROOT
ATOM      1  C   UNL     1     119.335 176.963 124.981  1.00  0.00     0.000 C 
ENDROOT
BRANCH   1   2
ATOM      2  C   UNL     1     119.267 178.404 124.441  1.00  0.00     0.000 C 
BRANCH   2   3
ATOM      3  C   UNL     1     118.713 179.406 125.468  1.00  0.00     0.000 C 
BRANCH   3   4
ATOM      4  C   UNL     1     117.680 178.769 126.413  1.00  0.00     0.000 C 
BRANCH   4   5
ATOM      5  C   UNL     1     116.371 179.576 126.491  1.00  0.00     0.006 C 
BRANCH   5   6
ATOM      6  C   UNL     1     115.143 178.716 126.163  1.00  0.00     0.053 C 
BRANCH   6   7
ATOM      7  C   UNL     1     115.486 177.592 125.235  1.00  0.00     0.041 C 
ATOM      8  O   UNL     1     115.635 176.424 125.682  1.00  0.00    -0.550 OA
ATOM      9  O   UNL     1     115.675 177.840 123.882  1.00  0.00    -0.550 OA
ENDBRANCH   6   7
ENDBRANCH   5   6
ENDBRANCH   4   5
ENDBRANCH   3   4
ENDBRANCH   2   3
ENDBRANCH   1   2
BRANCH   1  10
ATOM     10  C   UNL     1     120.682 176.245 124.780  1.00  0.00     0.000 C 
BRANCH  10  11
ATOM     11  C   UNL     1     121.607 176.350 126.004  1.00  0.00    -0.000 C 
BRANCH  11  12
ATOM     12  C   UNL     1     122.400 177.669 126.049  1.00  0.00    -0.000 C 
BRANCH  12  13
ATOM     13  C   UNL     1     122.001 178.643 127.172  1.00  0.00    -0.000 C 
BRANCH  13  14
ATOM     14  C   UNL     1     121.697 177.933 128.503  1.00  0.00    -0.000 C 
BRANCH  14  15
ATOM     15  C   UNL     1     120.197 177.935 128.841  1.00  0.00    -0.003 C 
ATOM     16  C   UNL     1     119.684 176.559 129.268  1.00  0.00     0.004 C 
ENDBRANCH  14  15
ENDBRANCH  13  14
ENDBRANCH  12  13
ENDBRANCH  11  12
ENDBRANCH  10  11
ENDBRANCH   1  10
TORSDOF 12
ENDMDL
MODEL 3
REMARK VINA RESULT:    -4.482      0.664      1.232
REMARK INTER + INTRA:          -9.810
REMARK INTER:                  -7.887
REMARK INTRA:                  -1.922
REMARK UNBOUND:                -2.184
REMARK SMILES CCCCCCCCCCCCCC(=O)[O-]
REMARK SMILES IDX 8 1 9 2 10 3 11 4 12 5 13 6 14 7 15 8 16 9 7 10 6 11 5 12
REMARK SMILES IDX 4 13 3 14 2 15 1 16
REMARK H PARENT
REMARK Flexibility Score: inf
ROOT
ATOM      1  C   UNL     1     120.654 177.096 128.626  1.00  0.00     0.000 C 
ENDROOT
BRANCH   1   2
ATOM      2  C   UNL     1     119.273 177.428 129.224  1.00  0.00     0.000 C 
BRANCH   2   3
ATOM      3  C   UNL     1     118.131 177.309 128.202  1.00  0.00     0.000 C 
BRANCH   3   4
ATOM      4  C   UNL     1     118.105 178.482 127.207  1.00  0.00     0.000 C 
BRANCH   4   5
ATOM      5  C   UNL     1     118.026 178.016 125.742  1.00  0.00     0.006 C 
BRANCH   5   6
ATOM      6  C   UNL     1     116.869 177.035 125.510  1.00  0.00     0.053 C 
BRANCH   6   7
ATOM      7  C   UNL     1     115.636 177.736 125.029  1.00  0.00     0.041 C 
ATOM      8  O   UNL     1     114.842 178.259 125.854  1.00  0.00    -0.550 OA
ATOM      9  O   UNL     1     115.347 177.782 123.672  1.00  0.00    -0.550 OA
ENDBRANCH   6   7
ENDBRANCH   5   6
ENDBRANCH   4   5
ENDBRANCH   3   4
ENDBRANCH   2   3
ENDBRANCH   1   2
BRANCH   1  10
ATOM     10  C   UNL     1     121.632 178.281 128.525  1.00  0.00     0.000 C 
BRANCH  10  11
ATOM     11  C   UNL     1     122.009 178.627 127.075  1.00  0.00    -0.000 C 
BRANCH  11  12
ATOM     12  C   UNL     1     122.256 177.382 126.204  1.00  0.00    -0.000 C 
BRANCH  12  13
ATOM     13  C   UNL     1     121.375 177.270 124.945  1.00  0.00    -0.000 C 
BRANCH  13  14
ATOM     14  C   UNL     1     121.212 175.821 124.454  1.00  0.00    -0.000 C 
BRANCH  14  15
ATOM     15  C   UNL     1     121.091 174.817 125.611  1.00  0.00    -0.003 C 
ATOM     16  C   UNL     1     119.646 174.604 126.063  1.00  0.00     0.004 C 
ENDBRANCH  14  15
ENDBRANCH  13  14
ENDBRANCH  12  13
ENDBRANCH  11  12
ENDBRANCH  10  11
ENDBRANCH   1  10
TORSDOF 12
ENDMDL
MODEL 4
REMARK VINA RESULT:    -4.477      1.367      2.955
REMARK INTER + INTRA:          -9.801
REMARK INTER:                  -7.887
REMARK INTRA:                  -1.914
REMARK UNBOUND:                -2.184
REMARK SMILES CCCCCCCCCCCCCC(=O)[O-]
REMARK SMILES IDX 8 1 9 2 10 3 11 4 12 5 13 6 14 7 15 8 16 9 7 10 6 11 5 12
REMARK SMILES IDX 4 13 3 14 2 15 1 16
REMARK H PARENT
REMARK Flexibility Score: inf
ROOT
ATOM      1  C   UNL     1     120.786 178.660 127.030  1.00  0.00     0.000 C 
ENDROOT
BRANCH   1   2
ATOM      2  C   UNL     1     120.425 177.707 125.875  1.00  0.00     0.000 C 
BRANCH   2   3
ATOM      3  C   UNL     1     118.948 177.802 125.456  1.00  0.00     0.000 C 
BRANCH   3   4
ATOM      4  C   UNL     1     118.285 179.107 125.928  1.00  0.00     0.000 C 
BRANCH   4   5
ATOM      5  C   UNL     1     117.084 178.859 126.857  1.00  0.00     0.006 C 
BRANCH   5   6
ATOM      6  C   UNL     1     115.746 179.110 126.150  1.00  0.00     0.053 C 
BRANCH   6   7
ATOM      7  C   UNL     1     115.358 177.959 125.274  1.00  0.00     0.041 C 
ATOM      8  O   UNL     1     115.328 176.790 125.740  1.00  0.00    -0.550 OA
ATOM      9  O   UNL     1     115.064 178.173 123.933  1.00  0.00    -0.550 OA
ENDBRANCH   6   7
ENDBRANCH   5   6
ENDBRANCH   4   5
ENDBRANCH   3   4
ENDBRANCH   2   3
ENDBRANCH   1   2
BRANCH   1  10
ATOM     10  C   UNL     1     121.794 178.106 128.053  1.00  0.00     0.000 C 
BRANCH  10  11
ATOM     11  C   UNL     1     121.161 177.818 129.425  1.00  0.00    -0.000 C 
BRANCH  11  12
ATOM     12  C   UNL     1     119.623 177.902 129.408  1.00  0.00    -0.000 C 
BRANCH  12  13
ATOM     13  C   UNL     1     118.886 176.588 129.726  1.00  0.00    -0.000 C 
BRANCH  13  14
ATOM     14  C   UNL     1     118.825 175.628 128.525  1.00  0.00    -0.000 C 
BRANCH  14  15
ATOM     15  C   UNL     1     117.382 175.315 128.095  1.00  0.00    -0.003 C 
ATOM     16  C   UNL     1     116.339 175.896 129.051  1.00  0.00     0.004 C 
ENDBRANCH  14  15
ENDBRANCH  13  14
ENDBRANCH  12  13
ENDBRANCH  11  12
ENDBRANCH  10  11
ENDBRANCH   1  10
TORSDOF 12
ENDMDL
MODEL 5
REMARK VINA RESULT:    -4.456      1.233      3.149
REMARK INTER + INTRA:          -9.766
REMARK INTER:                  -8.093
REMARK INTRA:                  -1.673
REMARK UNBOUND:                -2.184
REMARK SMILES CCCCCCCCCCCCCC(=O)[O-]
REMARK SMILES IDX 8 1 9 2 10 3 11 4 12 5 13 6 14 7 15 8 16 9 7 10 6 11 5 12
REMARK SMILES IDX 4 13 3 14 2 15 1 16
REMARK H PARENT
REMARK Flexibility Score: inf
ROOT
ATOM      1  C   UNL     1     120.528 176.448 124.704  1.00  0.00     0.000 C 
ENDROOT
BRANCH   1   2
ATOM      2  C   UNL     1     119.090 176.998 124.682  1.00  0.00     0.000 C 
BRANCH   2   3
ATOM      3  C   UNL     1     119.021 178.488 124.306  1.00  0.00     0.000 C 
BRANCH   3   4
ATOM      4  C   UNL     1     118.629 179.378 125.498  1.00  0.00     0.000 C 
BRANCH   4   5
ATOM      5  C   UNL     1     117.772 178.633 126.538  1.00  0.00     0.006 C 
BRANCH   5   6
ATOM      6  C   UNL     1     116.344 179.191 126.614  1.00  0.00     0.053 C 
BRANCH   6   7
ATOM      7  C   UNL     1     115.328 178.169 126.208  1.00  0.00     0.041 C 
ATOM      8  O   UNL     1     114.140 178.260 126.616  1.00  0.00    -0.550 OA
ATOM      9  O   UNL     1     115.700 177.096 125.408  1.00  0.00    -0.550 OA
ENDBRANCH   6   7
ENDBRANCH   5   6
ENDBRANCH   4   5
ENDBRANCH   3   4
ENDBRANCH   2   3
ENDBRANCH   1   2
BRANCH   1  10
ATOM     10  C   UNL     1     121.194 176.396 126.091  1.00  0.00     0.000 C 
BRANCH  10  11
ATOM     11  C   UNL     1     122.131 177.588 126.352  1.00  0.00    -0.000 C 
BRANCH  11  12
ATOM     12  C   UNL     1     121.562 178.588 127.375  1.00  0.00    -0.000 C 
BRANCH  12  13
ATOM     13  C   UNL     1     121.706 178.177 128.853  1.00  0.00    -0.000 C 
BRANCH  13  14
ATOM     14  C   UNL     1     120.356 177.890 129.531  1.00  0.00    -0.000 C 
BRANCH  14  15
ATOM     15  C   UNL     1     119.959 176.407 129.448  1.00  0.00    -0.003 C 
ATOM     16  C   UNL     1     118.467 176.207 129.177  1.00  0.00     0.004 C 
ENDBRANCH  14  15
ENDBRANCH  13  14
ENDBRANCH  12  13
ENDBRANCH  11  12
ENDBRANCH  10  11
ENDBRANCH   1  10
TORSDOF 12
ENDMDL
MODEL 6
REMARK VINA RESULT:    -4.441      1.655      3.187
REMARK INTER + INTRA:          -9.741
REMARK INTER:                  -8.027
REMARK INTRA:                  -1.714
REMARK UNBOUND:                -2.184
REMARK SMILES CCCCCCCCCCCCCC(=O)[O-]
REMARK SMILES IDX 8 1 9 2 10 3 11 4 12 5 13 6 14 7 15 8 16 9 7 10 6 11 5 12
REMARK SMILES IDX 4 13 3 14 2 15 1 16
REMARK H PARENT
REMARK Flexibility Score: inf
ROOT
ATOM      1  C   UNL     1     121.507 177.922 128.777  1.00  0.00     0.000 C 
ENDROOT
BRANCH   1   2
ATOM      2  C   UNL     1     120.009 177.976 129.130  1.00  0.00     0.000 C 
BRANCH   2   3
ATOM      3  C   UNL     1     119.611 176.968 130.221  1.00  0.00     0.000 C 
BRANCH   3   4
ATOM      4  C   UNL     1     118.419 176.090 129.806  1.00  0.00     0.000 C 
BRANCH   4   5
ATOM      5  C   UNL     1     118.117 176.174 128.298  1.00  0.00     0.006 C 
BRANCH   5   6
ATOM      6  C   UNL     1     116.612 176.254 128.015  1.00  0.00     0.053 C 
BRANCH   6   7
ATOM      7  C   UNL     1     116.263 175.644 126.692  1.00  0.00     0.041 C 
ATOM      8  O   UNL     1     115.573 176.288 125.859  1.00  0.00    -0.550 OA
ATOM      9  O   UNL     1     116.672 174.350 126.394  1.00  0.00    -0.550 OA
ENDBRANCH   6   7
ENDBRANCH   5   6
ENDBRANCH   4   5
ENDBRANCH   3   4
ENDBRANCH   2   3
ENDBRANCH   1   2
BRANCH   1  10
ATOM     10  C   UNL     1     121.919 178.713 127.522  1.00  0.00     0.000 C 
BRANCH  10  11
ATOM     11  C   UNL     1     122.368 177.808 126.363  1.00  0.00    -0.000 C 
BRANCH  11  12
ATOM     12  C   UNL     1     121.263 176.846 125.887  1.00  0.00    -0.000 C 
BRANCH  12  13
ATOM     13  C   UNL     1     120.498 177.290 124.626  1.00  0.00    -0.000 C 
BRANCH  13  14
ATOM     14  C   UNL     1     119.035 177.668 124.914  1.00  0.00    -0.000 C 
BRANCH  14  15
ATOM     15  C   UNL     1     118.891 179.105 125.441  1.00  0.00    -0.003 C 
ATOM     16  C   UNL     1     117.605 179.318 126.240  1.00  0.00     0.004 C 
ENDBRANCH  14  15
ENDBRANCH  13  14
ENDBRANCH  12  13
ENDBRANCH  11  12
ENDBRANCH  10  11
ENDBRANCH   1  10
TORSDOF 12
ENDMDL
MODEL 7
REMARK VINA RESULT:    -4.423      1.676      2.536
REMARK INTER + INTRA:          -9.711
REMARK INTER:                  -7.912
REMARK INTRA:                  -1.798
REMARK UNBOUND:                -2.184
REMARK SMILES CCCCCCCCCCCCCC(=O)[O-]
REMARK SMILES IDX 8 1 9 2 10 3 11 4 12 5 13 6 14 7 15 8 16 9 7 10 6 11 5 12
REMARK SMILES IDX 4 13 3 14 2 15 1 16
REMARK H PARENT
REMARK Flexibility Score: inf
ROOT
ATOM      1  C   UNL     1     118.579 177.980 128.335  1.00  0.00     0.000 C 
ENDROOT
BRANCH   1   2
ATOM      2  C   UNL     1     118.222 176.562 128.817  1.00  0.00     0.000 C 
BRANCH   2   3
ATOM      3  C   UNL     1     116.760 176.179 128.530  1.00  0.00     0.000 C 
BRANCH   3   4
ATOM      4  C   UNL     1     116.591 175.481 127.170  1.00  0.00     0.000 C 
BRANCH   4   5
ATOM      5  C   UNL     1     115.809 176.337 126.157  1.00  0.00     0.006 C 
BRANCH   5   6
ATOM      6  C   UNL     1     115.289 177.638 126.782  1.00  0.00     0.053 C 
BRANCH   6   7
ATOM      7  C   UNL     1     115.275 178.761 125.791  1.00  0.00     0.041 C 
ATOM      8  O   UNL     1     115.675 179.907 126.127  1.00  0.00    -0.550 OA
ATOM      9  O   UNL     1     114.787 178.551 124.508  1.00  0.00    -0.550 OA
ENDBRANCH   6   7
ENDBRANCH   5   6
ENDBRANCH   4   5
ENDBRANCH   3   4
ENDBRANCH   2   3
ENDBRANCH   1   2
BRANCH   1  10
ATOM     10  C   UNL     1     119.619 178.050 127.201  1.00  0.00     0.000 C 
BRANCH  10  11
ATOM     11  C   UNL     1     119.066 178.695 125.919  1.00  0.00    -0.000 C 
BRANCH  11  12
ATOM     12  C   UNL     1     119.317 177.844 124.660  1.00  0.00    -0.000 C 
BRANCH  12  13
ATOM     13  C   UNL     1     119.330 176.320 124.885  1.00  0.00    -0.000 C 
BRANCH  13  14
ATOM     14  C   UNL     1     120.718 175.694 124.668  1.00  0.00    -0.000 C 
BRANCH  14  15
ATOM     15  C   UNL     1     121.753 176.714 124.165  1.00  0.00    -0.003 C 
ATOM     16  C   UNL     1     122.874 176.967 125.173  1.00  0.00     0.004 C 
ENDBRANCH  14  15
ENDBRANCH  13  14
ENDBRANCH  12  13
ENDBRANCH  11  12
ENDBRANCH  10  11
ENDBRANCH   1  10
TORSDOF 12
ENDMDL
MODEL 8
REMARK VINA RESULT:    -4.403      1.207      3.034
REMARK INTER + INTRA:          -9.675
REMARK INTER:                  -7.869
REMARK INTRA:                  -1.807
REMARK UNBOUND:                -2.184
REMARK SMILES CCCCCCCCCCCCCC(=O)[O-]
REMARK SMILES IDX 8 1 9 2 10 3 11 4 12 5 13 6 14 7 15 8 16 9 7 10 6 11 5 12
REMARK SMILES IDX 4 13 3 14 2 15 1 16
REMARK H PARENT
REMARK Flexibility Score: inf
ROOT
ATOM      1  C   UNL     1     122.372 177.726 126.533  1.00  0.00     0.000 C 
ENDROOT
BRANCH   1   2
ATOM      2  C   UNL     1     121.552 177.231 125.326  1.00  0.00     0.000 C 
BRANCH   2   3
ATOM      3  C   UNL     1     120.168 177.895 125.226  1.00  0.00     0.000 C 
BRANCH   3   4
ATOM      4  C   UNL     1     119.631 177.922 123.785  1.00  0.00     0.000 C 
BRANCH   4   5
ATOM      5  C   UNL     1     118.093 177.921 123.725  1.00  0.00     0.006 C 
BRANCH   5   6
ATOM      6  C   UNL     1     117.462 177.847 125.122  1.00  0.00     0.053 C 
BRANCH   6   7
ATOM      7  C   UNL     1     116.076 177.280 125.074  1.00  0.00     0.041 C 
ATOM      8  O   UNL     1     115.278 177.633 124.167  1.00  0.00    -0.550 OA
ATOM      9  O   UNL     1     115.655 176.388 126.052  1.00  0.00    -0.550 OA
ENDBRANCH   6   7
ENDBRANCH   5   6
ENDBRANCH   4   5
ENDBRANCH   3   4
ENDBRANCH   2   3
ENDBRANCH   1   2
BRANCH   1  10
ATOM     10  C   UNL     1     121.585 178.543 127.575  1.00  0.00     0.000 C 
BRANCH  10  11
ATOM     11  C   UNL     1     121.562 177.881 128.963  1.00  0.00    -0.000 C 
BRANCH  11  12
ATOM     12  C   UNL     1     120.159 177.860 129.597  1.00  0.00    -0.000 C 
BRANCH  12  13
ATOM     13  C   UNL     1     118.984 177.839 128.601  1.00  0.00    -0.000 C 
BRANCH  13  14
ATOM     14  C   UNL     1     118.257 176.484 128.559  1.00  0.00    -0.000 C 
BRANCH  14  15
ATOM     15  C   UNL     1     119.192 175.327 128.170  1.00  0.00    -0.003 C 
ATOM     16  C   UNL     1     118.946 174.818 126.749  1.00  0.00     0.004 C 
ENDBRANCH  14  15
ENDBRANCH  13  14
ENDBRANCH  12  13
ENDBRANCH  11  12
ENDBRANCH  10  11
ENDBRANCH   1  10
TORSDOF 12
ENDMDL
MODEL 9
REMARK VINA RESULT:    -4.388      1.305      2.808
REMARK INTER + INTRA:          -9.651
REMARK INTER:                  -7.720
REMARK INTRA:                  -1.931
REMARK UNBOUND:                -2.184
REMARK SMILES CCCCCCCCCCCCCC(=O)[O-]
REMARK SMILES IDX 8 1 9 2 10 3 11 4 12 5 13 6 14 7 15 8 16 9 7 10 6 11 5 12
REMARK SMILES IDX 4 13 3 14 2 15 1 16
REMARK H PARENT
REMARK Flexibility Score: inf
ROOT
ATOM      1  C   UNL     1     118.860 175.171 126.100  1.00  0.00     0.000 C 
ENDROOT
BRANCH   1   2
ATOM      2  C   UNL     1     117.973 176.421 125.959  1.00  0.00     0.000 C 
BRANCH   2   3
ATOM      3  C   UNL     1     118.586 177.494 125.043  1.00  0.00     0.000 C 
BRANCH   3   4
ATOM      4  C   UNL     1     118.379 178.919 125.584  1.00  0.00     0.000 C 
BRANCH   4   5
ATOM      5  C   UNL     1     117.369 178.972 126.745  1.00  0.00     0.006 C 
BRANCH   5   6
ATOM      6  C   UNL     1     116.044 179.621 126.326  1.00  0.00     0.053 C 
BRANCH   6   7
ATOM      7  C   UNL     1     115.065 178.607 125.821  1.00  0.00     0.041 C 
ATOM      8  O   UNL     1     115.015 178.330 124.594  1.00  0.00    -0.550 OA
ATOM      9  O   UNL     1     114.183 177.993 126.702  1.00  0.00    -0.550 OA
ENDBRANCH   6   7
ENDBRANCH   5   6
ENDBRANCH   4   5
ENDBRANCH   3   4
ENDBRANCH   2   3
ENDBRANCH   1   2
BRANCH   1  10
ATOM     10  C   UNL     1     119.705 175.102 127.386  1.00  0.00     0.000 C 
BRANCH  10  11
ATOM     11  C   UNL     1     119.140 175.969 128.523  1.00  0.00    -0.000 C 
BRANCH  11  12
ATOM     12  C   UNL     1     120.208 176.850 129.196  1.00  0.00    -0.000 C 
BRANCH  12  13
ATOM     13  C   UNL     1     120.574 178.141 128.440  1.00  0.00    -0.000 C 
BRANCH  13  14
ATOM     14  C   UNL     1     121.975 178.088 127.806  1.00  0.00    -0.000 C 
BRANCH  14  15
ATOM     15  C   UNL     1     121.924 177.915 126.279  1.00  0.00    -0.003 C 
ATOM     16  C   UNL     1     123.152 177.194 125.723  1.00  0.00     0.004 C 
ENDBRANCH  14  15
ENDBRANCH  13  14
ENDBRANCH  12  13
ENDBRANCH  11  12
ENDBRANCH  10  11
ENDBRANCH   1  10
TORSDOF 12
ENDMDL
