MODEL 1
REMARK VINA RESULT:    -2.810      0.000      0.000
REMARK INTER + INTRA:         -13.307
REMARK INTER:                  -7.409
REMARK INTRA:                  -5.899
REMARK UNBOUND:                -5.899
REMARK SMILES CCCCCCCCCCCCCCCCCCCCCCCCCCCCCC(=O)[O-]
REMARK SMILES IDX 16 1 17 2 18 3 19 4 20 5 21 6 22 7 23 8 24 9 25 10 26 11
REMARK SMILES IDX 27 12 28 13 29 14 30 15 31 16 32 17 15 18 14 19 13 20 12 21
REMARK SMILES IDX 11 22 10 23 9 24 8 25 7 26 6 27 5 28 4 29 3 30 2 31 1 32
REMARK H PARENT
REMARK Flexibility Score: inf
ROOT
ATOM      1  C   UNL     1      58.993  27.949  58.119  1.00  0.00     0.000 C 
ENDROOT
BRANCH   1   2
ATOM      2  C   UNL     1      59.856  29.081  58.696  1.00  0.00     0.000 C 
BRANCH   2   3
ATOM      3  C   UNL     1      61.052  28.515  59.477  1.00  0.00     0.000 C 
BRANCH   3   4
ATOM      4  C   UNL     1      61.275  29.220  60.825  1.00  0.00     0.000 C 
BRANCH   4   5
ATOM      5  C   UNL     1      62.353  28.534  61.682  1.00  0.00     0.000 C 
BRANCH   5   6
ATOM      6  C   UNL     1      63.444  27.852  60.837  1.00  0.00     0.000 C 
BRANCH   6   7
ATOM      7  C   UNL     1      64.749  28.658  60.670  1.00  0.00     0.000 C 
BRANCH   7   8
ATOM      8  C   UNL     1      64.761  30.038  61.354  1.00  0.00     0.000 C 
BRANCH   8   9
ATOM      9  C   UNL     1      65.024  31.189  60.372  1.00  0.00     0.000 C 
BRANCH   9  10
ATOM     10  C   UNL     1      64.153  31.045  59.114  1.00  0.00     0.000 C 
BRANCH  10  11
ATOM     11  C   UNL     1      62.972  32.030  59.092  1.00  0.00     0.000 C 
BRANCH  11  12
ATOM     12  C   UNL     1      62.501  32.440  57.684  1.00  0.00     0.000 C 
BRANCH  12  13
ATOM     13  C   UNL     1      60.989  32.239  57.449  1.00  0.00     0.006 C 
BRANCH  13  14
ATOM     14  C   UNL     1      60.147  32.695  58.647  1.00  0.00     0.053 C 
BRANCH  14  15
ATOM     15  C   UNL     1      58.743  32.987  58.220  1.00  0.00     0.041 C 
ATOM     16  O   UNL     1      58.076  32.115  57.601  1.00  0.00    -0.550 OA
ATOM     17  O   UNL     1      58.191  34.241  58.454  1.00  0.00    -0.550 OA
ENDBRANCH  14  15
ENDBRANCH  13  14
ENDBRANCH  12  13
ENDBRANCH  11  12
ENDBRANCH  10  11
ENDBRANCH   9  10
ENDBRANCH   8   9
ENDBRANCH   7   8
ENDBRANCH   6   7
ENDBRANCH   5   6
ENDBRANCH   4   5
ENDBRANCH   3   4
ENDBRANCH   2   3
ENDBRANCH   1   2
BRANCH   1  18
ATOM     18  C   UNL     1      57.487  28.247  58.211  1.00  0.00     0.000 C 
BRANCH  18  19
ATOM     19  C   UNL     1      56.622  26.987  58.065  1.00  0.00     0.000 C 
BRANCH  19  20
ATOM     20  C   UNL     1      55.543  26.933  59.158  1.00  0.00     0.000 C 
BRANCH  20  21
ATOM     21  C   UNL     1      55.756  27.984  60.260  1.00  0.00     0.000 C 
BRANCH  21  22
ATOM     22  C   UNL     1      55.573  27.405  61.673  1.00  0.00     0.000 C 
BRANCH  22  23
ATOM     23  C   UNL     1      56.867  27.439  62.508  1.00  0.00     0.000 C 
BRANCH  23  24
ATOM     24  C   UNL     1      58.175  27.408  61.697  1.00  0.00    -0.000 C 
BRANCH  24  25
ATOM     25  C   UNL     1      59.070  26.207  62.047  1.00  0.00    -0.000 C 
BRANCH  25  26
ATOM     26  C   UNL     1      59.521  25.411  60.808  1.00  0.00    -0.000 C 
BRANCH  26  27
ATOM     27  C   UNL     1      58.425  24.554  60.140  1.00  0.00    -0.000 C 
BRANCH  27  28
ATOM     28  C   UNL     1      57.600  23.680  61.104  1.00  0.00    -0.000 C 
BRANCH  28  29
ATOM     29  C   UNL     1      56.071  23.798  60.941  1.00  0.00    -0.000 C 
BRANCH  29  30
ATOM     30  C   UNL     1      55.267  23.716  62.254  1.00  0.00    -0.000 C 
BRANCH  30  31
ATOM     31  C   UNL     1      56.092  23.942  63.534  1.00  0.00    -0.003 C 
ATOM     32  C   UNL     1      55.327  24.714  64.607  1.00  0.00     0.004 C 
ENDBRANCH  30  31
ENDBRANCH  29  30
ENDBRANCH  28  29
ENDBRANCH  27  28
ENDBRANCH  26  27
ENDBRANCH  25  26
ENDBRANCH  24  25
ENDBRANCH  23  24
ENDBRANCH  22  23
ENDBRANCH  21  22
ENDBRANCH  20  21
ENDBRANCH  19  20
ENDBRANCH  18  19
ENDBRANCH   1  18
TORSDOF 28
ENDMDL
MODEL 2
REMARK VINA RESULT:    -2.798      8.846     12.196
REMARK INTER + INTRA:         -13.277
REMARK INTER:                  -8.533
REMARK INTRA:                  -4.744
REMARK UNBOUND:                -5.899
REMARK SMILES CCCCCCCCCCCCCCCCCCCCCCCCCCCCCC(=O)[O-]
REMARK SMILES IDX 16 1 17 2 18 3 19 4 20 5 21 6 22 7 23 8 24 9 25 10 26 11
REMARK SMILES IDX 27 12 28 13 29 14 30 15 31 16 32 17 15 18 14 19 13 20 12 21
REMARK SMILES IDX 11 22 10 23 9 24 8 25 7 26 6 27 5 28 4 29 3 30 2 31 1 32
REMARK H PARENT
REMARK Flexibility Score: inf
ROOT
ATOM      1  C   UNL     1      62.146  26.277  51.049  1.00  0.00     0.000 C 
ENDROOT
BRANCH   1   2
ATOM      2  C   UNL     1      61.367  25.337  50.117  1.00  0.00     0.000 C 
BRANCH   2   3
ATOM      3  C   UNL     1      59.994  25.929  49.762  1.00  0.00     0.000 C 
BRANCH   3   4
ATOM      4  C   UNL     1      58.829  24.982  50.093  1.00  0.00     0.000 C 
BRANCH   4   5
ATOM      5  C   UNL     1      58.347  25.123  51.547  1.00  0.00     0.000 C 
BRANCH   5   6
ATOM      6  C   UNL     1      58.300  23.779  52.296  1.00  0.00     0.000 C 
BRANCH   6   7
ATOM      7  C   UNL     1      59.663  23.078  52.479  1.00  0.00     0.000 C 
BRANCH   7   8
ATOM      8  C   UNL     1      59.792  21.705  51.796  1.00  0.00     0.000 C 
BRANCH   8   9
ATOM      9  C   UNL     1      60.453  21.786  50.411  1.00  0.00     0.000 C 
BRANCH   9  10
ATOM     10  C   UNL     1      60.615  20.386  49.800  1.00  0.00     0.000 C 
BRANCH  10  11
ATOM     11  C   UNL     1      59.772  19.320  50.521  1.00  0.00     0.000 C 
BRANCH  11  12
ATOM     12  C   UNL     1      58.976  18.388  49.588  1.00  0.00     0.000 C 
BRANCH  12  13
ATOM     13  C   UNL     1      57.640  17.900  50.187  1.00  0.00     0.006 C 
BRANCH  13  14
ATOM     14  C   UNL     1      57.241  18.687  51.442  1.00  0.00     0.053 C 
BRANCH  14  15
ATOM     15  C   UNL     1      55.768  18.950  51.450  1.00  0.00     0.041 C 
ATOM     16  O   UNL     1      55.149  19.049  52.543  1.00  0.00    -0.550 OA
ATOM     17  O   UNL     1      55.069  19.027  50.251  1.00  0.00    -0.550 OA
ENDBRANCH  14  15
ENDBRANCH  13  14
ENDBRANCH  12  13
ENDBRANCH  11  12
ENDBRANCH  10  11
ENDBRANCH   9  10
ENDBRANCH   8   9
ENDBRANCH   7   8
ENDBRANCH   6   7
ENDBRANCH   5   6
ENDBRANCH   4   5
ENDBRANCH   3   4
ENDBRANCH   2   3
ENDBRANCH   1   2
BRANCH   1  18
ATOM     18  C   UNL     1      61.697  26.162  52.515  1.00  0.00     0.000 C 
BRANCH  18  19
ATOM     19  C   UNL     1      61.040  27.448  53.038  1.00  0.00     0.000 C 
BRANCH  19  20
ATOM     20  C   UNL     1      61.225  28.602  52.040  1.00  0.00     0.000 C 
BRANCH  20  21
ATOM     21  C   UNL     1      59.890  29.151  51.508  1.00  0.00     0.000 C 
BRANCH  21  22
ATOM     22  C   UNL     1      58.672  28.520  52.205  1.00  0.00     0.000 C 
BRANCH  22  23
ATOM     23  C   UNL     1      57.623  29.562  52.638  1.00  0.00     0.000 C 
BRANCH  23  24
ATOM     24  C   UNL     1      56.199  29.014  52.848  1.00  0.00    -0.000 C 
BRANCH  24  25
ATOM     25  C   UNL     1      55.182  29.587  51.847  1.00  0.00    -0.000 C 
BRANCH  25  26
ATOM     26  C   UNL     1      54.086  28.577  51.458  1.00  0.00    -0.000 C 
BRANCH  26  27
ATOM     27  C   UNL     1      54.301  27.857  50.111  1.00  0.00    -0.000 C 
BRANCH  27  28
ATOM     28  C   UNL     1      55.293  26.678  50.150  1.00  0.00    -0.000 C 
BRANCH  28  29
ATOM     29  C   UNL     1      54.645  25.281  50.073  1.00  0.00    -0.000 C 
BRANCH  29  30
ATOM     30  C   UNL     1      53.875  24.849  51.337  1.00  0.00    -0.000 C 
BRANCH  30  31
ATOM     31  C   UNL     1      54.757  24.563  52.566  1.00  0.00    -0.003 C 
ATOM     32  C   UNL     1      54.579  25.593  53.679  1.00  0.00     0.004 C 
ENDBRANCH  30  31
ENDBRANCH  29  30
ENDBRANCH  28  29
ENDBRANCH  27  28
ENDBRANCH  26  27
ENDBRANCH  25  26
ENDBRANCH  24  25
ENDBRANCH  23  24
ENDBRANCH  22  23
ENDBRANCH  21  22
ENDBRANCH  20  21
ENDBRANCH  19  20
ENDBRANCH  18  19
ENDBRANCH   1  18
TORSDOF 28
ENDMDL
MODEL 3
REMARK VINA RESULT:    -2.791      2.629      8.549
REMARK INTER + INTRA:         -13.259
REMARK INTER:                  -7.731
REMARK INTRA:                  -5.527
REMARK UNBOUND:                -5.899
REMARK SMILES CCCCCCCCCCCCCCCCCCCCCCCCCCCCCC(=O)[O-]
REMARK SMILES IDX 16 1 17 2 18 3 19 4 20 5 21 6 22 7 23 8 24 9 25 10 26 11
REMARK SMILES IDX 27 12 28 13 29 14 30 15 31 16 32 17 15 18 14 19 13 20 12 21
REMARK SMILES IDX 11 22 10 23 9 24 8 25 7 26 6 27 5 28 4 29 3 30 2 31 1 32
REMARK H PARENT
REMARK Flexibility Score: inf
ROOT
ATOM      1  C   UNL     1      58.798  31.543  56.887  1.00  0.00     0.000 C 
ENDROOT
BRANCH   1   2
ATOM      2  C   UNL     1      57.581  30.841  57.510  1.00  0.00     0.000 C 
BRANCH   2   3
ATOM      3  C   UNL     1      57.680  29.317  57.340  1.00  0.00     0.000 C 
BRANCH   3   4
ATOM      4  C   UNL     1      58.488  28.641  58.460  1.00  0.00     0.000 C 
BRANCH   4   5
ATOM      5  C   UNL     1      58.770  27.157  58.172  1.00  0.00     0.000 C 
BRANCH   5   6
ATOM      6  C   UNL     1      57.543  26.408  57.624  1.00  0.00     0.000 C 
BRANCH   6   7
ATOM      7  C   UNL     1      57.034  25.244  58.500  1.00  0.00     0.000 C 
BRANCH   7   8
ATOM      8  C   UNL     1      55.698  25.500  59.221  1.00  0.00     0.000 C 
BRANCH   8   9
ATOM      9  C   UNL     1      55.179  26.933  59.027  1.00  0.00     0.000 C 
BRANCH   9  10
ATOM     10  C   UNL     1      55.322  27.746  60.323  1.00  0.00     0.000 C 
BRANCH  10  11
ATOM     11  C   UNL     1      55.769  26.887  61.518  1.00  0.00     0.000 C 
BRANCH  11  12
ATOM     12  C   UNL     1      56.869  27.520  62.392  1.00  0.00     0.000 C 
BRANCH  12  13
ATOM     13  C   UNL     1      58.296  27.311  61.844  1.00  0.00     0.006 C 
BRANCH  13  14
ATOM     14  C   UNL     1      58.692  25.829  61.798  1.00  0.00     0.053 C 
BRANCH  14  15
ATOM     15  C   UNL     1      60.181  25.685  61.777  1.00  0.00     0.041 C 
ATOM     16  O   UNL     1      60.795  25.613  60.679  1.00  0.00    -0.550 OA
ATOM     17  O   UNL     1      60.886  25.570  62.970  1.00  0.00    -0.550 OA
ENDBRANCH  14  15
ENDBRANCH  13  14
ENDBRANCH  12  13
ENDBRANCH  11  12
ENDBRANCH  10  11
ENDBRANCH   9  10
ENDBRANCH   8   9
ENDBRANCH   7   8
ENDBRANCH   6   7
ENDBRANCH   5   6
ENDBRANCH   4   5
ENDBRANCH   3   4
ENDBRANCH   2   3
ENDBRANCH   1   2
BRANCH   1  18
ATOM     18  C   UNL     1      59.422  32.589  57.825  1.00  0.00     0.000 C 
BRANCH  18  19
ATOM     19  C   UNL     1      60.924  32.365  58.051  1.00  0.00     0.000 C 
BRANCH  19  20
ATOM     20  C   UNL     1      61.164  31.165  58.981  1.00  0.00     0.000 C 
BRANCH  20  21
ATOM     21  C   UNL     1      61.905  30.010  58.287  1.00  0.00     0.000 C 
BRANCH  21  22
ATOM     22  C   UNL     1      62.054  28.775  59.192  1.00  0.00     0.000 C 
BRANCH  22  23
ATOM     23  C   UNL     1      61.701  29.064  60.664  1.00  0.00     0.000 C 
BRANCH  23  24
ATOM     24  C   UNL     1      62.842  28.835  61.672  1.00  0.00    -0.000 C 
BRANCH  24  25
ATOM     25  C   UNL     1      64.192  28.545  60.994  1.00  0.00    -0.000 C 
BRANCH  25  26
ATOM     26  C   UNL     1      65.231  29.660  61.220  1.00  0.00    -0.000 C 
BRANCH  26  27
ATOM     27  C   UNL     1      64.791  31.070  60.776  1.00  0.00    -0.000 C 
BRANCH  27  28
ATOM     28  C   UNL     1      65.131  31.433  59.317  1.00  0.00    -0.000 C 
BRANCH  28  29
ATOM     29  C   UNL     1      64.582  32.793  58.841  1.00  0.00    -0.000 C 
BRANCH  29  30
ATOM     30  C   UNL     1      64.097  33.730  59.965  1.00  0.00    -0.000 C 
BRANCH  30  31
ATOM     31  C   UNL     1      65.102  34.820  60.378  1.00  0.00    -0.003 C 
ATOM     32  C   UNL     1      65.227  34.972  61.893  1.00  0.00     0.004 C 
ENDBRANCH  30  31
ENDBRANCH  29  30
ENDBRANCH  28  29
ENDBRANCH  27  28
ENDBRANCH  26  27
ENDBRANCH  25  26
ENDBRANCH  24  25
ENDBRANCH  23  24
ENDBRANCH  22  23
ENDBRANCH  21  22
ENDBRANCH  20  21
ENDBRANCH  19  20
ENDBRANCH  18  19
ENDBRANCH   1  18
TORSDOF 28
ENDMDL
MODEL 4
REMARK VINA RESULT:    -2.648      3.740      6.025
REMARK INTER + INTRA:         -12.882
REMARK INTER:                  -7.964
REMARK INTRA:                  -4.918
REMARK UNBOUND:                -5.899
REMARK SMILES CCCCCCCCCCCCCCCCCCCCCCCCCCCCCC(=O)[O-]
REMARK SMILES IDX 16 1 17 2 18 3 19 4 20 5 21 6 22 7 23 8 24 9 25 10 26 11
REMARK SMILES IDX 27 12 28 13 29 14 30 15 31 16 32 17 15 18 14 19 13 20 12 21
REMARK SMILES IDX 11 22 10 23 9 24 8 25 7 26 6 27 5 28 4 29 3 30 2 31 1 32
REMARK H PARENT
REMARK Flexibility Score: inf
ROOT
ATOM      1  C   UNL     1      60.949  31.106  57.326  1.00  0.00     0.000 C 
ENDROOT
BRANCH   1   2
ATOM      2  C   UNL     1      61.747  32.387  57.040  1.00  0.00     0.000 C 
BRANCH   2   3
ATOM      3  C   UNL     1      61.852  33.261  58.300  1.00  0.00     0.000 C 
BRANCH   3   4
ATOM      4  C   UNL     1      63.224  33.939  58.447  1.00  0.00     0.000 C 
BRANCH   4   5
ATOM      5  C   UNL     1      63.713  33.976  59.904  1.00  0.00     0.000 C 
BRANCH   5   6
ATOM      6  C   UNL     1      65.065  33.267  60.101  1.00  0.00     0.000 C 
BRANCH   6   7
ATOM      7  C   UNL     1      65.008  31.950  60.903  1.00  0.00     0.000 C 
BRANCH   7   8
ATOM      8  C   UNL     1      64.280  30.787  60.204  1.00  0.00     0.000 C 
BRANCH   8   9
ATOM      9  C   UNL     1      64.850  30.475  58.812  1.00  0.00     0.000 C 
BRANCH   9  10
ATOM     10  C   UNL     1      64.119  29.283  58.176  1.00  0.00     0.000 C 
BRANCH  10  11
ATOM     11  C   UNL     1      64.901  27.965  58.308  1.00  0.00     0.000 C 
BRANCH  11  12
ATOM     12  C   UNL     1      66.309  28.110  58.916  1.00  0.00     0.000 C 
BRANCH  12  13
ATOM     13  C   UNL     1      66.407  27.633  60.381  1.00  0.00     0.006 C 
BRANCH  13  14
ATOM     14  C   UNL     1      67.382  28.482  61.207  1.00  0.00     0.053 C 
BRANCH  14  15
ATOM     15  C   UNL     1      68.791  28.032  60.982  1.00  0.00     0.041 C 
ATOM     16  O   UNL     1      69.029  26.838  60.654  1.00  0.00    -0.550 OA
ATOM     17  O   UNL     1      69.844  28.914  61.191  1.00  0.00    -0.550 OA
ENDBRANCH  14  15
ENDBRANCH  13  14
ENDBRANCH  12  13
ENDBRANCH  11  12
ENDBRANCH  10  11
ENDBRANCH   9  10
ENDBRANCH   8   9
ENDBRANCH   7   8
ENDBRANCH   6   7
ENDBRANCH   5   6
ENDBRANCH   4   5
ENDBRANCH   3   4
ENDBRANCH   2   3
ENDBRANCH   1   2
BRANCH   1  18
ATOM     18  C   UNL     1      60.754  30.853  58.830  1.00  0.00     0.000 C 
BRANCH  18  19
ATOM     19  C   UNL     1      60.483  29.377  59.154  1.00  0.00     0.000 C 
BRANCH  19  20
ATOM     20  C   UNL     1      61.072  28.999  60.522  1.00  0.00     0.000 C 
BRANCH  20  21
ATOM     21  C   UNL     1      61.664  27.580  60.547  1.00  0.00     0.000 C 
BRANCH  21  22
ATOM     22  C   UNL     1      62.822  27.440  61.550  1.00  0.00     0.000 C 
BRANCH  22  23
ATOM     23  C   UNL     1      63.607  26.125  61.381  1.00  0.00     0.000 C 
BRANCH  23  24
ATOM     24  C   UNL     1      62.929  24.874  61.969  1.00  0.00    -0.000 C 
BRANCH  24  25
ATOM     25  C   UNL     1      62.279  25.131  63.338  1.00  0.00    -0.000 C 
BRANCH  25  26
ATOM     26  C   UNL     1      60.944  24.385  63.521  1.00  0.00    -0.000 C 
BRANCH  26  27
ATOM     27  C   UNL     1      60.080  24.259  62.249  1.00  0.00    -0.000 C 
BRANCH  27  28
ATOM     28  C   UNL     1      58.830  25.160  62.215  1.00  0.00    -0.000 C 
BRANCH  28  29
ATOM     29  C   UNL     1      58.494  25.752  60.831  1.00  0.00    -0.000 C 
BRANCH  29  30
ATOM     30  C   UNL     1      57.811  27.133  60.862  1.00  0.00    -0.000 C 
BRANCH  30  31
ATOM     31  C   UNL     1      57.166  27.507  62.209  1.00  0.00    -0.003 C 
ATOM     32  C   UNL     1      55.731  27.002  62.344  1.00  0.00     0.004 C 
ENDBRANCH  30  31
ENDBRANCH  29  30
ENDBRANCH  28  29
ENDBRANCH  27  28
ENDBRANCH  26  27
ENDBRANCH  25  26
ENDBRANCH  24  25
ENDBRANCH  23  24
ENDBRANCH  22  23
ENDBRANCH  21  22
ENDBRANCH  20  21
ENDBRANCH  19  20
ENDBRANCH  18  19
ENDBRANCH   1  18
TORSDOF 28
ENDMDL
MODEL 5
REMARK VINA RESULT:    -2.644      3.243      5.911
REMARK INTER + INTRA:         -12.871
REMARK INTER:                  -6.739
REMARK INTRA:                  -6.132
REMARK UNBOUND:                -5.899
REMARK SMILES CCCCCCCCCCCCCCCCCCCCCCCCCCCCCC(=O)[O-]
REMARK SMILES IDX 16 1 17 2 18 3 19 4 20 5 21 6 22 7 23 8 24 9 25 10 26 11
REMARK SMILES IDX 27 12 28 13 29 14 30 15 31 16 32 17 15 18 14 19 13 20 12 21
REMARK SMILES IDX 11 22 10 23 9 24 8 25 7 26 6 27 5 28 4 29 3 30 2 31 1 32
REMARK H PARENT
REMARK Flexibility Score: inf
ROOT
ATOM      1  C   UNL     1      64.698  30.006  61.413  1.00  0.00     0.000 C 
ENDROOT
BRANCH   1   2
ATOM      2  C   UNL     1      65.940  29.905  60.513  1.00  0.00     0.000 C 
BRANCH   2   3
ATOM      3  C   UNL     1      66.883  28.795  61.002  1.00  0.00     0.000 C 
BRANCH   3   4
ATOM      4  C   UNL     1      66.981  27.617  60.019  1.00  0.00     0.000 C 
BRANCH   4   5
ATOM      5  C   UNL     1      67.306  28.068  58.586  1.00  0.00     0.000 C 
BRANCH   5   6
ATOM      6  C   UNL     1      66.349  27.472  57.538  1.00  0.00     0.000 C 
BRANCH   6   7
ATOM      7  C   UNL     1      64.848  27.579  57.880  1.00  0.00     0.000 C 
BRANCH   7   8
ATOM      8  C   UNL     1      64.094  28.722  57.175  1.00  0.00     0.000 C 
BRANCH   8   9
ATOM      9  C   UNL     1      65.016  29.615  56.332  1.00  0.00     0.000 C 
BRANCH   9  10
ATOM     10  C   UNL     1      65.233  30.975  57.012  1.00  0.00     0.000 C 
BRANCH  10  11
ATOM     11  C   UNL     1      63.985  31.471  57.762  1.00  0.00     0.000 C 
BRANCH  11  12
ATOM     12  C   UNL     1      64.012  32.964  58.142  1.00  0.00     0.000 C 
BRANCH  12  13
ATOM     13  C   UNL     1      64.036  33.218  59.664  1.00  0.00     0.006 C 
BRANCH  13  14
ATOM     14  C   UNL     1      65.025  34.324  60.056  1.00  0.00     0.053 C 
BRANCH  14  15
ATOM     15  C   UNL     1      64.589  34.993  61.321  1.00  0.00     0.041 C 
ATOM     16  O   UNL     1      65.338  34.980  62.334  1.00  0.00    -0.550 OA
ATOM     17  O   UNL     1      63.331  35.580  61.400  1.00  0.00    -0.550 OA
ENDBRANCH  14  15
ENDBRANCH  13  14
ENDBRANCH  12  13
ENDBRANCH  11  12
ENDBRANCH  10  11
ENDBRANCH   9  10
ENDBRANCH   8   9
ENDBRANCH   7   8
ENDBRANCH   6   7
ENDBRANCH   5   6
ENDBRANCH   4   5
ENDBRANCH   3   4
ENDBRANCH   2   3
ENDBRANCH   1   2
BRANCH   1  18
ATOM     18  C   UNL     1      63.450  29.376  60.771  1.00  0.00     0.000 C 
BRANCH  18  19
ATOM     19  C   UNL     1      62.891  28.202  61.588  1.00  0.00     0.000 C 
BRANCH  19  20
ATOM     20  C   UNL     1      63.648  26.903  61.267  1.00  0.00     0.000 C 
BRANCH  20  21
ATOM     21  C   UNL     1      62.911  25.646  61.758  1.00  0.00     0.000 C 
BRANCH  21  22
ATOM     22  C   UNL     1      61.675  25.980  62.611  1.00  0.00     0.000 C 
BRANCH  22  23
ATOM     23  C   UNL     1      60.379  25.353  62.063  1.00  0.00     0.000 C 
BRANCH  23  24
ATOM     24  C   UNL     1      59.148  26.278  62.064  1.00  0.00    -0.000 C 
BRANCH  24  25
ATOM     25  C   UNL     1      59.310  27.494  61.137  1.00  0.00    -0.000 C 
BRANCH  25  26
ATOM     26  C   UNL     1      59.381  27.110  59.647  1.00  0.00    -0.000 C 
BRANCH  26  27
ATOM     27  C   UNL     1      60.688  27.499  58.926  1.00  0.00    -0.000 C 
BRANCH  27  28
ATOM     28  C   UNL     1      61.374  26.356  58.153  1.00  0.00    -0.000 C 
BRANCH  28  29
ATOM     29  C   UNL     1      60.815  24.949  58.442  1.00  0.00    -0.000 C 
BRANCH  29  30
ATOM     30  C   UNL     1      61.880  23.865  58.701  1.00  0.00    -0.000 C 
BRANCH  30  31
ATOM     31  C   UNL     1      63.324  24.284  58.370  1.00  0.00    -0.003 C 
ATOM     32  C   UNL     1      63.821  23.712  57.044  1.00  0.00     0.004 C 
ENDBRANCH  30  31
ENDBRANCH  29  30
ENDBRANCH  28  29
ENDBRANCH  27  28
ENDBRANCH  26  27
ENDBRANCH  25  26
ENDBRANCH  24  25
ENDBRANCH  23  24
ENDBRANCH  22  23
ENDBRANCH  21  22
ENDBRANCH  20  21
ENDBRANCH  19  20
ENDBRANCH  18  19
ENDBRANCH   1  18
TORSDOF 28
ENDMDL
MODEL 6
REMARK VINA RESULT:    -2.643      2.652      7.725
REMARK INTER + INTRA:         -12.868
REMARK INTER:                  -6.812
REMARK INTRA:                  -6.056
REMARK UNBOUND:                -5.899
REMARK SMILES CCCCCCCCCCCCCCCCCCCCCCCCCCCCCC(=O)[O-]
REMARK SMILES IDX 16 1 17 2 18 3 19 4 20 5 21 6 22 7 23 8 24 9 25 10 26 11
REMARK SMILES IDX 27 12 28 13 29 14 30 15 31 16 32 17 15 18 14 19 13 20 12 21
REMARK SMILES IDX 11 22 10 23 9 24 8 25 7 26 6 27 5 28 4 29 3 30 2 31 1 32
REMARK H PARENT
REMARK Flexibility Score: inf
ROOT
ATOM      1  C   UNL     1      63.393  27.572  60.896  1.00  0.00     0.000 C 
ENDROOT
BRANCH   1   2
ATOM      2  C   UNL     1      62.456  28.673  61.416  1.00  0.00     0.000 C 
BRANCH   2   3
ATOM      3  C   UNL     1      61.451  29.095  60.332  1.00  0.00     0.000 C 
BRANCH   3   4
ATOM      4  C   UNL     1      61.936  30.293  59.499  1.00  0.00     0.000 C 
BRANCH   4   5
ATOM      5  C   UNL     1      62.089  29.954  58.007  1.00  0.00     0.000 C 
BRANCH   5   6
ATOM      6  C   UNL     1      63.517  29.515  57.636  1.00  0.00     0.000 C 
BRANCH   6   7
ATOM      7  C   UNL     1      63.631  28.117  56.993  1.00  0.00     0.000 C 
BRANCH   7   8
ATOM      8  C   UNL     1      62.301  27.358  56.831  1.00  0.00     0.000 C 
BRANCH   8   9
ATOM      9  C   UNL     1      62.217  26.106  57.716  1.00  0.00     0.000 C 
BRANCH   9  10
ATOM     10  C   UNL     1      60.900  26.082  58.506  1.00  0.00     0.000 C 
BRANCH  10  11
ATOM     11  C   UNL     1      60.934  25.103  59.692  1.00  0.00     0.000 C 
BRANCH  11  12
ATOM     12  C   UNL     1      59.868  25.363  60.773  1.00  0.00     0.000 C 
BRANCH  12  13
ATOM     13  C   UNL     1      58.916  26.531  60.441  1.00  0.00     0.006 C 
BRANCH  13  14
ATOM     14  C   UNL     1      58.494  27.314  61.691  1.00  0.00     0.053 C 
BRANCH  14  15
ATOM     15  C   UNL     1      57.104  26.940  62.100  1.00  0.00     0.041 C 
ATOM     16  O   UNL     1      56.753  25.730  62.114  1.00  0.00    -0.550 OA
ATOM     17  O   UNL     1      56.180  27.931  62.408  1.00  0.00    -0.550 OA
ENDBRANCH  14  15
ENDBRANCH  13  14
ENDBRANCH  12  13
ENDBRANCH  11  12
ENDBRANCH  10  11
ENDBRANCH   9  10
ENDBRANCH   8   9
ENDBRANCH   7   8
ENDBRANCH   6   7
ENDBRANCH   5   6
ENDBRANCH   4   5
ENDBRANCH   3   4
ENDBRANCH   2   3
ENDBRANCH   1   2
BRANCH   1  18
ATOM     18  C   UNL     1      64.843  28.056  60.736  1.00  0.00     0.000 C 
BRANCH  18  19
ATOM     19  C   UNL     1      65.093  29.416  61.403  1.00  0.00     0.000 C 
BRANCH  19  20
ATOM     20  C   UNL     1      65.660  30.426  60.393  1.00  0.00     0.000 C 
BRANCH  20  21
ATOM     21  C   UNL     1      65.162  31.860  60.638  1.00  0.00     0.000 C 
BRANCH  21  22
ATOM     22  C   UNL     1      64.651  32.537  59.354  1.00  0.00     0.000 C 
BRANCH  22  23
ATOM     23  C   UNL     1      63.662  33.684  59.634  1.00  0.00     0.000 C 
BRANCH  23  24
ATOM     24  C   UNL     1      62.841  34.156  58.419  1.00  0.00    -0.000 C 
BRANCH  24  25
ATOM     25  C   UNL     1      61.349  34.342  58.740  1.00  0.00    -0.000 C 
BRANCH  25  26
ATOM     26  C   UNL     1      60.425  33.594  57.760  1.00  0.00    -0.000 C 
BRANCH  26  27
ATOM     27  C   UNL     1      58.914  33.741  58.035  1.00  0.00    -0.000 C 
BRANCH  27  28
ATOM     28  C   UNL     1      58.105  32.431  57.961  1.00  0.00    -0.000 C 
BRANCH  28  29
ATOM     29  C   UNL     1      58.833  31.256  57.279  1.00  0.00    -0.000 C 
BRANCH  29  30
ATOM     30  C   UNL     1      58.440  29.857  57.796  1.00  0.00    -0.000 C 
BRANCH  30  31
ATOM     31  C   UNL     1      58.618  28.717  56.776  1.00  0.00    -0.003 C 
ATOM     32  C   UNL     1      59.428  29.135  55.550  1.00  0.00     0.004 C 
ENDBRANCH  30  31
ENDBRANCH  29  30
ENDBRANCH  28  29
ENDBRANCH  27  28
ENDBRANCH  26  27
ENDBRANCH  25  26
ENDBRANCH  24  25
ENDBRANCH  23  24
ENDBRANCH  22  23
ENDBRANCH  21  22
ENDBRANCH  20  21
ENDBRANCH  19  20
ENDBRANCH  18  19
ENDBRANCH   1  18
TORSDOF 28
ENDMDL
MODEL 7
REMARK VINA RESULT:    -2.611      6.092      9.309
REMARK INTER + INTRA:         -12.785
REMARK INTER:                  -6.866
REMARK INTRA:                  -5.918
REMARK UNBOUND:                -5.899
REMARK SMILES CCCCCCCCCCCCCCCCCCCCCCCCCCCCCC(=O)[O-]
REMARK SMILES IDX 16 1 17 2 18 3 19 4 20 5 21 6 22 7 23 8 24 9 25 10 26 11
REMARK SMILES IDX 27 12 28 13 29 14 30 15 31 16 32 17 15 18 14 19 13 20 12 21
REMARK SMILES IDX 11 22 10 23 9 24 8 25 7 26 6 27 5 28 4 29 3 30 2 31 1 32
REMARK H PARENT
REMARK Flexibility Score: inf
ROOT
ATOM      1  C   UNL     1      55.214  29.431  52.082  1.00  0.00     0.000 C 
ENDROOT
BRANCH   1   2
ATOM      2  C   UNL     1      54.227  29.403  50.905  1.00  0.00     0.000 C 
BRANCH   2   3
ATOM      3  C   UNL     1      54.191  28.012  50.251  1.00  0.00     0.000 C 
BRANCH   3   4
ATOM      4  C   UNL     1      55.062  26.982  50.988  1.00  0.00     0.000 C 
BRANCH   4   5
ATOM      5  C   UNL     1      55.381  25.750  50.123  1.00  0.00     0.000 C 
BRANCH   5   6
ATOM      6  C   UNL     1      56.886  25.434  50.062  1.00  0.00     0.000 C 
BRANCH   6   7
ATOM      7  C   UNL     1      57.782  26.317  50.956  1.00  0.00     0.000 C 
BRANCH   7   8
ATOM      8  C   UNL     1      58.935  25.579  51.662  1.00  0.00     0.000 C 
BRANCH   8   9
ATOM      9  C   UNL     1      60.314  26.167  51.329  1.00  0.00     0.000 C 
BRANCH   9  10
ATOM     10  C   UNL     1      60.454  26.410  49.818  1.00  0.00     0.000 C 
BRANCH  10  11
ATOM     11  C   UNL     1      61.393  27.583  49.488  1.00  0.00     0.000 C 
BRANCH  11  12
ATOM     12  C   UNL     1      60.922  28.952  50.013  1.00  0.00     0.000 C 
BRANCH  12  13
ATOM     13  C   UNL     1      62.076  29.928  50.329  1.00  0.00     0.006 C 
BRANCH  13  14
ATOM     14  C   UNL     1      62.546  29.825  51.785  1.00  0.00     0.053 C 
BRANCH  14  15
ATOM     15  C   UNL     1      62.553  31.174  52.431  1.00  0.00     0.041 C 
ATOM     16  O   UNL     1      61.524  31.900  52.393  1.00  0.00    -0.550 OA
ATOM     17  O   UNL     1      63.715  31.655  53.024  1.00  0.00    -0.550 OA
ENDBRANCH  14  15
ENDBRANCH  13  14
ENDBRANCH  12  13
ENDBRANCH  11  12
ENDBRANCH  10  11
ENDBRANCH   9  10
ENDBRANCH   8   9
ENDBRANCH   7   8
ENDBRANCH   6   7
ENDBRANCH   5   6
ENDBRANCH   4   5
ENDBRANCH   3   4
ENDBRANCH   2   3
ENDBRANCH   1   2
BRANCH   1  18
ATOM     18  C   UNL     1      55.688  30.853  52.423  1.00  0.00     0.000 C 
BRANCH  18  19
ATOM     19  C   UNL     1      57.218  30.972  52.485  1.00  0.00     0.000 C 
BRANCH  19  20
ATOM     20  C   UNL     1      57.879  29.589  52.373  1.00  0.00     0.000 C 
BRANCH  20  21
ATOM     21  C   UNL     1      59.138  29.457  53.246  1.00  0.00     0.000 C 
BRANCH  21  22
ATOM     22  C   UNL     1      58.990  28.382  54.337  1.00  0.00     0.000 C 
BRANCH  22  23
ATOM     23  C   UNL     1      57.599  27.720  54.343  1.00  0.00     0.000 C 
BRANCH  23  24
ATOM     24  C   UNL     1      56.847  27.779  55.685  1.00  0.00    -0.000 C 
BRANCH  24  25
ATOM     25  C   UNL     1      55.329  27.958  55.515  1.00  0.00    -0.000 C 
BRANCH  25  26
ATOM     26  C   UNL     1      54.859  29.400  55.786  1.00  0.00    -0.000 C 
BRANCH  26  27
ATOM     27  C   UNL     1      55.642  30.153  56.881  1.00  0.00    -0.000 C 
BRANCH  27  28
ATOM     28  C   UNL     1      56.278  31.484  56.432  1.00  0.00    -0.000 C 
BRANCH  28  29
ATOM     29  C   UNL     1      57.788  31.414  56.133  1.00  0.00    -0.000 C 
BRANCH  29  30
ATOM     30  C   UNL     1      58.703  31.505  57.370  1.00  0.00    -0.000 C 
BRANCH  30  31
ATOM     31  C   UNL     1      59.764  30.393  57.474  1.00  0.00    -0.003 C 
ATOM     32  C   UNL     1      59.240  29.132  58.158  1.00  0.00     0.004 C 
ENDBRANCH  30  31
ENDBRANCH  29  30
ENDBRANCH  28  29
ENDBRANCH  27  28
ENDBRANCH  26  27
ENDBRANCH  25  26
ENDBRANCH  24  25
ENDBRANCH  23  24
ENDBRANCH  22  23
ENDBRANCH  21  22
ENDBRANCH  20  21
ENDBRANCH  19  20
ENDBRANCH  18  19
ENDBRANCH   1  18
TORSDOF 28
ENDMDL
MODEL 8
REMARK VINA RESULT:    -2.591      7.267      9.911
REMARK INTER + INTRA:         -12.731
REMARK INTER:                  -6.021
REMARK INTRA:                  -6.709
REMARK UNBOUND:                -5.899
REMARK SMILES CCCCCCCCCCCCCCCCCCCCCCCCCCCCCC(=O)[O-]
REMARK SMILES IDX 16 1 17 2 18 3 19 4 20 5 21 6 22 7 23 8 24 9 25 10 26 11
REMARK SMILES IDX 27 12 28 13 29 14 30 15 31 16 32 17 15 18 14 19 13 20 12 21
REMARK SMILES IDX 11 22 10 23 9 24 8 25 7 26 6 27 5 28 4 29 3 30 2 31 1 32
REMARK H PARENT
REMARK Flexibility Score: inf
ROOT
ATOM      1  C   UNL     1      62.264  26.227  53.940  1.00  0.00     0.000 C 
ENDROOT
BRANCH   1   2
ATOM      2  C   UNL     1      63.075  27.348  53.271  1.00  0.00     0.000 C 
BRANCH   2   3
ATOM      3  C   UNL     1      62.976  28.653  54.077  1.00  0.00     0.000 C 
BRANCH   3   4
ATOM      4  C   UNL     1      63.116  29.909  53.202  1.00  0.00     0.000 C 
BRANCH   4   5
ATOM      5  C   UNL     1      62.389  31.128  53.796  1.00  0.00     0.000 C 
BRANCH   5   6
ATOM      6  C   UNL     1      61.399  31.774  52.811  1.00  0.00     0.000 C 
BRANCH   6   7
ATOM      7  C   UNL     1      61.769  33.198  52.343  1.00  0.00     0.000 C 
BRANCH   7   8
ATOM      8  C   UNL     1      63.261  33.559  52.456  1.00  0.00     0.000 C 
BRANCH   8   9
ATOM      9  C   UNL     1      64.078  33.115  51.234  1.00  0.00     0.000 C 
BRANCH   9  10
ATOM     10  C   UNL     1      63.407  33.576  49.931  1.00  0.00     0.000 C 
BRANCH  10  11
ATOM     11  C   UNL     1      63.188  32.425  48.934  1.00  0.00     0.000 C 
BRANCH  11  12
ATOM     12  C   UNL     1      63.100  31.027  49.575  1.00  0.00     0.000 C 
BRANCH  12  13
ATOM     13  C   UNL     1      64.006  29.975  48.900  1.00  0.00     0.006 C 
BRANCH  13  14
ATOM     14  C   UNL     1      64.597  28.981  49.909  1.00  0.00     0.053 C 
BRANCH  14  15
ATOM     15  C   UNL     1      64.482  27.581  49.394  1.00  0.00     0.041 C 
ATOM     16  O   UNL     1      64.676  26.605  50.167  1.00  0.00    -0.550 OA
ATOM     17  O   UNL     1      64.220  27.354  48.048  1.00  0.00    -0.550 OA
ENDBRANCH  14  15
ENDBRANCH  13  14
ENDBRANCH  12  13
ENDBRANCH  11  12
ENDBRANCH  10  11
ENDBRANCH   9  10
ENDBRANCH   8   9
ENDBRANCH   7   8
ENDBRANCH   6   7
ENDBRANCH   5   6
ENDBRANCH   4   5
ENDBRANCH   3   4
ENDBRANCH   2   3
ENDBRANCH   1   2
BRANCH   1  18
ATOM     18  C   UNL     1      62.349  24.897  53.173  1.00  0.00     0.000 C 
BRANCH  18  19
ATOM     19  C   UNL     1      61.005  24.156  53.116  1.00  0.00     0.000 C 
BRANCH  19  20
ATOM     20  C   UNL     1      59.866  25.050  53.631  1.00  0.00     0.000 C 
BRANCH  20  21
ATOM     21  C   UNL     1      58.577  24.911  52.803  1.00  0.00     0.000 C 
BRANCH  21  22
ATOM     22  C   UNL     1      58.829  24.291  51.418  1.00  0.00     0.000 C 
BRANCH  22  23
ATOM     23  C   UNL     1      58.592  25.285  50.264  1.00  0.00     0.000 C 
BRANCH  23  24
ATOM     24  C   UNL     1      59.821  25.576  49.383  1.00  0.00    -0.000 C 
BRANCH  24  25
ATOM     25  C   UNL     1      60.893  26.409  50.104  1.00  0.00    -0.000 C 
BRANCH  25  26
ATOM     26  C   UNL     1      60.935  27.875  49.631  1.00  0.00    -0.000 C 
BRANCH  26  27
ATOM     27  C   UNL     1      60.456  28.915  50.664  1.00  0.00    -0.000 C 
BRANCH  27  28
ATOM     28  C   UNL     1      59.942  28.329  51.994  1.00  0.00    -0.000 C 
BRANCH  28  29
ATOM     29  C   UNL     1      58.490  28.705  52.351  1.00  0.00    -0.000 C 
BRANCH  29  30
ATOM     30  C   UNL     1      58.106  28.491  53.829  1.00  0.00    -0.000 C 
BRANCH  30  31
ATOM     31  C   UNL     1      59.289  28.506  54.814  1.00  0.00    -0.003 C 
ATOM     32  C   UNL     1      59.466  29.853  55.511  1.00  0.00     0.004 C 
ENDBRANCH  30  31
ENDBRANCH  29  30
ENDBRANCH  28  29
ENDBRANCH  27  28
ENDBRANCH  26  27
ENDBRANCH  25  26
ENDBRANCH  24  25
ENDBRANCH  23  24
ENDBRANCH  22  23
ENDBRANCH  21  22
ENDBRANCH  20  21
ENDBRANCH  19  20
ENDBRANCH  18  19
ENDBRANCH   1  18
TORSDOF 28
ENDMDL
MODEL 9
REMARK VINA RESULT:    -2.564      7.668     10.635
REMARK INTER + INTRA:         -12.660
REMARK INTER:                  -6.736
REMARK INTRA:                  -5.923
REMARK UNBOUND:                -5.899
REMARK SMILES CCCCCCCCCCCCCCCCCCCCCCCCCCCCCC(=O)[O-]
REMARK SMILES IDX 16 1 17 2 18 3 19 4 20 5 21 6 22 7 23 8 24 9 25 10 26 11
REMARK SMILES IDX 27 12 28 13 29 14 30 15 31 16 32 17 15 18 14 19 13 20 12 21
REMARK SMILES IDX 11 22 10 23 9 24 8 25 7 26 6 27 5 28 4 29 3 30 2 31 1 32
REMARK H PARENT
REMARK Flexibility Score: inf
ROOT
ATOM      1  C   UNL     1      61.348  29.370  50.126  1.00  0.00     0.000 C 
ENDROOT
BRANCH   1   2
ATOM      2  C   UNL     1      61.221  28.467  51.362  1.00  0.00     0.000 C 
BRANCH   2   3
ATOM      3  C   UNL     1      60.235  27.317  51.102  1.00  0.00     0.000 C 
BRANCH   3   4
ATOM      4  C   UNL     1      60.298  26.788  49.660  1.00  0.00     0.000 C 
BRANCH   4   5
ATOM      5  C   UNL     1      59.383  25.572  49.435  1.00  0.00     0.000 C 
BRANCH   5   6
ATOM      6  C   UNL     1      58.948  24.899  50.749  1.00  0.00     0.000 C 
BRANCH   6   7
ATOM      7  C   UNL     1      59.808  23.695  51.190  1.00  0.00     0.000 C 
BRANCH   7   8
ATOM      8  C   UNL     1      60.718  23.104  50.098  1.00  0.00     0.000 C 
BRANCH   8   9
ATOM      9  C   UNL     1      62.212  23.296  50.397  1.00  0.00     0.000 C 
BRANCH   9  10
ATOM     10  C   UNL     1      62.413  24.220  51.608  1.00  0.00     0.000 C 
BRANCH  10  11
ATOM     11  C   UNL     1      63.399  25.367  51.324  1.00  0.00     0.000 C 
BRANCH  11  12
ATOM     12  C   UNL     1      63.626  25.667  49.830  1.00  0.00     0.000 C 
BRANCH  12  13
ATOM     13  C   UNL     1      64.251  27.052  49.562  1.00  0.00     0.006 C 
BRANCH  13  14
ATOM     14  C   UNL     1      63.921  27.580  48.160  1.00  0.00     0.053 C 
BRANCH  14  15
ATOM     15  C   UNL     1      65.025  28.454  47.655  1.00  0.00     0.041 C 
ATOM     16  O   UNL     1      65.765  28.059  46.715  1.00  0.00    -0.550 OA
ATOM     17  O   UNL     1      65.273  29.680  48.261  1.00  0.00    -0.550 OA
ENDBRANCH  14  15
ENDBRANCH  13  14
ENDBRANCH  12  13
ENDBRANCH  11  12
ENDBRANCH  10  11
ENDBRANCH   9  10
ENDBRANCH   8   9
ENDBRANCH   7   8
ENDBRANCH   6   7
ENDBRANCH   5   6
ENDBRANCH   4   5
ENDBRANCH   3   4
ENDBRANCH   2   3
ENDBRANCH   1   2
BRANCH   1  18
ATOM     18  C   UNL     1      62.489  30.392  50.255  1.00  0.00     0.000 C 
BRANCH  18  19
ATOM     19  C   UNL     1      63.053  30.478  51.680  1.00  0.00     0.000 C 
BRANCH  19  20
ATOM     20  C   UNL     1      62.873  31.891  52.257  1.00  0.00     0.000 C 
BRANCH  20  21
ATOM     21  C   UNL     1      61.957  31.921  53.491  1.00  0.00     0.000 C 
BRANCH  21  22
ATOM     22  C   UNL     1      60.470  32.054  53.121  1.00  0.00     0.000 C 
BRANCH  22  23
ATOM     23  C   UNL     1      59.622  30.862  53.603  1.00  0.00     0.000 C 
BRANCH  23  24
ATOM     24  C   UNL     1      60.325  29.911  54.589  1.00  0.00    -0.000 C 
BRANCH  24  25
ATOM     25  C   UNL     1      59.731  29.969  56.006  1.00  0.00    -0.000 C 
BRANCH  25  26
ATOM     26  C   UNL     1      58.483  30.869  56.099  1.00  0.00    -0.000 C 
BRANCH  26  27
ATOM     27  C   UNL     1      57.168  30.138  56.436  1.00  0.00    -0.000 C 
BRANCH  27  28
ATOM     28  C   UNL     1      56.401  29.577  55.223  1.00  0.00    -0.000 C 
BRANCH  28  29
ATOM     29  C   UNL     1      56.584  28.066  54.980  1.00  0.00    -0.000 C 
BRANCH  29  30
ATOM     30  C   UNL     1      57.503  27.702  53.797  1.00  0.00    -0.000 C 
BRANCH  30  31
ATOM     31  C   UNL     1      57.084  28.304  52.443  1.00  0.00    -0.003 C 
ATOM     32  C   UNL     1      56.279  27.332  51.582  1.00  0.00     0.004 C 
ENDBRANCH  30  31
ENDBRANCH  29  30
ENDBRANCH  28  29
ENDBRANCH  27  28
ENDBRANCH  26  27
ENDBRANCH  25  26
ENDBRANCH  24  25
ENDBRANCH  23  24
ENDBRANCH  22  23
ENDBRANCH  21  22
ENDBRANCH  20  21
ENDBRANCH  19  20
ENDBRANCH  18  19
ENDBRANCH   1  18
TORSDOF 28
ENDMDL
