MODEL 1
REMARK VINA RESULT:    -4.295      0.000      0.000
REMARK INTER + INTRA:         -12.372
REMARK INTER:                  -9.317
REMARK INTRA:                  -3.056
REMARK UNBOUND:                -3.056
REMARK SMILES CCCCCCCCCCCCCCCCCCCCCC(=O)[O-]
REMARK SMILES IDX 12 1 11 2 10 3 9 4 8 5 7 6 6 7 5 8 4 9 3 10 2 11 1 12 13 13
REMARK SMILES IDX 14 14 15 15 16 16 17 17 18 18 19 19 20 20 21 21 22 22 23 23
REMARK SMILES IDX 24 24
REMARK H PARENT
REMARK Flexibility Score: inf
ROOT
ATOM      1  C   UNL     1      -2.252  58.834  48.824  1.00  0.00     0.000 C 
ENDROOT
BRANCH   1   2
ATOM      2  C   UNL     1      -3.532  59.684  48.819  1.00  0.00     0.000 C 
BRANCH   2   3
ATOM      3  C   UNL     1      -3.318  61.074  48.197  1.00  0.00     0.000 C 
BRANCH   3   4
ATOM      4  C   UNL     1      -3.846  61.161  46.755  1.00  0.00    -0.000 C 
BRANCH   4   5
ATOM      5  C   UNL     1      -3.486  62.490  46.065  1.00  0.00    -0.000 C 
BRANCH   5   6
ATOM      6  C   UNL     1      -3.120  62.374  44.574  1.00  0.00    -0.000 C 
BRANCH   6   7
ATOM      7  C   UNL     1      -1.885  63.186  44.137  1.00  0.00    -0.000 C 
BRANCH   7   8
ATOM      8  C   UNL     1      -0.690  63.072  45.109  1.00  0.00    -0.000 C 
BRANCH   8   9
ATOM      9  C   UNL     1       0.072  61.744  44.951  1.00  0.00    -0.000 C 
BRANCH   9  10
ATOM     10  C   UNL     1       1.415  61.742  45.699  1.00  0.00    -0.000 C 
BRANCH  10  11
ATOM     11  C   UNL     1       1.895  63.157  46.052  1.00  0.00    -0.003 C 
ATOM     12  C   UNL     1       3.010  63.609  45.114  1.00  0.00     0.004 C 
ENDBRANCH  10  11
ENDBRANCH   9  10
ENDBRANCH   8   9
ENDBRANCH   7   8
ENDBRANCH   6   7
ENDBRANCH   5   6
ENDBRANCH   4   5
ENDBRANCH   3   4
ENDBRANCH   2   3
ENDBRANCH   1   2
BRANCH   1  13
ATOM     13  C   UNL     1      -2.585  57.343  48.988  1.00  0.00     0.000 C 
BRANCH  13  14
ATOM     14  C   UNL     1      -1.880  56.453  47.948  1.00  0.00     0.000 C 
BRANCH  14  15
ATOM     15  C   UNL     1      -2.800  55.883  46.850  1.00  0.00     0.000 C 
BRANCH  15  16
ATOM     16  C   UNL     1      -4.125  56.646  46.650  1.00  0.00     0.000 C 
BRANCH  16  17
ATOM     17  C   UNL     1      -4.074  57.786  45.612  1.00  0.00     0.000 C 
BRANCH  17  18
ATOM     18  C   UNL     1      -2.868  57.747  44.656  1.00  0.00     0.000 C 
BRANCH  18  19
ATOM     19  C   UNL     1      -1.764  58.745  45.045  1.00  0.00     0.000 C 
BRANCH  19  20
ATOM     20  C   UNL     1      -0.350  58.152  44.904  1.00  0.00     0.006 C 
BRANCH  20  21
ATOM     21  C   UNL     1       0.094  57.906  43.453  1.00  0.00     0.053 C 
BRANCH  21  22
ATOM     22  C   UNL     1       1.572  58.075  43.281  1.00  0.00     0.041 C 
ATOM     23  O   UNL     1       2.078  59.228  43.236  1.00  0.00    -0.550 OA
ATOM     24  O   UNL     1       2.389  56.959  43.140  1.00  0.00    -0.550 OA
ENDBRANCH  21  22
ENDBRANCH  20  21
ENDBRANCH  19  20
ENDBRANCH  18  19
ENDBRANCH  17  18
ENDBRANCH  16  17
ENDBRANCH  15  16
ENDBRANCH  14  15
ENDBRANCH  13  14
ENDBRANCH   1  13
TORSDOF 20
ENDMDL
MODEL 2
REMARK VINA RESULT:    -4.115      1.388      2.325
REMARK INTER + INTRA:         -11.983
REMARK INTER:                  -9.183
REMARK INTRA:                  -2.799
REMARK UNBOUND:                -3.056
REMARK SMILES CCCCCCCCCCCCCCCCCCCCCC(=O)[O-]
REMARK SMILES IDX 12 1 11 2 10 3 9 4 8 5 7 6 6 7 5 8 4 9 3 10 2 11 1 12 13 13
REMARK SMILES IDX 14 14 15 15 16 16 17 17 18 18 19 19 20 20 21 21 22 22 23 23
REMARK SMILES IDX 24 24
REMARK H PARENT
REMARK Flexibility Score: inf
ROOT
ATOM      1  C   UNL     1      -2.538  57.647  48.972  1.00  0.00     0.000 C 
ENDROOT
BRANCH   1   2
ATOM      2  C   UNL     1      -2.232  59.094  48.553  1.00  0.00     0.000 C 
BRANCH   2   3
ATOM      3  C   UNL     1      -3.482  59.989  48.557  1.00  0.00     0.000 C 
BRANCH   3   4
ATOM      4  C   UNL     1      -3.837  60.512  47.156  1.00  0.00    -0.000 C 
BRANCH   4   5
ATOM      5  C   UNL     1      -3.791  62.048  47.059  1.00  0.00    -0.000 C 
BRANCH   5   6
ATOM      6  C   UNL     1      -2.784  62.608  46.036  1.00  0.00    -0.000 C 
BRANCH   6   7
ATOM      7  C   UNL     1      -2.401  61.641  44.898  1.00  0.00    -0.000 C 
BRANCH   7   8
ATOM      8  C   UNL     1      -0.950  61.812  44.399  1.00  0.00    -0.000 C 
BRANCH   8   9
ATOM      9  C   UNL     1       0.081  61.690  45.535  1.00  0.00    -0.000 C 
BRANCH   9  10
ATOM     10  C   UNL     1       1.036  62.893  45.596  1.00  0.00    -0.000 C 
BRANCH  10  11
ATOM     11  C   UNL     1       0.448  64.147  44.933  1.00  0.00    -0.003 C 
ATOM     12  C   UNL     1      -0.096  65.117  45.977  1.00  0.00     0.004 C 
ENDBRANCH  10  11
ENDBRANCH   9  10
ENDBRANCH   8   9
ENDBRANCH   7   8
ENDBRANCH   6   7
ENDBRANCH   5   6
ENDBRANCH   4   5
ENDBRANCH   3   4
ENDBRANCH   2   3
ENDBRANCH   1   2
BRANCH   1  13
ATOM     13  C   UNL     1      -2.536  56.713  47.753  1.00  0.00     0.000 C 
BRANCH  13  14
ATOM     14  C   UNL     1      -3.893  56.672  47.027  1.00  0.00     0.000 C 
BRANCH  14  15
ATOM     15  C   UNL     1      -3.832  56.977  45.517  1.00  0.00     0.000 C 
BRANCH  15  16
ATOM     16  C   UNL     1      -2.875  58.119  45.121  1.00  0.00     0.000 C 
BRANCH  16  17
ATOM     17  C   UNL     1      -1.703  57.704  44.208  1.00  0.00     0.000 C 
BRANCH  17  18
ATOM     18  C   UNL     1      -0.310  58.156  44.684  1.00  0.00     0.000 C 
BRANCH  18  19
ATOM     19  C   UNL     1       0.816  57.730  43.726  1.00  0.00     0.000 C 
BRANCH  19  20
ATOM     20  C   UNL     1       1.622  58.926  43.187  1.00  0.00     0.006 C 
BRANCH  20  21
ATOM     21  C   UNL     1       3.147  58.743  43.245  1.00  0.00     0.053 C 
BRANCH  21  22
ATOM     22  C   UNL     1       3.870  60.055  43.259  1.00  0.00     0.041 C 
ATOM     23  O   UNL     1       5.103  60.103  43.009  1.00  0.00    -0.550 OA
ATOM     24  O   UNL     1       3.186  61.222  43.579  1.00  0.00    -0.550 OA
ENDBRANCH  21  22
ENDBRANCH  20  21
ENDBRANCH  19  20
ENDBRANCH  18  19
ENDBRANCH  17  18
ENDBRANCH  16  17
ENDBRANCH  15  16
ENDBRANCH  14  15
ENDBRANCH  13  14
ENDBRANCH   1  13
TORSDOF 20
ENDMDL
MODEL 3
REMARK VINA RESULT:    -3.999     13.150     15.250
REMARK INTER + INTRA:         -11.730
REMARK INTER:                  -9.704
REMARK INTRA:                  -2.026
REMARK UNBOUND:                -3.056
REMARK SMILES CCCCCCCCCCCCCCCCCCCCCC(=O)[O-]
REMARK SMILES IDX 12 1 11 2 10 3 9 4 8 5 7 6 6 7 5 8 4 9 3 10 2 11 1 12 13 13
REMARK SMILES IDX 14 14 15 15 16 16 17 17 18 18 19 19 20 20 21 21 22 22 23 23
REMARK SMILES IDX 24 24
REMARK H PARENT
REMARK Flexibility Score: inf
ROOT
ATOM      1  C   UNL     1       9.722  62.813  58.627  1.00  0.00     0.000 C 
ENDROOT
BRANCH   1   2
ATOM      2  C   UNL     1      10.064  64.308  58.534  1.00  0.00     0.000 C 
BRANCH   2   3
ATOM      3  C   UNL     1       9.923  64.860  57.106  1.00  0.00     0.000 C 
BRANCH   3   4
ATOM      4  C   UNL     1      11.212  64.705  56.284  1.00  0.00    -0.000 C 
BRANCH   4   5
ATOM      5  C   UNL     1      11.149  65.433  54.927  1.00  0.00    -0.000 C 
BRANCH   5   6
ATOM      6  C   UNL     1      11.690  64.630  53.729  1.00  0.00    -0.000 C 
BRANCH   6   7
ATOM      7  C   UNL     1      10.613  64.030  52.804  1.00  0.00    -0.000 C 
BRANCH   7   8
ATOM      8  C   UNL     1      10.259  64.928  51.598  1.00  0.00    -0.000 C 
BRANCH   8   9
ATOM      9  C   UNL     1      11.421  65.849  51.189  1.00  0.00    -0.000 C 
BRANCH   9  10
ATOM     10  C   UNL     1      10.938  67.152  50.531  1.00  0.00    -0.000 C 
BRANCH  10  11
ATOM     11  C   UNL     1      11.838  68.350  50.865  1.00  0.00    -0.003 C 
ATOM     12  C   UNL     1      11.851  68.627  52.365  1.00  0.00     0.004 C 
ENDBRANCH  10  11
ENDBRANCH   9  10
ENDBRANCH   8   9
ENDBRANCH   7   8
ENDBRANCH   6   7
ENDBRANCH   5   6
ENDBRANCH   4   5
ENDBRANCH   3   4
ENDBRANCH   2   3
ENDBRANCH   1   2
BRANCH   1  13
ATOM     13  C   UNL     1       8.210  62.608  58.806  1.00  0.00     0.000 C 
BRANCH  13  14
ATOM     14  C   UNL     1       7.854  61.900  60.126  1.00  0.00     0.000 C 
BRANCH  14  15
ATOM     15  C   UNL     1       6.344  61.702  60.371  1.00  0.00     0.000 C 
BRANCH  15  16
ATOM     16  C   UNL     1       5.867  60.236  60.343  1.00  0.00     0.000 C 
BRANCH  16  17
ATOM     17  C   UNL     1       5.500  59.693  58.947  1.00  0.00     0.000 C 
BRANCH  17  18
ATOM     18  C   UNL     1       5.036  60.755  57.933  1.00  0.00     0.000 C 
BRANCH  18  19
ATOM     19  C   UNL     1       5.878  60.759  56.646  1.00  0.00     0.000 C 
BRANCH  19  20
ATOM     20  C   UNL     1       7.206  59.994  56.802  1.00  0.00     0.006 C 
BRANCH  20  21
ATOM     21  C   UNL     1       7.914  59.671  55.476  1.00  0.00     0.053 C 
BRANCH  21  22
ATOM     22  C   UNL     1       8.369  60.910  54.767  1.00  0.00     0.041 C 
ATOM     23  O   UNL     1       9.100  61.747  55.359  1.00  0.00    -0.550 OA
ATOM     24  O   UNL     1       7.960  61.154  53.461  1.00  0.00    -0.550 OA
ENDBRANCH  21  22
ENDBRANCH  20  21
ENDBRANCH  19  20
ENDBRANCH  18  19
ENDBRANCH  17  18
ENDBRANCH  16  17
ENDBRANCH  15  16
ENDBRANCH  14  15
ENDBRANCH  13  14
ENDBRANCH   1  13
TORSDOF 20
ENDMDL
MODEL 4
REMARK VINA RESULT:    -3.996      1.574      2.180
REMARK INTER + INTRA:         -11.725
REMARK INTER:                  -8.614
REMARK INTRA:                  -3.110
REMARK UNBOUND:                -3.056
REMARK SMILES CCCCCCCCCCCCCCCCCCCCCC(=O)[O-]
REMARK SMILES IDX 12 1 11 2 10 3 9 4 8 5 7 6 6 7 5 8 4 9 3 10 2 11 1 12 13 13
REMARK SMILES IDX 14 14 15 15 16 16 17 17 18 18 19 19 20 20 21 21 22 22 23 23
REMARK SMILES IDX 24 24
REMARK H PARENT
REMARK Flexibility Score: inf
ROOT
ATOM      1  C   UNL     1      -3.727  59.577  48.375  1.00  0.00     0.000 C 
ENDROOT
BRANCH   1   2
ATOM      2  C   UNL     1      -3.821  60.590  47.223  1.00  0.00     0.000 C 
BRANCH   2   3
ATOM      3  C   UNL     1      -2.507  60.712  46.433  1.00  0.00     0.000 C 
BRANCH   3   4
ATOM      4  C   UNL     1      -2.694  61.435  45.089  1.00  0.00    -0.000 C 
BRANCH   4   5
ATOM      5  C   UNL     1      -4.021  62.212  45.005  1.00  0.00    -0.000 C 
BRANCH   5   6
ATOM      6  C   UNL     1      -3.888  63.744  45.096  1.00  0.00    -0.000 C 
BRANCH   6   7
ATOM      7  C   UNL     1      -3.473  64.285  46.478  1.00  0.00    -0.000 C 
BRANCH   7   8
ATOM      8  C   UNL     1      -2.137  65.060  46.468  1.00  0.00    -0.000 C 
BRANCH   8   9
ATOM      9  C   UNL     1      -1.329  64.822  45.180  1.00  0.00    -0.000 C 
BRANCH   9  10
ATOM     10  C   UNL     1      -0.135  63.879  45.398  1.00  0.00    -0.000 C 
BRANCH  10  11
ATOM     11  C   UNL     1       1.216  64.584  45.210  1.00  0.00    -0.003 C 
ATOM     12  C   UNL     1       1.977  64.675  46.528  1.00  0.00     0.004 C 
ENDBRANCH  10  11
ENDBRANCH   9  10
ENDBRANCH   8   9
ENDBRANCH   7   8
ENDBRANCH   6   7
ENDBRANCH   5   6
ENDBRANCH   4   5
ENDBRANCH   3   4
ENDBRANCH   2   3
ENDBRANCH   1   2
BRANCH   1  13
ATOM     13  C   UNL     1      -2.261  59.249  48.697  1.00  0.00     0.000 C 
BRANCH  13  14
ATOM     14  C   UNL     1      -2.054  57.784  49.120  1.00  0.00     0.000 C 
BRANCH  14  15
ATOM     15  C   UNL     1      -2.983  56.768  48.424  1.00  0.00     0.000 C 
BRANCH  15  16
ATOM     16  C   UNL     1      -2.576  56.395  46.985  1.00  0.00     0.000 C 
BRANCH  16  17
ATOM     17  C   UNL     1      -3.421  57.052  45.874  1.00  0.00     0.000 C 
BRANCH  17  18
ATOM     18  C   UNL     1      -2.614  57.731  44.752  1.00  0.00     0.000 C 
BRANCH  18  19
ATOM     19  C   UNL     1      -1.103  57.761  45.038  1.00  0.00     0.000 C 
BRANCH  19  20
ATOM     20  C   UNL     1      -0.260  57.936  43.761  1.00  0.00     0.006 C 
BRANCH  20  21
ATOM     21  C   UNL     1       1.066  58.686  43.972  1.00  0.00     0.053 C 
BRANCH  21  22
ATOM     22  C   UNL     1       0.848  60.137  44.270  1.00  0.00     0.041 C 
ATOM     23  O   UNL     1       1.014  60.577  45.438  1.00  0.00    -0.550 OA
ATOM     24  O   UNL     1       0.431  60.999  43.262  1.00  0.00    -0.550 OA
ENDBRANCH  21  22
ENDBRANCH  20  21
ENDBRANCH  19  20
ENDBRANCH  18  19
ENDBRANCH  17  18
ENDBRANCH  16  17
ENDBRANCH  15  16
ENDBRANCH  14  15
ENDBRANCH  13  14
ENDBRANCH   1  13
TORSDOF 20
ENDMDL
MODEL 5
REMARK VINA RESULT:    -3.992      2.832      3.804
REMARK INTER + INTRA:         -11.716
REMARK INTER:                  -9.369
REMARK INTRA:                  -2.347
REMARK UNBOUND:                -3.056
REMARK SMILES CCCCCCCCCCCCCCCCCCCCCC(=O)[O-]
REMARK SMILES IDX 12 1 11 2 10 3 9 4 8 5 7 6 6 7 5 8 4 9 3 10 2 11 1 12 13 13
REMARK SMILES IDX 14 14 15 15 16 16 17 17 18 18 19 19 20 20 21 21 22 22 23 23
REMARK SMILES IDX 24 24
REMARK H PARENT
REMARK Flexibility Score: inf
ROOT
ATOM      1  C   UNL     1      -3.469  61.223  46.948  1.00  0.00     0.000 C 
ENDROOT
BRANCH   1   2
ATOM      2  C   UNL     1      -3.818  61.280  45.453  1.00  0.00     0.000 C 
BRANCH   2   3
ATOM      3  C   UNL     1      -2.697  61.907  44.606  1.00  0.00     0.000 C 
BRANCH   3   4
ATOM      4  C   UNL     1      -1.573  62.506  45.467  1.00  0.00    -0.000 C 
BRANCH   4   5
ATOM      5  C   UNL     1      -1.460  64.036  45.326  1.00  0.00    -0.000 C 
BRANCH   5   6
ATOM      6  C   UNL     1      -1.957  64.843  46.540  1.00  0.00    -0.000 C 
BRANCH   6   7
ATOM      7  C   UNL     1      -1.260  66.200  46.754  1.00  0.00    -0.000 C 
BRANCH   7   8
ATOM      8  C   UNL     1       0.225  66.081  47.163  1.00  0.00    -0.000 C 
BRANCH   8   9
ATOM      9  C   UNL     1       0.415  66.066  48.690  1.00  0.00    -0.000 C 
BRANCH   9  10
ATOM     10  C   UNL     1      -0.471  67.100  49.404  1.00  0.00    -0.000 C 
BRANCH  10  11
ATOM     11  C   UNL     1       0.137  67.583  50.728  1.00  0.00    -0.003 C 
ATOM     12  C   UNL     1       1.490  68.250  50.501  1.00  0.00     0.004 C 
ENDBRANCH  10  11
ENDBRANCH   9  10
ENDBRANCH   8   9
ENDBRANCH   7   8
ENDBRANCH   6   7
ENDBRANCH   5   6
ENDBRANCH   4   5
ENDBRANCH   3   4
ENDBRANCH   2   3
ENDBRANCH   1   2
BRANCH   1  13
ATOM     13  C   UNL     1      -4.092  59.982  47.607  1.00  0.00     0.000 C 
BRANCH  13  14
ATOM     14  C   UNL     1      -3.410  59.604  48.935  1.00  0.00     0.000 C 
BRANCH  14  15
ATOM     15  C   UNL     1      -2.247  58.600  48.806  1.00  0.00     0.000 C 
BRANCH  15  16
ATOM     16  C   UNL     1      -2.672  57.144  48.527  1.00  0.00     0.000 C 
BRANCH  16  17
ATOM     17  C   UNL     1      -2.354  56.629  47.109  1.00  0.00     0.000 C 
BRANCH  17  18
ATOM     18  C   UNL     1      -3.336  57.083  46.012  1.00  0.00     0.000 C 
BRANCH  18  19
ATOM     19  C   UNL     1      -2.628  57.711  44.800  1.00  0.00     0.000 C 
BRANCH  19  20
ATOM     20  C   UNL     1      -1.320  58.428  45.181  1.00  0.00     0.006 C 
BRANCH  20  21
ATOM     21  C   UNL     1      -0.150  58.174  44.216  1.00  0.00     0.053 C 
BRANCH  21  22
ATOM     22  C   UNL     1       0.694  59.396  44.023  1.00  0.00     0.041 C 
ATOM     23  O   UNL     1       1.133  59.689  42.880  1.00  0.00    -0.550 OA
ATOM     24  O   UNL     1       1.023  60.193  45.113  1.00  0.00    -0.550 OA
ENDBRANCH  21  22
ENDBRANCH  20  21
ENDBRANCH  19  20
ENDBRANCH  18  19
ENDBRANCH  17  18
ENDBRANCH  16  17
ENDBRANCH  15  16
ENDBRANCH  14  15
ENDBRANCH  13  14
ENDBRANCH   1  13
TORSDOF 20
ENDMDL
MODEL 6
REMARK VINA RESULT:    -3.988      2.074      3.003
REMARK INTER + INTRA:         -11.706
REMARK INTER:                  -8.667
REMARK INTRA:                  -3.040
REMARK UNBOUND:                -3.056
REMARK SMILES CCCCCCCCCCCCCCCCCCCCCC(=O)[O-]
REMARK SMILES IDX 12 1 11 2 10 3 9 4 8 5 7 6 6 7 5 8 4 9 3 10 2 11 1 12 13 13
REMARK SMILES IDX 14 14 15 15 16 16 17 17 18 18 19 19 20 20 21 21 22 22 23 23
REMARK SMILES IDX 24 24
REMARK H PARENT
REMARK Flexibility Score: inf
ROOT
ATOM      1  C   UNL     1      -2.180  58.692  48.843  1.00  0.00     0.000 C 
ENDROOT
BRANCH   1   2
ATOM      2  C   UNL     1      -3.391  59.635  48.915  1.00  0.00     0.000 C 
BRANCH   2   3
ATOM      3  C   UNL     1      -3.931  60.016  47.526  1.00  0.00     0.000 C 
BRANCH   3   4
ATOM      4  C   UNL     1      -2.918  60.826  46.702  1.00  0.00    -0.000 C 
BRANCH   4   5
ATOM      5  C   UNL     1      -3.359  61.029  45.241  1.00  0.00    -0.000 C 
BRANCH   5   6
ATOM      6  C   UNL     1      -3.536  62.497  44.809  1.00  0.00    -0.000 C 
BRANCH   6   7
ATOM      7  C   UNL     1      -2.227  63.251  44.502  1.00  0.00    -0.000 C 
BRANCH   7   8
ATOM      8  C   UNL     1      -1.835  64.283  45.582  1.00  0.00    -0.000 C 
BRANCH   8   9
ATOM      9  C   UNL     1      -0.727  65.239  45.107  1.00  0.00    -0.000 C 
BRANCH   9  10
ATOM     10  C   UNL     1      -0.104  66.039  46.261  1.00  0.00    -0.000 C 
BRANCH  10  11
ATOM     11  C   UNL     1      -0.669  65.637  47.631  1.00  0.00    -0.003 C 
ATOM     12  C   UNL     1       0.046  66.373  48.759  1.00  0.00     0.004 C 
ENDBRANCH  10  11
ENDBRANCH   9  10
ENDBRANCH   8   9
ENDBRANCH   7   8
ENDBRANCH   6   7
ENDBRANCH   5   6
ENDBRANCH   4   5
ENDBRANCH   3   4
ENDBRANCH   2   3
ENDBRANCH   1   2
BRANCH   1  13
ATOM     13  C   UNL     1      -2.627  57.223  48.901  1.00  0.00     0.000 C 
BRANCH  13  14
ATOM     14  C   UNL     1      -2.303  56.448  47.611  1.00  0.00     0.000 C 
BRANCH  14  15
ATOM     15  C   UNL     1      -3.282  56.689  46.444  1.00  0.00     0.000 C 
BRANCH  15  16
ATOM     16  C   UNL     1      -2.679  57.423  45.230  1.00  0.00     0.000 C 
BRANCH  16  17
ATOM     17  C   UNL     1      -1.207  57.857  45.392  1.00  0.00     0.000 C 
BRANCH  17  18
ATOM     18  C   UNL     1      -0.381  57.864  44.092  1.00  0.00     0.000 C 
BRANCH  18  19
ATOM     19  C   UNL     1       0.678  58.979  44.064  1.00  0.00     0.000 C 
BRANCH  19  20
ATOM     20  C   UNL     1       0.097  60.359  44.422  1.00  0.00     0.006 C 
BRANCH  20  21
ATOM     21  C   UNL     1       0.722  61.009  45.668  1.00  0.00     0.053 C 
BRANCH  21  22
ATOM     22  C   UNL     1       1.420  62.292  45.342  1.00  0.00     0.041 C 
ATOM     23  O   UNL     1       1.878  63.018  46.264  1.00  0.00    -0.550 OA
ATOM     24  O   UNL     1       1.539  62.703  44.020  1.00  0.00    -0.550 OA
ENDBRANCH  21  22
ENDBRANCH  20  21
ENDBRANCH  19  20
ENDBRANCH  18  19
ENDBRANCH  17  18
ENDBRANCH  16  17
ENDBRANCH  15  16
ENDBRANCH  14  15
ENDBRANCH  13  14
ENDBRANCH   1  13
TORSDOF 20
ENDMDL
MODEL 7
REMARK VINA RESULT:    -3.986     11.981     14.193
REMARK INTER + INTRA:         -11.701
REMARK INTER:                  -9.545
REMARK INTRA:                  -2.156
REMARK UNBOUND:                -3.056
REMARK SMILES CCCCCCCCCCCCCCCCCCCCCC(=O)[O-]
REMARK SMILES IDX 12 1 11 2 10 3 9 4 8 5 7 6 6 7 5 8 4 9 3 10 2 11 1 12 13 13
REMARK SMILES IDX 14 14 15 15 16 16 17 17 18 18 19 19 20 20 21 21 22 22 23 23
REMARK SMILES IDX 24 24
REMARK H PARENT
REMARK Flexibility Score: inf
ROOT
ATOM      1  C   UNL     1       4.958  60.761  58.315  1.00  0.00     0.000 C 
ENDROOT
BRANCH   1   2
ATOM      2  C   UNL     1       6.012  60.560  59.416  1.00  0.00     0.000 C 
BRANCH   2   3
ATOM      3  C   UNL     1       6.670  61.878  59.855  1.00  0.00     0.000 C 
BRANCH   3   4
ATOM      4  C   UNL     1       7.789  62.325  58.900  1.00  0.00    -0.000 C 
BRANCH   4   5
ATOM      5  C   UNL     1       9.186  62.268  59.546  1.00  0.00    -0.000 C 
BRANCH   5   6
ATOM      6  C   UNL     1      10.096  63.473  59.242  1.00  0.00    -0.000 C 
BRANCH   6   7
ATOM      7  C   UNL     1       9.398  64.665  58.559  1.00  0.00    -0.000 C 
BRANCH   7   8
ATOM      8  C   UNL     1       9.789  64.849  57.076  1.00  0.00    -0.000 C 
BRANCH   8   9
ATOM      9  C   UNL     1      10.583  63.652  56.524  1.00  0.00    -0.000 C 
BRANCH   9  10
ATOM     10  C   UNL     1      10.590  63.608  54.987  1.00  0.00    -0.000 C 
BRANCH  10  11
ATOM     11  C   UNL     1      11.522  64.661  54.371  1.00  0.00    -0.003 C 
ATOM     12  C   UNL     1      12.478  64.028  53.365  1.00  0.00     0.004 C 
ENDBRANCH  10  11
ENDBRANCH   9  10
ENDBRANCH   8   9
ENDBRANCH   7   8
ENDBRANCH   6   7
ENDBRANCH   5   6
ENDBRANCH   4   5
ENDBRANCH   3   4
ENDBRANCH   2   3
ENDBRANCH   1   2
BRANCH   1  13
ATOM     13  C   UNL     1       5.504  60.320  56.948  1.00  0.00     0.000 C 
BRANCH  13  14
ATOM     14  C   UNL     1       6.513  59.161  57.052  1.00  0.00     0.000 C 
BRANCH  14  15
ATOM     15  C   UNL     1       7.819  59.363  56.257  1.00  0.00     0.000 C 
BRANCH  15  16
ATOM     16  C   UNL     1       7.957  60.736  55.569  1.00  0.00     0.000 C 
BRANCH  16  17
ATOM     17  C   UNL     1       8.577  60.701  54.157  1.00  0.00     0.000 C 
BRANCH  17  18
ATOM     18  C   UNL     1       7.783  61.457  53.075  1.00  0.00     0.000 C 
BRANCH  18  19
ATOM     19  C   UNL     1       8.683  62.046  51.977  1.00  0.00     0.000 C 
BRANCH  19  20
ATOM     20  C   UNL     1       7.984  62.110  50.606  1.00  0.00     0.006 C 
BRANCH  20  21
ATOM     21  C   UNL     1       8.886  61.748  49.414  1.00  0.00     0.053 C 
BRANCH  21  22
ATOM     22  C   UNL     1       8.769  62.742  48.300  1.00  0.00     0.041 C 
ATOM     23  O   UNL     1       7.791  62.698  47.510  1.00  0.00    -0.550 OA
ATOM     24  O   UNL     1       9.760  63.699  48.116  1.00  0.00    -0.550 OA
ENDBRANCH  21  22
ENDBRANCH  20  21
ENDBRANCH  19  20
ENDBRANCH  18  19
ENDBRANCH  17  18
ENDBRANCH  16  17
ENDBRANCH  15  16
ENDBRANCH  14  15
ENDBRANCH  13  14
ENDBRANCH   1  13
TORSDOF 20
ENDMDL
MODEL 8
REMARK VINA RESULT:    -3.865      3.839      7.780
REMARK INTER + INTRA:         -11.439
REMARK INTER:                  -8.875
REMARK INTRA:                  -2.564
REMARK UNBOUND:                -3.056
REMARK SMILES CCCCCCCCCCCCCCCCCCCCCC(=O)[O-]
REMARK SMILES IDX 12 1 11 2 10 3 9 4 8 5 7 6 6 7 5 8 4 9 3 10 2 11 1 12 13 13
REMARK SMILES IDX 14 14 15 15 16 16 17 17 18 18 19 19 20 20 21 21 22 22 23 23
REMARK SMILES IDX 24 24
REMARK H PARENT
REMARK Flexibility Score: inf
ROOT
ATOM      1  C   UNL     1       1.463  60.701  44.733  1.00  0.00     0.000 C 
ENDROOT
BRANCH   1   2
ATOM      2  C   UNL     1       0.493  59.905  43.847  1.00  0.00     0.000 C 
BRANCH   2   3
ATOM      3  C   UNL     1       0.400  58.424  44.251  1.00  0.00     0.000 C 
BRANCH   3   4
ATOM      4  C   UNL     1      -0.927  58.085  44.949  1.00  0.00    -0.000 C 
BRANCH   4   5
ATOM      5  C   UNL     1      -1.846  59.310  45.116  1.00  0.00    -0.000 C 
BRANCH   5   6
ATOM      6  C   UNL     1      -1.827  59.954  46.515  1.00  0.00    -0.000 C 
BRANCH   6   7
ATOM      7  C   UNL     1      -3.213  60.180  47.150  1.00  0.00    -0.000 C 
BRANCH   7   8
ATOM      8  C   UNL     1      -3.359  59.567  48.561  1.00  0.00    -0.000 C 
BRANCH   8   9
ATOM      9  C   UNL     1      -2.213  58.597  48.902  1.00  0.00    -0.000 C 
BRANCH   9  10
ATOM     10  C   UNL     1      -2.681  57.135  48.974  1.00  0.00    -0.000 C 
BRANCH  10  11
ATOM     11  C   UNL     1      -2.451  56.376  47.659  1.00  0.00    -0.003 C 
ATOM     12  C   UNL     1      -3.689  56.431  46.769  1.00  0.00     0.004 C 
ENDBRANCH  10  11
ENDBRANCH   9  10
ENDBRANCH   8   9
ENDBRANCH   7   8
ENDBRANCH   6   7
ENDBRANCH   5   6
ENDBRANCH   4   5
ENDBRANCH   3   4
ENDBRANCH   2   3
ENDBRANCH   1   2
BRANCH   1  13
ATOM     13  C   UNL     1       1.137  62.202  44.691  1.00  0.00     0.000 C 
BRANCH  13  14
ATOM     14  C   UNL     1       0.464  62.632  43.375  1.00  0.00     0.000 C 
BRANCH  14  15
ATOM     15  C   UNL     1      -0.774  63.536  43.542  1.00  0.00     0.000 C 
BRANCH  15  16
ATOM     16  C   UNL     1      -1.813  63.034  44.565  1.00  0.00     0.000 C 
BRANCH  16  17
ATOM     17  C   UNL     1      -1.893  63.852  45.871  1.00  0.00     0.000 C 
BRANCH  17  18
ATOM     18  C   UNL     1      -0.963  65.077  45.934  1.00  0.00     0.000 C 
BRANCH  18  19
ATOM     19  C   UNL     1      -1.232  65.969  47.158  1.00  0.00     0.000 C 
BRANCH  19  20
ATOM     20  C   UNL     1      -0.090  65.923  48.189  1.00  0.00     0.006 C 
BRANCH  20  21
ATOM     21  C   UNL     1      -0.262  66.888  49.374  1.00  0.00     0.053 C 
BRANCH  21  22
ATOM     22  C   UNL     1       0.999  67.034  50.168  1.00  0.00     0.041 C 
ATOM     23  O   UNL     1       1.218  66.282  51.154  1.00  0.00    -0.550 OA
ATOM     24  O   UNL     1       1.919  68.021  49.837  1.00  0.00    -0.550 OA
ENDBRANCH  21  22
ENDBRANCH  20  21
ENDBRANCH  19  20
ENDBRANCH  18  19
ENDBRANCH  17  18
ENDBRANCH  16  17
ENDBRANCH  15  16
ENDBRANCH  14  15
ENDBRANCH  13  14
ENDBRANCH   1  13
TORSDOF 20
ENDMDL
MODEL 9
REMARK VINA RESULT:    -3.859      3.224      6.744
REMARK INTER + INTRA:         -11.426
REMARK INTER:                  -8.952
REMARK INTRA:                  -2.475
REMARK UNBOUND:                -3.056
REMARK SMILES CCCCCCCCCCCCCCCCCCCCCC(=O)[O-]
REMARK SMILES IDX 12 1 11 2 10 3 9 4 8 5 7 6 6 7 5 8 4 9 3 10 2 11 1 12 13 13
REMARK SMILES IDX 14 14 15 15 16 16 17 17 18 18 19 19 20 20 21 21 22 22 23 23
REMARK SMILES IDX 24 24
REMARK H PARENT
REMARK Flexibility Score: inf
ROOT
ATOM      1  C   UNL     1      -0.998  57.752  45.207  1.00  0.00     0.000 C 
ENDROOT
BRANCH   1   2
ATOM      2  C   UNL     1      -2.492  57.740  44.850  1.00  0.00     0.000 C 
BRANCH   2   3
ATOM      3  C   UNL     1      -3.365  57.154  45.972  1.00  0.00     0.000 C 
BRANCH   3   4
ATOM      4  C   UNL     1      -2.531  56.518  47.097  1.00  0.00    -0.000 C 
BRANCH   4   5
ATOM      5  C   UNL     1      -2.726  57.217  48.455  1.00  0.00    -0.000 C 
BRANCH   5   6
ATOM      6  C   UNL     1      -2.247  58.680  48.512  1.00  0.00    -0.000 C 
BRANCH   6   7
ATOM      7  C   UNL     1      -3.328  59.708  48.898  1.00  0.00    -0.000 C 
BRANCH   7   8
ATOM      8  C   UNL     1      -3.380  60.937  47.964  1.00  0.00    -0.000 C 
BRANCH   8   9
ATOM      9  C   UNL     1      -4.014  60.612  46.599  1.00  0.00    -0.000 C 
BRANCH   9  10
ATOM     10  C   UNL     1      -3.262  61.266  45.429  1.00  0.00    -0.000 C 
BRANCH  10  11
ATOM     11  C   UNL     1      -3.751  62.692  45.136  1.00  0.00    -0.003 C 
ATOM     12  C   UNL     1      -3.377  63.122  43.722  1.00  0.00     0.004 C 
ENDBRANCH  10  11
ENDBRANCH   9  10
ENDBRANCH   8   9
ENDBRANCH   7   8
ENDBRANCH   6   7
ENDBRANCH   5   6
ENDBRANCH   4   5
ENDBRANCH   3   4
ENDBRANCH   2   3
ENDBRANCH   1   2
BRANCH   1  13
ATOM     13  C   UNL     1      -0.149  58.162  43.994  1.00  0.00     0.000 C 
BRANCH  13  14
ATOM     14  C   UNL     1       0.645  59.460  44.229  1.00  0.00     0.000 C 
BRANCH  14  15
ATOM     15  C   UNL     1       0.212  60.271  45.466  1.00  0.00     0.000 C 
BRANCH  15  16
ATOM     16  C   UNL     1       0.914  61.634  45.629  1.00  0.00     0.000 C 
BRANCH  16  17
ATOM     17  C   UNL     1       0.144  62.841  45.055  1.00  0.00     0.000 C 
BRANCH  17  18
ATOM     18  C   UNL     1       0.637  64.219  45.534  1.00  0.00     0.000 C 
BRANCH  18  19
ATOM     19  C   UNL     1       1.630  64.125  46.705  1.00  0.00     0.000 C 
BRANCH  19  20
ATOM     20  C   UNL     1       2.126  65.504  47.176  1.00  0.00     0.006 C 
BRANCH  20  21
ATOM     21  C   UNL     1       2.380  65.607  48.689  1.00  0.00     0.053 C 
BRANCH  21  22
ATOM     22  C   UNL     1       1.144  65.996  49.440  1.00  0.00     0.041 C 
ATOM     23  O   UNL     1       0.039  66.081  48.843  1.00  0.00    -0.550 OA
ATOM     24  O   UNL     1       1.219  66.296  50.795  1.00  0.00    -0.550 OA
ENDBRANCH  21  22
ENDBRANCH  20  21
ENDBRANCH  19  20
ENDBRANCH  18  19
ENDBRANCH  17  18
ENDBRANCH  16  17
ENDBRANCH  15  16
ENDBRANCH  14  15
ENDBRANCH  13  14
ENDBRANCH   1  13
TORSDOF 20
ENDMDL
