MODEL 1
REMARK VINA RESULT:    -4.464      0.000      0.000
REMARK INTER + INTRA:         -12.414
REMARK INTER:                  -9.683
REMARK INTRA:                  -2.730
REMARK UNBOUND:                -2.730
REMARK SMILES CCCCCCCCCCCCCCCCCCCCCC(=O)[O-]
REMARK SMILES IDX 12 1 11 2 10 3 9 4 8 5 7 6 6 7 5 8 4 9 3 10 2 11 1 12 13 13
REMARK SMILES IDX 14 14 15 15 16 16 17 17 18 18 19 19 20 20 21 21 22 22 23 23
REMARK SMILES IDX 24 24
REMARK H PARENT
REMARK Flexibility Score: inf
ROOT
ATOM      1  C   UNL     1      47.194  -3.390  75.496  1.00  0.00     0.000 C 
ENDROOT
BRANCH   1   2
ATOM      2  C   UNL     1      48.496  -2.771  76.039  1.00  0.00     0.000 C 
BRANCH   2   3
ATOM      3  C   UNL     1      49.683  -3.747  76.152  1.00  0.00     0.000 C 
BRANCH   3   4
ATOM      4  C   UNL     1      50.116  -4.083  77.592  1.00  0.00    -0.000 C 
BRANCH   4   5
ATOM      5  C   UNL     1      49.639  -5.451  78.113  1.00  0.00    -0.000 C 
BRANCH   5   6
ATOM      6  C   UNL     1      48.306  -5.370  78.872  1.00  0.00    -0.000 C 
BRANCH   6   7
ATOM      7  C   UNL     1      47.414  -6.579  78.547  1.00  0.00    -0.000 C 
BRANCH   7   8
ATOM      8  C   UNL     1      48.210  -7.791  78.029  1.00  0.00    -0.000 C 
BRANCH   8   9
ATOM      9  C   UNL     1      47.457  -9.133  78.073  1.00  0.00    -0.000 C 
BRANCH   9  10
ATOM     10  C   UNL     1      48.397 -10.346  78.162  1.00  0.00    -0.000 C 
BRANCH  10  11
ATOM     11  C   UNL     1      48.212 -11.137  79.466  1.00  0.00    -0.003 C 
ATOM     12  C   UNL     1      47.092 -10.578  80.345  1.00  0.00     0.004 C 
ENDBRANCH  10  11
ENDBRANCH   9  10
ENDBRANCH   8   9
ENDBRANCH   7   8
ENDBRANCH   6   7
ENDBRANCH   5   6
ENDBRANCH   4   5
ENDBRANCH   3   4
ENDBRANCH   2   3
ENDBRANCH   1   2
BRANCH   1  13
ATOM     13  C   UNL     1      47.256  -4.906  75.221  1.00  0.00     0.000 C 
BRANCH  13  14
ATOM     14  C   UNL     1      46.539  -5.368  73.939  1.00  0.00     0.000 C 
BRANCH  14  15
ATOM     15  C   UNL     1      47.234  -4.968  72.624  1.00  0.00     0.000 C 
BRANCH  15  16
ATOM     16  C   UNL     1      48.744  -5.292  72.591  1.00  0.00     0.000 C 
BRANCH  16  17
ATOM     17  C   UNL     1      49.601  -4.076  72.201  1.00  0.00     0.000 C 
BRANCH  17  18
ATOM     18  C   UNL     1      48.870  -2.739  72.406  1.00  0.00     0.000 C 
BRANCH  18  19
ATOM     19  C   UNL     1      49.584  -1.537  71.752  1.00  0.00     0.000 C 
BRANCH  19  20
ATOM     20  C   UNL     1      50.656  -0.929  72.673  1.00  0.00     0.006 C 
BRANCH  20  21
ATOM     21  C   UNL     1      52.077  -1.134  72.128  1.00  0.00     0.053 C 
BRANCH  21  22
ATOM     22  C   UNL     1      52.765  -2.287  72.792  1.00  0.00     0.041 C 
ATOM     23  O   UNL     1      52.467  -2.607  73.972  1.00  0.00    -0.550 OA
ATOM     24  O   UNL     1      53.764  -2.982  72.122  1.00  0.00    -0.550 OA
ENDBRANCH  21  22
ENDBRANCH  20  21
ENDBRANCH  19  20
ENDBRANCH  18  19
ENDBRANCH  17  18
ENDBRANCH  16  17
ENDBRANCH  15  16
ENDBRANCH  14  15
ENDBRANCH  13  14
ENDBRANCH   1  13
TORSDOF 20
ENDMDL
MODEL 2
REMARK VINA RESULT:    -4.446      3.063      7.980
REMARK INTER + INTRA:         -12.376
REMARK INTER:                  -8.994
REMARK INTRA:                  -3.382
REMARK UNBOUND:                -2.730
REMARK SMILES CCCCCCCCCCCCCCCCCCCCCC(=O)[O-]
REMARK SMILES IDX 12 1 11 2 10 3 9 4 8 5 7 6 6 7 5 8 4 9 3 10 2 11 1 12 13 13
REMARK SMILES IDX 14 14 15 15 16 16 17 17 18 18 19 19 20 20 21 21 22 22 23 23
REMARK SMILES IDX 24 24
REMARK H PARENT
REMARK Flexibility Score: inf
ROOT
ATOM      1  C   UNL     1      49.389  -1.243  76.292  1.00  0.00     0.000 C 
ENDROOT
BRANCH   1   2
ATOM      2  C   UNL     1      48.943  -2.645  75.833  1.00  0.00     0.000 C 
BRANCH   2   3
ATOM      3  C   UNL     1      47.571  -2.695  75.134  1.00  0.00     0.000 C 
BRANCH   3   4
ATOM      4  C   UNL     1      46.836  -4.046  75.235  1.00  0.00    -0.000 C 
BRANCH   4   5
ATOM      5  C   UNL     1      46.984  -4.961  74.006  1.00  0.00    -0.000 C 
BRANCH   5   6
ATOM      6  C   UNL     1      47.601  -4.243  72.797  1.00  0.00    -0.000 C 
BRANCH   6   7
ATOM      7  C   UNL     1      48.921  -4.908  72.376  1.00  0.00    -0.000 C 
BRANCH   7   8
ATOM      8  C   UNL     1      50.142  -3.989  72.561  1.00  0.00    -0.000 C 
BRANCH   8   9
ATOM      9  C   UNL     1      50.133  -2.711  71.704  1.00  0.00    -0.000 C 
BRANCH   9  10
ATOM     10  C   UNL     1      50.476  -1.447  72.507  1.00  0.00    -0.000 C 
BRANCH  10  11
ATOM     11  C   UNL     1      49.268  -0.511  72.672  1.00  0.00    -0.003 C 
ATOM     12  C   UNL     1      48.294  -0.588  71.495  1.00  0.00     0.004 C 
ENDBRANCH  10  11
ENDBRANCH   9  10
ENDBRANCH   8   9
ENDBRANCH   7   8
ENDBRANCH   6   7
ENDBRANCH   5   6
ENDBRANCH   4   5
ENDBRANCH   3   4
ENDBRANCH   2   3
ENDBRANCH   1   2
BRANCH   1  13
ATOM     13  C   UNL     1      48.388  -0.504  77.203  1.00  0.00     0.000 C 
BRANCH  13  14
ATOM     14  C   UNL     1      48.295  -1.042  78.642  1.00  0.00     0.000 C 
BRANCH  14  15
ATOM     15  C   UNL     1      49.642  -1.420  79.285  1.00  0.00     0.000 C 
BRANCH  15  16
ATOM     16  C   UNL     1      49.698  -2.869  79.816  1.00  0.00     0.000 C 
BRANCH  16  17
ATOM     17  C   UNL     1      50.610  -3.774  78.971  1.00  0.00     0.000 C 
BRANCH  17  18
ATOM     18  C   UNL     1      49.870  -4.989  78.388  1.00  0.00     0.000 C 
BRANCH  18  19
ATOM     19  C   UNL     1      48.353  -4.986  78.673  1.00  0.00     0.000 C 
BRANCH  19  20
ATOM     20  C   UNL     1      47.725  -6.378  78.487  1.00  0.00     0.006 C 
BRANCH  20  21
ATOM     21  C   UNL     1      48.775  -7.456  78.187  1.00  0.00     0.053 C 
BRANCH  21  22
ATOM     22  C   UNL     1      48.174  -8.827  78.173  1.00  0.00     0.041 C 
ATOM     23  O   UNL     1      48.899  -9.834  77.960  1.00  0.00    -0.550 OA
ATOM     24  O   UNL     1      46.806  -8.991  78.354  1.00  0.00    -0.550 OA
ENDBRANCH  21  22
ENDBRANCH  20  21
ENDBRANCH  19  20
ENDBRANCH  18  19
ENDBRANCH  17  18
ENDBRANCH  16  17
ENDBRANCH  15  16
ENDBRANCH  14  15
ENDBRANCH  13  14
ENDBRANCH   1  13
TORSDOF 20
ENDMDL
MODEL 3
REMARK VINA RESULT:    -4.391      2.813      6.938
REMARK INTER + INTRA:         -12.256
REMARK INTER:                  -8.456
REMARK INTRA:                  -3.800
REMARK UNBOUND:                -2.730
REMARK SMILES CCCCCCCCCCCCCCCCCCCCCC(=O)[O-]
REMARK SMILES IDX 12 1 11 2 10 3 9 4 8 5 7 6 6 7 5 8 4 9 3 10 2 11 1 12 13 13
REMARK SMILES IDX 14 14 15 15 16 16 17 17 18 18 19 19 20 20 21 21 22 22 23 23
REMARK SMILES IDX 24 24
REMARK H PARENT
REMARK Flexibility Score: inf
ROOT
ATOM      1  C   UNL     1      49.790  -5.420  73.534  1.00  0.00     0.000 C 
ENDROOT
BRANCH   1   2
ATOM      2  C   UNL     1      50.536  -4.505  74.524  1.00  0.00     0.000 C 
BRANCH   2   3
ATOM      3  C   UNL     1      52.071  -4.641  74.506  1.00  0.00     0.000 C 
BRANCH   3   4
ATOM      4  C   UNL     1      52.774  -3.933  73.331  1.00  0.00    -0.000 C 
BRANCH   4   5
ATOM      5  C   UNL     1      53.020  -2.427  73.533  1.00  0.00    -0.000 C 
BRANCH   5   6
ATOM      6  C   UNL     1      52.602  -1.585  72.319  1.00  0.00    -0.000 C 
BRANCH   6   7
ATOM      7  C   UNL     1      51.096  -1.728  72.044  1.00  0.00    -0.000 C 
BRANCH   7   8
ATOM      8  C   UNL     1      50.306  -0.441  72.344  1.00  0.00    -0.000 C 
BRANCH   8   9
ATOM      9  C   UNL     1      48.786  -0.629  72.498  1.00  0.00    -0.000 C 
BRANCH   9  10
ATOM     10  C   UNL     1      48.401  -1.369  73.789  1.00  0.00    -0.000 C 
BRANCH  10  11
ATOM     11  C   UNL     1      48.803  -0.593  75.052  1.00  0.00    -0.003 C 
ATOM     12  C   UNL     1      49.547  -1.459  76.069  1.00  0.00     0.004 C 
ENDBRANCH  10  11
ENDBRANCH   9  10
ENDBRANCH   8   9
ENDBRANCH   7   8
ENDBRANCH   6   7
ENDBRANCH   5   6
ENDBRANCH   4   5
ENDBRANCH   3   4
ENDBRANCH   2   3
ENDBRANCH   1   2
BRANCH   1  13
ATOM     13  C   UNL     1      49.050  -4.687  72.397  1.00  0.00     0.000 C 
BRANCH  13  14
ATOM     14  C   UNL     1      47.513  -4.725  72.485  1.00  0.00     0.000 C 
BRANCH  14  15
ATOM     15  C   UNL     1      46.947  -5.616  73.607  1.00  0.00     0.000 C 
BRANCH  15  16
ATOM     16  C   UNL     1      46.042  -4.864  74.606  1.00  0.00     0.000 C 
BRANCH  16  17
ATOM     17  C   UNL     1      46.844  -4.086  75.662  1.00  0.00     0.000 C 
BRANCH  17  18
ATOM     18  C   UNL     1      47.636  -5.005  76.606  1.00  0.00     0.000 C 
BRANCH  18  19
ATOM     19  C   UNL     1      48.023  -4.335  77.942  1.00  0.00     0.000 C 
BRANCH  19  20
ATOM     20  C   UNL     1      49.378  -4.836  78.471  1.00  0.00     0.006 C 
BRANCH  20  21
ATOM     21  C   UNL     1      49.635  -6.307  78.117  1.00  0.00     0.053 C 
BRANCH  21  22
ATOM     22  C   UNL     1      51.060  -6.542  77.721  1.00  0.00     0.041 C 
ATOM     23  O   UNL     1      51.381  -7.590  77.102  1.00  0.00    -0.550 OA
ATOM     24  O   UNL     1      52.042  -5.622  78.071  1.00  0.00    -0.550 OA
ENDBRANCH  21  22
ENDBRANCH  20  21
ENDBRANCH  19  20
ENDBRANCH  18  19
ENDBRANCH  17  18
ENDBRANCH  16  17
ENDBRANCH  15  16
ENDBRANCH  14  15
ENDBRANCH  13  14
ENDBRANCH   1  13
TORSDOF 20
ENDMDL
MODEL 4
REMARK VINA RESULT:    -4.368      3.020      7.736
REMARK INTER + INTRA:         -12.205
REMARK INTER:                  -8.829
REMARK INTRA:                  -3.376
REMARK UNBOUND:                -2.730
REMARK SMILES CCCCCCCCCCCCCCCCCCCCCC(=O)[O-]
REMARK SMILES IDX 12 1 11 2 10 3 9 4 8 5 7 6 6 7 5 8 4 9 3 10 2 11 1 12 13 13
REMARK SMILES IDX 14 14 15 15 16 16 17 17 18 18 19 19 20 20 21 21 22 22 23 23
REMARK SMILES IDX 24 24
REMARK H PARENT
REMARK Flexibility Score: inf
ROOT
ATOM      1  C   UNL     1      49.898  -4.444  75.927  1.00  0.00     0.000 C 
ENDROOT
BRANCH   1   2
ATOM      2  C   UNL     1      49.006  -3.221  76.219  1.00  0.00     0.000 C 
BRANCH   2   3
ATOM      3  C   UNL     1      47.844  -3.012  75.230  1.00  0.00     0.000 C 
BRANCH   3   4
ATOM      4  C   UNL     1      47.486  -4.242  74.374  1.00  0.00    -0.000 C 
BRANCH   4   5
ATOM      5  C   UNL     1      47.868  -4.133  72.886  1.00  0.00    -0.000 C 
BRANCH   5   6
ATOM      6  C   UNL     1      49.209  -4.806  72.562  1.00  0.00    -0.000 C 
BRANCH   6   7
ATOM      7  C   UNL     1      50.043  -3.938  71.606  1.00  0.00    -0.000 C 
BRANCH   7   8
ATOM      8  C   UNL     1      51.161  -3.158  72.324  1.00  0.00    -0.000 C 
BRANCH   8   9
ATOM      9  C   UNL     1      50.691  -1.927  73.119  1.00  0.00    -0.000 C 
BRANCH   9  10
ATOM     10  C   UNL     1      50.758  -0.625  72.304  1.00  0.00    -0.000 C 
BRANCH  10  11
ATOM     11  C   UNL     1      49.432   0.150  72.329  1.00  0.00    -0.003 C 
ATOM     12  C   UNL     1      48.260  -0.661  71.773  1.00  0.00     0.004 C 
ENDBRANCH  10  11
ENDBRANCH   9  10
ENDBRANCH   8   9
ENDBRANCH   7   8
ENDBRANCH   6   7
ENDBRANCH   5   6
ENDBRANCH   4   5
ENDBRANCH   3   4
ENDBRANCH   2   3
ENDBRANCH   1   2
BRANCH   1  13
ATOM     13  C   UNL     1      49.828  -5.570  76.977  1.00  0.00     0.000 C 
BRANCH  13  14
ATOM     14  C   UNL     1      49.149  -5.186  78.305  1.00  0.00     0.000 C 
BRANCH  14  15
ATOM     15  C   UNL     1      47.876  -5.984  78.640  1.00  0.00     0.000 C 
BRANCH  15  16
ATOM     16  C   UNL     1      47.970  -7.486  78.295  1.00  0.00     0.000 C 
BRANCH  16  17
ATOM     17  C   UNL     1      46.714  -8.009  77.579  1.00  0.00     0.000 C 
BRANCH  17  18
ATOM     18  C   UNL     1      46.567  -7.457  76.152  1.00  0.00     0.000 C 
BRANCH  18  19
ATOM     19  C   UNL     1      46.993  -8.456  75.055  1.00  0.00     0.000 C 
BRANCH  19  20
ATOM     20  C   UNL     1      48.064  -7.870  74.120  1.00  0.00     0.006 C 
BRANCH  20  21
ATOM     21  C   UNL     1      48.053  -8.529  72.734  1.00  0.00     0.053 C 
BRANCH  21  22
ATOM     22  C   UNL     1      46.767  -8.276  72.010  1.00  0.00     0.041 C 
ATOM     23  O   UNL     1      46.007  -9.235  71.716  1.00  0.00    -0.550 OA
ATOM     24  O   UNL     1      46.426  -6.985  71.623  1.00  0.00    -0.550 OA
ENDBRANCH  21  22
ENDBRANCH  20  21
ENDBRANCH  19  20
ENDBRANCH  18  19
ENDBRANCH  17  18
ENDBRANCH  16  17
ENDBRANCH  15  16
ENDBRANCH  14  15
ENDBRANCH  13  14
ENDBRANCH   1  13
TORSDOF 20
ENDMDL
MODEL 5
REMARK VINA RESULT:    -4.365      3.224      5.419
REMARK INTER + INTRA:         -12.199
REMARK INTER:                  -8.352
REMARK INTRA:                  -3.847
REMARK UNBOUND:                -2.730
REMARK SMILES CCCCCCCCCCCCCCCCCCCCCC(=O)[O-]
REMARK SMILES IDX 12 1 11 2 10 3 9 4 8 5 7 6 6 7 5 8 4 9 3 10 2 11 1 12 13 13
REMARK SMILES IDX 14 14 15 15 16 16 17 17 18 18 19 19 20 20 21 21 22 22 23 23
REMARK SMILES IDX 24 24
REMARK H PARENT
REMARK Flexibility Score: inf
ROOT
ATOM      1  C   UNL     1      52.098  -2.576  73.580  1.00  0.00     0.000 C 
ENDROOT
BRANCH   1   2
ATOM      2  C   UNL     1      52.034  -4.089  73.293  1.00  0.00     0.000 C 
BRANCH   2   3
ATOM      3  C   UNL     1      51.029  -4.873  74.159  1.00  0.00     0.000 C 
BRANCH   3   4
ATOM      4  C   UNL     1      51.157  -4.643  75.677  1.00  0.00    -0.000 C 
BRANCH   4   5
ATOM      5  C   UNL     1      49.961  -3.925  76.330  1.00  0.00    -0.000 C 
BRANCH   5   6
ATOM      6  C   UNL     1      50.219  -3.547  77.796  1.00  0.00    -0.000 C 
BRANCH   6   7
ATOM      7  C   UNL     1      49.822  -4.695  78.738  1.00  0.00    -0.000 C 
BRANCH   7   8
ATOM      8  C   UNL     1      48.352  -5.123  78.578  1.00  0.00    -0.000 C 
BRANCH   8   9
ATOM      9  C   UNL     1      48.118  -6.642  78.503  1.00  0.00    -0.000 C 
BRANCH   9  10
ATOM     10  C   UNL     1      47.590  -7.102  77.135  1.00  0.00    -0.000 C 
BRANCH  10  11
ATOM     11  C   UNL     1      48.715  -7.575  76.201  1.00  0.00    -0.003 C 
ATOM     12  C   UNL     1      49.969  -8.014  76.959  1.00  0.00     0.004 C 
ENDBRANCH  10  11
ENDBRANCH   9  10
ENDBRANCH   8   9
ENDBRANCH   7   8
ENDBRANCH   6   7
ENDBRANCH   5   6
ENDBRANCH   4   5
ENDBRANCH   3   4
ENDBRANCH   2   3
ENDBRANCH   1   2
BRANCH   1  13
ATOM     13  C   UNL     1      51.758  -1.669  72.380  1.00  0.00     0.000 C 
BRANCH  13  14
ATOM     14  C   UNL     1      50.257  -1.404  72.165  1.00  0.00     0.000 C 
BRANCH  14  15
ATOM     15  C   UNL     1      49.428  -1.270  73.456  1.00  0.00     0.000 C 
BRANCH  15  16
ATOM     16  C   UNL     1      48.299  -2.315  73.585  1.00  0.00     0.000 C 
BRANCH  16  17
ATOM     17  C   UNL     1      48.274  -3.307  72.410  1.00  0.00     0.000 C 
BRANCH  17  18
ATOM     18  C   UNL     1      47.428  -4.557  72.703  1.00  0.00     0.000 C 
BRANCH  18  19
ATOM     19  C   UNL     1      47.291  -4.873  74.207  1.00  0.00     0.000 C 
BRANCH  19  20
ATOM     20  C   UNL     1      45.820  -4.979  74.646  1.00  0.00     0.006 C 
BRANCH  20  21
ATOM     21  C   UNL     1      45.039  -6.014  73.824  1.00  0.00     0.053 C 
BRANCH  21  22
ATOM     22  C   UNL     1      45.006  -7.349  74.501  1.00  0.00     0.041 C 
ATOM     23  O   UNL     1      45.722  -8.293  74.074  1.00  0.00    -0.550 OA
ATOM     24  O   UNL     1      44.154  -7.565  75.578  1.00  0.00    -0.550 OA
ENDBRANCH  21  22
ENDBRANCH  20  21
ENDBRANCH  19  20
ENDBRANCH  18  19
ENDBRANCH  17  18
ENDBRANCH  16  17
ENDBRANCH  15  16
ENDBRANCH  14  15
ENDBRANCH  13  14
ENDBRANCH   1  13
TORSDOF 20
ENDMDL
MODEL 6
REMARK VINA RESULT:    -4.362      1.574      3.514
REMARK INTER + INTRA:         -12.192
REMARK INTER:                  -9.150
REMARK INTRA:                  -3.041
REMARK UNBOUND:                -2.730
REMARK SMILES CCCCCCCCCCCCCCCCCCCCCC(=O)[O-]
REMARK SMILES IDX 12 1 11 2 10 3 9 4 8 5 7 6 6 7 5 8 4 9 3 10 2 11 1 12 13 13
REMARK SMILES IDX 14 14 15 15 16 16 17 17 18 18 19 19 20 20 21 21 22 22 23 23
REMARK SMILES IDX 24 24
REMARK H PARENT
REMARK Flexibility Score: inf
ROOT
ATOM      1  C   UNL     1      50.126  -2.706  77.480  1.00  0.00     0.000 C 
ENDROOT
BRANCH   1   2
ATOM      2  C   UNL     1      49.486  -4.105  77.385  1.00  0.00     0.000 C 
BRANCH   2   3
ATOM      3  C   UNL     1      48.903  -4.644  78.705  1.00  0.00     0.000 C 
BRANCH   3   4
ATOM      4  C   UNL     1      48.138  -5.977  78.583  1.00  0.00    -0.000 C 
BRANCH   4   5
ATOM      5  C   UNL     1      48.976  -7.164  78.075  1.00  0.00    -0.000 C 
BRANCH   5   6
ATOM      6  C   UNL     1      48.272  -8.516  78.262  1.00  0.00    -0.000 C 
BRANCH   6   7
ATOM      7  C   UNL     1      46.757  -8.382  78.043  1.00  0.00    -0.000 C 
BRANCH   7   8
ATOM      8  C   UNL     1      46.295  -8.942  76.685  1.00  0.00    -0.000 C 
BRANCH   8   9
ATOM      9  C   UNL     1      45.394  -8.002  75.864  1.00  0.00    -0.000 C 
BRANCH   9  10
ATOM     10  C   UNL     1      46.073  -7.485  74.586  1.00  0.00    -0.000 C 
BRANCH  10  11
ATOM     11  C   UNL     1      47.108  -6.387  74.875  1.00  0.00    -0.003 C 
ATOM     12  C   UNL     1      46.466  -5.034  75.185  1.00  0.00     0.004 C 
ENDBRANCH  10  11
ENDBRANCH   9  10
ENDBRANCH   8   9
ENDBRANCH   7   8
ENDBRANCH   6   7
ENDBRANCH   5   6
ENDBRANCH   4   5
ENDBRANCH   3   4
ENDBRANCH   2   3
ENDBRANCH   1   2
BRANCH   1  13
ATOM     13  C   UNL     1      49.731  -1.729  76.354  1.00  0.00     0.000 C 
BRANCH  13  14
ATOM     14  C   UNL     1      48.795  -2.312  75.280  1.00  0.00     0.000 C 
BRANCH  14  15
ATOM     15  C   UNL     1      48.316  -1.306  74.217  1.00  0.00     0.000 C 
BRANCH  15  16
ATOM     16  C   UNL     1      48.334  -1.862  72.777  1.00  0.00     0.000 C 
BRANCH  16  17
ATOM     17  C   UNL     1      48.681  -3.360  72.725  1.00  0.00     0.000 C 
BRANCH  17  18
ATOM     18  C   UNL     1      50.018  -3.638  72.019  1.00  0.00     0.000 C 
BRANCH  18  19
ATOM     19  C   UNL     1      51.155  -4.037  72.984  1.00  0.00     0.000 C 
BRANCH  19  20
ATOM     20  C   UNL     1      51.948  -2.817  73.483  1.00  0.00     0.006 C 
BRANCH  20  21
ATOM     21  C   UNL     1      52.002  -1.690  72.441  1.00  0.00     0.053 C 
BRANCH  21  22
ATOM     22  C   UNL     1      53.348  -1.601  71.789  1.00  0.00     0.041 C 
ATOM     23  O   UNL     1      53.754  -0.504  71.326  1.00  0.00    -0.550 OA
ATOM     24  O   UNL     1      54.136  -2.738  71.658  1.00  0.00    -0.550 OA
ENDBRANCH  21  22
ENDBRANCH  20  21
ENDBRANCH  19  20
ENDBRANCH  18  19
ENDBRANCH  17  18
ENDBRANCH  16  17
ENDBRANCH  15  16
ENDBRANCH  14  15
ENDBRANCH  13  14
ENDBRANCH   1  13
TORSDOF 20
ENDMDL
MODEL 7
REMARK VINA RESULT:    -4.315      2.083      3.132
REMARK INTER + INTRA:         -12.091
REMARK INTER:                  -8.207
REMARK INTRA:                  -3.884
REMARK UNBOUND:                -2.730
REMARK SMILES CCCCCCCCCCCCCCCCCCCCCC(=O)[O-]
REMARK SMILES IDX 12 1 11 2 10 3 9 4 8 5 7 6 6 7 5 8 4 9 3 10 2 11 1 12 13 13
REMARK SMILES IDX 14 14 15 15 16 16 17 17 18 18 19 19 20 20 21 21 22 22 23 23
REMARK SMILES IDX 24 24
REMARK H PARENT
REMARK Flexibility Score: inf
ROOT
ATOM      1  C   UNL     1      49.121  -2.642  75.770  1.00  0.00     0.000 C 
ENDROOT
BRANCH   1   2
ATOM      2  C   UNL     1      49.705  -1.472  76.586  1.00  0.00     0.000 C 
BRANCH   2   3
ATOM      3  C   UNL     1      49.811  -1.726  78.102  1.00  0.00     0.000 C 
BRANCH   3   4
ATOM      4  C   UNL     1      48.475  -1.669  78.868  1.00  0.00    -0.000 C 
BRANCH   4   5
ATOM      5  C   UNL     1      47.878  -3.040  79.237  1.00  0.00    -0.000 C 
BRANCH   5   6
ATOM      6  C   UNL     1      48.892  -4.186  79.115  1.00  0.00    -0.000 C 
BRANCH   6   7
ATOM      7  C   UNL     1      48.229  -5.448  78.540  1.00  0.00    -0.000 C 
BRANCH   7   8
ATOM      8  C   UNL     1      49.249  -6.475  78.013  1.00  0.00    -0.000 C 
BRANCH   8   9
ATOM      9  C   UNL     1      50.723  -6.140  78.304  1.00  0.00    -0.000 C 
BRANCH   9  10
ATOM     10  C   UNL     1      51.565  -5.981  77.028  1.00  0.00    -0.000 C 
BRANCH  10  11
ATOM     11  C   UNL     1      50.698  -5.806  75.772  1.00  0.00    -0.003 C 
ATOM     12  C   UNL     1      50.726  -7.032  74.857  1.00  0.00     0.004 C 
ENDBRANCH  10  11
ENDBRANCH   9  10
ENDBRANCH   8   9
ENDBRANCH   7   8
ENDBRANCH   6   7
ENDBRANCH   5   6
ENDBRANCH   4   5
ENDBRANCH   3   4
ENDBRANCH   2   3
ENDBRANCH   1   2
BRANCH   1  13
ATOM     13  C   UNL     1      47.621  -2.520  75.432  1.00  0.00     0.000 C 
BRANCH  13  14
ATOM     14  C   UNL     1      46.821  -3.831  75.529  1.00  0.00     0.000 C 
BRANCH  14  15
ATOM     15  C   UNL     1      47.320  -4.968  74.617  1.00  0.00     0.000 C 
BRANCH  15  16
ATOM     16  C   UNL     1      47.251  -4.638  73.111  1.00  0.00     0.000 C 
BRANCH  16  17
ATOM     17  C   UNL     1      48.488  -5.128  72.340  1.00  0.00     0.000 C 
BRANCH  17  18
ATOM     18  C   UNL     1      49.720  -4.236  72.560  1.00  0.00     0.000 C 
BRANCH  18  19
ATOM     19  C   UNL     1      49.539  -2.793  72.042  1.00  0.00     0.000 C 
BRANCH  19  20
ATOM     20  C   UNL     1      50.678  -1.865  72.501  1.00  0.00     0.006 C 
BRANCH  20  21
ATOM     21  C   UNL     1      51.861  -2.643  73.094  1.00  0.00     0.053 C 
BRANCH  21  22
ATOM     22  C   UNL     1      53.148  -2.303  72.408  1.00  0.00     0.041 C 
ATOM     23  O   UNL     1      54.097  -3.129  72.399  1.00  0.00    -0.550 OA
ATOM     24  O   UNL     1      53.314  -1.057  71.814  1.00  0.00    -0.550 OA
ENDBRANCH  21  22
ENDBRANCH  20  21
ENDBRANCH  19  20
ENDBRANCH  18  19
ENDBRANCH  17  18
ENDBRANCH  16  17
ENDBRANCH  15  16
ENDBRANCH  14  15
ENDBRANCH  13  14
ENDBRANCH   1  13
TORSDOF 20
ENDMDL
MODEL 8
REMARK VINA RESULT:    -4.285      3.062      5.391
REMARK INTER + INTRA:         -12.026
REMARK INTER:                  -8.859
REMARK INTRA:                  -3.167
REMARK UNBOUND:                -2.730
REMARK SMILES CCCCCCCCCCCCCCCCCCCCCC(=O)[O-]
REMARK SMILES IDX 12 1 11 2 10 3 9 4 8 5 7 6 6 7 5 8 4 9 3 10 2 11 1 12 13 13
REMARK SMILES IDX 14 14 15 15 16 16 17 17 18 18 19 19 20 20 21 21 22 22 23 23
REMARK SMILES IDX 24 24
REMARK H PARENT
REMARK Flexibility Score: inf
ROOT
ATOM      1  C   UNL     1      50.379  -4.617  73.071  1.00  0.00     0.000 C 
ENDROOT
BRANCH   1   2
ATOM      2  C   UNL     1      49.259  -4.230  72.087  1.00  0.00     0.000 C 
BRANCH   2   3
ATOM      3  C   UNL     1      47.840  -4.220  72.687  1.00  0.00     0.000 C 
BRANCH   3   4
ATOM      4  C   UNL     1      47.509  -5.419  73.598  1.00  0.00    -0.000 C 
BRANCH   4   5
ATOM      5  C   UNL     1      47.008  -5.048  75.005  1.00  0.00    -0.000 C 
BRANCH   5   6
ATOM      6  C   UNL     1      47.434  -3.637  75.438  1.00  0.00    -0.000 C 
BRANCH   6   7
ATOM      7  C   UNL     1      48.788  -3.670  76.164  1.00  0.00    -0.000 C 
BRANCH   7   8
ATOM      8  C   UNL     1      48.688  -3.256  77.644  1.00  0.00    -0.000 C 
BRANCH   8   9
ATOM      9  C   UNL     1      48.970  -4.380  78.656  1.00  0.00    -0.000 C 
BRANCH   9  10
ATOM     10  C   UNL     1      47.828  -5.405  78.749  1.00  0.00    -0.000 C 
BRANCH  10  11
ATOM     11  C   UNL     1      48.273  -6.816  78.335  1.00  0.00    -0.003 C 
ATOM     12  C   UNL     1      47.096  -7.737  78.008  1.00  0.00     0.004 C 
ENDBRANCH  10  11
ENDBRANCH   9  10
ENDBRANCH   8   9
ENDBRANCH   7   8
ENDBRANCH   6   7
ENDBRANCH   5   6
ENDBRANCH   4   5
ENDBRANCH   3   4
ENDBRANCH   2   3
ENDBRANCH   1   2
BRANCH   1  13
ATOM     13  C   UNL     1      51.629  -3.715  73.028  1.00  0.00     0.000 C 
BRANCH  13  14
ATOM     14  C   UNL     1      51.375  -2.231  73.347  1.00  0.00     0.000 C 
BRANCH  14  15
ATOM     15  C   UNL     1      51.801  -1.245  72.244  1.00  0.00     0.000 C 
BRANCH  15  16
ATOM     16  C   UNL     1      50.810  -0.081  72.028  1.00  0.00     0.000 C 
BRANCH  16  17
ATOM     17  C   UNL     1      49.350  -0.556  71.938  1.00  0.00     0.000 C 
BRANCH  17  18
ATOM     18  C   UNL     1      48.402   0.257  72.834  1.00  0.00     0.000 C 
BRANCH  18  19
ATOM     19  C   UNL     1      48.158  -0.383  74.218  1.00  0.00     0.000 C 
BRANCH  19  20
ATOM     20  C   UNL     1      47.036   0.327  74.995  1.00  0.00     0.006 C 
BRANCH  20  21
ATOM     21  C   UNL     1      46.957  -0.135  76.457  1.00  0.00     0.053 C 
BRANCH  21  22
ATOM     22  C   UNL     1      45.601  -0.673  76.796  1.00  0.00     0.041 C 
ATOM     23  O   UNL     1      44.576  -0.205  76.235  1.00  0.00    -0.550 OA
ATOM     24  O   UNL     1      45.465  -1.664  77.761  1.00  0.00    -0.550 OA
ENDBRANCH  21  22
ENDBRANCH  20  21
ENDBRANCH  19  20
ENDBRANCH  18  19
ENDBRANCH  17  18
ENDBRANCH  16  17
ENDBRANCH  15  16
ENDBRANCH  14  15
ENDBRANCH  13  14
ENDBRANCH   1  13
TORSDOF 20
ENDMDL
MODEL 9
REMARK VINA RESULT:    -4.260      2.708      5.172
REMARK INTER + INTRA:         -11.970
REMARK INTER:                  -8.531
REMARK INTRA:                  -3.439
REMARK UNBOUND:                -2.730
REMARK SMILES CCCCCCCCCCCCCCCCCCCCCC(=O)[O-]
REMARK SMILES IDX 12 1 11 2 10 3 9 4 8 5 7 6 6 7 5 8 4 9 3 10 2 11 1 12 13 13
REMARK SMILES IDX 14 14 15 15 16 16 17 17 18 18 19 19 20 20 21 21 22 22 23 23
REMARK SMILES IDX 24 24
REMARK H PARENT
REMARK Flexibility Score: inf
ROOT
ATOM      1  C   UNL     1      50.807  -0.659  72.135  1.00  0.00     0.000 C 
ENDROOT
BRANCH   1   2
ATOM      2  C   UNL     1      51.917  -1.697  72.391  1.00  0.00     0.000 C 
BRANCH   2   3
ATOM      3  C   UNL     1      51.418  -3.098  72.794  1.00  0.00     0.000 C 
BRANCH   3   4
ATOM      4  C   UNL     1      51.397  -3.371  74.311  1.00  0.00    -0.000 C 
BRANCH   4   5
ATOM      5  C   UNL     1      51.460  -4.858  74.705  1.00  0.00    -0.000 C 
BRANCH   5   6
ATOM      6  C   UNL     1      50.500  -5.213  75.851  1.00  0.00    -0.000 C 
BRANCH   6   7
ATOM      7  C   UNL     1      50.637  -4.216  77.012  1.00  0.00    -0.000 C 
BRANCH   7   8
ATOM      8  C   UNL     1      50.044  -4.745  78.332  1.00  0.00    -0.000 C 
BRANCH   8   9
ATOM      9  C   UNL     1      48.513  -4.636  78.449  1.00  0.00    -0.000 C 
BRANCH   9  10
ATOM     10  C   UNL     1      47.842  -5.974  78.796  1.00  0.00    -0.000 C 
BRANCH  10  11
ATOM     11  C   UNL     1      47.592  -6.844  77.555  1.00  0.00    -0.003 C 
ATOM     12  C   UNL     1      47.483  -8.333  77.887  1.00  0.00     0.004 C 
ENDBRANCH  10  11
ENDBRANCH   9  10
ENDBRANCH   8   9
ENDBRANCH   7   8
ENDBRANCH   6   7
ENDBRANCH   5   6
ENDBRANCH   4   5
ENDBRANCH   3   4
ENDBRANCH   2   3
ENDBRANCH   1   2
BRANCH   1  13
ATOM     13  C   UNL     1      49.474  -1.241  71.625  1.00  0.00     0.000 C 
BRANCH  13  14
ATOM     14  C   UNL     1      48.210  -0.536  72.149  1.00  0.00     0.000 C 
BRANCH  14  15
ATOM     15  C   UNL     1      48.435   0.393  73.356  1.00  0.00     0.000 C 
BRANCH  15  16
ATOM     16  C   UNL     1      47.855  -0.149  74.680  1.00  0.00     0.000 C 
BRANCH  16  17
ATOM     17  C   UNL     1      48.405  -1.540  75.041  1.00  0.00     0.000 C 
BRANCH  17  18
ATOM     18  C   UNL     1      47.323  -2.486  75.587  1.00  0.00     0.000 C 
BRANCH  18  19
ATOM     19  C   UNL     1      47.427  -3.926  75.040  1.00  0.00     0.000 C 
BRANCH  19  20
ATOM     20  C   UNL     1      47.542  -3.956  73.506  1.00  0.00     0.006 C 
BRANCH  20  21
ATOM     21  C   UNL     1      47.809  -5.369  72.969  1.00  0.00     0.053 C 
BRANCH  21  22
ATOM     22  C   UNL     1      46.542  -6.063  72.576  1.00  0.00     0.041 C 
ATOM     23  O   UNL     1      46.424  -6.562  71.427  1.00  0.00    -0.550 OA
ATOM     24  O   UNL     1      45.476  -6.124  73.465  1.00  0.00    -0.550 OA
ENDBRANCH  21  22
ENDBRANCH  20  21
ENDBRANCH  19  20
ENDBRANCH  18  19
ENDBRANCH  17  18
ENDBRANCH  16  17
ENDBRANCH  15  16
ENDBRANCH  14  15
ENDBRANCH  13  14
ENDBRANCH   1  13
TORSDOF 20
ENDMDL
