MODEL 1
REMARK VINA RESULT:    -3.644      0.000      0.000
REMARK INTER + INTRA:          -7.823
REMARK INTER:                  -6.201
REMARK INTRA:                  -1.622
REMARK UNBOUND:                -1.622
REMARK SMILES CCCCCCCCCCCCCC(=O)[O-]
REMARK SMILES IDX 8 1 9 2 10 3 11 4 12 5 13 6 14 7 15 8 16 9 7 10 6 11 5 12
REMARK SMILES IDX 4 13 3 14 2 15 1 16
REMARK H PARENT
REMARK Flexibility Score: inf
ROOT
ATOM      1  C   UNL     1      41.135   8.419  40.993  1.00  0.00     0.000 C 
ENDROOT
BRANCH   1   2
ATOM      2  C   UNL     1      41.328   7.707  39.645  1.00  0.00     0.000 C 
BRANCH   2   3
ATOM      3  C   UNL     1      40.734   8.494  38.464  1.00  0.00     0.000 C 
BRANCH   3   4
ATOM      4  C   UNL     1      41.666   8.644  37.243  1.00  0.00     0.000 C 
BRANCH   4   5
ATOM      5  C   UNL     1      41.878  10.092  36.755  1.00  0.00     0.006 C 
BRANCH   5   6
ATOM      6  C   UNL     1      42.306  11.076  37.856  1.00  0.00     0.053 C 
BRANCH   6   7
ATOM      7  C   UNL     1      43.708  10.823  38.319  1.00  0.00     0.041 C 
ATOM      8  O   UNL     1      43.917  10.201  39.394  1.00  0.00    -0.550 OA
ATOM      9  O   UNL     1      44.782  11.306  37.583  1.00  0.00    -0.550 OA
ENDBRANCH   6   7
ENDBRANCH   5   6
ENDBRANCH   4   5
ENDBRANCH   3   4
ENDBRANCH   2   3
ENDBRANCH   1   2
BRANCH   1  10
ATOM     10  C   UNL     1      41.112   7.410  42.148  1.00  0.00     0.000 C 
BRANCH  10  11
ATOM     11  C   UNL     1      41.333   5.982  41.635  1.00  0.00    -0.000 C 
BRANCH  11  12
ATOM     12  C   UNL     1      40.171   5.066  42.039  1.00  0.00    -0.000 C 
BRANCH  12  13
ATOM     13  C   UNL     1      39.153   4.933  40.897  1.00  0.00    -0.000 C 
BRANCH  13  14
ATOM     14  C   UNL     1      37.839   5.686  41.175  1.00  0.00    -0.000 C 
BRANCH  14  15
ATOM     15  C   UNL     1      37.376   6.618  40.042  1.00  0.00    -0.003 C 
ATOM     16  C   UNL     1      37.537   8.099  40.382  1.00  0.00     0.004 C 
ENDBRANCH  14  15
ENDBRANCH  13  14
ENDBRANCH  12  13
ENDBRANCH  11  12
ENDBRANCH  10  11
ENDBRANCH   1  10
TORSDOF 12
ENDMDL
MODEL 2
REMARK VINA RESULT:    -3.541      1.943      2.649
REMARK INTER + INTRA:          -7.647
REMARK INTER:                  -6.166
REMARK INTRA:                  -1.481
REMARK UNBOUND:                -1.622
REMARK SMILES CCCCCCCCCCCCCC(=O)[O-]
REMARK SMILES IDX 8 1 9 2 10 3 11 4 12 5 13 6 14 7 15 8 16 9 7 10 6 11 5 12
REMARK SMILES IDX 4 13 3 14 2 15 1 16
REMARK H PARENT
REMARK Flexibility Score: inf
ROOT
ATOM      1  C   UNL     1      40.986   6.060  40.628  1.00  0.00     0.000 C 
ENDROOT
BRANCH   1   2
ATOM      2  C   UNL     1      41.338   7.500  41.034  1.00  0.00     0.000 C 
BRANCH   2   3
ATOM      3  C   UNL     1      41.468   8.446  39.828  1.00  0.00     0.000 C 
BRANCH   3   4
ATOM      4  C   UNL     1      41.662   7.747  38.466  1.00  0.00     0.000 C 
BRANCH   4   5
ATOM      5  C   UNL     1      41.679   8.687  37.244  1.00  0.00     0.006 C 
BRANCH   5   6
ATOM      6  C   UNL     1      40.319   9.320  36.912  1.00  0.00     0.053 C 
BRANCH   6   7
ATOM      7  C   UNL     1      40.461  10.529  36.038  1.00  0.00     0.041 C 
ATOM      8  O   UNL     1      39.441  11.172  35.677  1.00  0.00    -0.550 OA
ATOM      9  O   UNL     1      41.717  10.924  35.595  1.00  0.00    -0.550 OA
ENDBRANCH   6   7
ENDBRANCH   5   6
ENDBRANCH   4   5
ENDBRANCH   3   4
ENDBRANCH   2   3
ENDBRANCH   1   2
BRANCH   1  10
ATOM     10  C   UNL     1      40.542   5.239  41.845  1.00  0.00     0.000 C 
BRANCH  10  11
ATOM     11  C   UNL     1      39.157   4.622  41.616  1.00  0.00    -0.000 C 
BRANCH  11  12
ATOM     12  C   UNL     1      38.114   5.245  42.552  1.00  0.00    -0.000 C 
BRANCH  12  13
ATOM     13  C   UNL     1      37.021   5.970  41.752  1.00  0.00    -0.000 C 
BRANCH  13  14
ATOM     14  C   UNL     1      37.381   6.139  40.264  1.00  0.00    -0.000 C 
BRANCH  14  15
ATOM     15  C   UNL     1      37.684   7.584  39.831  1.00  0.00    -0.003 C 
ATOM     16  C   UNL     1      37.757   8.557  41.007  1.00  0.00     0.004 C 
ENDBRANCH  14  15
ENDBRANCH  13  14
ENDBRANCH  12  13
ENDBRANCH  11  12
ENDBRANCH  10  11
ENDBRANCH   1  10
TORSDOF 12
ENDMDL
MODEL 3
REMARK VINA RESULT:    -3.506      0.848      1.621
REMARK INTER + INTRA:          -7.587
REMARK INTER:                  -5.950
REMARK INTRA:                  -1.637
REMARK UNBOUND:                -1.622
REMARK SMILES CCCCCCCCCCCCCC(=O)[O-]
REMARK SMILES IDX 8 1 9 2 10 3 11 4 12 5 13 6 14 7 15 8 16 9 7 10 6 11 5 12
REMARK SMILES IDX 4 13 3 14 2 15 1 16
REMARK H PARENT
REMARK Flexibility Score: inf
ROOT
ATOM      1  C   UNL     1      40.732   6.820  42.201  1.00  0.00     0.000 C 
ENDROOT
BRANCH   1   2
ATOM      2  C   UNL     1      41.067   7.911  41.172  1.00  0.00     0.000 C 
BRANCH   2   3
ATOM      3  C   UNL     1      41.200   7.363  39.741  1.00  0.00     0.000 C 
BRANCH   3   4
ATOM      4  C   UNL     1      40.723   8.319  38.628  1.00  0.00     0.000 C 
BRANCH   4   5
ATOM      5  C   UNL     1      41.715   8.515  37.463  1.00  0.00     0.006 C 
BRANCH   5   6
ATOM      6  C   UNL     1      41.949   9.983  37.070  1.00  0.00     0.053 C 
BRANCH   6   7
ATOM      7  C   UNL     1      43.104  10.583  37.811  1.00  0.00     0.041 C 
ATOM      8  O   UNL     1      43.859   9.853  38.505  1.00  0.00    -0.550 OA
ATOM      9  O   UNL     1      43.325  11.954  37.763  1.00  0.00    -0.550 OA
ENDBRANCH   6   7
ENDBRANCH   5   6
ENDBRANCH   4   5
ENDBRANCH   3   4
ENDBRANCH   2   3
ENDBRANCH   1   2
BRANCH   1  10
ATOM     10  C   UNL     1      40.870   5.423  41.583  1.00  0.00     0.000 C 
BRANCH  10  11
ATOM     11  C   UNL     1      39.505   4.737  41.463  1.00  0.00    -0.000 C 
BRANCH  11  12
ATOM     12  C   UNL     1      38.534   5.252  42.533  1.00  0.00    -0.000 C 
BRANCH  12  13
ATOM     13  C   UNL     1      37.243   5.785  41.893  1.00  0.00    -0.000 C 
BRANCH  13  14
ATOM     14  C   UNL     1      37.390   6.054  40.384  1.00  0.00    -0.000 C 
BRANCH  14  15
ATOM     15  C   UNL     1      37.439   7.542  39.995  1.00  0.00    -0.003 C 
ATOM     16  C   UNL     1      37.327   8.479  41.196  1.00  0.00     0.004 C 
ENDBRANCH  14  15
ENDBRANCH  13  14
ENDBRANCH  12  13
ENDBRANCH  11  12
ENDBRANCH  10  11
ENDBRANCH   1  10
TORSDOF 12
ENDMDL
MODEL 4
REMARK VINA RESULT:    -3.469      1.983      3.038
REMARK INTER + INTRA:          -7.525
REMARK INTER:                  -5.802
REMARK INTRA:                  -1.724
REMARK UNBOUND:                -1.622
REMARK SMILES CCCCCCCCCCCCCC(=O)[O-]
REMARK SMILES IDX 8 1 9 2 10 3 11 4 12 5 13 6 14 7 15 8 16 9 7 10 6 11 5 12
REMARK SMILES IDX 4 13 3 14 2 15 1 16
REMARK H PARENT
REMARK Flexibility Score: inf
ROOT
ATOM      1  C   UNL     1      40.705   5.645  40.594  1.00  0.00     0.000 C 
ENDROOT
BRANCH   1   2
ATOM      2  C   UNL     1      41.299   6.353  41.821  1.00  0.00     0.000 C 
BRANCH   2   3
ATOM      3  C   UNL     1      41.382   7.880  41.647  1.00  0.00     0.000 C 
BRANCH   3   4
ATOM      4  C   UNL     1      40.083   8.554  41.159  1.00  0.00     0.000 C 
BRANCH   4   5
ATOM      5  C   UNL     1      40.230   9.419  39.890  1.00  0.00     0.006 C 
BRANCH   5   6
ATOM      6  C   UNL     1      41.588   9.282  39.184  1.00  0.00     0.053 C 
BRANCH   6   7
ATOM      7  C   UNL     1      41.469   8.565  37.874  1.00  0.00     0.041 C 
ATOM      8  O   UNL     1      40.928   9.132  36.889  1.00  0.00    -0.550 OA
ATOM      9  O   UNL     1      41.924   7.258  37.752  1.00  0.00    -0.550 OA
ENDBRANCH   6   7
ENDBRANCH   5   6
ENDBRANCH   4   5
ENDBRANCH   3   4
ENDBRANCH   2   3
ENDBRANCH   1   2
BRANCH   1  10
ATOM     10  C   UNL     1      39.630   4.634  41.012  1.00  0.00     0.000 C 
BRANCH  10  11
ATOM     11  C   UNL     1      39.411   4.659  42.529  1.00  0.00    -0.000 C 
BRANCH  11  12
ATOM     12  C   UNL     1      37.929   4.860  42.869  1.00  0.00    -0.000 C 
BRANCH  12  13
ATOM     13  C   UNL     1      37.450   6.254  42.436  1.00  0.00    -0.000 C 
BRANCH  13  14
ATOM     14  C   UNL     1      36.327   6.202  41.384  1.00  0.00    -0.000 C 
BRANCH  14  15
ATOM     15  C   UNL     1      36.791   6.409  39.932  1.00  0.00    -0.003 C 
ATOM     16  C   UNL     1      36.821   7.879  39.517  1.00  0.00     0.004 C 
ENDBRANCH  14  15
ENDBRANCH  13  14
ENDBRANCH  12  13
ENDBRANCH  11  12
ENDBRANCH  10  11
ENDBRANCH   1  10
TORSDOF 12
ENDMDL
MODEL 5
REMARK VINA RESULT:    -3.460      1.680      2.319
REMARK INTER + INTRA:          -7.509
REMARK INTER:                  -6.013
REMARK INTRA:                  -1.496
REMARK UNBOUND:                -1.622
REMARK SMILES CCCCCCCCCCCCCC(=O)[O-]
REMARK SMILES IDX 8 1 9 2 10 3 11 4 12 5 13 6 14 7 15 8 16 9 7 10 6 11 5 12
REMARK SMILES IDX 4 13 3 14 2 15 1 16
REMARK H PARENT
REMARK Flexibility Score: inf
ROOT
ATOM      1  C   UNL     1      39.948   8.310  39.381  1.00  0.00     0.000 C 
ENDROOT
BRANCH   1   2
ATOM      2  C   UNL     1      40.274   9.075  38.089  1.00  0.00     0.000 C 
BRANCH   2   3
ATOM      3  C   UNL     1      41.655   8.714  37.513  1.00  0.00     0.000 C 
BRANCH   3   4
ATOM      4  C   UNL     1      42.702   9.846  37.569  1.00  0.00     0.000 C 
BRANCH   4   5
ATOM      5  C   UNL     1      43.543   9.898  38.861  1.00  0.00     0.006 C 
BRANCH   5   6
ATOM      6  C   UNL     1      43.234  11.097  39.771  1.00  0.00     0.053 C 
BRANCH   6   7
ATOM      7  C   UNL     1      42.643  10.671  41.079  1.00  0.00     0.041 C 
ATOM      8  O   UNL     1      41.406  10.784  41.282  1.00  0.00    -0.550 OA
ATOM      9  O   UNL     1      43.464  10.183  42.088  1.00  0.00    -0.550 OA
ENDBRANCH   6   7
ENDBRANCH   5   6
ENDBRANCH   4   5
ENDBRANCH   3   4
ENDBRANCH   2   3
ENDBRANCH   1   2
BRANCH   1  10
ATOM     10  C   UNL     1      41.049   7.294  39.709  1.00  0.00     0.000 C 
BRANCH  10  11
ATOM     11  C   UNL     1      41.159   7.072  41.222  1.00  0.00    -0.000 C 
BRANCH  11  12
ATOM     12  C   UNL     1      41.031   5.584  41.572  1.00  0.00    -0.000 C 
BRANCH  12  13
ATOM     13  C   UNL     1      39.642   5.049  41.195  1.00  0.00    -0.000 C 
BRANCH  13  14
ATOM     14  C   UNL     1      38.581   5.323  42.277  1.00  0.00    -0.000 C 
BRANCH  14  15
ATOM     15  C   UNL     1      37.205   5.752  41.739  1.00  0.00    -0.003 C 
ATOM     16  C   UNL     1      37.250   6.212  40.282  1.00  0.00     0.004 C 
ENDBRANCH  14  15
ENDBRANCH  13  14
ENDBRANCH  12  13
ENDBRANCH  11  12
ENDBRANCH  10  11
ENDBRANCH   1  10
TORSDOF 12
ENDMDL
MODEL 6
REMARK VINA RESULT:    -3.418      3.384      6.050
REMARK INTER + INTRA:          -7.438
REMARK INTER:                  -6.076
REMARK INTRA:                  -1.363
REMARK UNBOUND:                -1.622
REMARK SMILES CCCCCCCCCCCCCC(=O)[O-]
REMARK SMILES IDX 8 1 9 2 10 3 11 4 12 5 13 6 14 7 15 8 16 9 7 10 6 11 5 12
REMARK SMILES IDX 4 13 3 14 2 15 1 16
REMARK H PARENT
REMARK Flexibility Score: inf
ROOT
ATOM      1  C   UNL     1      41.092   7.367  42.253  1.00  0.00     0.000 C 
ENDROOT
BRANCH   1   2
ATOM      2  C   UNL     1      41.346   5.941  41.742  1.00  0.00     0.000 C 
BRANCH   2   3
ATOM      3  C   UNL     1      40.191   4.976  42.064  1.00  0.00     0.000 C 
BRANCH   3   4
ATOM      4  C   UNL     1      39.099   4.879  40.978  1.00  0.00     0.000 C 
BRANCH   4   5
ATOM      5  C   UNL     1      37.863   5.773  41.210  1.00  0.00     0.006 C 
BRANCH   5   6
ATOM      6  C   UNL     1      37.650   6.851  40.135  1.00  0.00     0.053 C 
BRANCH   6   7
ATOM      7  C   UNL     1      36.259   6.822  39.581  1.00  0.00     0.041 C 
ATOM      8  O   UNL     1      35.986   7.452  38.526  1.00  0.00    -0.550 OA
ATOM      9  O   UNL     1      35.257   6.130  40.249  1.00  0.00    -0.550 OA
ENDBRANCH   6   7
ENDBRANCH   5   6
ENDBRANCH   4   5
ENDBRANCH   3   4
ENDBRANCH   2   3
ENDBRANCH   1   2
BRANCH   1  10
ATOM     10  C   UNL     1      41.188   8.385  41.110  1.00  0.00     0.000 C 
BRANCH  10  11
ATOM     11  C   UNL     1      41.250   7.680  39.750  1.00  0.00    -0.000 C 
BRANCH  11  12
ATOM     12  C   UNL     1      42.119   8.467  38.761  1.00  0.00    -0.000 C 
BRANCH  12  13
ATOM     13  C   UNL     1      41.632   8.263  37.318  1.00  0.00    -0.000 C 
BRANCH  13  14
ATOM     14  C   UNL     1      40.984   9.525  36.720  1.00  0.00    -0.000 C 
BRANCH  14  15
ATOM     15  C   UNL     1      39.957  10.218  37.632  1.00  0.00    -0.003 C 
ATOM     16  C   UNL     1      38.532   9.709  37.423  1.00  0.00     0.004 C 
ENDBRANCH  14  15
ENDBRANCH  13  14
ENDBRANCH  12  13
ENDBRANCH  11  12
ENDBRANCH  10  11
ENDBRANCH   1  10
TORSDOF 12
ENDMDL
MODEL 7
REMARK VINA RESULT:    -3.404     10.589     12.778
REMARK INTER + INTRA:          -7.414
REMARK INTER:                  -5.597
REMARK INTRA:                  -1.817
REMARK UNBOUND:                -1.622
REMARK SMILES CCCCCCCCCCCCCC(=O)[O-]
REMARK SMILES IDX 8 1 9 2 10 3 11 4 12 5 13 6 14 7 15 8 16 9 7 10 6 11 5 12
REMARK SMILES IDX 4 13 3 14 2 15 1 16
REMARK H PARENT
REMARK Flexibility Score: inf
ROOT
ATOM      1  C   UNL     1      43.534  12.081  27.019  1.00  0.00     0.000 C 
ENDROOT
BRANCH   1   2
ATOM      2  C   UNL     1      42.335  11.157  27.282  1.00  0.00     0.000 C 
BRANCH   2   3
ATOM      3  C   UNL     1      41.662  11.424  28.640  1.00  0.00     0.000 C 
BRANCH   3   4
ATOM      4  C   UNL     1      41.133  10.169  29.365  1.00  0.00     0.000 C 
BRANCH   4   5
ATOM      5  C   UNL     1      41.661   8.826  28.820  1.00  0.00     0.006 C 
BRANCH   5   6
ATOM      6  C   UNL     1      40.566   7.794  28.510  1.00  0.00     0.053 C 
BRANCH   6   7
ATOM      7  C   UNL     1      39.839   8.111  27.240  1.00  0.00     0.041 C 
ATOM      8  O   UNL     1      38.612   8.391  27.265  1.00  0.00    -0.550 OA
ATOM      9  O   UNL     1      40.510   8.064  26.024  1.00  0.00    -0.550 OA
ENDBRANCH   6   7
ENDBRANCH   5   6
ENDBRANCH   4   5
ENDBRANCH   3   4
ENDBRANCH   2   3
ENDBRANCH   1   2
BRANCH   1  10
ATOM     10  C   UNL     1      44.857  11.351  27.280  1.00  0.00     0.000 C 
BRANCH  10  11
ATOM     11  C   UNL     1      44.681   9.833  27.163  1.00  0.00    -0.000 C 
BRANCH  11  12
ATOM     12  C   UNL     1      45.717   9.090  28.016  1.00  0.00    -0.000 C 
BRANCH  12  13
ATOM     13  C   UNL     1      45.172   8.814  29.425  1.00  0.00    -0.000 C 
BRANCH  13  14
ATOM     14  C   UNL     1      46.004   9.487  30.532  1.00  0.00    -0.000 C 
BRANCH  14  15
ATOM     15  C   UNL     1      45.582  10.927  30.872  1.00  0.00    -0.003 C 
ATOM     16  C   UNL     1      44.158  11.020  31.418  1.00  0.00     0.004 C 
ENDBRANCH  14  15
ENDBRANCH  13  14
ENDBRANCH  12  13
ENDBRANCH  11  12
ENDBRANCH  10  11
ENDBRANCH   1  10
TORSDOF 12
ENDMDL
MODEL 8
REMARK VINA RESULT:    -3.395      3.066      6.869
REMARK INTER + INTRA:          -7.399
REMARK INTER:                  -6.403
REMARK INTRA:                  -0.995
REMARK UNBOUND:                -1.622
REMARK SMILES CCCCCCCCCCCCCC(=O)[O-]
REMARK SMILES IDX 8 1 9 2 10 3 11 4 12 5 13 6 14 7 15 8 16 9 7 10 6 11 5 12
REMARK SMILES IDX 4 13 3 14 2 15 1 16
REMARK H PARENT
REMARK Flexibility Score: inf
ROOT
ATOM      1  C   UNL     1      41.035   7.304  39.705  1.00  0.00     0.000 C 
ENDROOT
BRANCH   1   2
ATOM      2  C   UNL     1      41.266   7.275  41.224  1.00  0.00     0.000 C 
BRANCH   2   3
ATOM      3  C   UNL     1      41.348   5.846  41.790  1.00  0.00     0.000 C 
BRANCH   3   4
ATOM      4  C   UNL     1      40.111   4.965  41.519  1.00  0.00     0.000 C 
BRANCH   4   5
ATOM      5  C   UNL     1      39.186   4.743  42.734  1.00  0.00     0.006 C 
BRANCH   5   6
ATOM      6  C   UNL     1      37.719   5.132  42.492  1.00  0.00     0.053 C 
BRANCH   6   7
ATOM      7  C   UNL     1      37.595   6.318  41.587  1.00  0.00     0.041 C 
ATOM      8  O   UNL     1      37.798   7.478  42.033  1.00  0.00    -0.550 OA
ATOM      9  O   UNL     1      37.220   6.146  40.261  1.00  0.00    -0.550 OA
ENDBRANCH   6   7
ENDBRANCH   5   6
ENDBRANCH   4   5
ENDBRANCH   3   4
ENDBRANCH   2   3
ENDBRANCH   1   2
BRANCH   1  10
ATOM     10  C   UNL     1      39.944   8.315  39.335  1.00  0.00     0.000 C 
BRANCH  10  11
ATOM     11  C   UNL     1      40.214   8.938  37.961  1.00  0.00    -0.000 C 
BRANCH  11  12
ATOM     12  C   UNL     1      41.670   8.718  37.533  1.00  0.00    -0.000 C 
BRANCH  12  13
ATOM     13  C   UNL     1      42.432  10.051  37.472  1.00  0.00    -0.000 C 
BRANCH  13  14
ATOM     14  C   UNL     1      43.697  10.058  38.350  1.00  0.00    -0.000 C 
BRANCH  14  15
ATOM     15  C   UNL     1      44.307  11.449  38.594  1.00  0.00    -0.003 C 
ATOM     16  C   UNL     1      45.348  11.839  37.546  1.00  0.00     0.004 C 
ENDBRANCH  14  15
ENDBRANCH  13  14
ENDBRANCH  12  13
ENDBRANCH  11  12
ENDBRANCH  10  11
ENDBRANCH   1  10
TORSDOF 12
ENDMDL
MODEL 9
REMARK VINA RESULT:    -3.344     10.187     12.086
REMARK INTER + INTRA:          -7.312
REMARK INTER:                  -5.865
REMARK INTRA:                  -1.447
REMARK UNBOUND:                -1.622
REMARK SMILES CCCCCCCCCCCCCC(=O)[O-]
REMARK SMILES IDX 8 1 9 2 10 3 11 4 12 5 13 6 14 7 15 8 16 9 7 10 6 11 5 12
REMARK SMILES IDX 4 13 3 14 2 15 1 16
REMARK H PARENT
REMARK Flexibility Score: inf
ROOT
ATOM      1  C   UNL     1      42.629   9.536  28.763  1.00  0.00     0.000 C 
ENDROOT
BRANCH   1   2
ATOM      2  C   UNL     1      43.539   9.837  27.563  1.00  0.00     0.000 C 
BRANCH   2   3
ATOM      3  C   UNL     1      45.016   9.500  27.833  1.00  0.00     0.000 C 
BRANCH   3   4
ATOM      4  C   UNL     1      45.283   8.741  29.150  1.00  0.00     0.000 C 
BRANCH   4   5
ATOM      5  C   UNL     1      46.122   9.510  30.191  1.00  0.00     0.006 C 
BRANCH   5   6
ATOM      6  C   UNL     1      45.310  10.464  31.080  1.00  0.00     0.053 C 
BRANCH   6   7
ATOM      7  C   UNL     1      45.688  11.896  30.857  1.00  0.00     0.041 C 
ATOM      8  O   UNL     1      46.063  12.282  29.719  1.00  0.00    -0.550 OA
ATOM      9  O   UNL     1      45.659  12.797  31.915  1.00  0.00    -0.550 OA
ENDBRANCH   6   7
ENDBRANCH   5   6
ENDBRANCH   4   5
ENDBRANCH   3   4
ENDBRANCH   2   3
ENDBRANCH   1   2
BRANCH   1  10
ATOM     10  C   UNL     1      41.766   8.296  28.500  1.00  0.00     0.000 C 
BRANCH  10  11
ATOM     11  C   UNL     1      40.359   8.470  29.084  1.00  0.00    -0.000 C 
BRANCH  11  12
ATOM     12  C   UNL     1      39.289   8.322  27.996  1.00  0.00    -0.000 C 
BRANCH  12  13
ATOM     13  C   UNL     1      39.912   7.857  26.671  1.00  0.00    -0.000 C 
BRANCH  13  14
ATOM     14  C   UNL     1      39.584   8.793  25.493  1.00  0.00    -0.000 C 
BRANCH  14  15
ATOM     15  C   UNL     1      40.682   9.816  25.155  1.00  0.00    -0.003 C 
ATOM     16  C   UNL     1      40.484  11.159  25.855  1.00  0.00     0.004 C 
ENDBRANCH  14  15
ENDBRANCH  13  14
ENDBRANCH  12  13
ENDBRANCH  11  12
ENDBRANCH  10  11
ENDBRANCH   1  10
TORSDOF 12
ENDMDL
