MODEL 1
REMARK VINA RESULT:    -6.369      0.000      0.000
REMARK INTER + INTRA:         -13.005
REMARK INTER:                 -10.464
REMARK INTRA:                  -2.541
REMARK UNBOUND:                -2.541
REMARK SMILES C[C@H]1O[C@H](OC[C@@H]2O[C@@H](Oc3c(-c4ccc(O)c(O)c4)oc4cc(O)cc(O)c4c3=O)[C@@H](O)[C@H](O)[C@@H]2O)[C@@H](O)[C@H](O)[C@@H]1O
REMARK SMILES IDX 7 1 36 2 34 3 32 4 9 5 8 6 6 7 5 8 4 9 1 10 2 11 42 12 3 13
REMARK SMILES IDX 40 14 38 15 43 16 41 18 39 20 37 22 35 24 10 26 11 27 12 28
REMARK SMILES IDX 30 29 21 30 29 31 31 32 22 33 27 34 23 35 26 36 24 37 13 38
REMARK SMILES IDX 20 39 14 40 18 41 15 42 16 43 19 44 17 46 28 48 25 50 33 52
REMARK H PARENT 43 17 41 19 39 21 37 23 35 25 19 45 17 47 28 49 25 51 33 53
REMARK Flexibility Score: inf
ROOT
ATOM      1  C   UNL     1     -10.641  86.996  -9.356  1.00  0.00     0.180 C 
ATOM      2  C   UNL     1     -11.535  88.106  -9.978  1.00  0.00     0.177 C 
ATOM      3  C   UNL     1     -10.664  89.281 -10.471  1.00  0.00     0.180 C 
ATOM      4  C   UNL     1      -9.675  89.712  -9.371  1.00  0.00     0.214 C 
ATOM      5  C   UNL     1      -8.912  88.491  -8.818  1.00  0.00     0.339 C 
ATOM      6  O   UNL     1      -9.819  87.518  -8.321  1.00  0.00    -0.332 OA
ENDROOT
BRANCH   1   7
ATOM      7  C   UNL     1     -11.487  85.850  -8.781  1.00  0.00     0.198 C 
BRANCH   7   8
ATOM      8  O   UNL     1     -11.945  85.009  -9.826  1.00  0.00    -0.347 OA
BRANCH   8   9
ATOM      9  C   UNL     1     -12.609  83.866  -9.314  1.00  0.00     0.281 C 
ATOM     10  C   UNL     1     -13.654  82.320 -12.483  1.00  0.00     0.041 C 
ATOM     11  C   UNL     1     -12.676  82.826 -11.421  1.00  0.00     0.150 C 
ATOM     12  C   UNL     1     -11.679  81.713 -11.016  1.00  0.00     0.174 C 
ATOM     13  O   UNL     1     -13.431  83.253 -10.298  1.00  0.00    -0.344 OA
ATOM     14  C   UNL     1     -10.772  82.176  -9.856  1.00  0.00     0.179 C 
ATOM     15  C   UNL     1     -11.589  82.863  -8.739  1.00  0.00     0.202 C 
BRANCH  12  16
ATOM     16  O   UNL     1     -10.878  81.342 -12.112  1.00  0.00    -0.388 OA
ATOM     17  H   UNL     1     -10.137  80.784 -11.757  1.00  0.00     0.211 HD
ENDBRANCH  12  16
BRANCH  14  18
ATOM     18  O   UNL     1      -9.715  83.001 -10.292  1.00  0.00    -0.387 OA
ATOM     19  H   UNL     1      -9.373  82.652 -11.153  1.00  0.00     0.211 HD
ENDBRANCH  14  18
BRANCH  15  20
ATOM     20  O   UNL     1     -12.284  81.892  -7.999  1.00  0.00    -0.385 OA
ATOM     21  H   UNL     1     -13.138  82.309  -7.706  1.00  0.00     0.211 HD
ENDBRANCH  15  20
ENDBRANCH   8   9
ENDBRANCH   7   8
ENDBRANCH   1   7
BRANCH   2  22
ATOM     22  O   UNL     1     -12.528  88.551  -9.086  1.00  0.00    -0.387 OA
ATOM     23  H   UNL     1     -12.093  89.095  -8.381  1.00  0.00     0.211 HD
ENDBRANCH   2  22
BRANCH   3  24
ATOM     24  O   UNL     1     -11.470  90.372 -10.832  1.00  0.00    -0.387 OA
ATOM     25  H   UNL     1     -12.210  90.008 -11.385  1.00  0.00     0.211 HD
ENDBRANCH   3  24
BRANCH   5  26
ATOM     26  O   UNL     1      -8.047  87.918  -9.810  1.00  0.00    -0.454 OA
BRANCH  26  27
ATOM     27  C   UNL     1      -6.889  87.184  -9.514  1.00  0.00     0.214 A 
ATOM     28  C   UNL     1      -5.675  87.799  -9.133  1.00  0.00     0.180 A 
ATOM     29  C   UNL     1      -6.935  85.787  -9.596  1.00  0.00     0.239 A 
ATOM     30  O   UNL     1      -4.581  87.059  -8.975  1.00  0.00    -0.452 OA
ATOM     31  C   UNL     1      -5.760  85.034  -9.405  1.00  0.00     0.111 A 
ATOM     32  O   UNL     1      -8.033  85.223  -9.857  1.00  0.00    -0.285 OA
ATOM     33  C   UNL     1      -4.569  85.738  -9.105  1.00  0.00     0.146 A 
ATOM     34  C   UNL     1      -5.717  83.623  -9.517  1.00  0.00     0.134 A 
ATOM     35  C   UNL     1      -3.368  85.046  -8.932  1.00  0.00     0.094 A 
ATOM     36  C   UNL     1      -4.500  82.948  -9.341  1.00  0.00     0.093 A 
ATOM     37  C   UNL     1      -3.329  83.653  -9.054  1.00  0.00     0.123 A 
BRANCH  28  38
ATOM     38  C   UNL     1      -5.571  89.250  -8.871  1.00  0.00     0.025 A 
ATOM     39  C   UNL     1      -5.274  90.151  -9.908  1.00  0.00     0.062 A 
ATOM     40  C   UNL     1      -5.803  89.742  -7.578  1.00  0.00     0.016 A 
ATOM     41  C   UNL     1      -5.171  91.525  -9.646  1.00  0.00     0.158 A 
ATOM     42  C   UNL     1      -5.696  91.110  -7.315  1.00  0.00     0.051 A 
ATOM     43  C   UNL     1      -5.375  92.004  -8.346  1.00  0.00     0.157 A 
BRANCH  41  44
ATOM     44  O   UNL     1      -4.867  92.417 -10.672  1.00  0.00    -0.504 OA
ATOM     45  H   UNL     1      -4.146  93.121 -10.568  1.00  0.00     0.293 HD
ENDBRANCH  41  44
BRANCH  43  46
ATOM     46  O   UNL     1      -5.259  93.367  -8.087  1.00  0.00    -0.504 OA
ATOM     47  H   UNL     1      -5.423  94.060  -8.809  1.00  0.00     0.293 HD
ENDBRANCH  43  46
ENDBRANCH  28  38
BRANCH  34  48
ATOM     48  O   UNL     1      -6.869  82.889  -9.810  1.00  0.00    -0.507 OA
ATOM     49  H   UNL     1      -7.758  83.095  -9.370  1.00  0.00     0.293 HD
ENDBRANCH  34  48
BRANCH  37  50
ATOM     50  O   UNL     1      -2.130  82.960  -8.897  1.00  0.00    -0.508 OA
ATOM     51  H   UNL     1      -1.984  82.324  -8.122  1.00  0.00     0.293 HD
ENDBRANCH  37  50
ENDBRANCH  26  27
ENDBRANCH   5  26
BRANCH   4  52
ATOM     52  O   UNL     1      -8.786  90.703  -9.825  1.00  0.00    -0.384 OA
ATOM     53  H   UNL     1      -9.322  91.437 -10.226  1.00  0.00     0.211 HD
ENDBRANCH   4  52
TORSDOF 16
ENDMDL
MODEL 2
REMARK VINA RESULT:    -6.313      3.164      7.389
REMARK INTER + INTRA:         -12.913
REMARK INTER:                  -9.223
REMARK INTRA:                  -3.690
REMARK UNBOUND:                -2.541
REMARK SMILES C[C@H]1O[C@H](OC[C@@H]2O[C@@H](Oc3c(-c4ccc(O)c(O)c4)oc4cc(O)cc(O)c4c3=O)[C@@H](O)[C@H](O)[C@@H]2O)[C@@H](O)[C@H](O)[C@@H]1O
REMARK SMILES IDX 7 1 36 2 34 3 32 4 9 5 8 6 6 7 5 8 4 9 1 10 2 11 42 12 3 13
REMARK SMILES IDX 40 14 38 15 43 16 41 18 39 20 37 22 35 24 10 26 11 27 12 28
REMARK SMILES IDX 30 29 21 30 29 31 31 32 22 33 27 34 23 35 26 36 24 37 13 38
REMARK SMILES IDX 20 39 14 40 18 41 15 42 16 43 19 44 17 46 28 48 25 50 33 52
REMARK H PARENT 43 17 41 19 39 21 37 23 35 25 19 45 17 47 28 49 25 51 33 53
REMARK Flexibility Score: inf
ROOT
ATOM      1  C   UNL     1     -10.748  86.180  -8.013  1.00  0.00     0.180 C 
ATOM      2  C   UNL     1      -9.406  86.032  -7.241  1.00  0.00     0.177 C 
ATOM      3  C   UNL     1      -8.423  87.146  -7.659  1.00  0.00     0.180 C 
ATOM      4  C   UNL     1      -8.341  87.240  -9.194  1.00  0.00     0.214 C 
ATOM      5  C   UNL     1      -9.752  87.320  -9.809  1.00  0.00     0.339 C 
ATOM      6  O   UNL     1     -10.533  86.200  -9.418  1.00  0.00    -0.332 OA
ENDROOT
BRANCH   1   7
ATOM      7  C   UNL     1     -11.717  85.036  -7.680  1.00  0.00     0.198 C 
BRANCH   7   8
ATOM      8  O   UNL     1     -12.177  84.424  -8.873  1.00  0.00    -0.347 OA
BRANCH   8   9
ATOM      9  C   UNL     1     -12.477  83.053  -8.665  1.00  0.00     0.281 C 
ATOM     10  C   UNL     1     -13.485  82.145 -12.083  1.00  0.00     0.041 C 
ATOM     11  C   UNL     1     -12.540  82.605 -10.971  1.00  0.00     0.150 C 
ATOM     12  C   UNL     1     -11.261  81.732 -10.940  1.00  0.00     0.174 C 
ATOM     13  O   UNL     1     -13.237  82.516  -9.739  1.00  0.00    -0.344 OA
ATOM     14  C   UNL     1     -10.363  82.109  -9.742  1.00  0.00     0.179 C 
ATOM     15  C   UNL     1     -11.183  82.246  -8.441  1.00  0.00     0.202 C 
BRANCH  12  16
ATOM     16  O   UNL     1     -10.530  81.879 -12.133  1.00  0.00    -0.388 OA
ATOM     17  H   UNL     1     -11.017  81.378 -12.837  1.00  0.00     0.211 HD
ENDBRANCH  12  16
BRANCH  14  18
ATOM     18  O   UNL     1      -9.598  83.269  -9.984  1.00  0.00    -0.387 OA
ATOM     19  H   UNL     1      -9.857  83.964  -9.329  1.00  0.00     0.211 HD
ENDBRANCH  14  18
BRANCH  15  20
ATOM     20  O   UNL     1     -11.529  80.970  -7.964  1.00  0.00    -0.385 OA
ATOM     21  H   UNL     1     -12.455  81.035  -7.608  1.00  0.00     0.211 HD
ENDBRANCH  15  20
ENDBRANCH   8   9
ENDBRANCH   7   8
ENDBRANCH   1   7
BRANCH   2  22
ATOM     22  O   UNL     1      -8.832  84.759  -7.412  1.00  0.00    -0.387 OA
ATOM     23  H   UNL     1      -9.184  84.161  -6.705  1.00  0.00     0.211 HD
ENDBRANCH   2  22
BRANCH   3  24
ATOM     24  O   UNL     1      -7.145  86.895  -7.134  1.00  0.00    -0.387 OA
ATOM     25  H   UNL     1      -7.250  86.833  -6.149  1.00  0.00     0.211 HD
ENDBRANCH   3  24
BRANCH   5  26
ATOM     26  O   UNL     1     -10.412  88.545  -9.456  1.00  0.00    -0.454 OA
BRANCH  26  27
ATOM     27  C   UNL     1     -10.992  89.423 -10.384  1.00  0.00     0.214 A 
ATOM     28  C   UNL     1     -12.353  89.344 -10.756  1.00  0.00     0.180 A 
ATOM     29  C   UNL     1     -10.195  90.416 -10.965  1.00  0.00     0.239 A 
ATOM     30  O   UNL     1     -12.818  90.129 -11.724  1.00  0.00    -0.452 OA
ATOM     31  C   UNL     1     -10.727  91.242 -11.974  1.00  0.00     0.111 A 
ATOM     32  O   UNL     1      -8.999  90.546 -10.582  1.00  0.00    -0.285 OA
ATOM     33  C   UNL     1     -12.079  91.041 -12.343  1.00  0.00     0.146 A 
ATOM     34  C   UNL     1      -9.971  92.237 -12.640  1.00  0.00     0.134 A 
ATOM     35  C   UNL     1     -12.653  91.812 -13.356  1.00  0.00     0.094 A 
ATOM     36  C   UNL     1     -10.567  92.999 -13.657  1.00  0.00     0.093 A 
ATOM     37  C   UNL     1     -11.899  92.786 -14.018  1.00  0.00     0.123 A 
BRANCH  28  38
ATOM     38  C   UNL     1     -13.305  88.433 -10.088  1.00  0.00     0.025 A 
ATOM     39  C   UNL     1     -13.545  87.143 -10.592  1.00  0.00     0.062 A 
ATOM     40  C   UNL     1     -13.955  88.844  -8.915  1.00  0.00     0.016 A 
ATOM     41  C   UNL     1     -14.456  86.290  -9.954  1.00  0.00     0.158 A 
ATOM     42  C   UNL     1     -14.867  87.996  -8.280  1.00  0.00     0.051 A 
ATOM     43  C   UNL     1     -15.124  86.720  -8.801  1.00  0.00     0.157 A 
BRANCH  41  44
ATOM     44  O   UNL     1     -14.702  85.015 -10.459  1.00  0.00    -0.504 OA
ATOM     45  H   UNL     1     -14.964  84.245  -9.855  1.00  0.00     0.293 HD
ENDBRANCH  41  44
BRANCH  43  46
ATOM     46  O   UNL     1     -16.037  85.875  -8.176  1.00  0.00    -0.504 OA
ATOM     47  H   UNL     1     -16.259  84.961  -8.555  1.00  0.00     0.293 HD
ENDBRANCH  43  46
ENDBRANCH  28  38
BRANCH  34  48
ATOM     48  O   UNL     1      -8.635  92.468 -12.307  1.00  0.00    -0.507 OA
ATOM     49  H   UNL     1      -7.977  92.849 -12.977  1.00  0.00     0.293 HD
ENDBRANCH  34  48
BRANCH  37  50
ATOM     50  O   UNL     1     -12.463  93.548 -15.041  1.00  0.00    -0.508 OA
ATOM     51  H   UNL     1     -11.892  93.972 -15.762  1.00  0.00     0.293 HD
ENDBRANCH  37  50
ENDBRANCH  26  27
ENDBRANCH   5  26
BRANCH   4  52
ATOM     52  O   UNL     1      -7.543  88.321  -9.611  1.00  0.00    -0.384 OA
ATOM     53  H   UNL     1      -7.015  88.633  -8.830  1.00  0.00     0.211 HD
ENDBRANCH   4  52
TORSDOF 16
ENDMDL
MODEL 3
REMARK VINA RESULT:    -6.278      8.405     12.761
REMARK INTER + INTRA:         -12.857
REMARK INTER:                  -9.429
REMARK INTRA:                  -3.428
REMARK UNBOUND:                -2.541
REMARK SMILES C[C@H]1O[C@H](OC[C@@H]2O[C@@H](Oc3c(-c4ccc(O)c(O)c4)oc4cc(O)cc(O)c4c3=O)[C@@H](O)[C@H](O)[C@@H]2O)[C@@H](O)[C@H](O)[C@@H]1O
REMARK SMILES IDX 7 1 36 2 34 3 32 4 9 5 8 6 6 7 5 8 4 9 1 10 2 11 42 12 3 13
REMARK SMILES IDX 40 14 38 15 43 16 41 18 39 20 37 22 35 24 10 26 11 27 12 28
REMARK SMILES IDX 30 29 21 30 29 31 31 32 22 33 27 34 23 35 26 36 24 37 13 38
REMARK SMILES IDX 20 39 14 40 18 41 15 42 16 43 19 44 17 46 28 48 25 50 33 52
REMARK H PARENT 43 17 41 19 39 21 37 23 35 25 19 45 17 47 28 49 25 51 33 53
REMARK Flexibility Score: inf
ROOT
ATOM      1  C   UNL     1      -5.147  92.531 -14.691  1.00  0.00     0.180 C 
ATOM      2  C   UNL     1      -3.826  91.757 -14.415  1.00  0.00     0.177 C 
ATOM      3  C   UNL     1      -2.984  91.660 -15.704  1.00  0.00     0.180 C 
ATOM      4  C   UNL     1      -3.853  91.167 -16.876  1.00  0.00     0.214 C 
ATOM      5  C   UNL     1      -5.149  91.997 -16.978  1.00  0.00     0.339 C 
ATOM      6  O   UNL     1      -5.875  91.941 -15.759  1.00  0.00    -0.332 OA
ENDROOT
BRANCH   1   7
ATOM      7  C   UNL     1      -6.045  92.572 -13.446  1.00  0.00     0.198 C 
BRANCH   7   8
ATOM      8  O   UNL     1      -5.271  92.856 -12.294  1.00  0.00    -0.347 OA
BRANCH   8   9
ATOM      9  C   UNL     1      -5.908  93.818 -11.470  1.00  0.00     0.281 C 
ATOM     10  C   UNL     1      -4.366  92.948  -8.246  1.00  0.00     0.041 C 
ATOM     11  C   UNL     1      -4.416  93.444  -9.692  1.00  0.00     0.150 C 
ATOM     12  C   UNL     1      -3.756  94.840  -9.819  1.00  0.00     0.174 C 
ATOM     13  O   UNL     1      -5.776  93.496 -10.091  1.00  0.00    -0.344 OA
ATOM     14  C   UNL     1      -3.916  95.400 -11.248  1.00  0.00     0.179 C 
ATOM     15  C   UNL     1      -5.361  95.229 -11.765  1.00  0.00     0.202 C 
BRANCH  12  16
ATOM     16  O   UNL     1      -2.389  94.774  -9.496  1.00  0.00    -0.388 OA
ATOM     17  H   UNL     1      -1.968  95.606  -9.836  1.00  0.00     0.211 HD
ENDBRANCH  12  16
BRANCH  14  18
ATOM     18  O   UNL     1      -2.984  94.850 -12.152  1.00  0.00    -0.387 OA
ATOM     19  H   UNL     1      -2.727  95.546 -12.808  1.00  0.00     0.211 HD
ENDBRANCH  14  18
BRANCH  15  20
ATOM     20  O   UNL     1      -6.199  96.172 -11.147  1.00  0.00    -0.385 OA
ATOM     21  H   UNL     1      -6.606  95.724 -10.359  1.00  0.00     0.211 HD
ENDBRANCH  15  20
ENDBRANCH   8   9
ENDBRANCH   7   8
ENDBRANCH   1   7
BRANCH   2  22
ATOM     22  O   UNL     1      -4.063  90.482 -13.867  1.00  0.00    -0.387 OA
ATOM     23  H   UNL     1      -5.031  90.402 -13.672  1.00  0.00     0.211 HD
ENDBRANCH   2  22
BRANCH   3  24
ATOM     24  O   UNL     1      -1.903  90.783 -15.519  1.00  0.00    -0.387 OA
ATOM     25  H   UNL     1      -1.539  90.968 -14.614  1.00  0.00     0.211 HD
ENDBRANCH   3  24
BRANCH   5  26
ATOM     26  O   UNL     1      -4.875  93.358 -17.343  1.00  0.00    -0.454 OA
BRANCH  26  27
ATOM     27  C   UNL     1      -5.542  94.048 -18.365  1.00  0.00     0.214 A 
ATOM     28  C   UNL     1      -6.710  94.809 -18.132  1.00  0.00     0.180 A 
ATOM     29  C   UNL     1      -5.033  93.984 -19.667  1.00  0.00     0.239 A 
ATOM     30  O   UNL     1      -7.362  95.348 -19.159  1.00  0.00    -0.452 OA
ATOM     31  C   UNL     1      -5.742  94.582 -20.728  1.00  0.00     0.111 A 
ATOM     32  O   UNL     1      -3.948  93.373 -19.874  1.00  0.00    -0.285 OA
ATOM     33  C   UNL     1      -6.946  95.257 -20.416  1.00  0.00     0.146 A 
ATOM     34  C   UNL     1      -5.315  94.521 -22.077  1.00  0.00     0.134 A 
ATOM     35  C   UNL     1      -7.705  95.846 -21.430  1.00  0.00     0.094 A 
ATOM     36  C   UNL     1      -6.094  95.118 -23.081  1.00  0.00     0.093 A 
ATOM     37  C   UNL     1      -7.285  95.773 -22.762  1.00  0.00     0.123 A 
BRANCH  28  38
ATOM     38  C   UNL     1      -7.232  95.061 -16.773  1.00  0.00     0.025 A 
ATOM     39  C   UNL     1      -6.723  96.110 -15.987  1.00  0.00     0.062 A 
ATOM     40  C   UNL     1      -8.272  94.266 -16.268  1.00  0.00     0.016 A 
ATOM     41  C   UNL     1      -7.221  96.334 -14.695  1.00  0.00     0.158 A 
ATOM     42  C   UNL     1      -8.765  94.486 -14.980  1.00  0.00     0.051 A 
ATOM     43  C   UNL     1      -8.239  95.517 -14.189  1.00  0.00     0.157 A 
BRANCH  41  44
ATOM     44  O   UNL     1      -6.711  97.368 -13.913  1.00  0.00    -0.504 OA
ATOM     45  H   UNL     1      -7.287  98.149 -13.622  1.00  0.00     0.293 HD
ENDBRANCH  41  44
BRANCH  43  46
ATOM     46  O   UNL     1      -8.723  95.735 -12.901  1.00  0.00    -0.504 OA
ATOM     47  H   UNL     1      -8.111  96.024 -12.147  1.00  0.00     0.293 HD
ENDBRANCH  43  46
ENDBRANCH  28  38
BRANCH  34  48
ATOM     48  O   UNL     1      -4.133  93.866 -22.429  1.00  0.00    -0.507 OA
ATOM     49  H   UNL     1      -3.259  94.365 -22.534  1.00  0.00     0.293 HD
ENDBRANCH  34  48
BRANCH  37  50
ATOM     50  O   UNL     1      -8.047  96.347 -23.779  1.00  0.00    -0.508 OA
ATOM     51  H   UNL     1      -7.956  97.326 -24.020  1.00  0.00     0.293 HD
ENDBRANCH  37  50
ENDBRANCH  26  27
ENDBRANCH   5  26
BRANCH   4  52
ATOM     52  O   UNL     1      -3.147  91.177 -18.093  1.00  0.00    -0.384 OA
ATOM     53  H   UNL     1      -3.040  92.122 -18.380  1.00  0.00     0.211 HD
ENDBRANCH   4  52
TORSDOF 16
ENDMDL
MODEL 4
REMARK VINA RESULT:    -6.240      9.458     13.714
REMARK INTER + INTRA:         -12.793
REMARK INTER:                  -9.376
REMARK INTRA:                  -3.417
REMARK UNBOUND:                -2.541
REMARK SMILES C[C@H]1O[C@H](OC[C@@H]2O[C@@H](Oc3c(-c4ccc(O)c(O)c4)oc4cc(O)cc(O)c4c3=O)[C@@H](O)[C@H](O)[C@@H]2O)[C@@H](O)[C@H](O)[C@@H]1O
REMARK SMILES IDX 7 1 36 2 34 3 32 4 9 5 8 6 6 7 5 8 4 9 1 10 2 11 42 12 3 13
REMARK SMILES IDX 40 14 38 15 43 16 41 18 39 20 37 22 35 24 10 26 11 27 12 28
REMARK SMILES IDX 30 29 21 30 29 31 31 32 22 33 27 34 23 35 26 36 24 37 13 38
REMARK SMILES IDX 20 39 14 40 18 41 15 42 16 43 19 44 17 46 28 48 25 50 33 52
REMARK H PARENT 43 17 41 19 39 21 37 23 35 25 19 45 17 47 28 49 25 51 33 53
REMARK Flexibility Score: inf
ROOT
ATOM      1  C   UNL     1      -4.609  93.268 -16.178  1.00  0.00     0.180 C 
ATOM      2  C   UNL     1      -3.634  92.404 -15.329  1.00  0.00     0.177 C 
ATOM      3  C   UNL     1      -2.614  91.693 -16.242  1.00  0.00     0.180 C 
ATOM      4  C   UNL     1      -3.336  90.993 -17.408  1.00  0.00     0.214 C 
ATOM      5  C   UNL     1      -4.307  91.965 -18.108  1.00  0.00     0.339 C 
ATOM      6  O   UNL     1      -5.247  92.488 -17.181  1.00  0.00    -0.332 OA
ENDROOT
BRANCH   1   7
ATOM      7  C   UNL     1      -5.689  93.922 -15.304  1.00  0.00     0.198 C 
BRANCH   7   8
ATOM      8  O   UNL     1      -5.195  94.131 -13.992  1.00  0.00    -0.347 OA
BRANCH   8   9
ATOM      9  C   UNL     1      -6.250  94.185 -13.046  1.00  0.00     0.281 C 
ATOM     10  C   UNL     1      -4.317  95.101 -10.055  1.00  0.00     0.041 C 
ATOM     11  C   UNL     1      -4.913  95.279 -11.453  1.00  0.00     0.150 C 
ATOM     12  C   UNL     1      -5.706  96.606 -11.549  1.00  0.00     0.174 C 
ATOM     13  O   UNL     1      -5.759  94.170 -11.712  1.00  0.00    -0.344 OA
ATOM     14  C   UNL     1      -6.414  96.730 -12.914  1.00  0.00     0.179 C 
ATOM     15  C   UNL     1      -7.137  95.421 -13.299  1.00  0.00     0.202 C 
BRANCH  12  16
ATOM     16  O   UNL     1      -4.852  97.709 -11.366  1.00  0.00    -0.388 OA
ATOM     17  H   UNL     1      -4.983  98.029 -10.436  1.00  0.00     0.211 HD
ENDBRANCH  12  16
BRANCH  14  18
ATOM     18  O   UNL     1      -5.541  97.148 -13.940  1.00  0.00    -0.387 OA
ATOM     19  H   UNL     1      -5.156  98.026 -13.693  1.00  0.00     0.211 HD
ENDBRANCH  14  18
BRANCH  15  20
ATOM     20  O   UNL     1      -8.312  95.290 -12.539  1.00  0.00    -0.385 OA
ATOM     21  H   UNL     1      -8.038  95.265 -11.584  1.00  0.00     0.211 HD
ENDBRANCH  15  20
ENDBRANCH   8   9
ENDBRANCH   7   8
ENDBRANCH   1   7
BRANCH   2  22
ATOM     22  O   UNL     1      -4.316  91.480 -14.514  1.00  0.00    -0.387 OA
ATOM     23  H   UNL     1      -3.647  90.882 -14.095  1.00  0.00     0.211 HD
ENDBRANCH   2  22
BRANCH   3  24
ATOM     24  O   UNL     1      -1.875  90.750 -15.512  1.00  0.00    -0.387 OA
ATOM     25  H   UNL     1      -1.590  91.199 -14.673  1.00  0.00     0.211 HD
ENDBRANCH   3  24
BRANCH   5  26
ATOM     26  O   UNL     1      -3.603  93.026 -18.770  1.00  0.00    -0.454 OA
BRANCH  26  27
ATOM     27  C   UNL     1      -3.869  93.450 -20.081  1.00  0.00     0.214 A 
ATOM     28  C   UNL     1      -4.796  94.475 -20.374  1.00  0.00     0.180 A 
ATOM     29  C   UNL     1      -3.191  92.837 -21.140  1.00  0.00     0.239 A 
ATOM     30  O   UNL     1      -5.090  94.756 -21.640  1.00  0.00    -0.452 OA
ATOM     31  C   UNL     1      -3.515  93.172 -22.469  1.00  0.00     0.111 A 
ATOM     32  O   UNL     1      -2.304  91.976 -20.885  1.00  0.00    -0.285 OA
ATOM     33  C   UNL     1      -4.514  94.154 -22.674  1.00  0.00     0.146 A 
ATOM     34  C   UNL     1      -2.906  92.564 -23.593  1.00  0.00     0.134 A 
ATOM     35  C   UNL     1      -4.897  94.508 -23.970  1.00  0.00     0.094 A 
ATOM     36  C   UNL     1      -3.307  92.933 -24.887  1.00  0.00     0.093 A 
ATOM     37  C   UNL     1      -4.300  93.896 -25.076  1.00  0.00     0.123 A 
BRANCH  28  38
ATOM     38  C   UNL     1      -5.444  95.282 -19.319  1.00  0.00     0.025 A 
ATOM     39  C   UNL     1      -4.692  96.158 -18.517  1.00  0.00     0.062 A 
ATOM     40  C   UNL     1      -6.832  95.201 -19.134  1.00  0.00     0.016 A 
ATOM     41  C   UNL     1      -5.316  96.914 -17.513  1.00  0.00     0.158 A 
ATOM     42  C   UNL     1      -7.454  95.950 -18.131  1.00  0.00     0.051 A 
ATOM     43  C   UNL     1      -6.698  96.803 -17.316  1.00  0.00     0.157 A 
BRANCH  41  44
ATOM     44  O   UNL     1      -4.570  97.775 -16.712  1.00  0.00    -0.504 OA
ATOM     45  H   UNL     1      -4.353  97.550 -15.748  1.00  0.00     0.293 HD
ENDBRANCH  41  44
BRANCH  43  46
ATOM     46  O   UNL     1      -7.313  97.546 -16.311  1.00  0.00    -0.504 OA
ATOM     47  H   UNL     1      -8.156  97.221 -15.852  1.00  0.00     0.293 HD
ENDBRANCH  43  46
ENDBRANCH  28  38
BRANCH  34  48
ATOM     48  O   UNL     1      -1.916  91.591 -23.436  1.00  0.00    -0.507 OA
ATOM     49  H   UNL     1      -1.875  91.000 -22.615  1.00  0.00     0.293 HD
ENDBRANCH  34  48
BRANCH  37  50
ATOM     50  O   UNL     1      -4.689  94.235 -26.371  1.00  0.00    -0.508 OA
ATOM     51  H   UNL     1      -5.658  94.418 -26.602  1.00  0.00     0.293 HD
ENDBRANCH  37  50
ENDBRANCH  26  27
ENDBRANCH   5  26
BRANCH   4  52
ATOM     52  O   UNL     1      -2.429  90.432 -18.325  1.00  0.00    -0.384 OA
ATOM     53  H   UNL     1      -2.419  91.003 -19.137  1.00  0.00     0.211 HD
ENDBRANCH   4  52
TORSDOF 16
ENDMDL
MODEL 5
REMARK VINA RESULT:    -6.169      4.757      8.411
REMARK INTER + INTRA:         -12.677
REMARK INTER:                  -9.343
REMARK INTRA:                  -3.334
REMARK UNBOUND:                -2.541
REMARK SMILES C[C@H]1O[C@H](OC[C@@H]2O[C@@H](Oc3c(-c4ccc(O)c(O)c4)oc4cc(O)cc(O)c4c3=O)[C@@H](O)[C@H](O)[C@@H]2O)[C@@H](O)[C@H](O)[C@@H]1O
REMARK SMILES IDX 7 1 36 2 34 3 32 4 9 5 8 6 6 7 5 8 4 9 1 10 2 11 42 12 3 13
REMARK SMILES IDX 40 14 38 15 43 16 41 18 39 20 37 22 35 24 10 26 11 27 12 28
REMARK SMILES IDX 30 29 21 30 29 31 31 32 22 33 27 34 23 35 26 36 24 37 13 38
REMARK SMILES IDX 20 39 14 40 18 41 15 42 16 43 19 44 17 46 28 48 25 50 33 52
REMARK H PARENT 43 17 41 19 39 21 37 23 35 25 19 45 17 47 28 49 25 51 33 53
REMARK Flexibility Score: inf
ROOT
ATOM      1  C   UNL     1      -8.181  93.430 -13.461  1.00  0.00     0.180 C 
ATOM      2  C   UNL     1      -9.622  93.961 -13.705  1.00  0.00     0.177 C 
ATOM      3  C   UNL     1     -10.659  93.000 -13.088  1.00  0.00     0.180 C 
ATOM      4  C   UNL     1     -10.365  91.549 -13.514  1.00  0.00     0.214 C 
ATOM      5  C   UNL     1      -8.885  91.198 -13.263  1.00  0.00     0.339 C 
ATOM      6  O   UNL     1      -8.032  92.104 -13.949  1.00  0.00    -0.332 OA
ENDROOT
BRANCH   1   7
ATOM      7  C   UNL     1      -7.131  94.323 -14.137  1.00  0.00     0.198 C 
BRANCH   7   8
ATOM      8  O   UNL     1      -7.076  94.047 -15.526  1.00  0.00    -0.347 OA
BRANCH   8   9
ATOM      9  C   UNL     1      -5.760  94.207 -16.031  1.00  0.00     0.281 C 
ATOM     10  C   UNL     1      -4.971  90.686 -16.745  1.00  0.00     0.041 C 
ATOM     11  C   UNL     1      -5.708  92.019 -16.890  1.00  0.00     0.150 C 
ATOM     12  C   UNL     1      -5.709  92.490 -18.366  1.00  0.00     0.174 C 
ATOM     13  O   UNL     1      -5.059  92.971 -16.062  1.00  0.00    -0.344 OA
ATOM     14  C   UNL     1      -6.338  93.893 -18.499  1.00  0.00     0.179 C 
ATOM     15  C   UNL     1      -5.794  94.862 -17.426  1.00  0.00     0.202 C 
BRANCH  12  16
ATOM     16  O   UNL     1      -6.418  91.584 -19.175  1.00  0.00    -0.388 OA
ATOM     17  H   UNL     1      -5.917  91.500 -20.028  1.00  0.00     0.211 HD
ENDBRANCH  12  16
BRANCH  14  18
ATOM     18  O   UNL     1      -7.748  93.857 -18.482  1.00  0.00    -0.387 OA
ATOM     19  H   UNL     1      -8.074  94.492 -17.795  1.00  0.00     0.211 HD
ENDBRANCH  14  18
BRANCH  15  20
ATOM     20  O   UNL     1      -4.489  95.257 -17.766  1.00  0.00    -0.385 OA
ATOM     21  H   UNL     1      -4.141  95.792 -17.003  1.00  0.00     0.211 HD
ENDBRANCH  15  20
ENDBRANCH   8   9
ENDBRANCH   7   8
ENDBRANCH   1   7
BRANCH   2  22
ATOM     22  O   UNL     1      -9.884  94.179 -15.071  1.00  0.00    -0.387 OA
ATOM     23  H   UNL     1      -9.095  94.623 -15.472  1.00  0.00     0.211 HD
ENDBRANCH   2  22
BRANCH   3  24
ATOM     24  O   UNL     1     -11.957  93.353 -13.488  1.00  0.00    -0.387 OA
ATOM     25  H   UNL     1     -11.935  94.324 -13.697  1.00  0.00     0.211 HD
ENDBRANCH   3  24
BRANCH   5  26
ATOM     26  O   UNL     1      -8.579  91.179 -11.860  1.00  0.00    -0.454 OA
BRANCH  26  27
ATOM     27  C   UNL     1      -7.928  90.119 -11.211  1.00  0.00     0.214 A 
ATOM     28  C   UNL     1      -6.530  90.099 -11.004  1.00  0.00     0.180 A 
ATOM     29  C   UNL     1      -8.690  89.041 -10.748  1.00  0.00     0.239 A 
ATOM     30  O   UNL     1      -5.957  89.018 -10.485  1.00  0.00    -0.452 OA
ATOM     31  C   UNL     1      -8.049  87.919 -10.186  1.00  0.00     0.111 A 
ATOM     32  O   UNL     1      -9.946  89.084 -10.856  1.00  0.00    -0.285 OA
ATOM     33  C   UNL     1      -6.637  87.949 -10.090  1.00  0.00     0.146 A 
ATOM     34  C   UNL     1      -8.746  86.771  -9.737  1.00  0.00     0.134 A 
ATOM     35  C   UNL     1      -5.944  86.854  -9.566  1.00  0.00     0.094 A 
ATOM     36  C   UNL     1      -8.031  85.682  -9.216  1.00  0.00     0.093 A 
ATOM     37  C   UNL     1      -6.638  85.719  -9.134  1.00  0.00     0.123 A 
BRANCH  28  38
ATOM     38  C   UNL     1      -5.667  91.256 -11.319  1.00  0.00     0.025 A 
ATOM     39  C   UNL     1      -4.939  91.308 -12.521  1.00  0.00     0.062 A 
ATOM     40  C   UNL     1      -5.595  92.335 -10.425  1.00  0.00     0.016 A 
ATOM     41  C   UNL     1      -4.117  92.408 -12.805  1.00  0.00     0.158 A 
ATOM     42  C   UNL     1      -4.772  93.429 -10.706  1.00  0.00     0.051 A 
ATOM     43  C   UNL     1      -4.028  93.466 -11.893  1.00  0.00     0.157 A 
BRANCH  41  44
ATOM     44  O   UNL     1      -3.388  92.455 -13.992  1.00  0.00    -0.504 OA
ATOM     45  H   UNL     1      -3.124  91.611 -14.487  1.00  0.00     0.293 HD
ENDBRANCH  41  44
BRANCH  43  46
ATOM     46  O   UNL     1      -3.201  94.551 -12.173  1.00  0.00    -0.504 OA
ATOM     47  H   UNL     1      -2.322  94.435 -12.664  1.00  0.00     0.293 HD
ENDBRANCH  43  46
ENDBRANCH  28  38
BRANCH  34  48
ATOM     48  O   UNL     1     -10.139  86.701  -9.813  1.00  0.00    -0.507 OA
ATOM     49  H   UNL     1     -10.672  86.059  -9.238  1.00  0.00     0.293 HD
ENDBRANCH  34  48
BRANCH  37  50
ATOM     50  O   UNL     1      -5.950  84.618  -8.625  1.00  0.00    -0.508 OA
ATOM     51  H   UNL     1      -5.096  84.728  -8.092  1.00  0.00     0.293 HD
ENDBRANCH  37  50
ENDBRANCH  26  27
ENDBRANCH   5  26
BRANCH   4  52
ATOM     52  O   UNL     1     -11.220  90.631 -12.877  1.00  0.00    -0.384 OA
ATOM     53  H   UNL     1     -12.060  91.105 -12.642  1.00  0.00     0.211 HD
ENDBRANCH   4  52
TORSDOF 16
ENDMDL
MODEL 6
REMARK VINA RESULT:    -6.075      4.036      7.308
REMARK INTER + INTRA:         -12.522
REMARK INTER:                  -9.384
REMARK INTRA:                  -3.138
REMARK UNBOUND:                -2.541
REMARK SMILES C[C@H]1O[C@H](OC[C@@H]2O[C@@H](Oc3c(-c4ccc(O)c(O)c4)oc4cc(O)cc(O)c4c3=O)[C@@H](O)[C@H](O)[C@@H]2O)[C@@H](O)[C@H](O)[C@@H]1O
REMARK SMILES IDX 7 1 36 2 34 3 32 4 9 5 8 6 6 7 5 8 4 9 1 10 2 11 42 12 3 13
REMARK SMILES IDX 40 14 38 15 43 16 41 18 39 20 37 22 35 24 10 26 11 27 12 28
REMARK SMILES IDX 30 29 21 30 29 31 31 32 22 33 27 34 23 35 26 36 24 37 13 38
REMARK SMILES IDX 20 39 14 40 18 41 15 42 16 43 19 44 17 46 28 48 25 50 33 52
REMARK H PARENT 43 17 41 19 39 21 37 23 35 25 19 45 17 47 28 49 25 51 33 53
REMARK Flexibility Score: inf
ROOT
ATOM      1  C   UNL     1      -7.405  92.330 -11.793  1.00  0.00     0.180 C 
ATOM      2  C   UNL     1      -8.924  92.526 -12.065  1.00  0.00     0.177 C 
ATOM      3  C   UNL     1      -9.728  91.344 -11.484  1.00  0.00     0.180 C 
ATOM      4  C   UNL     1      -9.105  90.005 -11.922  1.00  0.00     0.214 C 
ATOM      5  C   UNL     1      -7.589  89.993 -11.639  1.00  0.00     0.339 C 
ATOM      6  O   UNL     1      -6.950  91.080 -12.294  1.00  0.00    -0.332 OA
ENDROOT
BRANCH   1   7
ATOM      7  C   UNL     1      -6.570  93.449 -12.433  1.00  0.00     0.198 C 
BRANCH   7   8
ATOM      8  O   UNL     1      -5.502  92.894 -13.181  1.00  0.00    -0.347 OA
BRANCH   8   9
ATOM      9  C   UNL     1      -5.240  93.657 -14.348  1.00  0.00     0.281 C 
ATOM     10  C   UNL     1      -2.718  91.488 -15.917  1.00  0.00     0.041 C 
ATOM     11  C   UNL     1      -4.096  91.883 -15.382  1.00  0.00     0.150 C 
ATOM     12  C   UNL     1      -5.186  91.678 -16.464  1.00  0.00     0.174 C 
ATOM     13  O   UNL     1      -4.038  93.244 -14.984  1.00  0.00    -0.344 OA
ATOM     14  C   UNL     1      -6.556  92.193 -15.974  1.00  0.00     0.179 C 
ATOM     15  C   UNL     1      -6.436  93.586 -15.318  1.00  0.00     0.202 C 
BRANCH  12  16
ATOM     16  O   UNL     1      -5.296  90.318 -16.805  1.00  0.00    -0.388 OA
ATOM     17  H   UNL     1      -4.633  89.824 -16.257  1.00  0.00     0.211 HD
ENDBRANCH  12  16
BRANCH  14  18
ATOM     18  O   UNL     1      -7.201  91.281 -15.114  1.00  0.00    -0.387 OA
ATOM     19  H   UNL     1      -7.584  90.547 -15.657  1.00  0.00     0.211 HD
ENDBRANCH  14  18
BRANCH  15  20
ATOM     20  O   UNL     1      -6.262  94.563 -16.313  1.00  0.00    -0.385 OA
ATOM     21  H   UNL     1      -5.753  94.135 -17.053  1.00  0.00     0.211 HD
ENDBRANCH  15  20
ENDBRANCH   8   9
ENDBRANCH   7   8
ENDBRANCH   1   7
BRANCH   2  22
ATOM     22  O   UNL     1      -9.200  92.703 -13.434  1.00  0.00    -0.387 OA
ATOM     23  H   UNL     1      -9.652  91.887 -13.768  1.00  0.00     0.211 HD
ENDBRANCH   2  22
BRANCH   3  24
ATOM     24  O   UNL     1     -11.064  91.403 -11.910  1.00  0.00    -0.387 OA
ATOM     25  H   UNL     1     -11.420  90.478 -11.856  1.00  0.00     0.211 HD
ENDBRANCH   3  24
BRANCH   5  26
ATOM     26  O   UNL     1      -7.316  90.019 -10.231  1.00  0.00    -0.454 OA
BRANCH  26  27
ATOM     27  C   UNL     1      -6.282  89.297  -9.616  1.00  0.00     0.214 A 
ATOM     28  C   UNL     1      -5.214  89.926  -8.938  1.00  0.00     0.180 A 
ATOM     29  C   UNL     1      -6.308  87.899  -9.673  1.00  0.00     0.239 A 
ATOM     30  O   UNL     1      -4.205  89.195  -8.474  1.00  0.00    -0.452 OA
ATOM     31  C   UNL     1      -5.230  87.155  -9.155  1.00  0.00     0.111 A 
ATOM     32  O   UNL     1      -7.297  87.324 -10.206  1.00  0.00    -0.285 OA
ATOM     33  C   UNL     1      -4.162  87.871  -8.564  1.00  0.00     0.146 A 
ATOM     34  C   UNL     1      -5.162  85.742  -9.216  1.00  0.00     0.134 A 
ATOM     35  C   UNL     1      -3.053  87.189  -8.056  1.00  0.00     0.094 A 
ATOM     36  C   UNL     1      -4.038  85.076  -8.702  1.00  0.00     0.093 A 
ATOM     37  C   UNL     1      -2.986  85.794  -8.129  1.00  0.00     0.123 A 
BRANCH  28  38
ATOM     38  C   UNL     1      -5.181  91.384  -8.694  1.00  0.00     0.025 A 
ATOM     39  C   UNL     1      -4.494  92.246  -9.566  1.00  0.00     0.062 A 
ATOM     40  C   UNL     1      -5.870  91.921  -7.597  1.00  0.00     0.016 A 
ATOM     41  C   UNL     1      -4.463  93.626  -9.320  1.00  0.00     0.158 A 
ATOM     42  C   UNL     1      -5.836  93.296  -7.349  1.00  0.00     0.051 A 
ATOM     43  C   UNL     1      -5.129  94.151  -8.205  1.00  0.00     0.157 A 
BRANCH  41  44
ATOM     44  O   UNL     1      -3.774  94.480 -10.178  1.00  0.00    -0.504 OA
ATOM     45  H   UNL     1      -3.250  94.128 -10.971  1.00  0.00     0.293 HD
ENDBRANCH  41  44
BRANCH  43  46
ATOM     46  O   UNL     1      -5.086  95.520  -7.957  1.00  0.00    -0.504 OA
ATOM     47  H   UNL     1      -5.259  95.897  -7.032  1.00  0.00     0.293 HD
ENDBRANCH  43  46
ENDBRANCH  28  38
BRANCH  34  48
ATOM     48  O   UNL     1      -6.194  84.997  -9.790  1.00  0.00    -0.507 OA
ATOM     49  H   UNL     1      -6.259  83.993  -9.666  1.00  0.00     0.293 HD
ENDBRANCH  34  48
BRANCH  37  50
ATOM     50  O   UNL     1      -1.875  85.110  -7.638  1.00  0.00    -0.508 OA
ATOM     51  H   UNL     1      -0.931  85.408  -7.853  1.00  0.00     0.293 HD
ENDBRANCH  37  50
ENDBRANCH  26  27
ENDBRANCH   5  26
BRANCH   4  52
ATOM     52  O   UNL     1      -9.743  88.907 -11.316  1.00  0.00    -0.384 OA
ATOM     53  H   UNL     1      -9.345  88.777 -10.416  1.00  0.00     0.211 HD
ENDBRANCH   4  52
TORSDOF 16
ENDMDL
MODEL 7
REMARK VINA RESULT:    -6.053      2.329      6.326
REMARK INTER + INTRA:         -12.487
REMARK INTER:                  -8.967
REMARK INTRA:                  -3.520
REMARK UNBOUND:                -2.541
REMARK SMILES C[C@H]1O[C@H](OC[C@@H]2O[C@@H](Oc3c(-c4ccc(O)c(O)c4)oc4cc(O)cc(O)c4c3=O)[C@@H](O)[C@H](O)[C@@H]2O)[C@@H](O)[C@H](O)[C@@H]1O
REMARK SMILES IDX 7 1 36 2 34 3 32 4 9 5 8 6 6 7 5 8 4 9 1 10 2 11 42 12 3 13
REMARK SMILES IDX 40 14 38 15 43 16 41 18 39 20 37 22 35 24 10 26 11 27 12 28
REMARK SMILES IDX 30 29 21 30 29 31 31 32 22 33 27 34 23 35 26 36 24 37 13 38
REMARK SMILES IDX 20 39 14 40 18 41 15 42 16 43 19 44 17 46 28 48 25 50 33 52
REMARK H PARENT 43 17 41 19 39 21 37 23 35 25 19 45 17 47 28 49 25 51 33 53
REMARK Flexibility Score: inf
ROOT
ATOM      1  C   UNL     1      -8.834  85.756  -7.932  1.00  0.00     0.180 C 
ATOM      2  C   UNL     1      -7.495  85.091  -7.502  1.00  0.00     0.177 C 
ATOM      3  C   UNL     1      -6.309  85.756  -8.230  1.00  0.00     0.180 C 
ATOM      4  C   UNL     1      -6.591  85.847  -9.742  1.00  0.00     0.214 C 
ATOM      5  C   UNL     1      -7.977  86.472  -9.999  1.00  0.00     0.339 C 
ATOM      6  O   UNL     1      -8.992  85.725  -9.345  1.00  0.00    -0.332 OA
ENDROOT
BRANCH   1   7
ATOM      7  C   UNL     1     -10.041  85.060  -7.287  1.00  0.00     0.198 C 
BRANCH   7   8
ATOM      8  O   UNL     1     -10.989  84.707  -8.279  1.00  0.00    -0.347 OA
BRANCH   8   9
ATOM      9  C   UNL     1     -11.578  83.447  -8.004  1.00  0.00     0.281 C 
ATOM     10  C   UNL     1     -13.635  83.083 -11.031  1.00  0.00     0.041 C 
ATOM     11  C   UNL     1     -12.349  83.203 -10.211  1.00  0.00     0.150 C 
ATOM     12  C   UNL     1     -11.383  82.034 -10.527  1.00  0.00     0.174 C 
ATOM     13  O   UNL     1     -12.703  83.202  -8.838  1.00  0.00    -0.344 OA
ATOM     14  C   UNL     1     -10.141  82.080  -9.613  1.00  0.00     0.179 C 
ATOM     15  C   UNL     1     -10.532  82.323  -8.138  1.00  0.00     0.202 C 
BRANCH  12  16
ATOM     16  O   UNL     1     -10.972  82.079 -11.872  1.00  0.00    -0.388 OA
ATOM     17  H   UNL     1     -10.734  83.021 -12.073  1.00  0.00     0.211 HD
ENDBRANCH  12  16
BRANCH  14  18
ATOM     18  O   UNL     1      -9.184  83.021 -10.046  1.00  0.00    -0.387 OA
ATOM     19  H   UNL     1      -9.365  83.245 -10.993  1.00  0.00     0.211 HD
ENDBRANCH  14  18
BRANCH  15  20
ATOM     20  O   UNL     1     -11.068  81.144  -7.592  1.00  0.00    -0.385 OA
ATOM     21  H   UNL     1     -10.666  80.385  -8.092  1.00  0.00     0.211 HD
ENDBRANCH  15  20
ENDBRANCH   8   9
ENDBRANCH   7   8
ENDBRANCH   1   7
BRANCH   2  22
ATOM     22  O   UNL     1      -7.503  83.699  -7.710  1.00  0.00    -0.387 OA
ATOM     23  H   UNL     1      -7.398  83.253  -6.832  1.00  0.00     0.211 HD
ENDBRANCH   2  22
BRANCH   3  24
ATOM     24  O   UNL     1      -5.129  85.026  -8.016  1.00  0.00    -0.387 OA
ATOM     25  H   UNL     1      -4.380  85.674  -8.072  1.00  0.00     0.211 HD
ENDBRANCH   3  24
BRANCH   5  26
ATOM     26  O   UNL     1      -8.017  87.848  -9.590  1.00  0.00    -0.454 OA
BRANCH  26  27
ATOM     27  C   UNL     1      -8.367  88.910 -10.437  1.00  0.00     0.214 A 
ATOM     28  C   UNL     1      -9.708  89.296 -10.658  1.00  0.00     0.180 A 
ATOM     29  C   UNL     1      -7.350  89.619 -11.087  1.00  0.00     0.239 A 
ATOM     30  O   UNL     1      -9.984  90.236 -11.558  1.00  0.00    -0.452 OA
ATOM     31  C   UNL     1      -7.679  90.621 -12.021  1.00  0.00     0.111 A 
ATOM     32  O   UNL     1      -6.146  89.335 -10.836  1.00  0.00    -0.285 OA
ATOM     33  C   UNL     1      -9.051  90.888 -12.242  1.00  0.00     0.146 A 
ATOM     34  C   UNL     1      -6.708  91.349 -12.751  1.00  0.00     0.134 A 
ATOM     35  C   UNL     1      -9.439  91.853 -13.175  1.00  0.00     0.094 A 
ATOM     36  C   UNL     1      -7.119  92.312 -13.686  1.00  0.00     0.093 A 
ATOM     37  C   UNL     1      -8.476  92.561 -13.902  1.00  0.00     0.123 A 
BRANCH  28  38
ATOM     38  C   UNL     1     -10.835  88.711  -9.902  1.00  0.00     0.025 A 
ATOM     39  C   UNL     1     -11.850  87.995 -10.559  1.00  0.00     0.062 A 
ATOM     40  C   UNL     1     -10.879  88.843  -8.507  1.00  0.00     0.016 A 
ATOM     41  C   UNL     1     -12.919  87.451  -9.832  1.00  0.00     0.158 A 
ATOM     42  C   UNL     1     -11.946  88.305  -7.782  1.00  0.00     0.051 A 
ATOM     43  C   UNL     1     -12.970  87.613  -8.442  1.00  0.00     0.157 A 
BRANCH  41  44
ATOM     44  O   UNL     1     -13.930  86.748 -10.484  1.00  0.00    -0.504 OA
ATOM     45  H   UNL     1     -13.928  86.626 -11.490  1.00  0.00     0.293 HD
ENDBRANCH  41  44
BRANCH  43  46
ATOM     46  O   UNL     1     -14.039  87.082  -7.725  1.00  0.00    -0.504 OA
ATOM     47  H   UNL     1     -14.267  86.094  -7.766  1.00  0.00     0.293 HD
ENDBRANCH  43  46
ENDBRANCH  28  38
BRANCH  34  48
ATOM     48  O   UNL     1      -5.344  91.117 -12.564  1.00  0.00    -0.507 OA
ATOM     49  H   UNL     1      -4.893  91.283 -11.672  1.00  0.00     0.293 HD
ENDBRANCH  34  48
BRANCH  37  50
ATOM     50  O   UNL     1      -8.858  93.513 -14.846  1.00  0.00    -0.508 OA
ATOM     51  H   UNL     1      -9.440  94.303 -14.595  1.00  0.00     0.293 HD
ENDBRANCH  37  50
ENDBRANCH  26  27
ENDBRANCH   5  26
BRANCH   4  52
ATOM     52  O   UNL     1      -5.582  86.552 -10.422  1.00  0.00    -0.384 OA
ATOM     53  H   UNL     1      -5.565  86.236 -11.363  1.00  0.00     0.211 HD
ENDBRANCH   4  52
TORSDOF 16
ENDMDL
MODEL 8
REMARK VINA RESULT:    -5.934     10.594     14.502
REMARK INTER + INTRA:         -12.290
REMARK INTER:                  -9.329
REMARK INTRA:                  -2.961
REMARK UNBOUND:                -2.541
REMARK SMILES C[C@H]1O[C@H](OC[C@@H]2O[C@@H](Oc3c(-c4ccc(O)c(O)c4)oc4cc(O)cc(O)c4c3=O)[C@@H](O)[C@H](O)[C@@H]2O)[C@@H](O)[C@H](O)[C@@H]1O
REMARK SMILES IDX 7 1 36 2 34 3 32 4 9 5 8 6 6 7 5 8 4 9 1 10 2 11 42 12 3 13
REMARK SMILES IDX 40 14 38 15 43 16 41 18 39 20 37 22 35 24 10 26 11 27 12 28
REMARK SMILES IDX 30 29 21 30 29 31 31 32 22 33 27 34 23 35 26 36 24 37 13 38
REMARK SMILES IDX 20 39 14 40 18 41 15 42 16 43 19 44 17 46 28 48 25 50 33 52
REMARK H PARENT 43 17 41 19 39 21 37 23 35 25 19 45 17 47 28 49 25 51 33 53
REMARK Flexibility Score: inf
ROOT
ATOM      1  C   UNL     1      -3.596  93.931 -20.453  1.00  0.00     0.180 C 
ATOM      2  C   UNL     1      -3.161  92.768 -21.389  1.00  0.00     0.177 C 
ATOM      3  C   UNL     1      -3.067  91.448 -20.596  1.00  0.00     0.180 C 
ATOM      4  C   UNL     1      -2.247  91.654 -19.308  1.00  0.00     0.214 C 
ATOM      5  C   UNL     1      -2.764  92.878 -18.525  1.00  0.00     0.339 C 
ATOM      6  O   UNL     1      -2.725  94.044 -19.335  1.00  0.00    -0.332 OA
ENDROOT
BRANCH   1   7
ATOM      7  C   UNL     1      -3.617  95.274 -21.197  1.00  0.00     0.198 C 
BRANCH   7   8
ATOM      8  O   UNL     1      -4.489  95.200 -22.312  1.00  0.00    -0.347 OA
BRANCH   8   9
ATOM      9  C   UNL     1      -3.872  95.712 -23.482  1.00  0.00     0.281 C 
ATOM     10  C   UNL     1      -3.877  92.661 -25.535  1.00  0.00     0.041 C 
ATOM     11  C   UNL     1      -4.478  93.832 -24.755  1.00  0.00     0.150 C 
ATOM     12  C   UNL     1      -5.477  94.624 -25.636  1.00  0.00     0.174 C 
ATOM     13  O   UNL     1      -3.414  94.668 -24.331  1.00  0.00    -0.344 OA
ATOM     14  C   UNL     1      -5.990  95.879 -24.898  1.00  0.00     0.179 C 
ATOM     15  C   UNL     1      -4.834  96.656 -24.230  1.00  0.00     0.202 C 
BRANCH  12  16
ATOM     16  O   UNL     1      -6.571  93.816 -25.994  1.00  0.00    -0.388 OA
ATOM     17  H   UNL     1      -6.777  94.009 -26.946  1.00  0.00     0.211 HD
ENDBRANCH  12  16
BRANCH  14  18
ATOM     18  O   UNL     1      -7.007  95.581 -23.967  1.00  0.00    -0.387 OA
ATOM     19  H   UNL     1      -6.985  96.258 -23.245  1.00  0.00     0.211 HD
ENDBRANCH  14  18
BRANCH  15  20
ATOM     20  O   UNL     1      -4.106  97.353 -25.209  1.00  0.00    -0.385 OA
ATOM     21  H   UNL     1      -4.617  98.181 -25.414  1.00  0.00     0.211 HD
ENDBRANCH  15  20
ENDBRANCH   8   9
ENDBRANCH   7   8
ENDBRANCH   1   7
BRANCH   2  22
ATOM     22  O   UNL     1      -1.953  93.046 -22.056  1.00  0.00    -0.387 OA
ATOM     23  H   UNL     1      -2.159  93.583 -22.862  1.00  0.00     0.211 HD
ENDBRANCH   2  22
BRANCH   3  24
ATOM     24  O   UNL     1      -2.470  90.446 -21.377  1.00  0.00    -0.387 OA
ATOM     25  H   UNL     1      -3.203  89.851 -21.684  1.00  0.00     0.211 HD
ENDBRANCH   3  24
BRANCH   5  26
ATOM     26  O   UNL     1      -4.089  92.656 -18.019  1.00  0.00    -0.454 OA
BRANCH  26  27
ATOM     27  C   UNL     1      -4.515  93.035 -16.737  1.00  0.00     0.214 A 
ATOM     28  C   UNL     1      -5.297  94.189 -16.507  1.00  0.00     0.180 A 
ATOM     29  C   UNL     1      -4.156  92.239 -15.643  1.00  0.00     0.239 A 
ATOM     30  O   UNL     1      -5.575  94.559 -15.260  1.00  0.00    -0.452 OA
ATOM     31  C   UNL     1      -4.483  92.653 -14.337  1.00  0.00     0.111 A 
ATOM     32  O   UNL     1      -3.526  91.165 -15.846  1.00  0.00    -0.285 OA
ATOM     33  C   UNL     1      -5.199  93.866 -14.192  1.00  0.00     0.146 A 
ATOM     34  C   UNL     1      -4.116  91.927 -13.179  1.00  0.00     0.134 A 
ATOM     35  C   UNL     1      -5.529  94.340 -12.920  1.00  0.00     0.094 A 
ATOM     36  C   UNL     1      -4.455  92.422 -11.910  1.00  0.00     0.093 A 
ATOM     37  C   UNL     1      -5.153  93.624 -11.779  1.00  0.00     0.123 A 
BRANCH  28  38
ATOM     38  C   UNL     1      -5.851  95.003 -17.609  1.00  0.00     0.025 A 
ATOM     39  C   UNL     1      -6.992  94.581 -18.313  1.00  0.00     0.062 A 
ATOM     40  C   UNL     1      -5.254  96.228 -17.938  1.00  0.00     0.016 A 
ATOM     41  C   UNL     1      -7.505  95.358 -19.362  1.00  0.00     0.158 A 
ATOM     42  C   UNL     1      -5.762  97.001 -18.986  1.00  0.00     0.051 A 
ATOM     43  C   UNL     1      -6.885  96.565 -19.704  1.00  0.00     0.157 A 
BRANCH  41  44
ATOM     44  O   UNL     1      -8.631  94.935 -20.067  1.00  0.00    -0.504 OA
ATOM     45  H   UNL     1      -9.550  95.317 -19.879  1.00  0.00     0.293 HD
ENDBRANCH  41  44
BRANCH  43  46
ATOM     46  O   UNL     1      -7.390  97.328 -20.754  1.00  0.00    -0.504 OA
ATOM     47  H   UNL     1      -8.143  96.989 -21.341  1.00  0.00     0.293 HD
ENDBRANCH  43  46
ENDBRANCH  28  38
BRANCH  34  48
ATOM     48  O   UNL     1      -3.410  90.726 -13.277  1.00  0.00    -0.507 OA
ATOM     49  H   UNL     1      -2.398  90.698 -13.235  1.00  0.00     0.293 HD
ENDBRANCH  34  48
BRANCH  37  50
ATOM     50  O   UNL     1      -5.466  94.101 -10.506  1.00  0.00    -0.508 OA
ATOM     51  H   UNL     1      -5.470  95.092 -10.298  1.00  0.00     0.293 HD
ENDBRANCH  37  50
ENDBRANCH  26  27
ENDBRANCH   5  26
BRANCH   4  52
ATOM     52  O   UNL     1      -2.237  90.502 -18.502  1.00  0.00    -0.384 OA
ATOM     53  H   UNL     1      -1.888  89.748 -19.046  1.00  0.00     0.211 HD
ENDBRANCH   4  52
TORSDOF 16
ENDMDL
MODEL 9
REMARK VINA RESULT:    -5.896      3.820      7.234
REMARK INTER + INTRA:         -12.228
REMARK INTER:                 -10.087
REMARK INTRA:                  -2.140
REMARK UNBOUND:                -2.541
REMARK SMILES C[C@H]1O[C@H](OC[C@@H]2O[C@@H](Oc3c(-c4ccc(O)c(O)c4)oc4cc(O)cc(O)c4c3=O)[C@@H](O)[C@H](O)[C@@H]2O)[C@@H](O)[C@H](O)[C@@H]1O
REMARK SMILES IDX 7 1 36 2 34 3 32 4 9 5 8 6 6 7 5 8 4 9 1 10 2 11 42 12 3 13
REMARK SMILES IDX 40 14 38 15 43 16 41 18 39 20 37 22 35 24 10 26 11 27 12 28
REMARK SMILES IDX 30 29 21 30 29 31 31 32 22 33 27 34 23 35 26 36 24 37 13 38
REMARK SMILES IDX 20 39 14 40 18 41 15 42 16 43 19 44 17 46 28 48 25 50 33 52
REMARK H PARENT 43 17 41 19 39 21 37 23 35 25 19 45 17 47 28 49 25 51 33 53
REMARK Flexibility Score: inf
ROOT
ATOM      1  C   UNL     1      -6.851  89.975 -12.398  1.00  0.00     0.180 C 
ATOM      2  C   UNL     1      -7.885  91.069 -12.788  1.00  0.00     0.177 C 
ATOM      3  C   UNL     1      -8.850  91.335 -11.615  1.00  0.00     0.180 C 
ATOM      4  C   UNL     1      -9.408  90.008 -11.068  1.00  0.00     0.214 C 
ATOM      5  C   UNL     1      -8.264  89.012 -10.788  1.00  0.00     0.339 C 
ATOM      6  O   UNL     1      -7.498  88.787 -11.963  1.00  0.00    -0.332 OA
ENDROOT
BRANCH   1   7
ATOM      7  C   UNL     1      -5.928  89.628 -13.575  1.00  0.00     0.198 C 
BRANCH   7   8
ATOM      8  O   UNL     1      -5.412  90.813 -14.157  1.00  0.00    -0.347 OA
BRANCH   8   9
ATOM      9  C   UNL     1      -5.341  90.705 -15.569  1.00  0.00     0.281 C 
ATOM     10  C   UNL     1      -7.508  93.531 -16.487  1.00  0.00     0.041 C 
ATOM     11  C   UNL     1      -6.284  92.834 -15.889  1.00  0.00     0.150 C 
ATOM     12  C   UNL     1      -4.975  93.442 -16.449  1.00  0.00     0.174 C 
ATOM     13  O   UNL     1      -6.370  91.453 -16.204  1.00  0.00    -0.344 OA
ATOM     14  C   UNL     1      -3.742  92.660 -15.947  1.00  0.00     0.179 C 
ATOM     15  C   UNL     1      -3.949  91.135 -16.074  1.00  0.00     0.202 C 
BRANCH  12  16
ATOM     16  O   UNL     1      -4.853  94.792 -16.073  1.00  0.00    -0.388 OA
ATOM     17  H   UNL     1      -3.926  95.073 -16.289  1.00  0.00     0.211 HD
ENDBRANCH  12  16
BRANCH  14  18
ATOM     18  O   UNL     1      -3.375  93.015 -14.633  1.00  0.00    -0.387 OA
ATOM     19  H   UNL     1      -2.389  92.985 -14.559  1.00  0.00     0.211 HD
ENDBRANCH  14  18
BRANCH  15  20
ATOM     20  O   UNL     1      -3.823  90.752 -17.420  1.00  0.00    -0.385 OA
ATOM     21  H   UNL     1      -3.488  89.816 -17.424  1.00  0.00     0.211 HD
ENDBRANCH  15  20
ENDBRANCH   8   9
ENDBRANCH   7   8
ENDBRANCH   1   7
BRANCH   2  22
ATOM     22  O   UNL     1      -8.590  90.739 -13.961  1.00  0.00    -0.387 OA
ATOM     23  H   UNL     1      -9.378  91.336 -14.028  1.00  0.00     0.211 HD
ENDBRANCH   2  22
BRANCH   3  24
ATOM     24  O   UNL     1      -9.911  92.156 -12.028  1.00  0.00    -0.387 OA
ATOM     25  H   UNL     1     -10.430  91.635 -12.696  1.00  0.00     0.211 HD
ENDBRANCH   3  24
BRANCH   5  26
ATOM     26  O   UNL     1      -7.425  89.464  -9.715  1.00  0.00    -0.454 OA
BRANCH  26  27
ATOM     27  C   UNL     1      -6.317  88.752  -9.230  1.00  0.00     0.214 A 
ATOM     28  C   UNL     1      -5.050  89.350  -9.049  1.00  0.00     0.180 A 
ATOM     29  C   UNL     1      -6.471  87.399  -8.909  1.00  0.00     0.239 A 
ATOM     30  O   UNL     1      -4.011  88.599  -8.694  1.00  0.00    -0.452 OA
ATOM     31  C   UNL     1      -5.352  86.638  -8.519  1.00  0.00     0.111 A 
ATOM     32  O   UNL     1      -7.616  86.875  -8.991  1.00  0.00    -0.285 OA
ATOM     33  C   UNL     1      -4.102  87.300  -8.441  1.00  0.00     0.146 A 
ATOM     34  C   UNL     1      -5.419  85.255  -8.223  1.00  0.00     0.134 A 
ATOM     35  C   UNL     1      -2.952  86.591  -8.085  1.00  0.00     0.094 A 
ATOM     36  C   UNL     1      -4.251  84.562  -7.869  1.00  0.00     0.093 A 
ATOM     37  C   UNL     1      -3.023  85.223  -7.805  1.00  0.00     0.123 A 
BRANCH  28  38
ATOM     38  C   UNL     1      -4.829  90.802  -9.213  1.00  0.00     0.025 A 
ATOM     39  C   UNL     1      -4.712  91.374 -10.492  1.00  0.00     0.062 A 
ATOM     40  C   UNL     1      -4.767  91.629  -8.082  1.00  0.00     0.016 A 
ATOM     41  C   UNL     1      -4.495  92.752 -10.636  1.00  0.00     0.158 A 
ATOM     42  C   UNL     1      -4.546  93.002  -8.224  1.00  0.00     0.051 A 
ATOM     43  C   UNL     1      -4.405  93.566  -9.500  1.00  0.00     0.157 A 
BRANCH  41  44
ATOM     44  O   UNL     1      -4.369  93.318 -11.903  1.00  0.00    -0.504 OA
ATOM     45  H   UNL     1      -3.530  93.812 -12.184  1.00  0.00     0.293 HD
ENDBRANCH  41  44
BRANCH  43  46
ATOM     46  O   UNL     1      -4.177  94.932  -9.645  1.00  0.00    -0.504 OA
ATOM     47  H   UNL     1      -4.403  95.418 -10.506  1.00  0.00     0.293 HD
ENDBRANCH  43  46
ENDBRANCH  28  38
BRANCH  34  48
ATOM     48  O   UNL     1      -6.630  84.564  -8.286  1.00  0.00    -0.507 OA
ATOM     49  H   UNL     1      -7.183  84.380  -7.457  1.00  0.00     0.293 HD
ENDBRANCH  34  48
BRANCH  37  50
ATOM     50  O   UNL     1      -1.875  84.508  -7.464  1.00  0.00    -0.508 OA
ATOM     51  H   UNL     1      -1.311  84.763  -6.663  1.00  0.00     0.293 HD
ENDBRANCH  37  50
ENDBRANCH  26  27
ENDBRANCH   5  26
BRANCH   4  52
ATOM     52  O   UNL     1     -10.202  90.204  -9.923  1.00  0.00    -0.384 OA
ATOM     53  H   UNL     1     -11.127  90.405 -10.221  1.00  0.00     0.211 HD
ENDBRANCH   4  52
TORSDOF 16
ENDMDL
