MODEL 1
REMARK VINA RESULT:    -4.220      0.000      0.000
REMARK INTER + INTRA:          -7.651
REMARK INTER:                  -6.687
REMARK INTRA:                  -0.964
REMARK UNBOUND:                -0.964
REMARK SMILES CCCCCCCCCCCC(=O)[O-]
REMARK SMILES IDX 7 1 8 2 9 3 10 4 11 5 12 6 13 7 14 8 6 9 5 10 4 11 3 12 2 13
REMARK SMILES IDX 1 14
REMARK H PARENT
REMARK Flexibility Score: inf
ROOT
ATOM      1  C   UNL     1     173.484 171.190 150.255  1.00  0.00     0.000 C 
ENDROOT
BRANCH   1   2
ATOM      2  C   UNL     1     173.265 172.691 149.997  1.00  0.00     0.000 C 
BRANCH   2   3
ATOM      3  C   UNL     1     174.547 173.489 149.691  1.00  0.00     0.000 C 
BRANCH   3   4
ATOM      4  C   UNL     1     175.065 174.317 150.887  1.00  0.00     0.006 C 
BRANCH   4   5
ATOM      5  C   UNL     1     174.117 174.257 152.091  1.00  0.00     0.053 C 
BRANCH   5   6
ATOM      6  C   UNL     1     174.848 173.786 153.310  1.00  0.00     0.041 C 
ATOM      7  O   UNL     1     174.951 174.536 154.316  1.00  0.00    -0.550 OA
ATOM      8  O   UNL     1     175.459 172.538 153.316  1.00  0.00    -0.550 OA
ENDBRANCH   5   6
ENDBRANCH   4   5
ENDBRANCH   3   4
ENDBRANCH   2   3
ENDBRANCH   1   2
BRANCH   1   9
ATOM      9  C   UNL     1     174.961 170.780 150.157  1.00  0.00     0.000 C 
BRANCH   9  10
ATOM     10  C   UNL     1     175.257 169.579 151.067  1.00  0.00    -0.000 C 
BRANCH  10  11
ATOM     11  C   UNL     1     174.495 168.308 150.646  1.00  0.00    -0.000 C 
BRANCH  11  12
ATOM     12  C   UNL     1     174.744 167.848 149.196  1.00  0.00    -0.000 C 
BRANCH  12  13
ATOM     13  C   UNL     1     173.485 167.401 148.431  1.00  0.00    -0.003 C 
ATOM     14  C   UNL     1     172.211 168.076 148.936  1.00  0.00     0.004 C 
ENDBRANCH  12  13
ENDBRANCH  11  12
ENDBRANCH  10  11
ENDBRANCH   9  10
ENDBRANCH   1   9
TORSDOF 10
ENDMDL
MODEL 2
REMARK VINA RESULT:    -4.094      3.166      6.301
REMARK INTER + INTRA:          -7.451
REMARK INTER:                  -6.420
REMARK INTRA:                  -1.031
REMARK UNBOUND:                -0.964
REMARK SMILES CCCCCCCCCCCC(=O)[O-]
REMARK SMILES IDX 7 1 8 2 9 3 10 4 11 5 12 6 13 7 14 8 6 9 5 10 4 11 3 12 2 13
REMARK SMILES IDX 1 14
REMARK H PARENT
REMARK Flexibility Score: inf
ROOT
ATOM      1  C   UNL     1     173.497 171.035 150.257  1.00  0.00     0.000 C 
ENDROOT
BRANCH   1   2
ATOM      2  C   UNL     1     174.961 170.630 150.499  1.00  0.00     0.000 C 
BRANCH   2   3
ATOM      3  C   UNL     1     175.410 169.354 149.759  1.00  0.00     0.000 C 
BRANCH   3   4
ATOM      4  C   UNL     1     174.506 168.131 150.023  1.00  0.00     0.006 C 
BRANCH   4   5
ATOM      5  C   UNL     1     173.960 167.520 148.726  1.00  0.00     0.053 C 
BRANCH   5   6
ATOM      6  C   UNL     1     172.467 167.617 148.689  1.00  0.00     0.041 C 
ATOM      7  O   UNL     1     171.911 168.623 148.175  1.00  0.00    -0.550 OA
ATOM      8  O   UNL     1     171.690 166.621 149.267  1.00  0.00    -0.550 OA
ENDBRANCH   5   6
ENDBRANCH   4   5
ENDBRANCH   3   4
ENDBRANCH   2   3
ENDBRANCH   1   2
BRANCH   1   9
ATOM      9  C   UNL     1     173.311 172.556 150.149  1.00  0.00     0.000 C 
BRANCH   9  10
ATOM     10  C   UNL     1     174.638 173.245 149.800  1.00  0.00    -0.000 C 
BRANCH  10  11
ATOM     11  C   UNL     1     175.080 174.267 150.864  1.00  0.00    -0.000 C 
BRANCH  11  12
ATOM     12  C   UNL     1     174.382 174.129 152.231  1.00  0.00    -0.000 C 
BRANCH  12  13
ATOM     13  C   UNL     1     175.289 173.649 153.379  1.00  0.00    -0.003 C 
ATOM     14  C   UNL     1     174.931 172.249 153.873  1.00  0.00     0.004 C 
ENDBRANCH  12  13
ENDBRANCH  11  12
ENDBRANCH  10  11
ENDBRANCH   9  10
ENDBRANCH   1   9
TORSDOF 10
ENDMDL
MODEL 3
REMARK VINA RESULT:    -4.076      1.254      2.005
REMARK INTER + INTRA:          -7.422
REMARK INTER:                  -6.285
REMARK INTRA:                  -1.137
REMARK UNBOUND:                -0.964
REMARK SMILES CCCCCCCCCCCC(=O)[O-]
REMARK SMILES IDX 7 1 8 2 9 3 10 4 11 5 12 6 13 7 14 8 6 9 5 10 4 11 3 12 2 13
REMARK SMILES IDX 1 14
REMARK H PARENT
REMARK Flexibility Score: inf
ROOT
ATOM      1  C   UNL     1     173.373 172.660 150.083  1.00  0.00     0.000 C 
ENDROOT
BRANCH   1   2
ATOM      2  C   UNL     1     174.625 173.538 149.914  1.00  0.00     0.000 C 
BRANCH   2   3
ATOM      3  C   UNL     1     175.066 174.288 151.186  1.00  0.00     0.000 C 
BRANCH   3   4
ATOM      4  C   UNL     1     174.111 174.098 152.384  1.00  0.00     0.006 C 
BRANCH   4   5
ATOM      5  C   UNL     1     174.813 173.477 153.597  1.00  0.00     0.053 C 
BRANCH   5   6
ATOM      6  C   UNL     1     174.505 172.015 153.689  1.00  0.00     0.041 C 
ATOM      7  O   UNL     1     175.439 171.173 153.740  1.00  0.00    -0.550 OA
ATOM      8  O   UNL     1     173.186 171.580 153.666  1.00  0.00    -0.550 OA
ENDBRANCH   5   6
ENDBRANCH   4   5
ENDBRANCH   3   4
ENDBRANCH   2   3
ENDBRANCH   1   2
BRANCH   1   9
ATOM      9  C   UNL     1     173.703 171.162 150.150  1.00  0.00     0.000 C 
BRANCH   9  10
ATOM     10  C   UNL     1     175.221 170.935 150.135  1.00  0.00    -0.000 C 
BRANCH  10  11
ATOM     11  C   UNL     1     175.619 169.514 150.577  1.00  0.00    -0.000 C 
BRANCH  11  12
ATOM     12  C   UNL     1     174.440 168.594 150.951  1.00  0.00    -0.000 C 
BRANCH  12  13
ATOM     13  C   UNL     1     174.402 167.249 150.203  1.00  0.00    -0.003 C 
ATOM     14  C   UNL     1     174.429 167.413 148.685  1.00  0.00     0.004 C 
ENDBRANCH  12  13
ENDBRANCH  11  12
ENDBRANCH  10  11
ENDBRANCH   9  10
ENDBRANCH   1   9
TORSDOF 10
ENDMDL
MODEL 4
REMARK VINA RESULT:    -4.038      3.183      5.768
REMARK INTER + INTRA:          -7.362
REMARK INTER:                  -5.983
REMARK INTRA:                  -1.379
REMARK UNBOUND:                -0.964
REMARK SMILES CCCCCCCCCCCC(=O)[O-]
REMARK SMILES IDX 7 1 8 2 9 3 10 4 11 5 12 6 13 7 14 8 6 9 5 10 4 11 3 12 2 13
REMARK SMILES IDX 1 14
REMARK H PARENT
REMARK Flexibility Score: inf
ROOT
ATOM      1  C   UNL     1     173.241 172.609 150.216  1.00  0.00     0.000 C 
ENDROOT
BRANCH   1   2
ATOM      2  C   UNL     1     173.553 171.104 150.145  1.00  0.00     0.000 C 
BRANCH   2   3
ATOM      3  C   UNL     1     175.052 170.751 150.191  1.00  0.00     0.000 C 
BRANCH   3   4
ATOM      4  C   UNL     1     175.363 169.454 150.968  1.00  0.00     0.006 C 
BRANCH   4   5
ATOM      5  C   UNL     1     174.222 168.433 150.876  1.00  0.00     0.053 C 
BRANCH   5   6
ATOM      6  C   UNL     1     174.612 167.290 149.992  1.00  0.00     0.041 C 
ATOM      7  O   UNL     1     174.639 167.437 148.742  1.00  0.00    -0.550 OA
ATOM      8  O   UNL     1     174.898 166.048 150.545  1.00  0.00    -0.550 OA
ENDBRANCH   5   6
ENDBRANCH   4   5
ENDBRANCH   3   4
ENDBRANCH   2   3
ENDBRANCH   1   2
BRANCH   1   9
ATOM      9  C   UNL     1     174.403 173.481 149.717  1.00  0.00     0.000 C 
BRANCH   9  10
ATOM     10  C   UNL     1     175.026 174.276 150.874  1.00  0.00    -0.000 C 
BRANCH  10  11
ATOM     11  C   UNL     1     174.283 174.074 152.207  1.00  0.00    -0.000 C 
BRANCH  11  12
ATOM     12  C   UNL     1     175.167 173.610 153.382  1.00  0.00    -0.000 C 
BRANCH  12  13
ATOM     13  C   UNL     1     174.999 172.131 153.777  1.00  0.00    -0.003 C 
ATOM     14  C   UNL     1     173.536 171.700 153.858  1.00  0.00     0.004 C 
ENDBRANCH  12  13
ENDBRANCH  11  12
ENDBRANCH  10  11
ENDBRANCH   9  10
ENDBRANCH   1   9
TORSDOF 10
ENDMDL
MODEL 5
REMARK VINA RESULT:    -3.983      2.390      5.075
REMARK INTER + INTRA:          -7.275
REMARK INTER:                  -5.765
REMARK INTRA:                  -1.510
REMARK UNBOUND:                -0.964
REMARK SMILES CCCCCCCCCCCC(=O)[O-]
REMARK SMILES IDX 7 1 8 2 9 3 10 4 11 5 12 6 13 7 14 8 6 9 5 10 4 11 3 12 2 13
REMARK SMILES IDX 1 14
REMARK H PARENT
REMARK Flexibility Score: inf
ROOT
ATOM      1  C   UNL     1     172.694 172.476 150.307  1.00  0.00     0.000 C 
ENDROOT
BRANCH   1   2
ATOM      2  C   UNL     1     173.368 171.105 150.122  1.00  0.00     0.000 C 
BRANCH   2   3
ATOM      3  C   UNL     1     174.908 171.128 150.184  1.00  0.00     0.000 C 
BRANCH   3   4
ATOM      4  C   UNL     1     175.534 169.784 150.613  1.00  0.00     0.006 C 
BRANCH   4   5
ATOM      5  C   UNL     1     174.585 168.953 151.487  1.00  0.00     0.053 C 
BRANCH   5   6
ATOM      6  C   UNL     1     175.319 168.384 152.661  1.00  0.00     0.041 C 
ATOM      7  O   UNL     1     175.873 169.149 153.492  1.00  0.00    -0.550 OA
ATOM      8  O   UNL     1     175.432 167.007 152.810  1.00  0.00    -0.550 OA
ENDBRANCH   5   6
ENDBRANCH   4   5
ENDBRANCH   3   4
ENDBRANCH   2   3
ENDBRANCH   1   2
BRANCH   1   9
ATOM      9  C   UNL     1     173.693 173.641 150.256  1.00  0.00     0.000 C 
BRANCH   9  10
ATOM     10  C   UNL     1     173.787 174.341 151.619  1.00  0.00    -0.000 C 
BRANCH  10  11
ATOM     11  C   UNL     1     175.080 173.997 152.382  1.00  0.00    -0.000 C 
BRANCH  11  12
ATOM     12  C   UNL     1     174.930 172.907 153.462  1.00  0.00    -0.000 C 
BRANCH  12  13
ATOM     13  C   UNL     1     173.489 172.668 153.949  1.00  0.00    -0.003 C 
ATOM     14  C   UNL     1     173.123 171.187 154.014  1.00  0.00     0.004 C 
ENDBRANCH  12  13
ENDBRANCH  11  12
ENDBRANCH  10  11
ENDBRANCH   9  10
ENDBRANCH   1   9
TORSDOF 10
ENDMDL
MODEL 6
REMARK VINA RESULT:    -3.958      2.454      5.378
REMARK INTER + INTRA:          -7.236
REMARK INTER:                  -6.133
REMARK INTRA:                  -1.103
REMARK UNBOUND:                -0.964
REMARK SMILES CCCCCCCCCCCC(=O)[O-]
REMARK SMILES IDX 7 1 8 2 9 3 10 4 11 5 12 6 13 7 14 8 6 9 5 10 4 11 3 12 2 13
REMARK SMILES IDX 1 14
REMARK H PARENT
REMARK Flexibility Score: inf
ROOT
ATOM      1  C   UNL     1     172.876 173.829 150.624  1.00  0.00     0.000 C 
ENDROOT
BRANCH   1   2
ATOM      2  C   UNL     1     173.885 172.969 149.843  1.00  0.00     0.000 C 
BRANCH   2   3
ATOM      3  C   UNL     1     173.784 171.454 150.109  1.00  0.00     0.000 C 
BRANCH   3   4
ATOM      4  C   UNL     1     175.118 170.809 150.545  1.00  0.00     0.006 C 
BRANCH   4   5
ATOM      5  C   UNL     1     175.016 169.283 150.660  1.00  0.00     0.053 C 
BRANCH   5   6
ATOM      6  C   UNL     1     174.962 168.869 152.098  1.00  0.00     0.041 C 
ATOM      7  O   UNL     1     173.872 168.907 152.727  1.00  0.00    -0.550 OA
ATOM      8  O   UNL     1     176.125 168.489 152.757  1.00  0.00    -0.550 OA
ENDBRANCH   5   6
ENDBRANCH   4   5
ENDBRANCH   3   4
ENDBRANCH   2   3
ENDBRANCH   1   2
BRANCH   1   9
ATOM      9  C   UNL     1     173.391 174.236 152.013  1.00  0.00     0.000 C 
BRANCH   9  10
ATOM     10  C   UNL     1     174.927 174.255 152.042  1.00  0.00    -0.000 C 
BRANCH  10  11
ATOM     11  C   UNL     1     175.507 173.707 153.359  1.00  0.00    -0.000 C 
BRANCH  11  12
ATOM     12  C   UNL     1     174.903 172.370 153.831  1.00  0.00    -0.000 C 
BRANCH  12  13
ATOM     13  C   UNL     1     174.349 172.378 155.268  1.00  0.00    -0.003 C 
ATOM     14  C   UNL     1     173.906 173.766 155.726  1.00  0.00     0.004 C 
ENDBRANCH  12  13
ENDBRANCH  11  12
ENDBRANCH  10  11
ENDBRANCH   9  10
ENDBRANCH   1   9
TORSDOF 10
ENDMDL
MODEL 7
REMARK VINA RESULT:    -3.933      2.730      4.079
REMARK INTER + INTRA:          -7.196
REMARK INTER:                  -5.585
REMARK INTRA:                  -1.611
REMARK UNBOUND:                -0.964
REMARK SMILES CCCCCCCCCCCC(=O)[O-]
REMARK SMILES IDX 7 1 8 2 9 3 10 4 11 5 12 6 13 7 14 8 6 9 5 10 4 11 3 12 2 13
REMARK SMILES IDX 1 14
REMARK H PARENT
REMARK Flexibility Score: inf
ROOT
ATOM      1  C   UNL     1     175.530 173.887 153.260  1.00  0.00     0.000 C 
ENDROOT
BRANCH   1   2
ATOM      2  C   UNL     1     174.374 174.294 152.332  1.00  0.00     0.000 C 
BRANCH   2   3
ATOM      3  C   UNL     1     174.530 173.841 150.867  1.00  0.00     0.000 C 
BRANCH   3   4
ATOM      4  C   UNL     1     173.198 173.778 150.089  1.00  0.00     0.006 C 
BRANCH   4   5
ATOM      5  C   UNL     1     172.021 173.364 150.982  1.00  0.00     0.053 C 
BRANCH   5   6
ATOM      6  C   UNL     1     170.963 174.422 150.976  1.00  0.00     0.041 C 
ATOM      7  O   UNL     1     171.275 175.631 151.136  1.00  0.00    -0.550 OA
ATOM      8  O   UNL     1     169.626 174.068 150.845  1.00  0.00    -0.550 OA
ENDBRANCH   5   6
ENDBRANCH   4   5
ENDBRANCH   3   4
ENDBRANCH   2   3
ENDBRANCH   1   2
BRANCH   1   9
ATOM      9  C   UNL     1     175.294 172.533 153.946  1.00  0.00     0.000 C 
BRANCH   9  10
ATOM     10  C   UNL     1     173.793 172.265 154.123  1.00  0.00    -0.000 C 
BRANCH  10  11
ATOM     11  C   UNL     1     173.340 170.944 153.474  1.00  0.00    -0.000 C 
BRANCH  11  12
ATOM     12  C   UNL     1     174.417 170.225 152.639  1.00  0.00    -0.000 C 
BRANCH  12  13
ATOM     13  C   UNL     1     174.135 170.164 151.127  1.00  0.00    -0.003 C 
ATOM     14  C   UNL     1     175.387 170.382 150.279  1.00  0.00     0.004 C 
ENDBRANCH  12  13
ENDBRANCH  11  12
ENDBRANCH  10  11
ENDBRANCH   9  10
ENDBRANCH   1   9
TORSDOF 10
ENDMDL
MODEL 8
REMARK VINA RESULT:    -3.899      1.696      3.303
REMARK INTER + INTRA:          -7.142
REMARK INTER:                  -5.860
REMARK INTRA:                  -1.282
REMARK UNBOUND:                -0.964
REMARK SMILES CCCCCCCCCCCC(=O)[O-]
REMARK SMILES IDX 7 1 8 2 9 3 10 4 11 5 12 6 13 7 14 8 6 9 5 10 4 11 3 12 2 13
REMARK SMILES IDX 1 14
REMARK H PARENT
REMARK Flexibility Score: inf
ROOT
ATOM      1  C   UNL     1     174.998 174.263 150.760  1.00  0.00     0.000 C 
ENDROOT
BRANCH   1   2
ATOM      2  C   UNL     1     174.118 174.196 152.020  1.00  0.00     0.000 C 
BRANCH   2   3
ATOM      3  C   UNL     1     174.895 174.083 153.347  1.00  0.00     0.000 C 
BRANCH   3   4
ATOM      4  C   UNL     1     175.327 172.642 153.694  1.00  0.00     0.006 C 
BRANCH   4   5
ATOM      5  C   UNL     1     174.128 171.707 153.898  1.00  0.00     0.053 C 
BRANCH   5   6
ATOM      6  C   UNL     1     174.583 170.284 153.990  1.00  0.00     0.041 C 
ATOM      7  O   UNL     1     175.703 170.009 154.495  1.00  0.00    -0.550 OA
ATOM      8  O   UNL     1     173.792 169.266 153.472  1.00  0.00    -0.550 OA
ENDBRANCH   5   6
ENDBRANCH   4   5
ENDBRANCH   3   4
ENDBRANCH   2   3
ENDBRANCH   1   2
BRANCH   1   9
ATOM      9  C   UNL     1     174.509 173.330 149.643  1.00  0.00     0.000 C 
BRANCH   9  10
ATOM     10  C   UNL     1     173.261 172.552 150.087  1.00  0.00    -0.000 C 
BRANCH  10  11
ATOM     11  C   UNL     1     173.525 171.045 150.257  1.00  0.00    -0.000 C 
BRANCH  11  12
ATOM     12  C   UNL     1     175.010 170.652 150.383  1.00  0.00    -0.000 C 
BRANCH  12  13
ATOM     13  C   UNL     1     175.336 169.202 149.983  1.00  0.00    -0.003 C 
ATOM     14  C   UNL     1     174.086 168.366 149.711  1.00  0.00     0.004 C 
ENDBRANCH  12  13
ENDBRANCH  11  12
ENDBRANCH  10  11
ENDBRANCH   9  10
ENDBRANCH   1   9
TORSDOF 10
ENDMDL
MODEL 9
REMARK VINA RESULT:    -3.854      2.720      5.364
REMARK INTER + INTRA:          -7.070
REMARK INTER:                  -5.576
REMARK INTRA:                  -1.494
REMARK UNBOUND:                -0.964
REMARK SMILES CCCCCCCCCCCC(=O)[O-]
REMARK SMILES IDX 7 1 8 2 9 3 10 4 11 5 12 6 13 7 14 8 6 9 5 10 4 11 3 12 2 13
REMARK SMILES IDX 1 14
REMARK H PARENT
REMARK Flexibility Score: inf
ROOT
ATOM      1  C   UNL     1     173.481 173.483 149.877  1.00  0.00     0.000 C 
ENDROOT
BRANCH   1   2
ATOM      2  C   UNL     1     174.614 172.447 149.965  1.00  0.00     0.000 C 
BRANCH   2   3
ATOM      3  C   UNL     1     174.165 171.029 150.372  1.00  0.00     0.000 C 
BRANCH   3   4
ATOM      4  C   UNL     1     175.024 170.402 151.491  1.00  0.00     0.006 C 
BRANCH   4   5
ATOM      5  C   UNL     1     174.180 169.618 152.503  1.00  0.00     0.053 C 
BRANCH   5   6
ATOM      6  C   UNL     1     175.042 168.684 153.293  1.00  0.00     0.041 C 
ATOM      7  O   UNL     1     175.505 169.040 154.409  1.00  0.00    -0.550 OA
ATOM      8  O   UNL     1     175.377 167.440 152.774  1.00  0.00    -0.550 OA
ENDBRANCH   5   6
ENDBRANCH   4   5
ENDBRANCH   3   4
ENDBRANCH   2   3
ENDBRANCH   1   2
BRANCH   1   9
ATOM      9  C   UNL     1     172.168 172.981 150.497  1.00  0.00     0.000 C 
BRANCH   9  10
ATOM     10  C   UNL     1     171.772 173.840 151.707  1.00  0.00    -0.000 C 
BRANCH  10  11
ATOM     11  C   UNL     1     172.979 174.255 152.568  1.00  0.00    -0.000 C 
BRANCH  11  12
ATOM     12  C   UNL     1     173.394 173.233 153.645  1.00  0.00    -0.000 C 
BRANCH  12  13
ATOM     13  C   UNL     1     174.906 173.160 153.925  1.00  0.00    -0.003 C 
ATOM     14  C   UNL     1     175.702 174.221 153.167  1.00  0.00     0.004 C 
ENDBRANCH  12  13
ENDBRANCH  11  12
ENDBRANCH  10  11
ENDBRANCH   9  10
ENDBRANCH   1   9
TORSDOF 10
ENDMDL
