MODEL 1
REMARK VINA RESULT:    -4.400      0.000      0.000
REMARK INTER + INTRA:         -10.678
REMARK INTER:                  -8.258
REMARK INTRA:                  -2.420
REMARK UNBOUND:                -2.420
REMARK SMILES CCCCCCCCC=CCCCCCCCC(=O)[O-]
REMARK SMILES IDX 10 1 9 2 11 3 12 4 13 5 14 6 15 7 16 8 17 9 18 10 19 11
REMARK SMILES IDX 20 12 8 13 7 14 6 15 5 16 4 17 3 18 2 19 1 20
REMARK H PARENT
REMARK Flexibility Score: inf
ROOT
ATOM      1  C   UNL     1       9.989   5.373   1.342  1.00  0.00    -0.031 C 
ATOM      2  C   UNL     1       9.937   4.028   1.391  1.00  0.00    -0.031 C 
ENDROOT
BRANCH   1   3
ATOM      3  C   UNL     1       9.192   6.247   0.405  1.00  0.00     0.027 C 
BRANCH   3   4
ATOM      4  C   UNL     1      10.046   6.928  -0.680  1.00  0.00     0.004 C 
BRANCH   4   5
ATOM      5  C   UNL     1      10.660   5.955  -1.704  1.00  0.00     0.000 C 
BRANCH   5   6
ATOM      6  C   UNL     1      10.668   6.516  -3.138  1.00  0.00     0.000 C 
BRANCH   6   7
ATOM      7  C   UNL     1       9.666   5.797  -4.056  1.00  0.00     0.000 C 
BRANCH   7   8
ATOM      8  C   UNL     1       8.798   4.779  -3.296  1.00  0.00     0.006 C 
BRANCH   8   9
ATOM      9  C   UNL     1       7.312   5.166  -3.303  1.00  0.00     0.053 C 
BRANCH   9  10
ATOM     10  C   UNL     1       6.501   4.279  -2.410  1.00  0.00     0.041 C 
ATOM     11  O   UNL     1       6.014   3.206  -2.855  1.00  0.00    -0.550 OA
ATOM     12  O   UNL     1       6.262   4.649  -1.094  1.00  0.00    -0.550 OA
ENDBRANCH   9  10
ENDBRANCH   8   9
ENDBRANCH   7   8
ENDBRANCH   6   7
ENDBRANCH   5   6
ENDBRANCH   4   5
ENDBRANCH   3   4
ENDBRANCH   1   3
BRANCH   2  13
ATOM     13  C   UNL     1       9.058   3.153   0.529  1.00  0.00     0.027 C 
BRANCH  13  14
ATOM     14  C   UNL     1       9.819   2.590  -0.685  1.00  0.00     0.004 C 
BRANCH  14  15
ATOM     15  C   UNL     1      11.098   1.796  -0.344  1.00  0.00     0.000 C 
BRANCH  15  16
ATOM     16  C   UNL     1      12.060   1.559  -1.522  1.00  0.00     0.000 C 
BRANCH  16  17
ATOM     17  C   UNL     1      12.106   2.742  -2.505  1.00  0.00    -0.000 C 
BRANCH  17  18
ATOM     18  C   UNL     1      11.539   2.383  -3.888  1.00  0.00    -0.000 C 
BRANCH  18  19
ATOM     19  C   UNL     1      11.372   0.869  -4.087  1.00  0.00    -0.003 C 
ATOM     20  C   UNL     1      11.657   0.471  -5.533  1.00  0.00     0.004 C 
ENDBRANCH  18  19
ENDBRANCH  17  18
ENDBRANCH  16  17
ENDBRANCH  15  16
ENDBRANCH  14  15
ENDBRANCH  13  14
ENDBRANCH   2  13
TORSDOF 15
ENDMDL
MODEL 2
REMARK VINA RESULT:    -4.372      2.241      5.897
REMARK INTER + INTRA:         -10.626
REMARK INTER:                  -7.623
REMARK INTRA:                  -3.002
REMARK UNBOUND:                -2.420
REMARK SMILES CCCCCCCCC=CCCCCCCCC(=O)[O-]
REMARK SMILES IDX 10 1 9 2 11 3 12 4 13 5 14 6 15 7 16 8 17 9 18 10 19 11
REMARK SMILES IDX 20 12 8 13 7 14 6 15 5 16 4 17 3 18 2 19 1 20
REMARK H PARENT
REMARK Flexibility Score: inf
ROOT
ATOM      1  C   UNL     1       7.547   4.073  -2.093  1.00  0.00    -0.031 C 
ATOM      2  C   UNL     1       8.378   4.496  -3.064  1.00  0.00    -0.031 C 
ENDROOT
BRANCH   1   3
ATOM      3  C   UNL     1       7.274   4.795  -0.797  1.00  0.00     0.027 C 
BRANCH   3   4
ATOM      4  C   UNL     1       8.164   4.330   0.369  1.00  0.00     0.004 C 
BRANCH   4   5
ATOM      5  C   UNL     1       8.826   2.957   0.151  1.00  0.00     0.000 C 
BRANCH   5   6
ATOM      6  C   UNL     1      10.291   2.912   0.623  1.00  0.00     0.000 C 
BRANCH   6   7
ATOM      7  C   UNL     1      11.154   1.964  -0.226  1.00  0.00     0.000 C 
BRANCH   7   8
ATOM      8  C   UNL     1      10.737   1.956  -1.707  1.00  0.00     0.006 C 
BRANCH   8   9
ATOM      9  C   UNL     1      11.922   2.235  -2.643  1.00  0.00     0.053 C 
BRANCH   9  10
ATOM     10  C   UNL     1      11.561   2.011  -4.079  1.00  0.00     0.041 C 
ATOM     11  O   UNL     1      11.244   2.984  -4.812  1.00  0.00    -0.550 OA
ATOM     12  O   UNL     1      11.551   0.724  -4.600  1.00  0.00    -0.550 OA
ENDBRANCH   9  10
ENDBRANCH   8   9
ENDBRANCH   7   8
ENDBRANCH   6   7
ENDBRANCH   5   6
ENDBRANCH   4   5
ENDBRANCH   3   4
ENDBRANCH   1   3
BRANCH   2  13
ATOM     13  C   UNL     1       9.173   5.780  -3.040  1.00  0.00     0.027 C 
BRANCH  13  14
ATOM     14  C   UNL     1      10.531   5.604  -2.337  1.00  0.00     0.004 C 
BRANCH  14  15
ATOM     15  C   UNL     1      10.702   6.415  -1.035  1.00  0.00     0.000 C 
BRANCH  15  16
ATOM     16  C   UNL     1       9.918   7.739  -0.975  1.00  0.00     0.000 C 
BRANCH  16  17
ATOM     17  C   UNL     1       9.909   8.366   0.431  1.00  0.00    -0.000 C 
BRANCH  17  18
ATOM     18  C   UNL     1       8.995   7.610   1.409  1.00  0.00    -0.000 C 
BRANCH  18  19
ATOM     19  C   UNL     1       9.675   7.321   2.755  1.00  0.00    -0.003 C 
ATOM     20  C   UNL     1      10.479   6.025   2.698  1.00  0.00     0.004 C 
ENDBRANCH  18  19
ENDBRANCH  17  18
ENDBRANCH  16  17
ENDBRANCH  15  16
ENDBRANCH  14  15
ENDBRANCH  13  14
ENDBRANCH   2  13
TORSDOF 15
ENDMDL
MODEL 3
REMARK VINA RESULT:    -4.303      2.384      3.525
REMARK INTER + INTRA:         -10.496
REMARK INTER:                  -8.014
REMARK INTRA:                  -2.482
REMARK UNBOUND:                -2.420
REMARK SMILES CCCCCCCCC=CCCCCCCCC(=O)[O-]
REMARK SMILES IDX 10 1 9 2 11 3 12 4 13 5 14 6 15 7 16 8 17 9 18 10 19 11
REMARK SMILES IDX 20 12 8 13 7 14 6 15 5 16 4 17 3 18 2 19 1 20
REMARK H PARENT
REMARK Flexibility Score: inf
ROOT
ATOM      1  C   UNL     1       7.859   4.045  -0.960  1.00  0.00    -0.031 C 
ATOM      2  C   UNL     1       8.590   3.815   0.147  1.00  0.00    -0.031 C 
ENDROOT
BRANCH   1   3
ATOM      3  C   UNL     1       8.365   3.958  -2.379  1.00  0.00     0.027 C 
BRANCH   3   4
ATOM      4  C   UNL     1       8.930   5.286  -2.915  1.00  0.00     0.004 C 
BRANCH   4   5
ATOM      5  C   UNL     1      10.444   5.464  -2.695  1.00  0.00     0.000 C 
BRANCH   5   6
ATOM      6  C   UNL     1      10.795   6.762  -1.945  1.00  0.00     0.000 C 
BRANCH   6   7
ATOM      7  C   UNL     1       9.665   7.226  -1.013  1.00  0.00     0.000 C 
BRANCH   7   8
ATOM      8  C   UNL     1      10.095   7.254   0.465  1.00  0.00     0.006 C 
BRANCH   8   9
ATOM      9  C   UNL     1       8.893   7.355   1.415  1.00  0.00     0.053 C 
BRANCH   9  10
ATOM     10  C   UNL     1       9.140   6.633   2.704  1.00  0.00     0.041 C 
ATOM     11  O   UNL     1      10.191   5.957   2.860  1.00  0.00    -0.550 OA
ATOM     12  O   UNL     1       8.198   6.687   3.722  1.00  0.00    -0.550 OA
ENDBRANCH   9  10
ENDBRANCH   8   9
ENDBRANCH   7   8
ENDBRANCH   6   7
ENDBRANCH   5   6
ENDBRANCH   4   5
ENDBRANCH   3   4
ENDBRANCH   1   3
BRANCH   2  13
ATOM     13  C   UNL     1      10.046   3.410   0.168  1.00  0.00     0.027 C 
BRANCH  13  14
ATOM     14  C   UNL     1      10.253   1.982  -0.369  1.00  0.00     0.004 C 
BRANCH  14  15
ATOM     15  C   UNL     1      11.711   1.623  -0.724  1.00  0.00     0.000 C 
BRANCH  15  16
ATOM     16  C   UNL     1      12.173   2.056  -2.127  1.00  0.00     0.000 C 
BRANCH  16  17
ATOM     17  C   UNL     1      11.087   1.865  -3.201  1.00  0.00    -0.000 C 
BRANCH  17  18
ATOM     18  C   UNL     1      11.539   0.937  -4.340  1.00  0.00    -0.000 C 
BRANCH  18  19
ATOM     19  C   UNL     1      11.470   1.611  -5.718  1.00  0.00    -0.003 C 
ATOM     20  C   UNL     1      11.079   3.081  -5.592  1.00  0.00     0.004 C 
ENDBRANCH  18  19
ENDBRANCH  17  18
ENDBRANCH  16  17
ENDBRANCH  15  16
ENDBRANCH  14  15
ENDBRANCH  13  14
ENDBRANCH   2  13
TORSDOF 15
ENDMDL
MODEL 4
REMARK VINA RESULT:    -4.256      2.277      5.980
REMARK INTER + INTRA:         -10.408
REMARK INTER:                  -8.322
REMARK INTRA:                  -2.086
REMARK UNBOUND:                -2.420
REMARK SMILES CCCCCCCCC=CCCCCCCCC(=O)[O-]
REMARK SMILES IDX 10 1 9 2 11 3 12 4 13 5 14 6 15 7 16 8 17 9 18 10 19 11
REMARK SMILES IDX 20 12 8 13 7 14 6 15 5 16 4 17 3 18 2 19 1 20
REMARK H PARENT
REMARK Flexibility Score: inf
ROOT
ATOM      1  C   UNL     1      11.493   1.253  -3.863  1.00  0.00    -0.031 C 
ATOM      2  C   UNL     1      11.422   1.351  -5.204  1.00  0.00    -0.031 C 
ENDROOT
BRANCH   1   3
ATOM      3  C   UNL     1      11.846   2.376  -2.919  1.00  0.00     0.027 C 
BRANCH   3   4
ATOM      4  C   UNL     1      12.334   1.895  -1.541  1.00  0.00     0.004 C 
BRANCH   4   5
ATOM      5  C   UNL     1      11.204   1.494  -0.575  1.00  0.00     0.000 C 
BRANCH   5   6
ATOM      6  C   UNL     1      10.102   2.564  -0.460  1.00  0.00     0.000 C 
BRANCH   6   7
ATOM      7  C   UNL     1       9.988   3.140   0.961  1.00  0.00     0.000 C 
BRANCH   7   8
ATOM      8  C   UNL     1       9.283   4.508   0.987  1.00  0.00     0.006 C 
BRANCH   8   9
ATOM      9  C   UNL     1      10.242   5.646   1.362  1.00  0.00     0.053 C 
BRANCH   9  10
ATOM     10  C   UNL     1       9.904   6.245   2.692  1.00  0.00     0.041 C 
ATOM     11  O   UNL     1      10.800   6.406   3.561  1.00  0.00    -0.550 OA
ATOM     12  O   UNL     1       8.593   6.601   2.980  1.00  0.00    -0.550 OA
ENDBRANCH   9  10
ENDBRANCH   8   9
ENDBRANCH   7   8
ENDBRANCH   6   7
ENDBRANCH   5   6
ENDBRANCH   4   5
ENDBRANCH   3   4
ENDBRANCH   1   3
BRANCH   2  13
ATOM     13  C   UNL     1      11.664   2.608  -6.005  1.00  0.00     0.027 C 
BRANCH  13  14
ATOM     14  C   UNL     1      10.393   3.468  -6.125  1.00  0.00     0.004 C 
BRANCH  14  15
ATOM     15  C   UNL     1      10.391   4.754  -5.271  1.00  0.00     0.000 C 
BRANCH  15  16
ATOM     16  C   UNL     1       9.089   5.029  -4.497  1.00  0.00     0.000 C 
BRANCH  16  17
ATOM     17  C   UNL     1       9.302   5.110  -2.975  1.00  0.00    -0.000 C 
BRANCH  17  18
ATOM     18  C   UNL     1      10.634   5.780  -2.601  1.00  0.00    -0.000 C 
BRANCH  18  19
ATOM     19  C   UNL     1      10.448   7.193  -2.028  1.00  0.00    -0.003 C 
ATOM     20  C   UNL     1      10.788   8.257  -3.068  1.00  0.00     0.004 C 
ENDBRANCH  18  19
ENDBRANCH  17  18
ENDBRANCH  16  17
ENDBRANCH  15  16
ENDBRANCH  14  15
ENDBRANCH  13  14
ENDBRANCH   2  13
TORSDOF 15
ENDMDL
MODEL 5
REMARK VINA RESULT:    -4.254      2.358      5.691
REMARK INTER + INTRA:         -10.404
REMARK INTER:                  -7.973
REMARK INTRA:                  -2.431
REMARK UNBOUND:                -2.420
REMARK SMILES CCCCCCCCC=CCCCCCCCC(=O)[O-]
REMARK SMILES IDX 10 1 9 2 11 3 12 4 13 5 14 6 15 7 16 8 17 9 18 10 19 11
REMARK SMILES IDX 20 12 8 13 7 14 6 15 5 16 4 17 3 18 2 19 1 20
REMARK H PARENT
REMARK Flexibility Score: inf
ROOT
ATOM      1  C   UNL     1      11.388   1.317  -3.697  1.00  0.00    -0.031 C 
ATOM      2  C   UNL     1      11.195   1.499  -5.017  1.00  0.00    -0.031 C 
ENDROOT
BRANCH   1   3
ATOM      3  C   UNL     1      12.005   2.321  -2.755  1.00  0.00     0.027 C 
BRANCH   3   4
ATOM      4  C   UNL     1      12.253   1.769  -1.339  1.00  0.00     0.004 C 
BRANCH   4   5
ATOM      5  C   UNL     1      11.003   1.755  -0.439  1.00  0.00     0.000 C 
BRANCH   5   6
ATOM      6  C   UNL     1      10.511   3.166  -0.069  1.00  0.00     0.000 C 
BRANCH   6   7
ATOM      7  C   UNL     1       9.270   3.137   0.838  1.00  0.00     0.000 C 
BRANCH   7   8
ATOM      8  C   UNL     1       8.642   4.530   1.020  1.00  0.00     0.006 C 
BRANCH   8   9
ATOM      9  C   UNL     1       9.678   5.655   0.887  1.00  0.00     0.053 C 
BRANCH   9  10
ATOM     10  C   UNL     1      10.029   6.249   2.215  1.00  0.00     0.041 C 
ATOM     11  O   UNL     1      10.907   5.710   2.939  1.00  0.00    -0.550 OA
ATOM     12  O   UNL     1       9.369   7.385   2.664  1.00  0.00    -0.550 OA
ENDBRANCH   9  10
ENDBRANCH   8   9
ENDBRANCH   7   8
ENDBRANCH   6   7
ENDBRANCH   5   6
ENDBRANCH   4   5
ENDBRANCH   3   4
ENDBRANCH   1   3
BRANCH   2  13
ATOM     13  C   UNL     1      11.544   2.749  -5.790  1.00  0.00     0.027 C 
BRANCH  13  14
ATOM     14  C   UNL     1      10.384   3.761  -5.802  1.00  0.00     0.004 C 
BRANCH  14  15
ATOM     15  C   UNL     1      10.810   5.243  -5.848  1.00  0.00     0.000 C 
BRANCH  15  16
ATOM     16  C   UNL     1      10.339   6.102  -4.661  1.00  0.00     0.000 C 
BRANCH  16  17
ATOM     17  C   UNL     1      10.274   5.314  -3.340  1.00  0.00    -0.000 C 
BRANCH  17  18
ATOM     18  C   UNL     1       8.862   5.293  -2.733  1.00  0.00    -0.000 C 
BRANCH  18  19
ATOM     19  C   UNL     1       8.260   3.881  -2.677  1.00  0.00    -0.003 C 
ATOM     20  C   UNL     1       6.745   3.937  -2.494  1.00  0.00     0.004 C 
ENDBRANCH  18  19
ENDBRANCH  17  18
ENDBRANCH  16  17
ENDBRANCH  15  16
ENDBRANCH  14  15
ENDBRANCH  13  14
ENDBRANCH   2  13
TORSDOF 15
ENDMDL
MODEL 6
REMARK VINA RESULT:    -4.131      2.401      6.115
REMARK INTER + INTRA:         -10.172
REMARK INTER:                  -7.441
REMARK INTRA:                  -2.732
REMARK UNBOUND:                -2.420
REMARK SMILES CCCCCCCCC=CCCCCCCCC(=O)[O-]
REMARK SMILES IDX 10 1 9 2 11 3 12 4 13 5 14 6 15 7 16 8 17 9 18 10 19 11
REMARK SMILES IDX 20 12 8 13 7 14 6 15 5 16 4 17 3 18 2 19 1 20
REMARK H PARENT
REMARK Flexibility Score: inf
ROOT
ATOM      1  C   UNL     1      10.548   5.242  -1.776  1.00  0.00    -0.031 C 
ATOM      2  C   UNL     1      10.736   6.566  -1.613  1.00  0.00    -0.031 C 
ENDROOT
BRANCH   1   3
ATOM      3  C   UNL     1       9.401   4.604  -2.520  1.00  0.00     0.027 C 
BRANCH   3   4
ATOM      4  C   UNL     1       8.814   3.371  -1.809  1.00  0.00     0.004 C 
BRANCH   4   5
ATOM      5  C   UNL     1       9.597   2.929  -0.559  1.00  0.00     0.000 C 
BRANCH   5   6
ATOM      6  C   UNL     1      10.423   1.650  -0.787  1.00  0.00     0.000 C 
BRANCH   6   7
ATOM      7  C   UNL     1      11.921   1.942  -0.971  1.00  0.00     0.000 C 
BRANCH   7   8
ATOM      8  C   UNL     1      12.309   2.120  -2.449  1.00  0.00     0.006 C 
BRANCH   8   9
ATOM      9  C   UNL     1      11.476   1.226  -3.378  1.00  0.00     0.053 C 
BRANCH   9  10
ATOM     10  C   UNL     1      11.431   1.763  -4.775  1.00  0.00     0.041 C 
ATOM     11  O   UNL     1      11.276   2.996  -4.976  1.00  0.00    -0.550 OA
ATOM     12  O   UNL     1      11.535   0.897  -5.856  1.00  0.00    -0.550 OA
ENDBRANCH   9  10
ENDBRANCH   8   9
ENDBRANCH   7   8
ENDBRANCH   6   7
ENDBRANCH   5   6
ENDBRANCH   4   5
ENDBRANCH   3   4
ENDBRANCH   1   3
BRANCH   2  13
ATOM     13  C   UNL     1       9.842   7.652  -2.164  1.00  0.00     0.027 C 
BRANCH  13  14
ATOM     14  C   UNL     1       8.832   8.152  -1.115  1.00  0.00     0.004 C 
BRANCH  14  15
ATOM     15  C   UNL     1       7.455   7.457  -1.151  1.00  0.00     0.000 C 
BRANCH  15  16
ATOM     16  C   UNL     1       6.938   6.948   0.207  1.00  0.00     0.000 C 
BRANCH  16  17
ATOM     17  C   UNL     1       7.775   5.785   0.769  1.00  0.00    -0.000 C 
BRANCH  17  18
ATOM     18  C   UNL     1       8.513   6.161   2.064  1.00  0.00    -0.000 C 
BRANCH  18  19
ATOM     19  C   UNL     1      10.039   6.193   1.890  1.00  0.00    -0.003 C 
ATOM     20  C   UNL     1      10.745   6.210   3.244  1.00  0.00     0.004 C 
ENDBRANCH  18  19
ENDBRANCH  17  18
ENDBRANCH  16  17
ENDBRANCH  15  16
ENDBRANCH  14  15
ENDBRANCH  13  14
ENDBRANCH   2  13
TORSDOF 15
ENDMDL
MODEL 7
REMARK VINA RESULT:    -4.117      2.334      4.536
REMARK INTER + INTRA:         -10.148
REMARK INTER:                  -8.022
REMARK INTRA:                  -2.126
REMARK UNBOUND:                -2.420
REMARK SMILES CCCCCCCCC=CCCCCCCCC(=O)[O-]
REMARK SMILES IDX 10 1 9 2 11 3 12 4 13 5 14 6 15 7 16 8 17 9 18 10 19 11
REMARK SMILES IDX 20 12 8 13 7 14 6 15 5 16 4 17 3 18 2 19 1 20
REMARK H PARENT
REMARK Flexibility Score: inf
ROOT
ATOM      1  C   UNL     1      10.532   6.384  -2.118  1.00  0.00    -0.031 C 
ATOM      2  C   UNL     1      11.008   5.159  -2.408  1.00  0.00    -0.031 C 
ENDROOT
BRANCH   1   3
ATOM      3  C   UNL     1       9.284   7.001  -2.701  1.00  0.00     0.027 C 
BRANCH   3   4
ATOM      4  C   UNL     1       8.051   6.879  -1.789  1.00  0.00     0.004 C 
BRANCH   4   5
ATOM      5  C   UNL     1       7.185   5.634  -2.058  1.00  0.00     0.000 C 
BRANCH   5   6
ATOM      6  C   UNL     1       7.063   4.710  -0.832  1.00  0.00     0.000 C 
BRANCH   6   7
ATOM      7  C   UNL     1       8.312   3.838  -0.626  1.00  0.00     0.000 C 
BRANCH   7   8
ATOM      8  C   UNL     1       8.655   3.643   0.862  1.00  0.00     0.006 C 
BRANCH   8   9
ATOM      9  C   UNL     1       9.998   4.286   1.234  1.00  0.00     0.053 C 
BRANCH   9  10
ATOM     10  C   UNL     1       9.813   5.565   1.990  1.00  0.00     0.041 C 
ATOM     11  O   UNL     1       8.759   6.238   1.849  1.00  0.00    -0.550 OA
ATOM     12  O   UNL     1      10.816   6.026   2.833  1.00  0.00    -0.550 OA
ENDBRANCH   9  10
ENDBRANCH   8   9
ENDBRANCH   7   8
ENDBRANCH   6   7
ENDBRANCH   5   6
ENDBRANCH   4   5
ENDBRANCH   3   4
ENDBRANCH   1   3
BRANCH   2  13
ATOM     13  C   UNL     1      10.368   4.172  -3.356  1.00  0.00     0.027 C 
BRANCH  13  14
ATOM     14  C   UNL     1      11.307   2.997  -3.683  1.00  0.00     0.004 C 
BRANCH  14  15
ATOM     15  C   UNL     1      12.050   2.396  -2.472  1.00  0.00     0.000 C 
BRANCH  15  16
ATOM     16  C   UNL     1      11.170   1.605  -1.486  1.00  0.00     0.000 C 
BRANCH  16  17
ATOM     17  C   UNL     1      11.826   1.431  -0.104  1.00  0.00    -0.000 C 
BRANCH  17  18
ATOM     18  C   UNL     1      12.931   0.363  -0.107  1.00  0.00    -0.000 C 
BRANCH  18  19
ATOM     19  C   UNL     1      12.726  -0.707   0.977  1.00  0.00    -0.003 C 
ATOM     20  C   UNL     1      13.331  -0.264   2.307  1.00  0.00     0.004 C 
ENDBRANCH  18  19
ENDBRANCH  17  18
ENDBRANCH  16  17
ENDBRANCH  15  16
ENDBRANCH  14  15
ENDBRANCH  13  14
ENDBRANCH   2  13
TORSDOF 15
ENDMDL
MODEL 8
REMARK VINA RESULT:    -4.083      2.609      5.402
REMARK INTER + INTRA:         -10.083
REMARK INTER:                  -7.329
REMARK INTRA:                  -2.754
REMARK UNBOUND:                -2.420
REMARK SMILES CCCCCCCCC=CCCCCCCCC(=O)[O-]
REMARK SMILES IDX 10 1 9 2 11 3 12 4 13 5 14 6 15 7 16 8 17 9 18 10 19 11
REMARK SMILES IDX 20 12 8 13 7 14 6 15 5 16 4 17 3 18 2 19 1 20
REMARK H PARENT
REMARK Flexibility Score: inf
ROOT
ATOM      1  C   UNL     1      11.711   1.786  -0.516  1.00  0.00    -0.031 C 
ATOM      2  C   UNL     1      12.250   1.575  -1.731  1.00  0.00    -0.031 C 
ENDROOT
BRANCH   1   3
ATOM      3  C   UNL     1      10.250   2.042  -0.238  1.00  0.00     0.027 C 
BRANCH   3   4
ATOM      4  C   UNL     1      10.001   3.228   0.712  1.00  0.00     0.004 C 
BRANCH   4   5
ATOM      5  C   UNL     1       8.513   3.547   0.948  1.00  0.00     0.000 C 
BRANCH   5   6
ATOM      6  C   UNL     1       7.947   4.563  -0.062  1.00  0.00     0.000 C 
BRANCH   6   7
ATOM      7  C   UNL     1       7.482   5.864   0.611  1.00  0.00     0.000 C 
BRANCH   7   8
ATOM      8  C   UNL     1       7.429   5.748   2.144  1.00  0.00     0.006 C 
BRANCH   8   9
ATOM      9  C   UNL     1       8.110   6.936   2.839  1.00  0.00     0.053 C 
BRANCH   9  10
ATOM     10  C   UNL     1       9.552   7.052   2.455  1.00  0.00     0.041 C 
ATOM     11  O   UNL     1      10.356   6.120   2.720  1.00  0.00    -0.550 OA
ATOM     12  O   UNL     1      10.014   8.202   1.828  1.00  0.00    -0.550 OA
ENDBRANCH   9  10
ENDBRANCH   8   9
ENDBRANCH   7   8
ENDBRANCH   6   7
ENDBRANCH   5   6
ENDBRANCH   4   5
ENDBRANCH   3   4
ENDBRANCH   1   3
BRANCH   2  13
ATOM     13  C   UNL     1      11.487   1.536  -3.035  1.00  0.00     0.027 C 
BRANCH  13  14
ATOM     14  C   UNL     1      11.429   2.919  -3.708  1.00  0.00     0.004 C 
BRANCH  14  15
ATOM     15  C   UNL     1      10.058   3.623  -3.638  1.00  0.00     0.000 C 
BRANCH  15  16
ATOM     16  C   UNL     1      10.088   5.076  -3.129  1.00  0.00     0.000 C 
BRANCH  16  17
ATOM     17  C   UNL     1      11.123   5.297  -2.011  1.00  0.00    -0.000 C 
BRANCH  17  18
ATOM     18  C   UNL     1      10.757   6.474  -1.093  1.00  0.00    -0.000 C 
BRANCH  18  19
ATOM     19  C   UNL     1       9.770   7.454  -1.746  1.00  0.00    -0.003 C 
ATOM     20  C   UNL     1      10.414   8.821  -1.961  1.00  0.00     0.004 C 
ENDBRANCH  18  19
ENDBRANCH  17  18
ENDBRANCH  16  17
ENDBRANCH  15  16
ENDBRANCH  14  15
ENDBRANCH  13  14
ENDBRANCH   2  13
TORSDOF 15
ENDMDL
MODEL 9
REMARK VINA RESULT:    -4.038      2.158      5.543
REMARK INTER + INTRA:          -9.999
REMARK INTER:                  -7.465
REMARK INTRA:                  -2.534
REMARK UNBOUND:                -2.420
REMARK SMILES CCCCCCCCC=CCCCCCCCC(=O)[O-]
REMARK SMILES IDX 10 1 9 2 11 3 12 4 13 5 14 6 15 7 16 8 17 9 18 10 19 11
REMARK SMILES IDX 20 12 8 13 7 14 6 15 5 16 4 17 3 18 2 19 1 20
REMARK H PARENT
REMARK Flexibility Score: inf
ROOT
ATOM      1  C   UNL     1       9.643   3.109   0.705  1.00  0.00    -0.031 C 
ATOM      2  C   UNL     1       8.671   4.033   0.573  1.00  0.00    -0.031 C 
ENDROOT
BRANCH   1   3
ATOM      3  C   UNL     1      10.006   2.065  -0.322  1.00  0.00     0.027 C 
BRANCH   3   4
ATOM      4  C   UNL     1      11.477   1.620  -0.256  1.00  0.00     0.004 C 
BRANCH   4   5
ATOM      5  C   UNL     1      12.248   1.784  -1.580  1.00  0.00     0.000 C 
BRANCH   5   6
ATOM      6  C   UNL     1      11.360   1.582  -2.822  1.00  0.00     0.000 C 
BRANCH   6   7
ATOM      7  C   UNL     1      11.486   2.737  -3.829  1.00  0.00     0.000 C 
BRANCH   7   8
ATOM      8  C   UNL     1      10.388   3.800  -3.647  1.00  0.00     0.006 C 
BRANCH   8   9
ATOM      9  C   UNL     1      10.763   4.841  -2.583  1.00  0.00     0.053 C 
BRANCH   9  10
ATOM     10  C   UNL     1      10.225   6.198  -2.918  1.00  0.00     0.041 C 
ATOM     11  O   UNL     1       9.027   6.332  -3.283  1.00  0.00    -0.550 OA
ATOM     12  O   UNL     1      11.053   7.310  -2.852  1.00  0.00    -0.550 OA
ENDBRANCH   9  10
ENDBRANCH   8   9
ENDBRANCH   7   8
ENDBRANCH   6   7
ENDBRANCH   5   6
ENDBRANCH   4   5
ENDBRANCH   3   4
ENDBRANCH   1   3
BRANCH   2  13
ATOM     13  C   UNL     1       7.782   4.202  -0.636  1.00  0.00     0.027 C 
BRANCH  13  14
ATOM     14  C   UNL     1       6.946   5.493  -0.559  1.00  0.00     0.004 C 
BRANCH  14  15
ATOM     15  C   UNL     1       6.701   6.029   0.867  1.00  0.00     0.000 C 
BRANCH  15  16
ATOM     16  C   UNL     1       7.296   7.419   1.159  1.00  0.00     0.000 C 
BRANCH  16  17
ATOM     17  C   UNL     1       8.444   7.791   0.205  1.00  0.00    -0.000 C 
BRANCH  17  18
ATOM     18  C   UNL     1       9.829   7.532   0.818  1.00  0.00    -0.000 C 
BRANCH  18  19
ATOM     19  C   UNL     1       9.798   7.474   2.353  1.00  0.00    -0.003 C 
ATOM     20  C   UNL     1      10.430   6.183   2.866  1.00  0.00     0.004 C 
ENDBRANCH  18  19
ENDBRANCH  17  18
ENDBRANCH  16  17
ENDBRANCH  15  16
ENDBRANCH  14  15
ENDBRANCH  13  14
ENDBRANCH   2  13
TORSDOF 15
ENDMDL
