MODEL 1
REMARK VINA RESULT:    -4.341      0.000      0.000
REMARK INTER + INTRA:          -9.130
REMARK INTER:                  -7.894
REMARK INTRA:                  -1.236
REMARK UNBOUND:                -1.236
REMARK SMILES CCCCCCCCCCCCCCCC(=O)[O-]
REMARK SMILES IDX 9 1 10 2 11 3 12 4 13 5 14 6 15 7 16 8 17 9 18 10 8 11 7 12
REMARK SMILES IDX 6 13 5 14 4 15 3 16 2 17 1 18
REMARK H PARENT
REMARK Flexibility Score: inf
ROOT
ATOM      1  C   UNL     1       0.447  15.678  18.711  1.00  0.00     0.000 C 
ENDROOT
BRANCH   1   2
ATOM      2  C   UNL     1       1.742  14.920  18.365  1.00  0.00     0.000 C 
BRANCH   2   3
ATOM      3  C   UNL     1       2.073  13.806  19.370  1.00  0.00     0.000 C 
BRANCH   3   4
ATOM      4  C   UNL     1       3.453  13.202  19.087  1.00  0.00     0.000 C 
BRANCH   4   5
ATOM      5  C   UNL     1       3.337  11.715  18.718  1.00  0.00     0.000 C 
BRANCH   5   6
ATOM      6  C   UNL     1       3.525  11.461  17.214  1.00  0.00     0.006 C 
BRANCH   6   7
ATOM      7  C   UNL     1       4.346  12.560  16.528  1.00  0.00     0.053 C 
BRANCH   7   8
ATOM      8  C   UNL     1       3.673  13.003  15.267  1.00  0.00     0.041 C 
ATOM      9  O   UNL     1       2.574  13.616  15.318  1.00  0.00    -0.550 OA
ATOM     10  O   UNL     1       4.233  12.695  14.034  1.00  0.00    -0.550 OA
ENDBRANCH   7   8
ENDBRANCH   6   7
ENDBRANCH   5   6
ENDBRANCH   4   5
ENDBRANCH   3   4
ENDBRANCH   2   3
ENDBRANCH   1   2
BRANCH   1  11
ATOM     11  C   UNL     1       0.631  17.168  19.049  1.00  0.00     0.000 C 
BRANCH  11  12
ATOM     12  C   UNL     1      -0.648  17.820  19.601  1.00  0.00    -0.000 C 
BRANCH  12  13
ATOM     13  C   UNL     1      -1.572  16.809  20.298  1.00  0.00    -0.000 C 
BRANCH  13  14
ATOM     14  C   UNL     1      -1.547  16.937  21.832  1.00  0.00    -0.000 C 
BRANCH  14  15
ATOM     15  C   UNL     1      -1.558  15.572  22.537  1.00  0.00    -0.000 C 
BRANCH  15  16
ATOM     16  C   UNL     1      -1.086  14.430  21.619  1.00  0.00    -0.000 C 
BRANCH  16  17
ATOM     17  C   UNL     1      -1.561  13.051  22.103  1.00  0.00    -0.003 C 
ATOM     18  C   UNL     1      -1.792  13.003  23.613  1.00  0.00     0.004 C 
ENDBRANCH  16  17
ENDBRANCH  15  16
ENDBRANCH  14  15
ENDBRANCH  13  14
ENDBRANCH  12  13
ENDBRANCH  11  12
ENDBRANCH   1  11
TORSDOF 14
ENDMDL
MODEL 2
REMARK VINA RESULT:    -4.327      2.251      4.097
REMARK INTER + INTRA:          -9.103
REMARK INTER:                  -7.965
REMARK INTRA:                  -1.139
REMARK UNBOUND:                -1.236
REMARK SMILES CCCCCCCCCCCCCCCC(=O)[O-]
REMARK SMILES IDX 9 1 10 2 11 3 12 4 13 5 14 6 15 7 16 8 17 9 18 10 8 11 7 12
REMARK SMILES IDX 6 13 5 14 4 15 3 16 2 17 1 18
REMARK H PARENT
REMARK Flexibility Score: inf
ROOT
ATOM      1  C   UNL     1       1.093  15.250  18.383  1.00  0.00     0.000 C 
ENDROOT
BRANCH   1   2
ATOM      2  C   UNL     1       2.521  14.784  18.718  1.00  0.00     0.000 C 
BRANCH   2   3
ATOM      3  C   UNL     1       2.602  13.286  19.050  1.00  0.00     0.000 C 
BRANCH   3   4
ATOM      4  C   UNL     1       3.416  12.531  17.992  1.00  0.00     0.000 C 
BRANCH   4   5
ATOM      5  C   UNL     1       3.881  13.480  16.877  1.00  0.00     0.000 C 
BRANCH   5   6
ATOM      6  C   UNL     1       3.514  12.972  15.474  1.00  0.00     0.006 C 
BRANCH   6   7
ATOM      7  C   UNL     1       4.745  12.587  14.644  1.00  0.00     0.053 C 
BRANCH   7   8
ATOM      8  C   UNL     1       4.600  11.198  14.109  1.00  0.00     0.041 C 
ATOM      9  O   UNL     1       4.396  11.010  12.881  1.00  0.00    -0.550 OA
ATOM     10  O   UNL     1       4.640  10.112  14.975  1.00  0.00    -0.550 OA
ENDBRANCH   7   8
ENDBRANCH   6   7
ENDBRANCH   5   6
ENDBRANCH   4   5
ENDBRANCH   3   4
ENDBRANCH   2   3
ENDBRANCH   1   2
BRANCH   1  11
ATOM     11  C   UNL     1       0.043  14.981  19.476  1.00  0.00     0.000 C 
BRANCH  11  12
ATOM     12  C   UNL     1      -1.247  15.796  19.283  1.00  0.00    -0.000 C 
BRANCH  12  13
ATOM     13  C   UNL     1      -0.969  17.281  19.001  1.00  0.00    -0.000 C 
BRANCH  13  14
ATOM     14  C   UNL     1      -0.784  18.107  20.287  1.00  0.00    -0.000 C 
BRANCH  14  15
ATOM     15  C   UNL     1       0.371  19.115  20.177  1.00  0.00    -0.000 C 
BRANCH  15  16
ATOM     16  C   UNL     1       1.328  18.792  19.017  1.00  0.00    -0.000 C 
BRANCH  16  17
ATOM     17  C   UNL     1       1.927  20.054  18.377  1.00  0.00    -0.003 C 
ATOM     18  C   UNL     1       1.697  20.116  16.868  1.00  0.00     0.004 C 
ENDBRANCH  16  17
ENDBRANCH  15  16
ENDBRANCH  14  15
ENDBRANCH  13  14
ENDBRANCH  12  13
ENDBRANCH  11  12
ENDBRANCH   1  11
TORSDOF 14
ENDMDL
MODEL 3
REMARK VINA RESULT:    -4.258      1.481      2.921
REMARK INTER + INTRA:          -8.979
REMARK INTER:                  -7.710
REMARK INTRA:                  -1.269
REMARK UNBOUND:                -1.236
REMARK SMILES CCCCCCCCCCCCCCCC(=O)[O-]
REMARK SMILES IDX 9 1 10 2 11 3 12 4 13 5 14 6 15 7 16 8 17 9 18 10 8 11 7 12
REMARK SMILES IDX 6 13 5 14 4 15 3 16 2 17 1 18
REMARK H PARENT
REMARK Flexibility Score: inf
ROOT
ATOM      1  C   UNL     1       3.092  13.424  19.341  1.00  0.00     0.000 C 
ENDROOT
BRANCH   1   2
ATOM      2  C   UNL     1       3.068  11.930  18.970  1.00  0.00     0.000 C 
BRANCH   2   3
ATOM      3  C   UNL     1       3.528  11.661  17.529  1.00  0.00     0.000 C 
BRANCH   3   4
ATOM      4  C   UNL     1       4.244  12.884  16.943  1.00  0.00     0.000 C 
BRANCH   4   5
ATOM      5  C   UNL     1       3.416  13.518  15.816  1.00  0.00     0.000 C 
BRANCH   5   6
ATOM      6  C   UNL     1       3.236  12.579  14.613  1.00  0.00     0.006 C 
BRANCH   6   7
ATOM      7  C   UNL     1       4.565  12.231  13.930  1.00  0.00     0.053 C 
BRANCH   7   8
ATOM      8  C   UNL     1       4.720  10.748  13.816  1.00  0.00     0.041 C 
ATOM      9  O   UNL     1       4.880  10.046  14.849  1.00  0.00    -0.550 OA
ATOM     10  O   UNL     1       4.737  10.145  12.564  1.00  0.00    -0.550 OA
ENDBRANCH   7   8
ENDBRANCH   6   7
ENDBRANCH   5   6
ENDBRANCH   4   5
ENDBRANCH   3   4
ENDBRANCH   2   3
ENDBRANCH   1   2
BRANCH   1  11
ATOM     11  C   UNL     1       1.709  14.083  19.496  1.00  0.00     0.000 C 
BRANCH  11  12
ATOM     12  C   UNL     1       1.374  15.049  18.348  1.00  0.00    -0.000 C 
BRANCH  12  13
ATOM     13  C   UNL     1       0.504  16.230  18.806  1.00  0.00    -0.000 C 
BRANCH  13  14
ATOM     14  C   UNL     1      -0.939  15.812  19.143  1.00  0.00    -0.000 C 
BRANCH  14  15
ATOM     15  C   UNL     1      -1.447  16.450  20.446  1.00  0.00    -0.000 C 
BRANCH  15  16
ATOM     16  C   UNL     1      -2.125  15.431  21.378  1.00  0.00    -0.000 C 
BRANCH  16  17
ATOM     17  C   UNL     1      -1.111  14.560  22.136  1.00  0.00    -0.003 C 
ATOM     18  C   UNL     1      -1.408  13.065  22.010  1.00  0.00     0.004 C 
ENDBRANCH  16  17
ENDBRANCH  15  16
ENDBRANCH  14  15
ENDBRANCH  13  14
ENDBRANCH  12  13
ENDBRANCH  11  12
ENDBRANCH   1  11
TORSDOF 14
ENDMDL
MODEL 4
REMARK VINA RESULT:    -4.229      3.066      7.951
REMARK INTER + INTRA:          -8.926
REMARK INTER:                  -7.607
REMARK INTRA:                  -1.319
REMARK UNBOUND:                -1.236
REMARK SMILES CCCCCCCCCCCCCCCC(=O)[O-]
REMARK SMILES IDX 9 1 10 2 11 3 12 4 13 5 14 6 15 7 16 8 17 9 18 10 8 11 7 12
REMARK SMILES IDX 6 13 5 14 4 15 3 16 2 17 1 18
REMARK H PARENT
REMARK Flexibility Score: inf
ROOT
ATOM      1  C   UNL     1       3.125  12.240  18.524  1.00  0.00     0.000 C 
ENDROOT
BRANCH   1   2
ATOM      2  C   UNL     1       2.395  13.231  19.448  1.00  0.00     0.000 C 
BRANCH   2   3
ATOM      3  C   UNL     1       2.473  14.683  18.955  1.00  0.00     0.000 C 
BRANCH   3   4
ATOM      4  C   UNL     1       1.154  15.115  18.303  1.00  0.00     0.000 C 
BRANCH   4   5
ATOM      5  C   UNL     1       0.639  16.424  18.920  1.00  0.00     0.000 C 
BRANCH   5   6
ATOM      6  C   UNL     1      -0.891  16.451  19.060  1.00  0.00     0.006 C 
BRANCH   6   7
ATOM      7  C   UNL     1      -1.461  15.123  19.576  1.00  0.00     0.053 C 
BRANCH   7   8
ATOM      8  C   UNL     1      -1.158  14.956  21.031  1.00  0.00     0.041 C 
ATOM      9  O   UNL     1      -0.594  13.909  21.444  1.00  0.00    -0.550 OA
ATOM     10  O   UNL     1      -1.543  15.935  21.939  1.00  0.00    -0.550 OA
ENDBRANCH   7   8
ENDBRANCH   6   7
ENDBRANCH   5   6
ENDBRANCH   4   5
ENDBRANCH   3   4
ENDBRANCH   2   3
ENDBRANCH   1   2
BRANCH   1  11
ATOM     11  C   UNL     1       4.539  12.669  18.090  1.00  0.00     0.000 C 
BRANCH  11  12
ATOM     12  C   UNL     1       4.697  12.756  16.563  1.00  0.00    -0.000 C 
BRANCH  12  13
ATOM     13  C   UNL     1       3.444  13.316  15.871  1.00  0.00    -0.000 C 
BRANCH  13  14
ATOM     14  C   UNL     1       3.281  12.803  14.429  1.00  0.00    -0.000 C 
BRANCH  14  15
ATOM     15  C   UNL     1       4.552  12.121  13.899  1.00  0.00    -0.000 C 
BRANCH  15  16
ATOM     16  C   UNL     1       4.249  11.036  12.853  1.00  0.00    -0.000 C 
BRANCH  16  17
ATOM     17  C   UNL     1       4.863   9.675  13.218  1.00  0.00    -0.003 C 
ATOM     18  C   UNL     1       5.056   9.502  14.725  1.00  0.00     0.004 C 
ENDBRANCH  16  17
ENDBRANCH  15  16
ENDBRANCH  14  15
ENDBRANCH  13  14
ENDBRANCH  12  13
ENDBRANCH  11  12
ENDBRANCH   1  11
TORSDOF 14
ENDMDL
MODEL 5
REMARK VINA RESULT:    -4.192      1.744      3.528
REMARK INTER + INTRA:          -8.859
REMARK INTER:                  -7.383
REMARK INTRA:                  -1.476
REMARK UNBOUND:                -1.236
REMARK SMILES CCCCCCCCCCCCCCCC(=O)[O-]
REMARK SMILES IDX 9 1 10 2 11 3 12 4 13 5 14 6 15 7 16 8 17 9 18 10 8 11 7 12
REMARK SMILES IDX 6 13 5 14 4 15 3 16 2 17 1 18
REMARK H PARENT
REMARK Flexibility Score: inf
ROOT
ATOM      1  C   UNL     1       1.148  15.948  18.748  1.00  0.00     0.000 C 
ENDROOT
BRANCH   1   2
ATOM      2  C   UNL     1       2.064  14.806  18.273  1.00  0.00     0.000 C 
BRANCH   2   3
ATOM      3  C   UNL     1       2.296  13.734  19.349  1.00  0.00     0.000 C 
BRANCH   3   4
ATOM      4  C   UNL     1       3.556  12.914  19.046  1.00  0.00     0.000 C 
BRANCH   4   5
ATOM      5  C   UNL     1       3.190  11.521  18.512  1.00  0.00     0.000 C 
BRANCH   5   6
ATOM      6  C   UNL     1       3.542  11.345  17.027  1.00  0.00     0.006 C 
BRANCH   6   7
ATOM      7  C   UNL     1       4.381  12.506  16.476  1.00  0.00     0.053 C 
BRANCH   7   8
ATOM      8  C   UNL     1       3.858  12.940  15.144  1.00  0.00     0.041 C 
ATOM      9  O   UNL     1       2.711  13.452  15.050  1.00  0.00    -0.550 OA
ATOM     10  O   UNL     1       4.616  12.734  13.998  1.00  0.00    -0.550 OA
ENDBRANCH   7   8
ENDBRANCH   6   7
ENDBRANCH   5   6
ENDBRANCH   4   5
ENDBRANCH   3   4
ENDBRANCH   2   3
ENDBRANCH   1   2
BRANCH   1  11
ATOM     11  C   UNL     1      -0.358  15.625  18.744  1.00  0.00     0.000 C 
BRANCH  11  12
ATOM     12  C   UNL     1      -1.053  15.991  20.065  1.00  0.00    -0.000 C 
BRANCH  12  13
ATOM     13  C   UNL     1      -1.607  17.425  20.064  1.00  0.00    -0.000 C 
BRANCH  13  14
ATOM     14  C   UNL     1      -0.753  18.394  20.902  1.00  0.00    -0.000 C 
BRANCH  14  15
ATOM     15  C   UNL     1      -0.263  19.601  20.087  1.00  0.00    -0.000 C 
BRANCH  15  16
ATOM     16  C   UNL     1      -0.544  19.450  18.582  1.00  0.00    -0.000 C 
BRANCH  16  17
ATOM     17  C   UNL     1       0.687  19.765  17.717  1.00  0.00    -0.003 C 
ATOM     18  C   UNL     1       2.004  19.521  18.455  1.00  0.00     0.004 C 
ENDBRANCH  16  17
ENDBRANCH  15  16
ENDBRANCH  14  15
ENDBRANCH  13  14
ENDBRANCH  12  13
ENDBRANCH  11  12
ENDBRANCH   1  11
TORSDOF 14
ENDMDL
MODEL 6
REMARK VINA RESULT:    -4.044      3.145      7.189
REMARK INTER + INTRA:          -8.589
REMARK INTER:                  -7.490
REMARK INTRA:                  -1.099
REMARK UNBOUND:                -1.236
REMARK SMILES CCCCCCCCCCCCCCCC(=O)[O-]
REMARK SMILES IDX 9 1 10 2 11 3 12 4 13 5 14 6 15 7 16 8 17 9 18 10 8 11 7 12
REMARK SMILES IDX 6 13 5 14 4 15 3 16 2 17 1 18
REMARK H PARENT
REMARK Flexibility Score: inf
ROOT
ATOM      1  C   UNL     1       0.984  15.671  18.408  1.00  0.00     0.000 C 
ENDROOT
BRANCH   1   2
ATOM      2  C   UNL     1      -0.215  15.274  19.289  1.00  0.00     0.000 C 
BRANCH   2   3
ATOM      3  C   UNL     1      -1.546  15.856  18.790  1.00  0.00     0.000 C 
BRANCH   3   4
ATOM      4  C   UNL     1      -1.590  17.376  18.985  1.00  0.00     0.000 C 
BRANCH   4   5
ATOM      5  C   UNL     1      -1.002  17.772  20.347  1.00  0.00     0.000 C 
BRANCH   5   6
ATOM      6  C   UNL     1      -0.049  18.974  20.254  1.00  0.00     0.006 C 
BRANCH   6   7
ATOM      7  C   UNL     1      -0.147  19.704  18.909  1.00  0.00     0.053 C 
BRANCH   7   8
ATOM      8  C   UNL     1       1.125  19.548  18.137  1.00  0.00     0.041 C 
ATOM      9  O   UNL     1       2.175  19.168  18.718  1.00  0.00    -0.550 OA
ATOM     10  O   UNL     1       1.162  19.868  16.786  1.00  0.00    -0.550 OA
ENDBRANCH   7   8
ENDBRANCH   6   7
ENDBRANCH   5   6
ENDBRANCH   4   5
ENDBRANCH   3   4
ENDBRANCH   2   3
ENDBRANCH   1   2
BRANCH   1  11
ATOM     11  C   UNL     1       1.954  14.525  18.068  1.00  0.00     0.000 C 
BRANCH  11  12
ATOM     12  C   UNL     1       2.378  13.712  19.303  1.00  0.00    -0.000 C 
BRANCH  12  13
ATOM     13  C   UNL     1       3.554  12.767  19.012  1.00  0.00    -0.000 C 
BRANCH  13  14
ATOM     14  C   UNL     1       3.097  11.361  18.583  1.00  0.00    -0.000 C 
BRANCH  14  15
ATOM     15  C   UNL     1       3.466  11.042  17.126  1.00  0.00    -0.000 C 
BRANCH  15  16
ATOM     16  C   UNL     1       4.207  12.200  16.437  1.00  0.00    -0.000 C 
BRANCH  16  17
ATOM     17  C   UNL     1       3.471  12.713  15.189  1.00  0.00    -0.003 C 
ATOM     18  C   UNL     1       4.246  12.447  13.898  1.00  0.00     0.004 C 
ENDBRANCH  16  17
ENDBRANCH  15  16
ENDBRANCH  14  15
ENDBRANCH  13  14
ENDBRANCH  12  13
ENDBRANCH  11  12
ENDBRANCH   1  11
TORSDOF 14
ENDMDL
MODEL 7
REMARK VINA RESULT:    -4.007      3.146      7.573
REMARK INTER + INTRA:          -8.522
REMARK INTER:                  -7.433
REMARK INTRA:                  -1.089
REMARK UNBOUND:                -1.236
REMARK SMILES CCCCCCCCCCCCCCCC(=O)[O-]
REMARK SMILES IDX 9 1 10 2 11 3 12 4 13 5 14 6 15 7 16 8 17 9 18 10 8 11 7 12
REMARK SMILES IDX 6 13 5 14 4 15 3 16 2 17 1 18
REMARK H PARENT
REMARK Flexibility Score: inf
ROOT
ATOM      1  C   UNL     1       2.254  14.758  18.337  1.00  0.00     0.000 C 
ENDROOT
BRANCH   1   2
ATOM      2  C   UNL     1       1.213  15.831  18.706  1.00  0.00     0.000 C 
BRANCH   2   3
ATOM      3  C   UNL     1      -0.121  15.236  19.182  1.00  0.00     0.000 C 
BRANCH   3   4
ATOM      4  C   UNL     1      -1.271  16.230  18.979  1.00  0.00     0.000 C 
BRANCH   4   5
ATOM      5  C   UNL     1      -1.530  17.039  20.259  1.00  0.00     0.000 C 
BRANCH   5   6
ATOM      6  C   UNL     1      -1.312  18.547  20.061  1.00  0.00     0.006 C 
BRANCH   6   7
ATOM      7  C   UNL     1       0.153  18.962  20.247  1.00  0.00     0.053 C 
BRANCH   7   8
ATOM      8  C   UNL     1       0.733  19.424  18.947  1.00  0.00     0.041 C 
ATOM      9  O   UNL     1      -0.010  19.937  18.070  1.00  0.00    -0.550 OA
ATOM     10  O   UNL     1       2.085  19.242  18.685  1.00  0.00    -0.550 OA
ENDBRANCH   7   8
ENDBRANCH   6   7
ENDBRANCH   5   6
ENDBRANCH   4   5
ENDBRANCH   3   4
ENDBRANCH   2   3
ENDBRANCH   1   2
BRANCH   1  11
ATOM     11  C   UNL     1       2.370  13.590  19.333  1.00  0.00     0.000 C 
BRANCH  11  12
ATOM     12  C   UNL     1       3.610  12.713  19.086  1.00  0.00    -0.000 C 
BRANCH  12  13
ATOM     13  C   UNL     1       3.245  11.275  18.686  1.00  0.00    -0.000 C 
BRANCH  13  14
ATOM     14  C   UNL     1       3.627  10.946  17.232  1.00  0.00    -0.000 C 
BRANCH  14  15
ATOM     15  C   UNL     1       4.288  12.133  16.514  1.00  0.00    -0.000 C 
BRANCH  15  16
ATOM     16  C   UNL     1       3.468  12.627  15.311  1.00  0.00    -0.000 C 
BRANCH  16  17
ATOM     17  C   UNL     1       4.289  12.666  14.013  1.00  0.00    -0.003 C 
ATOM     18  C   UNL     1       4.471  11.282  13.389  1.00  0.00     0.004 C 
ENDBRANCH  16  17
ENDBRANCH  15  16
ENDBRANCH  14  15
ENDBRANCH  13  14
ENDBRANCH  12  13
ENDBRANCH  11  12
ENDBRANCH   1  11
TORSDOF 14
ENDMDL
MODEL 8
REMARK VINA RESULT:    -4.006      3.238      6.794
REMARK INTER + INTRA:          -8.521
REMARK INTER:                  -7.256
REMARK INTRA:                  -1.265
REMARK UNBOUND:                -1.236
REMARK SMILES CCCCCCCCCCCCCCCC(=O)[O-]
REMARK SMILES IDX 9 1 10 2 11 3 12 4 13 5 14 6 15 7 16 8 17 9 18 10 8 11 7 12
REMARK SMILES IDX 6 13 5 14 4 15 3 16 2 17 1 18
REMARK H PARENT
REMARK Flexibility Score: inf
ROOT
ATOM      1  C   UNL     1      -0.011  15.282  19.402  1.00  0.00     0.000 C 
ENDROOT
BRANCH   1   2
ATOM      2  C   UNL     1      -1.350  15.682  18.756  1.00  0.00     0.000 C 
BRANCH   2   3
ATOM      3  C   UNL     1      -2.096  16.770  19.544  1.00  0.00     0.000 C 
BRANCH   3   4
ATOM      4  C   UNL     1      -1.425  17.026  20.898  1.00  0.00     0.000 C 
BRANCH   4   5
ATOM      5  C   UNL     1      -1.681  18.464  21.374  1.00  0.00     0.000 C 
BRANCH   5   6
ATOM      6  C   UNL     1      -0.862  19.503  20.592  1.00  0.00     0.006 C 
BRANCH   6   7
ATOM      7  C   UNL     1       0.534  18.992  20.216  1.00  0.00     0.053 C 
BRANCH   7   8
ATOM      8  C   UNL     1       0.842  19.321  18.789  1.00  0.00     0.041 C 
ATOM      9  O   UNL     1      -0.043  19.189  17.904  1.00  0.00    -0.550 OA
ATOM     10  O   UNL     1       2.121  19.726  18.429  1.00  0.00    -0.550 OA
ENDBRANCH   7   8
ENDBRANCH   6   7
ENDBRANCH   5   6
ENDBRANCH   4   5
ENDBRANCH   3   4
ENDBRANCH   2   3
ENDBRANCH   1   2
BRANCH   1  11
ATOM     11  C   UNL     1       1.222  15.418  18.490  1.00  0.00     0.000 C 
BRANCH  11  12
ATOM     12  C   UNL     1       2.271  14.320  18.732  1.00  0.00    -0.000 C 
BRANCH  12  13
ATOM     13  C   UNL     1       2.842  13.750  17.424  1.00  0.00    -0.000 C 
BRANCH  13  14
ATOM     14  C   UNL     1       3.850  12.610  17.661  1.00  0.00    -0.000 C 
BRANCH  14  15
ATOM     15  C   UNL     1       3.853  12.121  19.117  1.00  0.00    -0.000 C 
BRANCH  15  16
ATOM     16  C   UNL     1       3.680  10.596  19.228  1.00  0.00    -0.000 C 
BRANCH  16  17
ATOM     17  C   UNL     1       3.140   9.968  17.934  1.00  0.00    -0.003 C 
ATOM     18  C   UNL     1       1.895   9.114  18.168  1.00  0.00     0.004 C 
ENDBRANCH  16  17
ENDBRANCH  15  16
ENDBRANCH  14  15
ENDBRANCH  13  14
ENDBRANCH  12  13
ENDBRANCH  11  12
ENDBRANCH   1  11
TORSDOF 14
ENDMDL
MODEL 9
REMARK VINA RESULT:    -3.872      2.908      7.326
REMARK INTER + INTRA:          -8.276
REMARK INTER:                  -7.152
REMARK INTRA:                  -1.124
REMARK UNBOUND:                -1.236
REMARK SMILES CCCCCCCCCCCCCCCC(=O)[O-]
REMARK SMILES IDX 9 1 10 2 11 3 12 4 13 5 14 6 15 7 16 8 17 9 18 10 8 11 7 12
REMARK SMILES IDX 6 13 5 14 4 15 3 16 2 17 1 18
REMARK H PARENT
REMARK Flexibility Score: inf
ROOT
ATOM      1  C   UNL     1       1.523  17.505  18.697  1.00  0.00     0.000 C 
ENDROOT
BRANCH   1   2
ATOM      2  C   UNL     1       1.213  18.871  19.335  1.00  0.00     0.000 C 
BRANCH   2   3
ATOM      3  C   UNL     1      -0.292  19.130  19.500  1.00  0.00     0.000 C 
BRANCH   3   4
ATOM      4  C   UNL     1      -0.680  19.198  20.982  1.00  0.00     0.000 C 
BRANCH   4   5
ATOM      5  C   UNL     1      -1.989  18.437  21.242  1.00  0.00     0.000 C 
BRANCH   5   6
ATOM      6  C   UNL     1      -1.793  17.211  22.147  1.00  0.00     0.006 C 
BRANCH   6   7
ATOM      7  C   UNL     1      -1.926  15.886  21.385  1.00  0.00     0.053 C 
BRANCH   7   8
ATOM      8  C   UNL     1      -1.290  14.775  22.157  1.00  0.00     0.041 C 
ATOM      9  O   UNL     1      -1.361  14.755  23.414  1.00  0.00    -0.550 OA
ATOM     10  O   UNL     1      -0.574  13.786  21.493  1.00  0.00    -0.550 OA
ENDBRANCH   7   8
ENDBRANCH   6   7
ENDBRANCH   5   6
ENDBRANCH   4   5
ENDBRANCH   3   4
ENDBRANCH   2   3
ENDBRANCH   1   2
BRANCH   1  11
ATOM     11  C   UNL     1       0.407  16.452  18.829  1.00  0.00     0.000 C 
BRANCH  11  12
ATOM     12  C   UNL     1       0.866  15.039  18.433  1.00  0.00    -0.000 C 
BRANCH  12  13
ATOM     13  C   UNL     1       2.377  14.833  18.627  1.00  0.00    -0.000 C 
BRANCH  13  14
ATOM     14  C   UNL     1       2.731  13.403  19.072  1.00  0.00    -0.000 C 
BRANCH  14  15
ATOM     15  C   UNL     1       3.517  12.631  18.001  1.00  0.00    -0.000 C 
BRANCH  15  16
ATOM     16  C   UNL     1       3.764  13.467  16.733  1.00  0.00    -0.000 C 
BRANCH  16  17
ATOM     17  C   UNL     1       4.752  12.795  15.767  1.00  0.00    -0.003 C 
ATOM     18  C   UNL     1       4.157  12.572  14.376  1.00  0.00     0.004 C 
ENDBRANCH  16  17
ENDBRANCH  15  16
ENDBRANCH  14  15
ENDBRANCH  13  14
ENDBRANCH  12  13
ENDBRANCH  11  12
ENDBRANCH   1  11
TORSDOF 14
ENDMDL
