MODEL 1
REMARK VINA RESULT:     3.475      0.000      0.000
REMARK INTER + INTRA:           3.512
REMARK INTER:                   3.779
REMARK INTRA:                  -0.268
REMARK UNBOUND:                -0.268
REMARK SMILES C[C@@H]1[C@H](C)CC[C@]2(C(=O)[O-])CC[C@@]3(C)C(=CC[C@@H]4[C@@]5(C)CC[C@H](O)C(C)(C)[C@H]5CC[C@@]43C)[C@H]12
REMARK SMILES IDX 7 1 6 2 11 3 33 4 5 5 12 6 15 7 2 8 3 9 13 10 16 11 1 12
REMARK SMILES IDX 4 13 14 14 31 15 17 16 18 17 30 18 32 19 19 20 29 21 28 22
REMARK SMILES IDX 21 23 20 24 25 25 22 26 23 27 26 28 27 29 8 30 9 31 10 32
REMARK SMILES IDX 24 33
REMARK H PARENT 24 34
REMARK Flexibility Score: inf
ROOT
ATOM      1  C   UNL     1     -11.768  22.410 -10.449  1.00  0.00     0.017 C 
ATOM      2  C   UNL     1     -13.125  22.952  -9.923  1.00  0.00     0.014 C 
ATOM      3  C   UNL     1     -12.081  21.093 -11.251  1.00  0.00     0.014 C 
ATOM      4  C   UNL     1     -10.769  22.106  -9.260  1.00  0.00     0.030 C 
ATOM      5  C   UNL     1     -12.976  24.125  -8.951  1.00  0.00     0.004 C 
ATOM      6  C   UNL     1     -10.857  20.168 -11.466  1.00  0.00     0.013 C 
ATOM      7  C   UNL     1     -10.691  20.592  -9.012  1.00  0.00    -0.063 C 
ATOM      8  C   UNL     1     -10.836  23.087  -8.028  1.00  0.00    -0.003 C 
ATOM      9  C   UNL     1     -12.217  23.720  -7.678  1.00  0.00    -0.011 C 
ATOM     10  C   UNL     1     -10.059  19.771 -10.148  1.00  0.00    -0.006 C 
ATOM     11  C   UNL     1     -11.586  20.037  -8.192  1.00  0.00    -0.027 C 
ATOM     12  C   UNL     1     -10.033  22.601  -6.808  1.00  0.00     0.008 C 
ATOM     13  C   UNL     1     -13.125  22.943  -6.702  1.00  0.00     0.008 C 
ATOM     14  C   UNL     1      -8.570  20.250 -10.306  1.00  0.00     0.017 C 
ATOM     15  C   UNL     1     -10.063  18.173  -9.873  1.00  0.00    -0.020 C 
ATOM     16  C   UNL     1     -11.908  18.589  -8.124  1.00  0.00     0.032 C 
ATOM     17  C   UNL     1     -11.465  17.691  -9.329  1.00  0.00     0.006 C 
ATOM     18  C   UNL     1      -9.022  17.783  -8.779  1.00  0.00     0.008 C 
ATOM     19  C   UNL     1      -9.678  17.470 -11.226  1.00  0.00     0.012 C 
ATOM     20  C   UNL     1     -11.581  16.139  -8.894  1.00  0.00    -0.025 C 
ATOM     21  C   UNL     1      -9.049  16.299  -8.369  1.00  0.00     0.005 C 
ATOM     22  C   UNL     1     -10.426  15.757  -7.875  1.00  0.00     0.003 C 
ATOM     23  C   UNL     1     -11.531  15.160 -10.113  1.00  0.00     0.010 C 
ATOM     24  C   UNL     1     -13.001  15.965  -8.250  1.00  0.00     0.012 C 
ATOM     25  C   UNL     1     -10.350  14.203  -7.501  1.00  0.00    -0.006 C 
ATOM     26  C   UNL     1     -11.540  13.670  -9.734  1.00  0.00     0.033 C 
ATOM     27  C   UNL     1     -10.383  13.317  -8.786  1.00  0.00     0.120 C 
ATOM     28  C   UNL     1     -11.495  13.800  -6.523  1.00  0.00     0.014 C 
ATOM     29  C   UNL     1      -9.030  13.884  -6.739  1.00  0.00     0.014 C 
ENDROOT
BRANCH   1  30
ATOM     30  C   UNL     1     -11.180  23.448 -11.406  1.00  0.00     0.048 C 
ATOM     31  O   UNL     1      -9.973  23.800 -11.318  1.00  0.00    -0.550 OA
ATOM     32  O   UNL     1     -11.994  24.099 -12.327  1.00  0.00    -0.550 OA
ENDBRANCH   1  30
BRANCH  27  33
ATOM     33  O   UNL     1     -10.466  11.958  -8.433  1.00  0.00    -0.393 OA
ATOM     34  H   UNL     1     -10.331  11.903  -7.450  1.00  0.00     0.210 HD
ENDBRANCH  27  33
TORSDOF 2
ENDMDL
