MODEL 1
REMARK VINA RESULT:    -6.579      0.000      0.000
REMARK INTER + INTRA:         -21.282
REMARK INTER:                 -17.349
REMARK INTRA:                  -3.933
REMARK UNBOUND:                -3.933
REMARK SMILES CCCCCCCCCCCCCCCCCCCCCCCCCCCCCC(=O)[O-]
REMARK SMILES IDX 16 1 17 2 18 3 19 4 20 5 21 6 22 7 23 8 24 9 25 10 26 11
REMARK SMILES IDX 27 12 28 13 29 14 30 15 31 16 32 17 15 18 14 19 13 20 12 21
REMARK SMILES IDX 11 22 10 23 9 24 8 25 7 26 6 27 5 28 4 29 3 30 2 31 1 32
REMARK H PARENT
REMARK Flexibility Score: inf
ROOT
ATOM      1  C   UNL     1      39.141 -10.395  21.359  1.00  0.00     0.000 C 
ENDROOT
BRANCH   1   2
ATOM      2  C   UNL     1      39.728  -9.612  22.548  1.00  0.00     0.000 C 
BRANCH   2   3
ATOM      3  C   UNL     1      38.696  -9.272  23.644  1.00  0.00     0.000 C 
BRANCH   3   4
ATOM      4  C   UNL     1      38.973  -7.951  24.386  1.00  0.00     0.000 C 
BRANCH   4   5
ATOM      5  C   UNL     1      38.069  -6.782  23.949  1.00  0.00     0.000 C 
BRANCH   5   6
ATOM      6  C   UNL     1      36.847  -7.252  23.145  1.00  0.00     0.000 C 
BRANCH   6   7
ATOM      7  C   UNL     1      35.592  -7.296  24.028  1.00  0.00     0.000 C 
BRANCH   7   8
ATOM      8  C   UNL     1      34.835  -5.956  24.052  1.00  0.00     0.000 C 
BRANCH   8   9
ATOM      9  C   UNL     1      34.068  -5.690  22.746  1.00  0.00     0.000 C 
BRANCH   9  10
ATOM     10  C   UNL     1      32.576  -5.389  22.976  1.00  0.00     0.000 C 
BRANCH  10  11
ATOM     11  C   UNL     1      31.712  -5.333  21.699  1.00  0.00     0.000 C 
BRANCH  11  12
ATOM     12  C   UNL     1      30.192  -5.443  21.927  1.00  0.00     0.000 C 
BRANCH  12  13
ATOM     13  C   UNL     1      29.318  -4.683  20.909  1.00  0.00     0.006 C 
BRANCH  13  14
ATOM     14  C   UNL     1      28.027  -5.424  20.516  1.00  0.00     0.053 C 
BRANCH  14  15
ATOM     15  C   UNL     1      27.741  -5.341  19.047  1.00  0.00     0.041 C 
ATOM     16  O   UNL     1      27.489  -6.385  18.390  1.00  0.00    -0.550 OA
ATOM     17  O   UNL     1      27.790  -4.115  18.396  1.00  0.00    -0.550 OA
ENDBRANCH  14  15
ENDBRANCH  13  14
ENDBRANCH  12  13
ENDBRANCH  11  12
ENDBRANCH  10  11
ENDBRANCH   9  10
ENDBRANCH   8   9
ENDBRANCH   7   8
ENDBRANCH   6   7
ENDBRANCH   5   6
ENDBRANCH   4   5
ENDBRANCH   3   4
ENDBRANCH   2   3
ENDBRANCH   1   2
BRANCH   1  18
ATOM     18  C   UNL     1      37.820 -11.096  21.716  1.00  0.00     0.000 C 
BRANCH  18  19
ATOM     19  C   UNL     1      36.735 -10.803  20.668  1.00  0.00     0.000 C 
BRANCH  19  20
ATOM     20  C   UNL     1      35.525 -10.067  21.273  1.00  0.00     0.000 C 
BRANCH  20  21
ATOM     21  C   UNL     1      34.507  -9.645  20.201  1.00  0.00     0.000 C 
BRANCH  21  22
ATOM     22  C   UNL     1      33.454  -8.656  20.743  1.00  0.00     0.000 C 
BRANCH  22  23
ATOM     23  C   UNL     1      32.854  -9.066  22.098  1.00  0.00     0.000 C 
BRANCH  23  24
ATOM     24  C   UNL     1      31.318  -9.076  22.088  1.00  0.00    -0.000 C 
BRANCH  24  25
ATOM     25  C   UNL     1      30.719  -8.819  20.690  1.00  0.00    -0.000 C 
BRANCH  25  26
ATOM     26  C   UNL     1      29.189  -8.957  20.585  1.00  0.00    -0.000 C 
BRANCH  26  27
ATOM     27  C   UNL     1      28.525  -9.370  21.911  1.00  0.00    -0.000 C 
BRANCH  27  28
ATOM     28  C   UNL     1      28.053 -10.833  21.898  1.00  0.00    -0.000 C 
BRANCH  28  29
ATOM     29  C   UNL     1      27.540 -11.280  20.521  1.00  0.00    -0.000 C 
BRANCH  29  30
ATOM     30  C   UNL     1      27.970 -12.724  20.222  1.00  0.00    -0.000 C 
BRANCH  30  31
ATOM     31  C   UNL     1      27.484 -13.214  18.849  1.00  0.00    -0.003 C 
ATOM     32  C   UNL     1      25.988 -12.979  18.635  1.00  0.00     0.004 C 
ENDBRANCH  30  31
ENDBRANCH  29  30
ENDBRANCH  28  29
ENDBRANCH  27  28
ENDBRANCH  26  27
ENDBRANCH  25  26
ENDBRANCH  24  25
ENDBRANCH  23  24
ENDBRANCH  22  23
ENDBRANCH  21  22
ENDBRANCH  20  21
ENDBRANCH  19  20
ENDBRANCH  18  19
ENDBRANCH   1  18
TORSDOF 28
ENDMDL
MODEL 2
REMARK VINA RESULT:    -6.555      1.540      7.597
REMARK INTER + INTRA:         -21.219
REMARK INTER:                 -18.236
REMARK INTRA:                  -2.982
REMARK UNBOUND:                -3.933
REMARK SMILES CCCCCCCCCCCCCCCCCCCCCCCCCCCCCC(=O)[O-]
REMARK SMILES IDX 16 1 17 2 18 3 19 4 20 5 21 6 22 7 23 8 24 9 25 10 26 11
REMARK SMILES IDX 27 12 28 13 29 14 30 15 31 16 32 17 15 18 14 19 13 20 12 21
REMARK SMILES IDX 11 22 10 23 9 24 8 25 7 26 6 27 5 28 4 29 3 30 2 31 1 32
REMARK H PARENT
REMARK Flexibility Score: inf
ROOT
ATOM      1  C   UNL     1      34.649  -9.580  20.636  1.00  0.00     0.000 C 
ENDROOT
BRANCH   1   2
ATOM      2  C   UNL     1      33.568  -9.648  19.541  1.00  0.00     0.000 C 
BRANCH   2   3
ATOM      3  C   UNL     1      32.151  -9.291  20.038  1.00  0.00     0.000 C 
BRANCH   3   4
ATOM      4  C   UNL     1      32.067  -8.996  21.548  1.00  0.00     0.000 C 
BRANCH   4   5
ATOM      5  C   UNL     1      30.629  -8.955  22.102  1.00  0.00     0.000 C 
BRANCH   5   6
ATOM      6  C   UNL     1      29.594  -9.473  21.091  1.00  0.00     0.000 C 
BRANCH   6   7
ATOM      7  C   UNL     1      28.605 -10.437  21.762  1.00  0.00     0.000 C 
BRANCH   7   8
ATOM      8  C   UNL     1      27.965 -11.419  20.765  1.00  0.00     0.000 C 
BRANCH   8   9
ATOM      9  C   UNL     1      26.497 -11.075  20.461  1.00  0.00     0.000 C 
BRANCH   9  10
ATOM     10  C   UNL     1      26.346  -9.967  19.402  1.00  0.00     0.000 C 
BRANCH  10  11
ATOM     11  C   UNL     1      25.840  -8.611  19.936  1.00  0.00     0.000 C 
BRANCH  11  12
ATOM     12  C   UNL     1      26.812  -7.429  19.761  1.00  0.00     0.000 C 
BRANCH  12  13
ATOM     13  C   UNL     1      26.202  -6.165  19.124  1.00  0.00     0.006 C 
BRANCH  13  14
ATOM     14  C   UNL     1      26.720  -4.847  19.729  1.00  0.00     0.053 C 
BRANCH  14  15
ATOM     15  C   UNL     1      27.942  -4.335  19.031  1.00  0.00     0.041 C 
ATOM     16  O   UNL     1      28.823  -3.706  19.673  1.00  0.00    -0.550 OA
ATOM     17  O   UNL     1      28.091  -4.519  17.662  1.00  0.00    -0.550 OA
ENDBRANCH  14  15
ENDBRANCH  13  14
ENDBRANCH  12  13
ENDBRANCH  11  12
ENDBRANCH  10  11
ENDBRANCH   9  10
ENDBRANCH   8   9
ENDBRANCH   7   8
ENDBRANCH   6   7
ENDBRANCH   5   6
ENDBRANCH   4   5
ENDBRANCH   3   4
ENDBRANCH   2   3
ENDBRANCH   1   2
BRANCH   1  18
ATOM     18  C   UNL     1      35.829 -10.522  20.351  1.00  0.00     0.000 C 
BRANCH  18  19
ATOM     19  C   UNL     1      36.981 -10.284  21.340  1.00  0.00     0.000 C 
BRANCH  19  20
ATOM     20  C   UNL     1      37.792 -11.565  21.608  1.00  0.00     0.000 C 
BRANCH  20  21
ATOM     21  C   UNL     1      39.136 -11.568  20.861  1.00  0.00     0.000 C 
BRANCH  21  22
ATOM     22  C   UNL     1      40.327 -11.881  21.790  1.00  0.00     0.000 C 
BRANCH  22  23
ATOM     23  C   UNL     1      40.998 -10.632  22.386  1.00  0.00     0.000 C 
BRANCH  23  24
ATOM     24  C   UNL     1      40.565 -10.360  23.835  1.00  0.00    -0.000 C 
BRANCH  24  25
ATOM     25  C   UNL     1      39.535  -9.219  23.955  1.00  0.00    -0.000 C 
BRANCH  25  26
ATOM     26  C   UNL     1      38.251  -9.560  24.735  1.00  0.00    -0.000 C 
BRANCH  26  27
ATOM     27  C   UNL     1      37.335  -8.343  24.955  1.00  0.00    -0.000 C 
BRANCH  27  28
ATOM     28  C   UNL     1      37.824  -7.097  24.200  1.00  0.00    -0.000 C 
BRANCH  28  29
ATOM     29  C   UNL     1      36.818  -5.937  24.252  1.00  0.00    -0.000 C 
BRANCH  29  30
ATOM     30  C   UNL     1      35.400  -6.432  23.927  1.00  0.00    -0.000 C 
BRANCH  30  31
ATOM     31  C   UNL     1      35.221  -6.779  22.442  1.00  0.00    -0.003 C 
ATOM     32  C   UNL     1      34.162  -5.915  21.756  1.00  0.00     0.004 C 
ENDBRANCH  30  31
ENDBRANCH  29  30
ENDBRANCH  28  29
ENDBRANCH  27  28
ENDBRANCH  26  27
ENDBRANCH  25  26
ENDBRANCH  24  25
ENDBRANCH  23  24
ENDBRANCH  22  23
ENDBRANCH  21  22
ENDBRANCH  20  21
ENDBRANCH  19  20
ENDBRANCH  18  19
ENDBRANCH   1  18
TORSDOF 28
ENDMDL
MODEL 3
REMARK VINA RESULT:    -6.552      1.888      4.917
REMARK INTER + INTRA:         -21.209
REMARK INTER:                 -17.104
REMARK INTRA:                  -4.105
REMARK UNBOUND:                -3.933
REMARK SMILES CCCCCCCCCCCCCCCCCCCCCCCCCCCCCC(=O)[O-]
REMARK SMILES IDX 16 1 17 2 18 3 19 4 20 5 21 6 22 7 23 8 24 9 25 10 26 11
REMARK SMILES IDX 27 12 28 13 29 14 30 15 31 16 32 17 15 18 14 19 13 20 12 21
REMARK SMILES IDX 11 22 10 23 9 24 8 25 7 26 6 27 5 28 4 29 3 30 2 31 1 32
REMARK H PARENT
REMARK Flexibility Score: inf
ROOT
ATOM      1  C   UNL     1      33.955  -5.760  22.806  1.00  0.00     0.000 C 
ENDROOT
BRANCH   1   2
ATOM      2  C   UNL     1      33.665  -5.211  21.397  1.00  0.00     0.000 C 
BRANCH   2   3
ATOM      3  C   UNL     1      32.213  -4.730  21.200  1.00  0.00     0.000 C 
BRANCH   3   4
ATOM      4  C   UNL     1      31.324  -4.872  22.451  1.00  0.00     0.000 C 
BRANCH   4   5
ATOM      5  C   UNL     1      29.816  -4.724  22.172  1.00  0.00     0.000 C 
BRANCH   5   6
ATOM      6  C   UNL     1      29.015  -5.965  22.597  1.00  0.00     0.000 C 
BRANCH   6   7
ATOM      7  C   UNL     1      28.949  -6.079  24.126  1.00  0.00     0.000 C 
BRANCH   7   8
ATOM      8  C   UNL     1      27.572  -6.550  24.628  1.00  0.00     0.000 C 
BRANCH   8   9
ATOM      9  C   UNL     1      26.576  -5.391  24.790  1.00  0.00     0.000 C 
BRANCH   9  10
ATOM     10  C   UNL     1      25.222  -5.662  24.108  1.00  0.00     0.000 C 
BRANCH  10  11
ATOM     11  C   UNL     1      25.169  -5.341  22.600  1.00  0.00     0.000 C 
BRANCH  11  12
ATOM     12  C   UNL     1      26.015  -4.132  22.154  1.00  0.00     0.000 C 
BRANCH  12  13
ATOM     13  C   UNL     1      26.299  -4.052  20.641  1.00  0.00     0.006 C 
BRANCH  13  14
ATOM     14  C   UNL     1      26.327  -5.420  19.936  1.00  0.00     0.053 C 
BRANCH  14  15
ATOM     15  C   UNL     1      27.481  -5.557  18.991  1.00  0.00     0.041 C 
ATOM     16  O   UNL     1      28.163  -4.547  18.672  1.00  0.00    -0.550 OA
ATOM     17  O   UNL     1      27.782  -6.792  18.432  1.00  0.00    -0.550 OA
ENDBRANCH  14  15
ENDBRANCH  13  14
ENDBRANCH  12  13
ENDBRANCH  11  12
ENDBRANCH  10  11
ENDBRANCH   9  10
ENDBRANCH   8   9
ENDBRANCH   7   8
ENDBRANCH   6   7
ENDBRANCH   5   6
ENDBRANCH   4   5
ENDBRANCH   3   4
ENDBRANCH   2   3
ENDBRANCH   1   2
BRANCH   1  18
ATOM     18  C   UNL     1      35.413  -6.218  22.967  1.00  0.00     0.000 C 
BRANCH  18  19
ATOM     19  C   UNL     1      35.504  -7.492  23.820  1.00  0.00     0.000 C 
BRANCH  19  20
ATOM     20  C   UNL     1      35.041  -8.743  23.049  1.00  0.00     0.000 C 
BRANCH  20  21
ATOM     21  C   UNL     1      35.567  -8.762  21.604  1.00  0.00     0.000 C 
BRANCH  21  22
ATOM     22  C   UNL     1      34.656  -9.567  20.655  1.00  0.00     0.000 C 
BRANCH  22  23
ATOM     23  C   UNL     1      33.553  -8.728  19.988  1.00  0.00     0.000 C 
BRANCH  23  24
ATOM     24  C   UNL     1      32.140  -9.192  20.373  1.00  0.00    -0.000 C 
BRANCH  24  25
ATOM     25  C   UNL     1      31.634  -8.566  21.688  1.00  0.00    -0.000 C 
BRANCH  25  26
ATOM     26  C   UNL     1      30.500  -9.332  22.397  1.00  0.00    -0.000 C 
BRANCH  26  27
ATOM     27  C   UNL     1      29.159  -9.261  21.646  1.00  0.00    -0.000 C 
BRANCH  27  28
ATOM     28  C   UNL     1      28.290 -10.508  21.881  1.00  0.00    -0.000 C 
BRANCH  28  29
ATOM     29  C   UNL     1      27.356 -10.812  20.700  1.00  0.00    -0.000 C 
BRANCH  29  30
ATOM     30  C   UNL     1      27.655 -12.200  20.113  1.00  0.00    -0.000 C 
BRANCH  30  31
ATOM     31  C   UNL     1      26.683 -12.587  18.987  1.00  0.00    -0.003 C 
ATOM     32  C   UNL     1      26.856 -14.036  18.531  1.00  0.00     0.004 C 
ENDBRANCH  30  31
ENDBRANCH  29  30
ENDBRANCH  28  29
ENDBRANCH  27  28
ENDBRANCH  26  27
ENDBRANCH  25  26
ENDBRANCH  24  25
ENDBRANCH  23  24
ENDBRANCH  22  23
ENDBRANCH  21  22
ENDBRANCH  20  21
ENDBRANCH  19  20
ENDBRANCH  18  19
ENDBRANCH   1  18
TORSDOF 28
ENDMDL
MODEL 4
REMARK VINA RESULT:    -6.541      3.222      6.876
REMARK INTER + INTRA:         -21.181
REMARK INTER:                 -17.147
REMARK INTRA:                  -4.034
REMARK UNBOUND:                -3.933
REMARK SMILES CCCCCCCCCCCCCCCCCCCCCCCCCCCCCC(=O)[O-]
REMARK SMILES IDX 16 1 17 2 18 3 19 4 20 5 21 6 22 7 23 8 24 9 25 10 26 11
REMARK SMILES IDX 27 12 28 13 29 14 30 15 31 16 32 17 15 18 14 19 13 20 12 21
REMARK SMILES IDX 11 22 10 23 9 24 8 25 7 26 6 27 5 28 4 29 3 30 2 31 1 32
REMARK H PARENT
REMARK Flexibility Score: inf
ROOT
ATOM      1  C   UNL     1      34.536  -9.342  20.713  1.00  0.00     0.000 C 
ENDROOT
BRANCH   1   2
ATOM      2  C   UNL     1      35.879  -9.820  21.295  1.00  0.00     0.000 C 
BRANCH   2   3
ATOM      3  C   UNL     1      36.557 -10.933  20.469  1.00  0.00     0.000 C 
BRANCH   3   4
ATOM      4  C   UNL     1      37.896 -11.425  21.051  1.00  0.00     0.000 C 
BRANCH   4   5
ATOM      5  C   UNL     1      39.130 -11.019  20.222  1.00  0.00     0.000 C 
BRANCH   5   6
ATOM      6  C   UNL     1      40.362 -11.881  20.539  1.00  0.00     0.000 C 
BRANCH   6   7
ATOM      7  C   UNL     1      40.447 -12.187  22.041  1.00  0.00     0.000 C 
BRANCH   7   8
ATOM      8  C   UNL     1      41.490 -11.318  22.765  1.00  0.00     0.000 C 
BRANCH   8   9
ATOM      9  C   UNL     1      40.849 -10.342  23.767  1.00  0.00     0.000 C 
BRANCH   9  10
ATOM     10  C   UNL     1      40.500  -8.980  23.140  1.00  0.00     0.000 C 
BRANCH  10  11
ATOM     11  C   UNL     1      38.998  -8.632  23.119  1.00  0.00     0.000 C 
BRANCH  11  12
ATOM     12  C   UNL     1      38.138  -9.357  24.172  1.00  0.00     0.000 C 
BRANCH  12  13
ATOM     13  C   UNL     1      37.180  -8.454  24.975  1.00  0.00     0.006 C 
BRANCH  13  14
ATOM     14  C   UNL     1      36.456  -7.396  24.122  1.00  0.00     0.053 C 
BRANCH  14  15
ATOM     15  C   UNL     1      36.741  -5.998  24.577  1.00  0.00     0.041 C 
ATOM     16  O   UNL     1      37.913  -5.539  24.522  1.00  0.00    -0.550 OA
ATOM     17  O   UNL     1      35.720  -5.212  25.097  1.00  0.00    -0.550 OA
ENDBRANCH  14  15
ENDBRANCH  13  14
ENDBRANCH  12  13
ENDBRANCH  11  12
ENDBRANCH  10  11
ENDBRANCH   9  10
ENDBRANCH   8   9
ENDBRANCH   7   8
ENDBRANCH   6   7
ENDBRANCH   5   6
ENDBRANCH   4   5
ENDBRANCH   3   4
ENDBRANCH   2   3
ENDBRANCH   1   2
BRANCH   1  18
ATOM     18  C   UNL     1      34.000  -8.093  21.430  1.00  0.00     0.000 C 
BRANCH  18  19
ATOM     19  C   UNL     1      32.464  -8.052  21.402  1.00  0.00     0.000 C 
BRANCH  19  20
ATOM     20  C   UNL     1      31.863  -9.266  20.669  1.00  0.00     0.000 C 
BRANCH  20  21
ATOM     21  C   UNL     1      30.327  -9.288  20.744  1.00  0.00     0.000 C 
BRANCH  21  22
ATOM     22  C   UNL     1      29.810  -9.540  22.175  1.00  0.00     0.000 C 
BRANCH  22  23
ATOM     23  C   UNL     1      28.561 -10.434  22.238  1.00  0.00     0.000 C 
BRANCH  23  24
ATOM     24  C   UNL     1      28.094 -10.900  20.851  1.00  0.00    -0.000 C 
BRANCH  24  25
ATOM     25  C   UNL     1      26.634 -10.513  20.541  1.00  0.00    -0.000 C 
BRANCH  25  26
ATOM     26  C   UNL     1      26.406  -9.792  19.199  1.00  0.00    -0.000 C 
BRANCH  26  27
ATOM     27  C   UNL     1      26.263  -8.266  19.348  1.00  0.00    -0.000 C 
BRANCH  27  28
ATOM     28  C   UNL     1      27.623  -7.555  19.415  1.00  0.00    -0.000 C 
BRANCH  28  29
ATOM     29  C   UNL     1      27.716  -6.560  20.581  1.00  0.00    -0.000 C 
BRANCH  29  30
ATOM     30  C   UNL     1      26.983  -7.101  21.818  1.00  0.00    -0.000 C 
BRANCH  30  31
ATOM     31  C   UNL     1      27.419  -6.405  23.116  1.00  0.00    -0.003 C 
ATOM     32  C   UNL     1      28.936  -6.403  23.305  1.00  0.00     0.004 C 
ENDBRANCH  30  31
ENDBRANCH  29  30
ENDBRANCH  28  29
ENDBRANCH  27  28
ENDBRANCH  26  27
ENDBRANCH  25  26
ENDBRANCH  24  25
ENDBRANCH  23  24
ENDBRANCH  22  23
ENDBRANCH  21  22
ENDBRANCH  20  21
ENDBRANCH  19  20
ENDBRANCH  18  19
ENDBRANCH   1  18
TORSDOF 28
ENDMDL
MODEL 5
REMARK VINA RESULT:    -6.541      2.055      7.817
REMARK INTER + INTRA:         -21.181
REMARK INTER:                 -16.337
REMARK INTRA:                  -4.844
REMARK UNBOUND:                -3.933
REMARK SMILES CCCCCCCCCCCCCCCCCCCCCCCCCCCCCC(=O)[O-]
REMARK SMILES IDX 16 1 17 2 18 3 19 4 20 5 21 6 22 7 23 8 24 9 25 10 26 11
REMARK SMILES IDX 27 12 28 13 29 14 30 15 31 16 32 17 15 18 14 19 13 20 12 21
REMARK SMILES IDX 11 22 10 23 9 24 8 25 7 26 6 27 5 28 4 29 3 30 2 31 1 32
REMARK H PARENT
REMARK Flexibility Score: inf
ROOT
ATOM      1  C   UNL     1      29.490  -9.568  22.409  1.00  0.00     0.000 C 
ENDROOT
BRANCH   1   2
ATOM      2  C   UNL     1      28.160 -10.264  22.064  1.00  0.00     0.000 C 
BRANCH   2   3
ATOM      3  C   UNL     1      28.241 -11.191  20.833  1.00  0.00     0.000 C 
BRANCH   3   4
ATOM      4  C   UNL     1      26.963 -11.212  19.972  1.00  0.00     0.000 C 
BRANCH   4   5
ATOM      5  C   UNL     1      26.119  -9.926  20.067  1.00  0.00     0.000 C 
BRANCH   5   6
ATOM      6  C   UNL     1      26.543  -8.867  19.038  1.00  0.00     0.000 C 
BRANCH   6   7
ATOM      7  C   UNL     1      25.573  -7.677  19.043  1.00  0.00     0.000 C 
BRANCH   7   8
ATOM      8  C   UNL     1      24.865  -7.493  20.396  1.00  0.00     0.000 C 
BRANCH   8   9
ATOM      9  C   UNL     1      25.498  -6.378  21.245  1.00  0.00     0.000 C 
BRANCH   9  10
ATOM     10  C   UNL     1      26.624  -6.887  22.164  1.00  0.00     0.000 C 
BRANCH  10  11
ATOM     11  C   UNL     1      27.983  -6.178  21.995  1.00  0.00     0.000 C 
BRANCH  11  12
ATOM     12  C   UNL     1      28.403  -5.898  20.539  1.00  0.00     0.000 C 
BRANCH  12  13
ATOM     13  C   UNL     1      28.753  -4.429  20.227  1.00  0.00     0.006 C 
BRANCH  13  14
ATOM     14  C   UNL     1      28.039  -3.867  18.984  1.00  0.00     0.053 C 
BRANCH  14  15
ATOM     15  C   UNL     1      27.006  -2.839  19.331  1.00  0.00     0.041 C 
ATOM     16  O   UNL     1      26.892  -1.794  18.637  1.00  0.00    -0.550 OA
ATOM     17  O   UNL     1      26.193  -3.016  20.443  1.00  0.00    -0.550 OA
ENDBRANCH  14  15
ENDBRANCH  13  14
ENDBRANCH  12  13
ENDBRANCH  11  12
ENDBRANCH  10  11
ENDBRANCH   9  10
ENDBRANCH   8   9
ENDBRANCH   7   8
ENDBRANCH   6   7
ENDBRANCH   5   6
ENDBRANCH   4   5
ENDBRANCH   3   4
ENDBRANCH   2   3
ENDBRANCH   1   2
BRANCH   1  18
ATOM     18  C   UNL     1      30.312  -9.224  21.157  1.00  0.00     0.000 C 
BRANCH  18  19
ATOM     19  C   UNL     1      31.817  -9.215  21.465  1.00  0.00     0.000 C 
BRANCH  19  20
ATOM     20  C   UNL     1      32.652  -8.709  20.274  1.00  0.00     0.000 C 
BRANCH  20  21
ATOM     21  C   UNL     1      33.471  -9.835  19.619  1.00  0.00     0.000 C 
BRANCH  21  22
ATOM     22  C   UNL     1      34.848 -10.026  20.286  1.00  0.00     0.000 C 
BRANCH  22  23
ATOM     23  C   UNL     1      35.345  -8.793  21.058  1.00  0.00     0.000 C 
BRANCH  23  24
ATOM     24  C   UNL     1      35.553  -9.073  22.554  1.00  0.00    -0.000 C 
BRANCH  24  25
ATOM     25  C   UNL     1      34.948  -7.985  23.464  1.00  0.00    -0.000 C 
BRANCH  25  26
ATOM     26  C   UNL     1      35.783  -6.699  23.611  1.00  0.00    -0.000 C 
BRANCH  26  27
ATOM     27  C   UNL     1      34.946  -5.477  24.029  1.00  0.00    -0.000 C 
BRANCH  27  28
ATOM     28  C   UNL     1      34.658  -4.534  22.849  1.00  0.00    -0.000 C 
BRANCH  28  29
ATOM     29  C   UNL     1      34.014  -5.255  21.656  1.00  0.00    -0.000 C 
BRANCH  29  30
ATOM     30  C   UNL     1      32.532  -4.873  21.524  1.00  0.00    -0.000 C 
BRANCH  30  31
ATOM     31  C   UNL     1      31.612  -5.776  22.360  1.00  0.00    -0.003 C 
ATOM     32  C   UNL     1      31.116  -5.096  23.636  1.00  0.00     0.004 C 
ENDBRANCH  30  31
ENDBRANCH  29  30
ENDBRANCH  28  29
ENDBRANCH  27  28
ENDBRANCH  26  27
ENDBRANCH  25  26
ENDBRANCH  24  25
ENDBRANCH  23  24
ENDBRANCH  22  23
ENDBRANCH  21  22
ENDBRANCH  20  21
ENDBRANCH  19  20
ENDBRANCH  18  19
ENDBRANCH   1  18
TORSDOF 28
ENDMDL
MODEL 6
REMARK VINA RESULT:    -6.537      4.432      9.295
REMARK INTER + INTRA:         -21.170
REMARK INTER:                 -18.152
REMARK INTRA:                  -3.018
REMARK UNBOUND:                -3.933
REMARK SMILES CCCCCCCCCCCCCCCCCCCCCCCCCCCCCC(=O)[O-]
REMARK SMILES IDX 16 1 17 2 18 3 19 4 20 5 21 6 22 7 23 8 24 9 25 10 26 11
REMARK SMILES IDX 27 12 28 13 29 14 30 15 31 16 32 17 15 18 14 19 13 20 12 21
REMARK SMILES IDX 11 22 10 23 9 24 8 25 7 26 6 27 5 28 4 29 3 30 2 31 1 32
REMARK H PARENT
REMARK Flexibility Score: inf
ROOT
ATOM      1  C   UNL     1      26.250  -5.830  23.361  1.00  0.00     0.000 C 
ENDROOT
BRANCH   1   2
ATOM      2  C   UNL     1      27.721  -6.180  23.067  1.00  0.00     0.000 C 
BRANCH   2   3
ATOM      3  C   UNL     1      27.901  -7.434  22.186  1.00  0.00     0.000 C 
BRANCH   3   4
ATOM      4  C   UNL     1      29.211  -7.456  21.376  1.00  0.00     0.000 C 
BRANCH   4   5
ATOM      5  C   UNL     1      30.480  -7.619  22.236  1.00  0.00     0.000 C 
BRANCH   5   6
ATOM      6  C   UNL     1      31.111  -9.013  22.096  1.00  0.00     0.000 C 
BRANCH   6   7
ATOM      7  C   UNL     1      31.637  -9.237  20.671  1.00  0.00     0.000 C 
BRANCH   7   8
ATOM      8  C   UNL     1      33.156  -9.023  20.558  1.00  0.00     0.000 C 
BRANCH   8   9
ATOM      9  C   UNL     1      33.807  -9.959  19.526  1.00  0.00     0.000 C 
BRANCH   9  10
ATOM     10  C   UNL     1      35.235 -10.385  19.916  1.00  0.00     0.000 C 
BRANCH  10  11
ATOM     11  C   UNL     1      35.787  -9.734  21.201  1.00  0.00     0.000 C 
BRANCH  11  12
ATOM     12  C   UNL     1      37.269 -10.027  21.504  1.00  0.00     0.000 C 
BRANCH  12  13
ATOM     13  C   UNL     1      37.560 -11.434  22.063  1.00  0.00     0.006 C 
BRANCH  13  14
ATOM     14  C   UNL     1      38.540 -12.257  21.208  1.00  0.00     0.053 C 
BRANCH  14  15
ATOM     15  C   UNL     1      39.409 -13.156  22.033  1.00  0.00     0.041 C 
ATOM     16  O   UNL     1      39.003 -14.300  22.366  1.00  0.00    -0.550 OA
ATOM     17  O   UNL     1      40.653 -12.715  22.468  1.00  0.00    -0.550 OA
ENDBRANCH  14  15
ENDBRANCH  13  14
ENDBRANCH  12  13
ENDBRANCH  11  12
ENDBRANCH  10  11
ENDBRANCH   9  10
ENDBRANCH   8   9
ENDBRANCH   7   8
ENDBRANCH   6   7
ENDBRANCH   5   6
ENDBRANCH   4   5
ENDBRANCH   3   4
ENDBRANCH   2   3
ENDBRANCH   1   2
BRANCH   1  18
ATOM     18  C   UNL     1      25.598  -5.037  22.217  1.00  0.00     0.000 C 
BRANCH  18  19
ATOM     19  C   UNL     1      25.238  -3.612  22.663  1.00  0.00     0.000 C 
BRANCH  19  20
ATOM     20  C   UNL     1      25.682  -2.551  21.638  1.00  0.00     0.000 C 
BRANCH  20  21
ATOM     21  C   UNL     1      26.872  -3.027  20.788  1.00  0.00     0.000 C 
BRANCH  21  22
ATOM     22  C   UNL     1      26.685  -2.721  19.288  1.00  0.00     0.000 C 
BRANCH  22  23
ATOM     23  C   UNL     1      26.658  -3.972  18.395  1.00  0.00     0.000 C 
BRANCH  23  24
ATOM     24  C   UNL     1      27.739  -4.996  18.774  1.00  0.00    -0.000 C 
BRANCH  24  25
ATOM     25  C   UNL     1      27.247  -6.455  18.695  1.00  0.00    -0.000 C 
BRANCH  25  26
ATOM     26  C   UNL     1      25.737  -6.662  18.918  1.00  0.00    -0.000 C 
BRANCH  26  27
ATOM     27  C   UNL     1      25.351  -8.137  19.127  1.00  0.00    -0.000 C 
BRANCH  27  28
ATOM     28  C   UNL     1      26.579  -9.042  19.317  1.00  0.00    -0.000 C 
BRANCH  28  29
ATOM     29  C   UNL     1      26.282 -10.271  20.190  1.00  0.00    -0.000 C 
BRANCH  29  30
ATOM     30  C   UNL     1      27.105 -11.482  19.724  1.00  0.00    -0.000 C 
BRANCH  30  31
ATOM     31  C   UNL     1      26.293 -12.446  18.846  1.00  0.00    -0.003 C 
ATOM     32  C   UNL     1      27.142 -13.583  18.276  1.00  0.00     0.004 C 
ENDBRANCH  30  31
ENDBRANCH  29  30
ENDBRANCH  28  29
ENDBRANCH  27  28
ENDBRANCH  26  27
ENDBRANCH  25  26
ENDBRANCH  24  25
ENDBRANCH  23  24
ENDBRANCH  22  23
ENDBRANCH  21  22
ENDBRANCH  20  21
ENDBRANCH  19  20
ENDBRANCH  18  19
ENDBRANCH   1  18
TORSDOF 28
ENDMDL
MODEL 7
REMARK VINA RESULT:    -6.473      3.915      7.516
REMARK INTER + INTRA:         -21.002
REMARK INTER:                 -17.792
REMARK INTRA:                  -3.211
REMARK UNBOUND:                -3.933
REMARK SMILES CCCCCCCCCCCCCCCCCCCCCCCCCCCCCC(=O)[O-]
REMARK SMILES IDX 16 1 17 2 18 3 19 4 20 5 21 6 22 7 23 8 24 9 25 10 26 11
REMARK SMILES IDX 27 12 28 13 29 14 30 15 31 16 32 17 15 18 14 19 13 20 12 21
REMARK SMILES IDX 11 22 10 23 9 24 8 25 7 26 6 27 5 28 4 29 3 30 2 31 1 32
REMARK H PARENT
REMARK Flexibility Score: inf
ROOT
ATOM      1  C   UNL     1      34.415  -6.675  22.107  1.00  0.00     0.000 C 
ENDROOT
BRANCH   1   2
ATOM      2  C   UNL     1      34.672  -7.550  23.348  1.00  0.00     0.000 C 
BRANCH   2   3
ATOM      3  C   UNL     1      36.119  -7.477  23.876  1.00  0.00     0.000 C 
BRANCH   3   4
ATOM      4  C   UNL     1      37.187  -7.927  22.860  1.00  0.00     0.000 C 
BRANCH   4   5
ATOM      5  C   UNL     1      37.187  -9.442  22.578  1.00  0.00     0.000 C 
BRANCH   5   6
ATOM      6  C   UNL     1      36.604  -9.783  21.198  1.00  0.00     0.000 C 
BRANCH   6   7
ATOM      7  C   UNL     1      37.103 -11.152  20.713  1.00  0.00     0.000 C 
BRANCH   7   8
ATOM      8  C   UNL     1      37.934 -11.892  21.775  1.00  0.00     0.000 C 
BRANCH   8   9
ATOM      9  C   UNL     1      39.115 -12.665  21.165  1.00  0.00     0.000 C 
BRANCH   9  10
ATOM     10  C   UNL     1      40.390 -12.593  22.026  1.00  0.00     0.000 C 
BRANCH  10  11
ATOM     11  C   UNL     1      41.178 -11.271  21.925  1.00  0.00     0.000 C 
BRANCH  11  12
ATOM     12  C   UNL     1      41.903 -10.835  23.213  1.00  0.00     0.000 C 
BRANCH  12  13
ATOM     13  C   UNL     1      41.590  -9.403  23.691  1.00  0.00     0.006 C 
BRANCH  13  14
ATOM     14  C   UNL     1      40.322  -9.295  24.557  1.00  0.00     0.053 C 
BRANCH  14  15
ATOM     15  C   UNL     1      40.098  -7.909  25.078  1.00  0.00     0.041 C 
ATOM     16  O   UNL     1      40.572  -6.916  24.465  1.00  0.00    -0.550 OA
ATOM     17  O   UNL     1      39.397  -7.714  26.261  1.00  0.00    -0.550 OA
ENDBRANCH  14  15
ENDBRANCH  13  14
ENDBRANCH  12  13
ENDBRANCH  11  12
ENDBRANCH  10  11
ENDBRANCH   9  10
ENDBRANCH   8   9
ENDBRANCH   7   8
ENDBRANCH   6   7
ENDBRANCH   5   6
ENDBRANCH   4   5
ENDBRANCH   3   4
ENDBRANCH   2   3
ENDBRANCH   1   2
BRANCH   1  18
ATOM     18  C   UNL     1      33.670  -7.435  20.999  1.00  0.00     0.000 C 
BRANCH  18  19
ATOM     19  C   UNL     1      33.128  -8.778  21.514  1.00  0.00     0.000 C 
BRANCH  19  20
ATOM     20  C   UNL     1      31.765  -9.133  20.892  1.00  0.00     0.000 C 
BRANCH  20  21
ATOM     21  C   UNL     1      30.646  -9.202  21.945  1.00  0.00     0.000 C 
BRANCH  21  22
ATOM     22  C   UNL     1      30.059  -7.815  22.275  1.00  0.00     0.000 C 
BRANCH  22  23
ATOM     23  C   UNL     1      28.537  -7.817  22.493  1.00  0.00     0.000 C 
BRANCH  23  24
ATOM     24  C   UNL     1      27.813  -6.769  21.635  1.00  0.00    -0.000 C 
BRANCH  24  25
ATOM     25  C   UNL     1      27.703  -7.171  20.150  1.00  0.00    -0.000 C 
BRANCH  25  26
ATOM     26  C   UNL     1      27.676  -8.685  19.871  1.00  0.00    -0.000 C 
BRANCH  26  27
ATOM     27  C   UNL     1      26.289  -9.317  20.090  1.00  0.00    -0.000 C 
BRANCH  27  28
ATOM     28  C   UNL     1      26.359 -10.846  20.238  1.00  0.00    -0.000 C 
BRANCH  28  29
ATOM     29  C   UNL     1      27.671 -11.320  20.880  1.00  0.00    -0.000 C 
BRANCH  29  30
ATOM     30  C   UNL     1      28.234 -12.538  20.131  1.00  0.00    -0.000 C 
BRANCH  30  31
ATOM     31  C   UNL     1      27.132 -13.431  19.540  1.00  0.00    -0.003 C 
ATOM     32  C   UNL     1      27.172 -13.486  18.012  1.00  0.00     0.004 C 
ENDBRANCH  30  31
ENDBRANCH  29  30
ENDBRANCH  28  29
ENDBRANCH  27  28
ENDBRANCH  26  27
ENDBRANCH  25  26
ENDBRANCH  24  25
ENDBRANCH  23  24
ENDBRANCH  22  23
ENDBRANCH  21  22
ENDBRANCH  20  21
ENDBRANCH  19  20
ENDBRANCH  18  19
ENDBRANCH   1  18
TORSDOF 28
ENDMDL
MODEL 8
REMARK VINA RESULT:    -6.468      4.082      8.667
REMARK INTER + INTRA:         -20.989
REMARK INTER:                 -17.934
REMARK INTRA:                  -3.055
REMARK UNBOUND:                -3.933
REMARK SMILES CCCCCCCCCCCCCCCCCCCCCCCCCCCCCC(=O)[O-]
REMARK SMILES IDX 16 1 17 2 18 3 19 4 20 5 21 6 22 7 23 8 24 9 25 10 26 11
REMARK SMILES IDX 27 12 28 13 29 14 30 15 31 16 32 17 15 18 14 19 13 20 12 21
REMARK SMILES IDX 11 22 10 23 9 24 8 25 7 26 6 27 5 28 4 29 3 30 2 31 1 32
REMARK H PARENT
REMARK Flexibility Score: inf
ROOT
ATOM      1  C   UNL     1      27.053  -6.431  24.481  1.00  0.00     0.000 C 
ENDROOT
BRANCH   1   2
ATOM      2  C   UNL     1      28.167  -6.854  23.506  1.00  0.00     0.000 C 
BRANCH   2   3
ATOM      3  C   UNL     1      29.397  -5.922  23.520  1.00  0.00     0.000 C 
BRANCH   3   4
ATOM      4  C   UNL     1      30.143  -5.838  22.175  1.00  0.00     0.000 C 
BRANCH   4   5
ATOM      5  C   UNL     1      31.508  -6.553  22.166  1.00  0.00     0.000 C 
BRANCH   5   6
ATOM      6  C   UNL     1      32.667  -5.605  21.822  1.00  0.00     0.000 C 
BRANCH   6   7
ATOM      7  C   UNL     1      33.939  -6.393  21.480  1.00  0.00     0.000 C 
BRANCH   7   8
ATOM      8  C   UNL     1      33.853  -7.871  21.898  1.00  0.00     0.000 C 
BRANCH   8   9
ATOM      9  C   UNL     1      34.144  -8.831  20.732  1.00  0.00     0.000 C 
BRANCH   9  10
ATOM     10  C   UNL     1      35.300  -9.804  21.030  1.00  0.00     0.000 C 
BRANCH  10  11
ATOM     11  C   UNL     1      36.512  -9.184  21.755  1.00  0.00     0.000 C 
BRANCH  11  12
ATOM     12  C   UNL     1      37.783 -10.056  21.779  1.00  0.00     0.000 C 
BRANCH  12  13
ATOM     13  C   UNL     1      37.597 -11.502  21.278  1.00  0.00     0.006 C 
BRANCH  13  14
ATOM     14  C   UNL     1      38.622 -12.498  21.850  1.00  0.00     0.053 C 
BRANCH  14  15
ATOM     15  C   UNL     1      40.026 -12.183  21.431  1.00  0.00     0.041 C 
ATOM     16  O   UNL     1      40.964 -12.231  22.269  1.00  0.00    -0.550 OA
ATOM     17  O   UNL     1      40.292 -11.800  20.123  1.00  0.00    -0.550 OA
ENDBRANCH  14  15
ENDBRANCH  13  14
ENDBRANCH  12  13
ENDBRANCH  11  12
ENDBRANCH  10  11
ENDBRANCH   9  10
ENDBRANCH   8   9
ENDBRANCH   7   8
ENDBRANCH   6   7
ENDBRANCH   5   6
ENDBRANCH   4   5
ENDBRANCH   3   4
ENDBRANCH   2   3
ENDBRANCH   1   2
BRANCH   1  18
ATOM     18  C   UNL     1      25.853  -5.797  23.759  1.00  0.00     0.000 C 
BRANCH  18  19
ATOM     19  C   UNL     1      26.093  -4.303  23.491  1.00  0.00     0.000 C 
BRANCH  19  20
ATOM     20  C   UNL     1      25.595  -3.875  22.098  1.00  0.00     0.000 C 
BRANCH  20  21
ATOM     21  C   UNL     1      26.647  -4.121  21.004  1.00  0.00     0.000 C 
BRANCH  21  22
ATOM     22  C   UNL     1      26.493  -5.503  20.336  1.00  0.00     0.000 C 
BRANCH  22  23
ATOM     23  C   UNL     1      27.467  -5.745  19.172  1.00  0.00     0.000 C 
BRANCH  23  24
ATOM     24  C   UNL     1      27.607  -7.233  18.815  1.00  0.00    -0.000 C 
BRANCH  24  25
ATOM     25  C   UNL     1      27.699  -8.147  20.054  1.00  0.00    -0.000 C 
BRANCH  25  26
ATOM     26  C   UNL     1      29.115  -8.629  20.422  1.00  0.00    -0.000 C 
BRANCH  26  27
ATOM     27  C   UNL     1      29.115  -9.867  21.338  1.00  0.00    -0.000 C 
BRANCH  27  28
ATOM     28  C   UNL     1      27.763 -10.598  21.334  1.00  0.00    -0.000 C 
BRANCH  28  29
ATOM     29  C   UNL     1      27.735 -11.787  20.362  1.00  0.00    -0.000 C 
BRANCH  29  30
ATOM     30  C   UNL     1      26.350 -11.925  19.710  1.00  0.00    -0.000 C 
BRANCH  30  31
ATOM     31  C   UNL     1      26.419 -12.523  18.297  1.00  0.00    -0.003 C 
ATOM     32  C   UNL     1      27.221 -13.823  18.243  1.00  0.00     0.004 C 
ENDBRANCH  30  31
ENDBRANCH  29  30
ENDBRANCH  28  29
ENDBRANCH  27  28
ENDBRANCH  26  27
ENDBRANCH  25  26
ENDBRANCH  24  25
ENDBRANCH  23  24
ENDBRANCH  22  23
ENDBRANCH  21  22
ENDBRANCH  20  21
ENDBRANCH  19  20
ENDBRANCH  18  19
ENDBRANCH   1  18
TORSDOF 28
ENDMDL
MODEL 9
REMARK VINA RESULT:    -6.412      1.550      7.318
REMARK INTER + INTRA:         -20.840
REMARK INTER:                 -16.856
REMARK INTRA:                  -3.984
REMARK UNBOUND:                -3.933
REMARK SMILES CCCCCCCCCCCCCCCCCCCCCCCCCCCCCC(=O)[O-]
REMARK SMILES IDX 16 1 17 2 18 3 19 4 20 5 21 6 22 7 23 8 24 9 25 10 26 11
REMARK SMILES IDX 27 12 28 13 29 14 30 15 31 16 32 17 15 18 14 19 13 20 12 21
REMARK SMILES IDX 11 22 10 23 9 24 8 25 7 26 6 27 5 28 4 29 3 30 2 31 1 32
REMARK H PARENT
REMARK Flexibility Score: inf
ROOT
ATOM      1  C   UNL     1      32.172  -9.251  20.274  1.00  0.00     0.000 C 
ENDROOT
BRANCH   1   2
ATOM      2  C   UNL     1      31.897  -8.892  21.746  1.00  0.00     0.000 C 
BRANCH   2   3
ATOM      3  C   UNL     1      30.407  -8.645  22.062  1.00  0.00     0.000 C 
BRANCH   3   4
ATOM      4  C   UNL     1      29.432  -9.296  21.062  1.00  0.00     0.000 C 
BRANCH   4   5
ATOM      5  C   UNL     1      28.580 -10.431  21.662  1.00  0.00     0.000 C 
BRANCH   5   6
ATOM      6  C   UNL     1      27.798 -11.209  20.592  1.00  0.00     0.000 C 
BRANCH   6   7
ATOM      7  C   UNL     1      26.377 -10.651  20.435  1.00  0.00     0.000 C 
BRANCH   7   8
ATOM      8  C   UNL     1      26.291  -9.533  19.381  1.00  0.00     0.000 C 
BRANCH   8   9
ATOM      9  C   UNL     1      25.317  -8.414  19.787  1.00  0.00     0.000 C 
BRANCH   9  10
ATOM     10  C   UNL     1      25.961  -7.360  20.706  1.00  0.00     0.000 C 
BRANCH  10  11
ATOM     11  C   UNL     1      26.685  -6.209  19.979  1.00  0.00     0.000 C 
BRANCH  11  12
ATOM     12  C   UNL     1      28.124  -5.930  20.455  1.00  0.00     0.000 C 
BRANCH  12  13
ATOM     13  C   UNL     1      28.482  -4.440  20.629  1.00  0.00     0.006 C 
BRANCH  13  14
ATOM     14  C   UNL     1      28.642  -3.677  19.302  1.00  0.00     0.053 C 
BRANCH  14  15
ATOM     15  C   UNL     1      27.528  -2.705  19.060  1.00  0.00     0.041 C 
ATOM     16  O   UNL     1      26.576  -3.009  18.293  1.00  0.00    -0.550 OA
ATOM     17  O   UNL     1      27.559  -1.448  19.651  1.00  0.00    -0.550 OA
ENDBRANCH  14  15
ENDBRANCH  13  14
ENDBRANCH  12  13
ENDBRANCH  11  12
ENDBRANCH  10  11
ENDBRANCH   9  10
ENDBRANCH   8   9
ENDBRANCH   7   8
ENDBRANCH   6   7
ENDBRANCH   5   6
ENDBRANCH   4   5
ENDBRANCH   3   4
ENDBRANCH   2   3
ENDBRANCH   1   2
BRANCH   1  18
ATOM     18  C   UNL     1      33.660  -9.526  20.008  1.00  0.00     0.000 C 
BRANCH  18  19
ATOM     19  C   UNL     1      34.480  -9.449  21.305  1.00  0.00     0.000 C 
BRANCH  19  20
ATOM     20  C   UNL     1      35.996  -9.454  21.036  1.00  0.00     0.000 C 
BRANCH  20  21
ATOM     21  C   UNL     1      36.758 -10.355  22.022  1.00  0.00     0.000 C 
BRANCH  21  22
ATOM     22  C   UNL     1      37.983  -9.650  22.640  1.00  0.00     0.000 C 
BRANCH  22  23
ATOM     23  C   UNL     1      38.069  -9.777  24.170  1.00  0.00     0.000 C 
BRANCH  23  24
ATOM     24  C   UNL     1      37.821  -8.444  24.891  1.00  0.00    -0.000 C 
BRANCH  24  25
ATOM     25  C   UNL     1      37.937  -7.220  23.959  1.00  0.00    -0.000 C 
BRANCH  25  26
ATOM     26  C   UNL     1      36.749  -6.241  23.995  1.00  0.00    -0.000 C 
BRANCH  26  27
ATOM     27  C   UNL     1      35.435  -6.862  23.486  1.00  0.00    -0.000 C 
BRANCH  27  28
ATOM     28  C   UNL     1      34.361  -5.802  23.194  1.00  0.00    -0.000 C 
BRANCH  28  29
ATOM     29  C   UNL     1      33.959  -5.757  21.712  1.00  0.00    -0.000 C 
BRANCH  29  30
ATOM     30  C   UNL     1      32.518  -5.246  21.554  1.00  0.00    -0.000 C 
BRANCH  30  31
ATOM     31  C   UNL     1      31.997  -4.546  22.818  1.00  0.00    -0.003 C 
ATOM     32  C   UNL     1      30.727  -5.194  23.371  1.00  0.00     0.004 C 
ENDBRANCH  30  31
ENDBRANCH  29  30
ENDBRANCH  28  29
ENDBRANCH  27  28
ENDBRANCH  26  27
ENDBRANCH  25  26
ENDBRANCH  24  25
ENDBRANCH  23  24
ENDBRANCH  22  23
ENDBRANCH  21  22
ENDBRANCH  20  21
ENDBRANCH  19  20
ENDBRANCH  18  19
ENDBRANCH   1  18
TORSDOF 28
ENDMDL
