MODEL 1
REMARK VINA RESULT:    -4.566      0.000      0.000
REMARK INTER + INTRA:          -9.449
REMARK INTER:                  -8.302
REMARK INTRA:                  -1.147
REMARK UNBOUND:                -1.147
REMARK SMILES CCCCCCCCCCCCCCCC(=O)[O-]
REMARK SMILES IDX 9 1 10 2 11 3 12 4 13 5 14 6 15 7 16 8 17 9 18 10 8 11 7 12
REMARK SMILES IDX 6 13 5 14 4 15 3 16 2 17 1 18
REMARK H PARENT
REMARK Flexibility Score: inf
ROOT
ATOM      1  C   UNL     1      -5.911  -2.009   2.662  1.00  0.00     0.000 C 
ENDROOT
BRANCH   1   2
ATOM      2  C   UNL     1      -5.732  -2.505   1.215  1.00  0.00     0.000 C 
BRANCH   2   3
ATOM      3  C   UNL     1      -4.555  -3.478   1.005  1.00  0.00     0.000 C 
BRANCH   3   4
ATOM      4  C   UNL     1      -4.956  -4.955   0.811  1.00  0.00     0.000 C 
BRANCH   4   5
ATOM      5  C   UNL     1      -6.472  -5.211   0.699  1.00  0.00     0.000 C 
BRANCH   5   6
ATOM      6  C   UNL     1      -6.959  -5.622  -0.702  1.00  0.00     0.006 C 
BRANCH   6   7
ATOM      7  C   UNL     1      -5.824  -5.685  -1.733  1.00  0.00     0.053 C 
BRANCH   7   8
ATOM      8  C   UNL     1      -6.379  -5.803  -3.116  1.00  0.00     0.041 C 
ATOM      9  O   UNL     1      -6.178  -4.890  -3.960  1.00  0.00    -0.550 OA
ATOM     10  O   UNL     1      -7.076  -6.945  -3.490  1.00  0.00    -0.550 OA
ENDBRANCH   7   8
ENDBRANCH   6   7
ENDBRANCH   5   6
ENDBRANCH   4   5
ENDBRANCH   3   4
ENDBRANCH   2   3
ENDBRANCH   1   2
BRANCH   1  11
ATOM     11  C   UNL     1      -4.656  -2.228   3.525  1.00  0.00     0.000 C 
BRANCH  11  12
ATOM     12  C   UNL     1      -4.941  -3.079   4.773  1.00  0.00    -0.000 C 
BRANCH  12  13
ATOM     13  C   UNL     1      -4.201  -2.566   6.018  1.00  0.00    -0.000 C 
BRANCH  13  14
ATOM     14  C   UNL     1      -4.388  -1.052   6.181  1.00  0.00    -0.000 C 
BRANCH  14  15
ATOM     15  C   UNL     1      -3.073  -0.318   6.503  1.00  0.00    -0.000 C 
BRANCH  15  16
ATOM     16  C   UNL     1      -2.315   0.233   5.277  1.00  0.00    -0.000 C 
BRANCH  16  17
ATOM     17  C   UNL     1      -0.782   0.229   5.406  1.00  0.00    -0.003 C 
ATOM     18  C   UNL     1      -0.287  -0.578   6.606  1.00  0.00     0.004 C 
ENDBRANCH  16  17
ENDBRANCH  15  16
ENDBRANCH  14  15
ENDBRANCH  13  14
ENDBRANCH  12  13
ENDBRANCH  11  12
ENDBRANCH   1  11
TORSDOF 14
ENDMDL
MODEL 2
REMARK VINA RESULT:    -4.541      1.600      2.540
REMARK INTER + INTRA:          -9.405
REMARK INTER:                  -8.383
REMARK INTRA:                  -1.022
REMARK UNBOUND:                -1.147
REMARK SMILES CCCCCCCCCCCCCCCC(=O)[O-]
REMARK SMILES IDX 9 1 10 2 11 3 12 4 13 5 14 6 15 7 16 8 17 9 18 10 8 11 7 12
REMARK SMILES IDX 6 13 5 14 4 15 3 16 2 17 1 18
REMARK H PARENT
REMARK Flexibility Score: inf
ROOT
ATOM      1  C   UNL     1      -4.809  -3.253   4.649  1.00  0.00     0.000 C 
ENDROOT
BRANCH   1   2
ATOM      2  C   UNL     1      -5.271  -3.808   3.289  1.00  0.00     0.000 C 
BRANCH   2   3
ATOM      3  C   UNL     1      -5.189  -2.808   2.119  1.00  0.00     0.000 C 
BRANCH   3   4
ATOM      4  C   UNL     1      -4.673  -3.397   0.791  1.00  0.00     0.000 C 
BRANCH   4   5
ATOM      5  C   UNL     1      -4.792  -4.928   0.666  1.00  0.00     0.000 C 
BRANCH   5   6
ATOM      6  C   UNL     1      -5.638  -5.419  -0.523  1.00  0.00     0.006 C 
BRANCH   6   7
ATOM      7  C   UNL     1      -7.126  -5.564  -0.175  1.00  0.00     0.053 C 
BRANCH   7   8
ATOM      8  C   UNL     1      -7.927  -4.496  -0.848  1.00  0.00     0.041 C 
ATOM      9  O   UNL     1      -8.552  -4.748  -1.912  1.00  0.00    -0.550 OA
ATOM     10  O   UNL     1      -8.025  -3.235  -0.274  1.00  0.00    -0.550 OA
ENDBRANCH   7   8
ENDBRANCH   6   7
ENDBRANCH   5   6
ENDBRANCH   4   5
ENDBRANCH   3   4
ENDBRANCH   2   3
ENDBRANCH   1   2
BRANCH   1  11
ATOM     11  C   UNL     1      -4.240  -1.827   4.547  1.00  0.00     0.000 C 
BRANCH  11  12
ATOM     12  C   UNL     1      -4.358  -1.049   5.868  1.00  0.00    -0.000 C 
BRANCH  12  13
ATOM     13  C   UNL     1      -3.031  -0.403   6.292  1.00  0.00    -0.000 C 
BRANCH  13  14
ATOM     14  C   UNL     1      -2.195  -0.011   5.066  1.00  0.00    -0.000 C 
BRANCH  14  15
ATOM     15  C   UNL     1      -0.726   0.290   5.414  1.00  0.00    -0.000 C 
BRANCH  15  16
ATOM     16  C   UNL     1      -0.308  -0.075   6.854  1.00  0.00    -0.000 C 
BRANCH  16  17
ATOM     17  C   UNL     1       0.811  -1.125   6.958  1.00  0.00    -0.003 C 
ATOM     18  C   UNL     1       1.584  -1.304   5.651  1.00  0.00     0.004 C 
ENDBRANCH  16  17
ENDBRANCH  15  16
ENDBRANCH  14  15
ENDBRANCH  13  14
ENDBRANCH  12  13
ENDBRANCH  11  12
ENDBRANCH   1  11
TORSDOF 14
ENDMDL
MODEL 3
REMARK VINA RESULT:    -4.506      2.196      4.164
REMARK INTER + INTRA:          -9.341
REMARK INTER:                  -8.609
REMARK INTRA:                  -0.732
REMARK UNBOUND:                -1.147
REMARK SMILES CCCCCCCCCCCCCCCC(=O)[O-]
REMARK SMILES IDX 9 1 10 2 11 3 12 4 13 5 14 6 15 7 16 8 17 9 18 10 8 11 7 12
REMARK SMILES IDX 6 13 5 14 4 15 3 16 2 17 1 18
REMARK H PARENT
REMARK Flexibility Score: inf
ROOT
ATOM      1  C   UNL     1      -3.022  -0.769   5.983  1.00  0.00     0.000 C 
ENDROOT
BRANCH   1   2
ATOM      2  C   UNL     1      -4.374  -0.994   5.280  1.00  0.00     0.000 C 
BRANCH   2   3
ATOM      3  C   UNL     1      -4.459  -2.282   4.438  1.00  0.00     0.000 C 
BRANCH   3   4
ATOM      4  C   UNL     1      -4.878  -2.076   2.969  1.00  0.00     0.000 C 
BRANCH   4   5
ATOM      5  C   UNL     1      -5.332  -3.353   2.234  1.00  0.00     0.000 C 
BRANCH   5   6
ATOM      6  C   UNL     1      -4.595  -3.639   0.914  1.00  0.00     0.006 C 
BRANCH   6   7
ATOM      7  C   UNL     1      -4.796  -5.077   0.418  1.00  0.00     0.053 C 
BRANCH   7   8
ATOM      8  C   UNL     1      -6.027  -5.171  -0.426  1.00  0.00     0.041 C 
ATOM      9  O   UNL     1      -7.050  -5.762   0.008  1.00  0.00    -0.550 OA
ATOM     10  O   UNL     1      -6.061  -4.562  -1.675  1.00  0.00    -0.550 OA
ENDBRANCH   7   8
ENDBRANCH   6   7
ENDBRANCH   5   6
ENDBRANCH   4   5
ENDBRANCH   3   4
ENDBRANCH   2   3
ENDBRANCH   1   2
BRANCH   1  11
ATOM     11  C   UNL     1      -2.030   0.031   5.122  1.00  0.00     0.000 C 
BRANCH  11  12
ATOM     12  C   UNL     1      -0.822   0.535   5.929  1.00  0.00    -0.000 C 
BRANCH  12  13
ATOM     13  C   UNL     1      -0.576  -0.293   7.200  1.00  0.00    -0.000 C 
BRANCH  13  14
ATOM     14  C   UNL     1       0.500  -1.360   6.958  1.00  0.00    -0.000 C 
BRANCH  14  15
ATOM     15  C   UNL     1       1.550  -0.927   5.918  1.00  0.00    -0.000 C 
BRANCH  15  16
ATOM     16  C   UNL     1       2.247  -2.083   5.172  1.00  0.00    -0.000 C 
BRANCH  16  17
ATOM     17  C   UNL     1       2.054  -2.079   3.645  1.00  0.00    -0.003 C 
ATOM     18  C   UNL     1       3.370  -1.955   2.879  1.00  0.00     0.004 C 
ENDBRANCH  16  17
ENDBRANCH  15  16
ENDBRANCH  14  15
ENDBRANCH  13  14
ENDBRANCH  12  13
ENDBRANCH  11  12
ENDBRANCH   1  11
TORSDOF 14
ENDMDL
MODEL 4
REMARK VINA RESULT:    -4.471      4.709      8.657
REMARK INTER + INTRA:          -9.278
REMARK INTER:                  -8.606
REMARK INTRA:                  -0.672
REMARK UNBOUND:                -1.147
REMARK SMILES CCCCCCCCCCCCCCCC(=O)[O-]
REMARK SMILES IDX 9 1 10 2 11 3 12 4 13 5 14 6 15 7 16 8 17 9 18 10 8 11 7 12
REMARK SMILES IDX 6 13 5 14 4 15 3 16 2 17 1 18
REMARK H PARENT
REMARK Flexibility Score: inf
ROOT
ATOM      1  C   UNL     1      -3.190  -0.331   5.996  1.00  0.00     0.000 C 
ENDROOT
BRANCH   1   2
ATOM      2  C   UNL     1      -2.227   0.574   5.205  1.00  0.00     0.000 C 
BRANCH   2   3
ATOM      3  C   UNL     1      -0.758   0.107   5.199  1.00  0.00     0.000 C 
BRANCH   3   4
ATOM      4  C   UNL     1      -0.277  -0.553   6.507  1.00  0.00     0.000 C 
BRANCH   4   5
ATOM      5  C   UNL     1       1.149  -1.135   6.458  1.00  0.00     0.000 C 
BRANCH   5   6
ATOM      6  C   UNL     1       1.738  -1.293   5.045  1.00  0.00     0.006 C 
BRANCH   6   7
ATOM      7  C   UNL     1       2.532  -2.594   4.873  1.00  0.00     0.053 C 
BRANCH   7   8
ATOM      8  C   UNL     1       3.682  -2.386   3.941  1.00  0.00     0.041 C 
ATOM      9  O   UNL     1       4.861  -2.363   4.383  1.00  0.00    -0.550 OA
ATOM     10  O   UNL     1       3.458  -2.268   2.575  1.00  0.00    -0.550 OA
ENDBRANCH   7   8
ENDBRANCH   6   7
ENDBRANCH   5   6
ENDBRANCH   4   5
ENDBRANCH   3   4
ENDBRANCH   2   3
ENDBRANCH   1   2
BRANCH   1  11
ATOM     11  C   UNL     1      -3.923  -1.345   5.102  1.00  0.00     0.000 C 
BRANCH  11  12
ATOM     12  C   UNL     1      -4.377  -2.593   5.876  1.00  0.00    -0.000 C 
BRANCH  12  13
ATOM     13  C   UNL     1      -4.900  -3.703   4.952  1.00  0.00    -0.000 C 
BRANCH  13  14
ATOM     14  C   UNL     1      -5.039  -3.195   3.510  1.00  0.00    -0.000 C 
BRANCH  14  15
ATOM     15  C   UNL     1      -5.241  -4.332   2.492  1.00  0.00    -0.000 C 
BRANCH  15  16
ATOM     16  C   UNL     1      -4.770  -4.016   1.057  1.00  0.00    -0.000 C 
BRANCH  16  17
ATOM     17  C   UNL     1      -5.015  -5.137   0.032  1.00  0.00    -0.003 C 
ATOM     18  C   UNL     1      -6.497  -5.466  -0.147  1.00  0.00     0.004 C 
ENDBRANCH  16  17
ENDBRANCH  15  16
ENDBRANCH  14  15
ENDBRANCH  13  14
ENDBRANCH  12  13
ENDBRANCH  11  12
ENDBRANCH   1  11
TORSDOF 14
ENDMDL
MODEL 5
REMARK VINA RESULT:    -4.468      2.714      3.946
REMARK INTER + INTRA:          -9.271
REMARK INTER:                  -7.849
REMARK INTRA:                  -1.422
REMARK UNBOUND:                -1.147
REMARK SMILES CCCCCCCCCCCCCCCC(=O)[O-]
REMARK SMILES IDX 9 1 10 2 11 3 12 4 13 5 14 6 15 7 16 8 17 9 18 10 8 11 7 12
REMARK SMILES IDX 6 13 5 14 4 15 3 16 2 17 1 18
REMARK H PARENT
REMARK Flexibility Score: inf
ROOT
ATOM      1  C   UNL     1      -4.737  -4.883   0.753  1.00  0.00     0.000 C 
ENDROOT
BRANCH   1   2
ATOM      2  C   UNL     1      -5.586  -5.390  -0.428  1.00  0.00     0.000 C 
BRANCH   2   3
ATOM      3  C   UNL     1      -7.092  -5.525  -0.131  1.00  0.00     0.000 C 
BRANCH   3   4
ATOM      4  C   UNL     1      -7.967  -4.367  -0.654  1.00  0.00     0.000 C 
BRANCH   4   5
ATOM      5  C   UNL     1      -7.322  -3.508  -1.758  1.00  0.00     0.000 C 
BRANCH   5   6
ATOM      6  C   UNL     1      -7.412  -1.988  -1.535  1.00  0.00     0.006 C 
BRANCH   6   7
ATOM      7  C   UNL     1      -6.228  -1.225  -2.143  1.00  0.00     0.053 C 
BRANCH   7   8
ATOM      8  C   UNL     1      -5.855  -0.063  -1.278  1.00  0.00     0.041 C 
ATOM      9  O   UNL     1      -6.292   0.016  -0.099  1.00  0.00    -0.550 OA
ATOM     10  O   UNL     1      -4.983   0.907  -1.756  1.00  0.00    -0.550 OA
ENDBRANCH   7   8
ENDBRANCH   6   7
ENDBRANCH   5   6
ENDBRANCH   4   5
ENDBRANCH   3   4
ENDBRANCH   2   3
ENDBRANCH   1   2
BRANCH   1  11
ATOM     11  C   UNL     1      -4.617  -3.350   0.785  1.00  0.00     0.000 C 
BRANCH  11  12
ATOM     12  C   UNL     1      -5.259  -2.734   2.038  1.00  0.00    -0.000 C 
BRANCH  12  13
ATOM     13  C   UNL     1      -5.061  -3.603   3.290  1.00  0.00    -0.000 C 
BRANCH  13  14
ATOM     14  C   UNL     1      -4.798  -2.732   4.526  1.00  0.00    -0.000 C 
BRANCH  14  15
ATOM     15  C   UNL     1      -3.954  -1.483   4.209  1.00  0.00    -0.000 C 
BRANCH  15  16
ATOM     16  C   UNL     1      -3.254  -0.842   5.425  1.00  0.00    -0.000 C 
BRANCH  16  17
ATOM     17  C   UNL     1      -2.063   0.070   5.081  1.00  0.00    -0.003 C 
ATOM     18  C   UNL     1      -1.036   0.159   6.209  1.00  0.00     0.004 C 
ENDBRANCH  16  17
ENDBRANCH  15  16
ENDBRANCH  14  15
ENDBRANCH  13  14
ENDBRANCH  12  13
ENDBRANCH  11  12
ENDBRANCH   1  11
TORSDOF 14
ENDMDL
MODEL 6
REMARK VINA RESULT:    -4.355      5.059      9.471
REMARK INTER + INTRA:          -9.066
REMARK INTER:                  -8.202
REMARK INTRA:                  -0.864
REMARK UNBOUND:                -1.147
REMARK SMILES CCCCCCCCCCCCCCCC(=O)[O-]
REMARK SMILES IDX 9 1 10 2 11 3 12 4 13 5 14 6 15 7 16 8 17 9 18 10 8 11 7 12
REMARK SMILES IDX 6 13 5 14 4 15 3 16 2 17 1 18
REMARK H PARENT
REMARK Flexibility Score: inf
ROOT
ATOM      1  C   UNL     1      -4.751  -1.855   3.775  1.00  0.00     0.000 C 
ENDROOT
BRANCH   1   2
ATOM      2  C   UNL     1      -4.413  -2.548   5.107  1.00  0.00     0.000 C 
BRANCH   2   3
ATOM      3  C   UNL     1      -3.770  -1.634   6.169  1.00  0.00     0.000 C 
BRANCH   3   4
ATOM      4  C   UNL     1      -3.384  -0.226   5.671  1.00  0.00     0.000 C 
BRANCH   4   5
ATOM      5  C   UNL     1      -1.991  -0.123   5.021  1.00  0.00     0.000 C 
BRANCH   5   6
ATOM      6  C   UNL     1      -0.982   0.755   5.784  1.00  0.00     0.006 C 
BRANCH   6   7
ATOM      7  C   UNL     1      -0.031  -0.062   6.668  1.00  0.00     0.053 C 
BRANCH   7   8
ATOM      8  C   UNL     1      -0.332   0.169   8.114  1.00  0.00     0.041 C 
ATOM      9  O   UNL     1       0.448   0.859   8.822  1.00  0.00    -0.550 OA
ATOM     10  O   UNL     1      -1.502  -0.334   8.669  1.00  0.00    -0.550 OA
ENDBRANCH   7   8
ENDBRANCH   6   7
ENDBRANCH   5   6
ENDBRANCH   4   5
ENDBRANCH   3   4
ENDBRANCH   2   3
ENDBRANCH   1   2
BRANCH   1  11
ATOM     11  C   UNL     1      -4.940  -2.850   2.617  1.00  0.00     0.000 C 
BRANCH  11  12
ATOM     12  C   UNL     1      -5.435  -4.224   3.096  1.00  0.00    -0.000 C 
BRANCH  12  13
ATOM     13  C   UNL     1      -5.748  -5.177   1.932  1.00  0.00    -0.000 C 
BRANCH  13  14
ATOM     14  C   UNL     1      -4.712  -5.028   0.809  1.00  0.00    -0.000 C 
BRANCH  14  15
ATOM     15  C   UNL     1      -5.352  -4.949  -0.589  1.00  0.00    -0.000 C 
BRANCH  15  16
ATOM     16  C   UNL     1      -6.767  -5.554  -0.694  1.00  0.00    -0.000 C 
BRANCH  16  17
ATOM     17  C   UNL     1      -7.170  -6.019  -2.105  1.00  0.00    -0.003 C 
ATOM     18  C   UNL     1      -5.968  -6.303  -3.005  1.00  0.00     0.004 C 
ENDBRANCH  16  17
ENDBRANCH  15  16
ENDBRANCH  14  15
ENDBRANCH  13  14
ENDBRANCH  12  13
ENDBRANCH  11  12
ENDBRANCH   1  11
TORSDOF 14
ENDMDL
MODEL 7
REMARK VINA RESULT:    -4.324      3.560      6.020
REMARK INTER + INTRA:          -9.009
REMARK INTER:                  -7.370
REMARK INTRA:                  -1.639
REMARK UNBOUND:                -1.147
REMARK SMILES CCCCCCCCCCCCCCCC(=O)[O-]
REMARK SMILES IDX 9 1 10 2 11 3 12 4 13 5 14 6 15 7 16 8 17 9 18 10 8 11 7 12
REMARK SMILES IDX 6 13 5 14 4 15 3 16 2 17 1 18
REMARK H PARENT
REMARK Flexibility Score: inf
ROOT
ATOM      1  C   UNL     1      -4.998  -1.855   2.572  1.00  0.00     0.000 C 
ENDROOT
BRANCH   1   2
ATOM      2  C   UNL     1      -6.432  -1.428   2.207  1.00  0.00     0.000 C 
BRANCH   2   3
ATOM      3  C   UNL     1      -6.849  -1.735   0.755  1.00  0.00     0.000 C 
BRANCH   3   4
ATOM      4  C   UNL     1      -6.064  -0.965  -0.327  1.00  0.00     0.000 C 
BRANCH   4   5
ATOM      5  C   UNL     1      -5.842  -1.735  -1.643  1.00  0.00     0.000 C 
BRANCH   5   6
ATOM      6  C   UNL     1      -6.057  -0.907  -2.923  1.00  0.00     0.006 C 
BRANCH   6   7
ATOM      7  C   UNL     1      -4.798  -0.147  -3.360  1.00  0.00     0.053 C 
BRANCH   7   8
ATOM      8  C   UNL     1      -4.988   1.325  -3.182  1.00  0.00     0.041 C 
ATOM      9  O   UNL     1      -5.526   2.009  -4.092  1.00  0.00    -0.550 OA
ATOM     10  O   UNL     1      -4.615   1.935  -1.991  1.00  0.00    -0.550 OA
ENDBRANCH   7   8
ENDBRANCH   6   7
ENDBRANCH   5   6
ENDBRANCH   4   5
ENDBRANCH   3   4
ENDBRANCH   2   3
ENDBRANCH   1   2
BRANCH   1  11
ATOM     11  C   UNL     1      -4.758  -1.894   4.091  1.00  0.00     0.000 C 
BRANCH  11  12
ATOM     12  C   UNL     1      -4.662  -3.328   4.637  1.00  0.00    -0.000 C 
BRANCH  12  13
ATOM     13  C   UNL     1      -5.902  -4.170   4.302  1.00  0.00    -0.000 C 
BRANCH  13  14
ATOM     14  C   UNL     1      -5.530  -5.362   3.409  1.00  0.00    -0.000 C 
BRANCH  14  15
ATOM     15  C   UNL     1      -6.084  -5.232   1.978  1.00  0.00    -0.000 C 
BRANCH  15  16
ATOM     16  C   UNL     1      -5.021  -4.994   0.885  1.00  0.00    -0.000 C 
BRANCH  16  17
ATOM     17  C   UNL     1      -5.498  -5.261  -0.553  1.00  0.00    -0.003 C 
ATOM     18  C   UNL     1      -7.011  -5.458  -0.652  1.00  0.00     0.004 C 
ENDBRANCH  16  17
ENDBRANCH  15  16
ENDBRANCH  14  15
ENDBRANCH  13  14
ENDBRANCH  12  13
ENDBRANCH  11  12
ENDBRANCH   1  11
TORSDOF 14
ENDMDL
MODEL 8
REMARK VINA RESULT:    -4.278      2.337      3.687
REMARK INTER + INTRA:          -8.926
REMARK INTER:                  -7.524
REMARK INTRA:                  -1.402
REMARK UNBOUND:                -1.147
REMARK SMILES CCCCCCCCCCCCCCCC(=O)[O-]
REMARK SMILES IDX 9 1 10 2 11 3 12 4 13 5 14 6 15 7 16 8 17 9 18 10 8 11 7 12
REMARK SMILES IDX 6 13 5 14 4 15 3 16 2 17 1 18
REMARK H PARENT
REMARK Flexibility Score: inf
ROOT
ATOM      1  C   UNL     1      -5.275  -2.408   4.724  1.00  0.00     0.000 C 
ENDROOT
BRANCH   1   2
ATOM      2  C   UNL     1      -4.856  -3.776   5.296  1.00  0.00     0.000 C 
BRANCH   2   3
ATOM      3  C   UNL     1      -5.826  -4.932   4.984  1.00  0.00     0.000 C 
BRANCH   3   4
ATOM      4  C   UNL     1      -5.529  -5.700   3.680  1.00  0.00     0.000 C 
BRANCH   4   5
ATOM      5  C   UNL     1      -6.257  -5.167   2.430  1.00  0.00     0.000 C 
BRANCH   5   6
ATOM      6  C   UNL     1      -5.354  -4.925   1.207  1.00  0.00     0.006 C 
BRANCH   6   7
ATOM      7  C   UNL     1      -4.713  -3.531   1.206  1.00  0.00     0.053 C 
BRANCH   7   8
ATOM      8  C   UNL     1      -5.679  -2.512   0.692  1.00  0.00     0.041 C 
ATOM      9  O   UNL     1      -6.519  -2.824  -0.192  1.00  0.00    -0.550 OA
ATOM     10  O   UNL     1      -5.684  -1.229   1.225  1.00  0.00    -0.550 OA
ENDBRANCH   7   8
ENDBRANCH   6   7
ENDBRANCH   5   6
ENDBRANCH   4   5
ENDBRANCH   3   4
ENDBRANCH   2   3
ENDBRANCH   1   2
BRANCH   1  11
ATOM     11  C   UNL     1      -4.072  -1.513   4.383  1.00  0.00     0.000 C 
BRANCH  11  12
ATOM     12  C   UNL     1      -3.274  -1.096   5.629  1.00  0.00    -0.000 C 
BRANCH  12  13
ATOM     13  C   UNL     1      -2.816   0.369   5.573  1.00  0.00    -0.000 C 
BRANCH  13  14
ATOM     14  C   UNL     1      -1.323   0.463   5.228  1.00  0.00    -0.000 C 
BRANCH  14  15
ATOM     15  C   UNL     1      -0.430  -0.304   6.220  1.00  0.00    -0.000 C 
BRANCH  15  16
ATOM     16  C   UNL     1      -0.274   0.358   7.605  1.00  0.00    -0.000 C 
BRANCH  16  17
ATOM     17  C   UNL     1      -0.859  -0.448   8.778  1.00  0.00    -0.003 C 
ATOM     18  C   UNL     1      -1.024  -1.933   8.457  1.00  0.00     0.004 C 
ENDBRANCH  16  17
ENDBRANCH  15  16
ENDBRANCH  14  15
ENDBRANCH  13  14
ENDBRANCH  12  13
ENDBRANCH  11  12
ENDBRANCH   1  11
TORSDOF 14
ENDMDL
MODEL 9
REMARK VINA RESULT:    -4.256      4.560      7.866
REMARK INTER + INTRA:          -8.886
REMARK INTER:                  -6.595
REMARK INTRA:                  -2.291
REMARK UNBOUND:                -1.147
REMARK SMILES CCCCCCCCCCCCCCCC(=O)[O-]
REMARK SMILES IDX 9 1 10 2 11 3 12 4 13 5 14 6 15 7 16 8 17 9 18 10 8 11 7 12
REMARK SMILES IDX 6 13 5 14 4 15 3 16 2 17 1 18
REMARK H PARENT
REMARK Flexibility Score: inf
ROOT
ATOM      1  C   UNL     1      -6.483  -5.217   3.395  1.00  0.00     0.000 C 
ENDROOT
BRANCH   1   2
ATOM      2  C   UNL     1      -6.241  -4.548   4.760  1.00  0.00     0.000 C 
BRANCH   2   3
ATOM      3  C   UNL     1      -4.836  -3.940   4.944  1.00  0.00     0.000 C 
BRANCH   3   4
ATOM      4  C   UNL     1      -4.810  -2.544   5.599  1.00  0.00     0.000 C 
BRANCH   4   5
ATOM      5  C   UNL     1      -3.918  -1.507   4.890  1.00  0.00     0.000 C 
BRANCH   5   6
ATOM      6  C   UNL     1      -3.482  -0.319   5.766  1.00  0.00     0.006 C 
BRANCH   6   7
ATOM      7  C   UNL     1      -2.147   0.293   5.319  1.00  0.00     0.053 C 
BRANCH   7   8
ATOM      8  C   UNL     1      -1.027  -0.220   6.166  1.00  0.00     0.041 C 
ATOM      9  O   UNL     1       0.111  -0.415   5.663  1.00  0.00    -0.550 OA
ATOM     10  O   UNL     1      -1.225  -0.436   7.524  1.00  0.00    -0.550 OA
ENDBRANCH   7   8
ENDBRANCH   6   7
ENDBRANCH   5   6
ENDBRANCH   4   5
ENDBRANCH   3   4
ENDBRANCH   2   3
ENDBRANCH   1   2
BRANCH   1  11
ATOM     11  C   UNL     1      -5.254  -5.145   2.471  1.00  0.00     0.000 C 
BRANCH  11  12
ATOM     12  C   UNL     1      -5.635  -4.891   1.004  1.00  0.00    -0.000 C 
BRANCH  12  13
ATOM     13  C   UNL     1      -4.959  -3.637   0.428  1.00  0.00    -0.000 C 
BRANCH  13  14
ATOM     14  C   UNL     1      -4.841  -2.540   1.494  1.00  0.00    -0.000 C 
BRANCH  14  15
ATOM     15  C   UNL     1      -5.995  -1.522   1.435  1.00  0.00    -0.000 C 
BRANCH  15  16
ATOM     16  C   UNL     1      -6.916  -1.505   2.672  1.00  0.00    -0.000 C 
BRANCH  16  17
ATOM     17  C   UNL     1      -8.298  -2.147   2.462  1.00  0.00    -0.003 C 
ATOM     18  C   UNL     1      -8.549  -2.557   1.011  1.00  0.00     0.004 C 
ENDBRANCH  16  17
ENDBRANCH  15  16
ENDBRANCH  14  15
ENDBRANCH  13  14
ENDBRANCH  12  13
ENDBRANCH  11  12
ENDBRANCH   1  11
TORSDOF 14
ENDMDL
