MODEL 1
REMARK VINA RESULT:    -3.521      0.000      0.000
REMARK INTER + INTRA:          -8.811
REMARK INTER:                  -8.049
REMARK INTRA:                  -0.762
REMARK UNBOUND:                -0.762
REMARK SMILES CCCCCCCCCCCCCCCCCCCCCCCC(=O)[O-]
REMARK SMILES IDX 13 1 14 2 15 3 16 4 17 5 18 6 19 7 20 8 21 9 22 10 23 11
REMARK SMILES IDX 24 12 25 13 26 14 12 15 11 16 10 17 9 18 8 19 7 20 6 21 5 22
REMARK SMILES IDX 4 23 3 24 2 25 1 26
REMARK H PARENT
REMARK Flexibility Score: inf
ROOT
ATOM      1  C   UNL     1       1.310  -1.077  -9.263  1.00  0.00     0.000 C 
ENDROOT
BRANCH   1   2
ATOM      2  C   UNL     1       0.044  -0.782 -10.085  1.00  0.00     0.000 C 
BRANCH   2   3
ATOM      3  C   UNL     1      -0.347   0.704 -10.047  1.00  0.00     0.000 C 
BRANCH   3   4
ATOM      4  C   UNL     1      -1.870   0.917 -10.016  1.00  0.00     0.000 C 
BRANCH   4   5
ATOM      5  C   UNL     1      -2.283   2.214  -9.295  1.00  0.00     0.000 C 
BRANCH   5   6
ATOM      6  C   UNL     1      -3.257   3.116 -10.076  1.00  0.00     0.000 C 
BRANCH   6   7
ATOM      7  C   UNL     1      -4.704   3.026  -9.564  1.00  0.00     0.000 C 
BRANCH   7   8
ATOM      8  C   UNL     1      -5.609   4.138 -10.125  1.00  0.00     0.000 C 
BRANCH   8   9
ATOM      9  C   UNL     1      -5.524   5.486  -9.388  1.00  0.00     0.000 C 
BRANCH   9  10
ATOM     10  C   UNL     1      -6.568   6.503  -9.873  1.00  0.00     0.006 C 
BRANCH  10  11
ATOM     11  C   UNL     1      -7.571   6.834  -8.764  1.00  0.00     0.053 C 
BRANCH  11  12
ATOM     12  C   UNL     1      -8.572   7.842  -9.234  1.00  0.00     0.041 C 
ATOM     13  O   UNL     1      -9.802   7.661  -9.023  1.00  0.00    -0.550 OA
ATOM     14  O   UNL     1      -8.150   8.984  -9.906  1.00  0.00    -0.550 OA
ENDBRANCH  11  12
ENDBRANCH  10  11
ENDBRANCH   9  10
ENDBRANCH   8   9
ENDBRANCH   7   8
ENDBRANCH   6   7
ENDBRANCH   5   6
ENDBRANCH   4   5
ENDBRANCH   3   4
ENDBRANCH   2   3
ENDBRANCH   1   2
BRANCH   1  15
ATOM     15  C   UNL     1       2.116  -2.258  -9.826  1.00  0.00     0.000 C 
BRANCH  15  16
ATOM     16  C   UNL     1       3.592  -1.902 -10.085  1.00  0.00     0.000 C 
BRANCH  16  17
ATOM     17  C   UNL     1       4.549  -3.038  -9.689  1.00  0.00     0.000 C 
BRANCH  17  18
ATOM     18  C   UNL     1       4.031  -4.421 -10.120  1.00  0.00    -0.000 C 
BRANCH  18  19
ATOM     19  C   UNL     1       4.330  -5.512  -9.080  1.00  0.00    -0.000 C 
BRANCH  19  20
ATOM     20  C   UNL     1       4.532  -6.898  -9.720  1.00  0.00    -0.000 C 
BRANCH  20  21
ATOM     21  C   UNL     1       5.629  -7.719  -9.024  1.00  0.00    -0.000 C 
BRANCH  21  22
ATOM     22  C   UNL     1       6.979  -7.637  -9.751  1.00  0.00    -0.000 C 
BRANCH  22  23
ATOM     23  C   UNL     1       7.992  -6.817  -8.937  1.00  0.00    -0.000 C 
BRANCH  23  24
ATOM     24  C   UNL     1       9.352  -6.686  -9.643  1.00  0.00    -0.000 C 
BRANCH  24  25
ATOM     25  C   UNL     1       9.916  -8.043 -10.098  1.00  0.00    -0.003 C 
ATOM     26  C   UNL     1      10.086  -8.992  -8.915  1.00  0.00     0.004 C 
ENDBRANCH  24  25
ENDBRANCH  23  24
ENDBRANCH  22  23
ENDBRANCH  21  22
ENDBRANCH  20  21
ENDBRANCH  19  20
ENDBRANCH  18  19
ENDBRANCH  17  18
ENDBRANCH  16  17
ENDBRANCH  15  16
ENDBRANCH   1  15
TORSDOF 22
ENDMDL
MODEL 2
REMARK VINA RESULT:    -3.167      6.845     16.331
REMARK INTER + INTRA:          -8.001
REMARK INTER:                  -7.110
REMARK INTRA:                  -0.892
REMARK UNBOUND:                -0.762
REMARK SMILES CCCCCCCCCCCCCCCCCCCCCCCC(=O)[O-]
REMARK SMILES IDX 13 1 14 2 15 3 16 4 17 5 18 6 19 7 20 8 21 9 22 10 23 11
REMARK SMILES IDX 24 12 25 13 26 14 12 15 11 16 10 17 9 18 8 19 7 20 6 21 5 22
REMARK SMILES IDX 4 23 3 24 2 25 1 26
REMARK H PARENT
REMARK Flexibility Score: inf
ROOT
ATOM      1  C   UNL     1       0.063  -0.145  -8.776  1.00  0.00     0.000 C 
ENDROOT
BRANCH   1   2
ATOM      2  C   UNL     1       0.618  -1.408  -9.457  1.00  0.00     0.000 C 
BRANCH   2   3
ATOM      3  C   UNL     1       1.981  -1.164 -10.125  1.00  0.00     0.000 C 
BRANCH   3   4
ATOM      4  C   UNL     1       3.094  -2.051  -9.541  1.00  0.00     0.000 C 
BRANCH   4   5
ATOM      5  C   UNL     1       3.085  -3.482 -10.112  1.00  0.00     0.000 C 
BRANCH   5   6
ATOM      6  C   UNL     1       4.319  -4.335  -9.761  1.00  0.00     0.000 C 
BRANCH   6   7
ATOM      7  C   UNL     1       3.956  -5.747  -9.272  1.00  0.00     0.000 C 
BRANCH   7   8
ATOM      8  C   UNL     1       5.191  -6.593  -8.911  1.00  0.00     0.000 C 
BRANCH   8   9
ATOM      9  C   UNL     1       5.536  -7.710  -9.912  1.00  0.00     0.000 C 
BRANCH   9  10
ATOM     10  C   UNL     1       7.040  -8.015  -9.976  1.00  0.00     0.006 C 
BRANCH  10  11
ATOM     11  C   UNL     1       7.841  -7.014  -9.138  1.00  0.00     0.053 C 
BRANCH  11  12
ATOM     12  C   UNL     1       9.312  -7.229  -9.314  1.00  0.00     0.041 C 
ATOM     13  O   UNL     1      10.057  -6.270  -9.654  1.00  0.00    -0.550 OA
ATOM     14  O   UNL     1       9.864  -8.487  -9.103  1.00  0.00    -0.550 OA
ENDBRANCH  11  12
ENDBRANCH  10  11
ENDBRANCH   9  10
ENDBRANCH   8   9
ENDBRANCH   7   8
ENDBRANCH   6   7
ENDBRANCH   5   6
ENDBRANCH   4   5
ENDBRANCH   3   4
ENDBRANCH   2   3
ENDBRANCH   1   2
BRANCH   1  15
ATOM     15  C   UNL     1       0.350   1.132  -9.580  1.00  0.00     0.000 C 
BRANCH  15  16
ATOM     16  C   UNL     1      -0.932   1.814 -10.092  1.00  0.00     0.000 C 
BRANCH  16  17
ATOM     17  C   UNL     1      -2.200   1.260  -9.422  1.00  0.00     0.000 C 
BRANCH  17  18
ATOM     18  C   UNL     1      -3.474   1.998  -9.870  1.00  0.00    -0.000 C 
BRANCH  18  19
ATOM     19  C   UNL     1      -3.358   3.522  -9.712  1.00  0.00    -0.000 C 
BRANCH  19  20
ATOM     20  C   UNL     1      -4.647   4.258 -10.124  1.00  0.00    -0.000 C 
BRANCH  20  21
ATOM     21  C   UNL     1      -4.617   5.752  -9.766  1.00  0.00    -0.000 C 
BRANCH  21  22
ATOM     22  C   UNL     1      -5.985   6.428  -9.937  1.00  0.00    -0.000 C 
BRANCH  22  23
ATOM     23  C   UNL     1      -6.262   7.406  -8.785  1.00  0.00    -0.000 C 
BRANCH  23  24
ATOM     24  C   UNL     1      -7.462   8.326  -9.064  1.00  0.00    -0.000 C 
BRANCH  24  25
ATOM     25  C   UNL     1      -8.678   7.996  -8.183  1.00  0.00    -0.003 C 
ATOM     26  C   UNL     1      -9.981   8.389  -8.875  1.00  0.00     0.004 C 
ENDBRANCH  24  25
ENDBRANCH  23  24
ENDBRANCH  22  23
ENDBRANCH  21  22
ENDBRANCH  20  21
ENDBRANCH  19  20
ENDBRANCH  18  19
ENDBRANCH  17  18
ENDBRANCH  16  17
ENDBRANCH  15  16
ENDBRANCH   1  15
TORSDOF 22
ENDMDL
MODEL 3
REMARK VINA RESULT:    -2.697     20.545     21.993
REMARK INTER + INTRA:          -6.926
REMARK INTER:                  -5.915
REMARK INTRA:                  -1.011
REMARK UNBOUND:                -0.762
REMARK SMILES CCCCCCCCCCCCCCCCCCCCCCCC(=O)[O-]
REMARK SMILES IDX 13 1 14 2 15 3 16 4 17 5 18 6 19 7 20 8 21 9 22 10 23 11
REMARK SMILES IDX 24 12 25 13 26 14 12 15 11 16 10 17 9 18 8 19 7 20 6 21 5 22
REMARK SMILES IDX 4 23 3 24 2 25 1 26
REMARK H PARENT
REMARK Flexibility Score: inf
ROOT
ATOM      1  C   UNL     1       0.310   1.555   8.942  1.00  0.00     0.000 C 
ENDROOT
BRANCH   1   2
ATOM      2  C   UNL     1      -0.748   0.517   9.350  1.00  0.00     0.000 C 
BRANCH   2   3
ATOM      3  C   UNL     1      -0.165  -0.900   9.470  1.00  0.00     0.000 C 
BRANCH   3   4
ATOM      4  C   UNL     1      -1.144  -1.891  10.123  1.00  0.00     0.000 C 
BRANCH   4   5
ATOM      5  C   UNL     1      -2.329  -2.257   9.210  1.00  0.00     0.000 C 
BRANCH   5   6
ATOM      6  C   UNL     1      -3.697  -2.344   9.915  1.00  0.00     0.000 C 
BRANCH   6   7
ATOM      7  C   UNL     1      -4.279  -3.767   9.925  1.00  0.00     0.000 C 
BRANCH   7   8
ATOM      8  C   UNL     1      -5.806  -3.789  10.118  1.00  0.00     0.000 C 
BRANCH   8   9
ATOM      9  C   UNL     1      -6.505  -5.087   9.674  1.00  0.00     0.000 C 
BRANCH   9  10
ATOM     10  C   UNL     1      -7.375  -4.904   8.421  1.00  0.00     0.006 C 
BRANCH  10  11
ATOM     11  C   UNL     1      -7.270  -6.120   7.496  1.00  0.00     0.053 C 
BRANCH  11  12
ATOM     12  C   UNL     1      -7.472  -7.390   8.262  1.00  0.00     0.041 C 
ATOM     13  O   UNL     1      -6.479  -8.047   8.675  1.00  0.00    -0.550 OA
ATOM     14  O   UNL     1      -8.758  -7.851   8.523  1.00  0.00    -0.550 OA
ENDBRANCH  11  12
ENDBRANCH  10  11
ENDBRANCH   9  10
ENDBRANCH   8   9
ENDBRANCH   7   8
ENDBRANCH   6   7
ENDBRANCH   5   6
ENDBRANCH   4   5
ENDBRANCH   3   4
ENDBRANCH   2   3
ENDBRANCH   1   2
BRANCH   1  15
ATOM     15  C   UNL     1       1.490   1.611   9.924  1.00  0.00     0.000 C 
BRANCH  15  16
ATOM     16  C   UNL     1       2.773   2.170   9.281  1.00  0.00     0.000 C 
BRANCH  16  17
ATOM     17  C   UNL     1       3.394   3.310  10.103  1.00  0.00     0.000 C 
BRANCH  17  18
ATOM     18  C   UNL     1       4.192   4.297   9.233  1.00  0.00    -0.000 C 
BRANCH  18  19
ATOM     19  C   UNL     1       4.691   5.513  10.030  1.00  0.00    -0.000 C 
BRANCH  19  20
ATOM     20  C   UNL     1       4.302   6.850   9.371  1.00  0.00    -0.000 C 
BRANCH  20  21
ATOM     21  C   UNL     1       5.524   7.676   8.938  1.00  0.00    -0.000 C 
BRANCH  21  22
ATOM     22  C   UNL     1       6.213   8.374  10.120  1.00  0.00    -0.000 C 
BRANCH  22  23
ATOM     23  C   UNL     1       7.657   8.759   9.764  1.00  0.00    -0.000 C 
BRANCH  23  24
ATOM     24  C   UNL     1       8.410   7.629   9.042  1.00  0.00    -0.000 C 
BRANCH  24  25
ATOM     25  C   UNL     1       9.049   6.626  10.016  1.00  0.00    -0.003 C 
ATOM     26  C   UNL     1       8.410   5.246   9.882  1.00  0.00     0.004 C 
ENDBRANCH  24  25
ENDBRANCH  23  24
ENDBRANCH  22  23
ENDBRANCH  21  22
ENDBRANCH  20  21
ENDBRANCH  19  20
ENDBRANCH  18  19
ENDBRANCH  17  18
ENDBRANCH  16  17
ENDBRANCH  15  16
ENDBRANCH   1  15
TORSDOF 22
ENDMDL
MODEL 4
REMARK VINA RESULT:    -1.945      6.093     15.570
REMARK INTER + INTRA:          -5.208
REMARK INTER:                  -4.088
REMARK INTRA:                  -1.120
REMARK UNBOUND:                -0.762
REMARK SMILES CCCCCCCCCCCCCCCCCCCCCCCC(=O)[O-]
REMARK SMILES IDX 13 1 14 2 15 3 16 4 17 5 18 6 19 7 20 8 21 9 22 10 23 11
REMARK SMILES IDX 24 12 25 13 26 14 12 15 11 16 10 17 9 18 8 19 7 20 6 21 5 22
REMARK SMILES IDX 4 23 3 24 2 25 1 26
REMARK H PARENT
REMARK Flexibility Score: inf
ROOT
ATOM      1  C   UNL     1      -0.027  -1.328  -8.947  1.00  0.00     0.000 C 
ENDROOT
BRANCH   1   2
ATOM      2  C   UNL     1       0.982  -1.410 -10.105  1.00  0.00     0.000 C 
BRANCH   2   3
ATOM      3  C   UNL     1       1.747  -2.743 -10.125  1.00  0.00     0.000 C 
BRANCH   3   4
ATOM      4  C   UNL     1       3.162  -2.624  -9.532  1.00  0.00     0.000 C 
BRANCH   4   5
ATOM      5  C   UNL     1       4.147  -3.656 -10.114  1.00  0.00     0.000 C 
BRANCH   5   6
ATOM      6  C   UNL     1       5.477  -3.795  -9.349  1.00  0.00     0.000 C 
BRANCH   6   7
ATOM      7  C   UNL     1       6.521  -4.632 -10.107  1.00  0.00     0.000 C 
BRANCH   7   8
ATOM      8  C   UNL     1       7.397  -5.487  -9.172  1.00  0.00     0.000 C 
BRANCH   8   9
ATOM      9  C   UNL     1       7.768  -6.879  -9.713  1.00  0.00     0.000 C 
BRANCH   9  10
ATOM     10  C   UNL     1       7.121  -8.024  -8.919  1.00  0.00     0.006 C 
BRANCH  10  11
ATOM     11  C   UNL     1       6.342  -8.964  -9.844  1.00  0.00     0.053 C 
BRANCH  11  12
ATOM     12  C   UNL     1       4.867  -8.796  -9.654  1.00  0.00     0.041 C 
ATOM     13  O   UNL     1       4.403  -7.700  -9.238  1.00  0.00    -0.550 OA
ATOM     14  O   UNL     1       4.002  -9.847  -9.937  1.00  0.00    -0.550 OA
ENDBRANCH  11  12
ENDBRANCH  10  11
ENDBRANCH   9  10
ENDBRANCH   8   9
ENDBRANCH   7   8
ENDBRANCH   6   7
ENDBRANCH   5   6
ENDBRANCH   4   5
ENDBRANCH   3   4
ENDBRANCH   2   3
ENDBRANCH   1   2
BRANCH   1  15
ATOM     15  C   UNL     1      -0.624   0.078  -8.783  1.00  0.00     0.000 C 
BRANCH  15  16
ATOM     16  C   UNL     1       0.003   1.106  -9.743  1.00  0.00     0.000 C 
BRANCH  16  17
ATOM     17  C   UNL     1      -0.970   2.239 -10.107  1.00  0.00     0.000 C 
BRANCH  17  18
ATOM     18  C   UNL     1      -2.433   1.884  -9.790  1.00  0.00    -0.000 C 
BRANCH  18  19
ATOM     19  C   UNL     1      -3.403   3.029 -10.124  1.00  0.00    -0.000 C 
BRANCH  19  20
ATOM     20  C   UNL     1      -4.879   2.609  -9.994  1.00  0.00    -0.000 C 
BRANCH  20  21
ATOM     21  C   UNL     1      -5.828   3.811  -9.874  1.00  0.00    -0.000 C 
BRANCH  21  22
ATOM     22  C   UNL     1      -5.083   5.131  -9.630  1.00  0.00    -0.000 C 
BRANCH  22  23
ATOM     23  C   UNL     1      -5.756   5.944  -8.513  1.00  0.00    -0.000 C 
BRANCH  23  24
ATOM     24  C   UNL     1      -6.238   7.323  -8.994  1.00  0.00    -0.000 C 
BRANCH  24  25
ATOM     25  C   UNL     1      -7.568   7.744  -8.346  1.00  0.00    -0.003 C 
ATOM     26  C   UNL     1      -8.754   7.091  -9.052  1.00  0.00     0.004 C 
ENDBRANCH  24  25
ENDBRANCH  23  24
ENDBRANCH  22  23
ENDBRANCH  21  22
ENDBRANCH  20  21
ENDBRANCH  19  20
ENDBRANCH  18  19
ENDBRANCH  17  18
ENDBRANCH  16  17
ENDBRANCH  15  16
ENDBRANCH   1  15
TORSDOF 22
ENDMDL
MODEL 5
REMARK VINA RESULT:    -0.871      2.112      4.966
REMARK INTER + INTRA:          -2.754
REMARK INTER:                  -2.606
REMARK INTRA:                  -0.148
REMARK UNBOUND:                -0.762
REMARK SMILES CCCCCCCCCCCCCCCCCCCCCCCC(=O)[O-]
REMARK SMILES IDX 13 1 14 2 15 3 16 4 17 5 18 6 19 7 20 8 21 9 22 10 23 11
REMARK SMILES IDX 24 12 25 13 26 14 12 15 11 16 10 17 9 18 8 19 7 20 6 21 5 22
REMARK SMILES IDX 4 23 3 24 2 25 1 26
REMARK H PARENT
REMARK Flexibility Score: inf
ROOT
ATOM      1  C   UNL     1      -3.222   3.339  -8.929  1.00  0.00     0.000 C 
ENDROOT
BRANCH   1   2
ATOM      2  C   UNL     1      -2.907   4.301 -10.086  1.00  0.00     0.000 C 
BRANCH   2   3
ATOM      3  C   UNL     1      -3.445   5.719  -9.834  1.00  0.00     0.000 C 
BRANCH   3   4
ATOM      4  C   UNL     1      -4.894   5.721  -9.316  1.00  0.00     0.000 C 
BRANCH   4   5
ATOM      5  C   UNL     1      -5.491   4.306  -9.193  1.00  0.00     0.000 C 
BRANCH   5   6
ATOM      6  C   UNL     1      -6.697   4.022 -10.108  1.00  0.00     0.000 C 
BRANCH   6   7
ATOM      7  C   UNL     1      -8.043   4.091  -9.367  1.00  0.00     0.000 C 
BRANCH   7   8
ATOM      8  C   UNL     1      -9.103   4.913 -10.125  1.00  0.00     0.000 C 
BRANCH   8   9
ATOM      9  C   UNL     1      -8.930   6.440 -10.042  1.00  0.00     0.000 C 
BRANCH   9  10
ATOM     10  C   UNL     1      -8.587   6.931  -8.627  1.00  0.00     0.006 C 
BRANCH  10  11
ATOM     11  C   UNL     1      -7.902   8.300  -8.671  1.00  0.00     0.053 C 
BRANCH  11  12
ATOM     12  C   UNL     1      -8.877   9.370  -9.054  1.00  0.00     0.041 C 
ATOM     13  O   UNL     1      -8.649  10.107 -10.051  1.00  0.00    -0.550 OA
ATOM     14  O   UNL     1     -10.038   9.555  -8.312  1.00  0.00    -0.550 OA
ENDBRANCH  11  12
ENDBRANCH  10  11
ENDBRANCH   9  10
ENDBRANCH   8   9
ENDBRANCH   7   8
ENDBRANCH   6   7
ENDBRANCH   5   6
ENDBRANCH   4   5
ENDBRANCH   3   4
ENDBRANCH   2   3
ENDBRANCH   1   2
BRANCH   1  15
ATOM     15  C   UNL     1      -2.832   1.887  -9.247  1.00  0.00     0.000 C 
BRANCH  15  16
ATOM     16  C   UNL     1      -1.558   1.788 -10.107  1.00  0.00     0.000 C 
BRANCH  16  17
ATOM     17  C   UNL     1      -0.341   1.308  -9.300  1.00  0.00     0.000 C 
BRANCH  17  18
ATOM     18  C   UNL     1       0.573   0.373 -10.112  1.00  0.00    -0.000 C 
BRANCH  18  19
ATOM     19  C   UNL     1       0.934  -0.909  -9.345  1.00  0.00    -0.000 C 
BRANCH  19  20
ATOM     20  C   UNL     1       1.917  -1.804 -10.122  1.00  0.00    -0.000 C 
BRANCH  20  21
ATOM     21  C   UNL     1       2.850  -2.602  -9.198  1.00  0.00    -0.000 C 
BRANCH  21  22
ATOM     22  C   UNL     1       4.331  -2.443  -9.573  1.00  0.00    -0.000 C 
BRANCH  22  23
ATOM     23  C   UNL     1       4.922  -3.777 -10.052  1.00  0.00    -0.000 C 
BRANCH  23  24
ATOM     24  C   UNL     1       4.045  -4.983  -9.676  1.00  0.00    -0.000 C 
BRANCH  24  25
ATOM     25  C   UNL     1       4.720  -5.909  -8.651  1.00  0.00    -0.003 C 
ATOM     26  C   UNL     1       4.893  -7.318  -9.214  1.00  0.00     0.004 C 
ENDBRANCH  24  25
ENDBRANCH  23  24
ENDBRANCH  22  23
ENDBRANCH  21  22
ENDBRANCH  20  21
ENDBRANCH  19  20
ENDBRANCH  18  19
ENDBRANCH  17  18
ENDBRANCH  16  17
ENDBRANCH  15  16
ENDBRANCH   1  15
TORSDOF 22
ENDMDL
