MODEL 1
REMARK VINA RESULT:    -7.254      0.000      0.000
REMARK INTER + INTRA:         -11.779
REMARK INTER:                 -10.646
REMARK INTRA:                  -1.133
REMARK UNBOUND:                -1.133
REMARK SMILES O=c1c(O[C@H]2O[C@H](CO)[C@@H](O)[C@H](O)[C@@H]2O)c(-c2ccc(O)c(O)c2)oc2cc(O)cc(O)c12
REMARK SMILES IDX 4 1 3 2 16 3 25 4 2 5 26 6 1 7 33 8 27 9 31 10 28 11 30 12
REMARK SMILES IDX 17 13 18 14 19 15 20 16 24 17 22 18 21 19 23 21 32 23 29 25
REMARK SMILES IDX 5 27 14 28 6 29 12 30 7 31 10 32 15 33 13 35 8 37 9 38 11 40
REMARK H PARENT 21 20 23 22 32 24 29 26 15 34 13 36 9 39 11 41
REMARK Flexibility Score: inf
ROOT
ATOM      1  O   UNL     1      -2.514  37.160  58.267  1.00  0.00    -0.454 OA
ENDROOT
BRANCH   1   2
ATOM      2  C   UNL     1      -2.744  35.995  59.006  1.00  0.00     0.214 A 
ATOM      3  C   UNL     1      -3.913  35.853  59.768  1.00  0.00     0.180 A 
ATOM      4  O   UNL     1      -4.105  34.763  60.497  1.00  0.00    -0.452 OA
ATOM      5  C   UNL     1      -1.810  34.954  58.994  1.00  0.00     0.239 A 
ATOM      6  C   UNL     1      -3.240  33.755  60.536  1.00  0.00     0.146 A 
ATOM      7  O   UNL     1      -0.796  35.066  58.256  1.00  0.00    -0.285 OA
ATOM      8  C   UNL     1      -2.027  33.803  59.794  1.00  0.00     0.111 A 
ATOM      9  C   UNL     1      -3.558  32.639  61.310  1.00  0.00     0.094 A 
ATOM     10  C   UNL     1      -1.135  32.691  59.888  1.00  0.00     0.134 A 
ATOM     11  C   UNL     1      -2.702  31.542  61.359  1.00  0.00     0.123 A 
ATOM     12  C   UNL     1      -1.500  31.572  60.648  1.00  0.00     0.093 A 
BRANCH   3  13
ATOM     13  C   UNL     1      -4.955  36.891  59.754  1.00  0.00     0.025 A 
ATOM     14  C   UNL     1      -4.867  37.990  60.619  1.00  0.00     0.016 A 
ATOM     15  C   UNL     1      -5.834  38.995  60.573  1.00  0.00     0.051 A 
ATOM     16  C   UNL     1      -6.916  38.896  59.687  1.00  0.00     0.157 A 
ATOM     17  C   UNL     1      -6.043  36.781  58.875  1.00  0.00     0.062 A 
ATOM     18  C   UNL     1      -7.028  37.774  58.843  1.00  0.00     0.158 A 
BRANCH  16  19
ATOM     19  O   UNL     1      -7.883  39.900  59.646  1.00  0.00    -0.504 OA
ATOM     20  H   UNL     1      -7.661  40.860  59.887  1.00  0.00     0.293 HD
ENDBRANCH  16  19
BRANCH  18  21
ATOM     21  O   UNL     1      -8.107  37.632  57.970  1.00  0.00    -0.504 OA
ATOM     22  H   UNL     1      -8.653  38.425  57.657  1.00  0.00     0.293 HD
ENDBRANCH  18  21
ENDBRANCH   3  13
BRANCH  10  23
ATOM     23  O   UNL     1       0.120  32.636  59.273  1.00  0.00    -0.507 OA
ATOM     24  H   UNL     1       0.715  31.821  59.219  1.00  0.00     0.293 HD
ENDBRANCH  10  23
BRANCH  11  25
ATOM     25  O   UNL     1      -3.049  30.430  62.125  1.00  0.00    -0.508 OA
ATOM     26  H   UNL     1      -3.077  30.474  63.136  1.00  0.00     0.293 HD
ENDBRANCH  11  25
ENDBRANCH   1   2
BRANCH   1  27
ATOM     27  C   UNL     1      -1.365  37.982  58.500  1.00  0.00     0.339 C 
ATOM     28  C   UNL     1      -1.775  39.346  59.092  1.00  0.00     0.214 C 
ATOM     29  O   UNL     1      -0.599  38.127  57.316  1.00  0.00    -0.332 OA
ATOM     30  C   UNL     1      -2.495  40.210  58.041  1.00  0.00     0.180 C 
ATOM     31  C   UNL     1      -1.327  38.796  56.294  1.00  0.00     0.179 C 
ATOM     32  C   UNL     1      -1.710  40.236  56.716  1.00  0.00     0.177 C 
BRANCH  28  33
ATOM     33  O   UNL     1      -0.663  40.017  59.636  1.00  0.00    -0.384 OA
ATOM     34  H   UNL     1       0.158  39.591  59.281  1.00  0.00     0.211 HD
ENDBRANCH  28  33
BRANCH  30  35
ATOM     35  O   UNL     1      -2.660  41.513  58.536  1.00  0.00    -0.387 OA
ATOM     36  H   UNL     1      -2.231  42.125  57.882  1.00  0.00     0.211 HD
ENDBRANCH  30  35
BRANCH  31  37
ATOM     37  C   UNL     1      -0.468  38.811  55.018  1.00  0.00     0.191 C 
BRANCH  37  38
ATOM     38  O   UNL     1      -1.264  38.632  53.875  1.00  0.00    -0.394 OA
ATOM     39  H   UNL     1      -2.159  38.346  54.191  1.00  0.00     0.210 HD
ENDBRANCH  37  38
ENDBRANCH  31  37
BRANCH  32  40
ATOM     40  O   UNL     1      -2.519  40.804  55.718  1.00  0.00    -0.387 OA
ATOM     41  H   UNL     1      -2.282  40.370  54.859  1.00  0.00     0.211 HD
ENDBRANCH  32  40
ENDBRANCH   1  27
TORSDOF 12
ENDMDL
MODEL 2
REMARK VINA RESULT:    -7.189     17.075     18.612
REMARK INTER + INTRA:         -11.683
REMARK INTER:                 -10.195
REMARK INTRA:                  -1.489
REMARK UNBOUND:                -1.133
REMARK SMILES O=c1c(O[C@H]2O[C@H](CO)[C@@H](O)[C@H](O)[C@@H]2O)c(-c2ccc(O)c(O)c2)oc2cc(O)cc(O)c12
REMARK SMILES IDX 4 1 3 2 16 3 25 4 2 5 26 6 1 7 33 8 27 9 31 10 28 11 30 12
REMARK SMILES IDX 17 13 18 14 19 15 20 16 24 17 22 18 21 19 23 21 32 23 29 25
REMARK SMILES IDX 5 27 14 28 6 29 12 30 7 31 10 32 15 33 13 35 8 37 9 38 11 40
REMARK H PARENT 21 20 23 22 32 24 29 26 15 34 13 36 9 39 11 41
REMARK Flexibility Score: inf
ROOT
ATOM      1  O   UNL     1     -17.852  28.872  50.850  1.00  0.00    -0.454 OA
ENDROOT
BRANCH   1   2
ATOM      2  C   UNL     1     -17.307  28.058  51.849  1.00  0.00     0.214 A 
ATOM      3  C   UNL     1     -16.308  27.123  51.540  1.00  0.00     0.180 A 
ATOM      4  O   UNL     1     -15.824  26.328  52.483  1.00  0.00    -0.452 OA
ATOM      5  C   UNL     1     -17.751  28.166  53.171  1.00  0.00     0.239 A 
ATOM      6  C   UNL     1     -16.226  26.376  53.748  1.00  0.00     0.146 A 
ATOM      7  O   UNL     1     -18.600  29.052  53.447  1.00  0.00    -0.285 OA
ATOM      8  C   UNL     1     -17.232  27.294  54.162  1.00  0.00     0.111 A 
ATOM      9  C   UNL     1     -15.624  25.517  54.668  1.00  0.00     0.094 A 
ATOM     10  C   UNL     1     -17.626  27.289  55.535  1.00  0.00     0.134 A 
ATOM     11  C   UNL     1     -15.986  25.551  56.012  1.00  0.00     0.123 A 
ATOM     12  C   UNL     1     -16.979  26.435  56.439  1.00  0.00     0.093 A 
BRANCH   3  13
ATOM     13  C   UNL     1     -15.761  27.024  50.178  1.00  0.00     0.025 A 
ATOM     14  C   UNL     1     -16.536  26.481  49.145  1.00  0.00     0.016 A 
ATOM     15  C   UNL     1     -16.031  26.428  47.844  1.00  0.00     0.051 A 
ATOM     16  C   UNL     1     -14.733  26.885  47.571  1.00  0.00     0.157 A 
ATOM     17  C   UNL     1     -14.458  27.471  49.911  1.00  0.00     0.062 A 
ATOM     18  C   UNL     1     -13.938  27.398  48.614  1.00  0.00     0.158 A 
BRANCH  16  19
ATOM     19  O   UNL     1     -14.230  26.828  46.271  1.00  0.00    -0.504 OA
ATOM     20  H   UNL     1     -13.419  26.265  46.041  1.00  0.00     0.293 HD
ENDBRANCH  16  19
BRANCH  18  21
ATOM     21  O   UNL     1     -12.634  27.836  48.379  1.00  0.00    -0.504 OA
ATOM     22  H   UNL     1     -12.434  28.636  47.793  1.00  0.00     0.293 HD
ENDBRANCH  18  21
ENDBRANCH   3  13
BRANCH  10  23
ATOM     23  O   UNL     1     -18.650  28.083  56.062  1.00  0.00    -0.507 OA
ATOM     24  H   UNL     1     -19.617  27.810  56.159  1.00  0.00     0.293 HD
ENDBRANCH  10  23
BRANCH  11  25
ATOM     25  O   UNL     1     -15.358  24.695  56.916  1.00  0.00    -0.508 OA
ATOM     26  H   UNL     1     -15.610  24.687  57.897  1.00  0.00     0.293 HD
ENDBRANCH  11  25
ENDBRANCH   1   2
BRANCH   1  27
ATOM     27  C   UNL     1     -17.248  30.118  50.485  1.00  0.00     0.339 C 
ATOM     28  C   UNL     1     -18.225  31.290  50.711  1.00  0.00     0.214 C 
ATOM     29  O   UNL     1     -16.771  30.075  49.151  1.00  0.00    -0.332 OA
ATOM     30  C   UNL     1     -19.374  31.256  49.688  1.00  0.00     0.180 C 
ATOM     31  C   UNL     1     -17.827  29.893  48.217  1.00  0.00     0.179 C 
ATOM     32  C   UNL     1     -18.834  31.069  48.257  1.00  0.00     0.177 C 
BRANCH  28  33
ATOM     33  O   UNL     1     -17.549  32.525  50.685  1.00  0.00    -0.384 OA
ATOM     34  H   UNL     1     -16.761  32.433  50.091  1.00  0.00     0.211 HD
ENDBRANCH  28  33
BRANCH  30  35
ATOM     35  O   UNL     1     -20.118  32.443  49.776  1.00  0.00    -0.387 OA
ATOM     36  H   UNL     1     -19.786  32.931  50.575  1.00  0.00     0.211 HD
ENDBRANCH  30  35
BRANCH  31  37
ATOM     37  C   UNL     1     -17.213  29.747  46.815  1.00  0.00     0.191 C 
BRANCH  37  38
ATOM     38  O   UNL     1     -17.078  30.998  46.192  1.00  0.00    -0.394 OA
ATOM     39  H   UNL     1     -16.141  31.062  45.876  1.00  0.00     0.210 HD
ENDBRANCH  37  38
ENDBRANCH  31  37
BRANCH  32  40
ATOM     40  O   UNL     1     -19.908  30.779  47.399  1.00  0.00    -0.387 OA
ATOM     41  H   UNL     1     -19.955  29.794  47.303  1.00  0.00     0.211 HD
ENDBRANCH  32  40
ENDBRANCH   1  27
TORSDOF 12
ENDMDL
MODEL 3
REMARK VINA RESULT:    -6.738     17.807     19.287
REMARK INTER + INTRA:         -11.022
REMARK INTER:                  -9.682
REMARK INTRA:                  -1.340
REMARK UNBOUND:                -1.133
REMARK SMILES O=c1c(O[C@H]2O[C@H](CO)[C@@H](O)[C@H](O)[C@@H]2O)c(-c2ccc(O)c(O)c2)oc2cc(O)cc(O)c12
REMARK SMILES IDX 4 1 3 2 16 3 25 4 2 5 26 6 1 7 33 8 27 9 31 10 28 11 30 12
REMARK SMILES IDX 17 13 18 14 19 15 20 16 24 17 22 18 21 19 23 21 32 23 29 25
REMARK SMILES IDX 5 27 14 28 6 29 12 30 7 31 10 32 15 33 13 35 8 37 9 38 11 40
REMARK H PARENT 21 20 23 22 32 24 29 26 15 34 13 36 9 39 11 41
REMARK Flexibility Score: inf
ROOT
ATOM      1  O   UNL     1     -17.722  30.340  49.908  1.00  0.00    -0.454 OA
ENDROOT
BRANCH   1   2
ATOM      2  C   UNL     1     -17.910  29.523  51.028  1.00  0.00     0.214 A 
ATOM      3  C   UNL     1     -17.456  28.196  51.026  1.00  0.00     0.180 A 
ATOM      4  O   UNL     1     -17.672  27.416  52.076  1.00  0.00    -0.452 OA
ATOM      5  C   UNL     1     -18.553  30.020  52.166  1.00  0.00     0.239 A 
ATOM      6  C   UNL     1     -18.296  27.833  53.172  1.00  0.00     0.146 A 
ATOM      7  O   UNL     1     -18.897  31.230  52.180  1.00  0.00    -0.285 OA
ATOM      8  C   UNL     1     -18.789  29.164  53.272  1.00  0.00     0.111 A 
ATOM      9  C   UNL     1     -18.439  26.939  54.233  1.00  0.00     0.094 A 
ATOM     10  C   UNL     1     -19.459  29.547  54.475  1.00  0.00     0.134 A 
ATOM     11  C   UNL     1     -19.055  27.335  55.418  1.00  0.00     0.123 A 
ATOM     12  C   UNL     1     -19.558  28.634  55.534  1.00  0.00     0.093 A 
BRANCH   3  13
ATOM     13  C   UNL     1     -16.713  27.653  49.879  1.00  0.00     0.025 A 
ATOM     14  C   UNL     1     -17.257  26.612  49.115  1.00  0.00     0.016 A 
ATOM     15  C   UNL     1     -16.569  26.128  48.001  1.00  0.00     0.051 A 
ATOM     16  C   UNL     1     -15.315  26.655  47.660  1.00  0.00     0.157 A 
ATOM     17  C   UNL     1     -15.452  28.174  49.549  1.00  0.00     0.062 A 
ATOM     18  C   UNL     1     -14.748  27.676  48.448  1.00  0.00     0.158 A 
BRANCH  16  19
ATOM     19  O   UNL     1     -14.629  26.168  46.549  1.00  0.00    -0.504 OA
ATOM     20  H   UNL     1     -13.626  26.015  46.569  1.00  0.00     0.293 HD
ENDBRANCH  16  19
BRANCH  18  21
ATOM     21  O   UNL     1     -13.491  28.202  48.151  1.00  0.00    -0.504 OA
ATOM     22  H   UNL     1     -13.268  29.178  48.303  1.00  0.00     0.293 HD
ENDBRANCH  18  21
ENDBRANCH   3  13
BRANCH  10  23
ATOM     23  O   UNL     1     -20.056  30.794  54.680  1.00  0.00    -0.507 OA
ATOM     24  H   UNL     1     -19.765  31.483  55.359  1.00  0.00     0.293 HD
ENDBRANCH  10  23
BRANCH  11  25
ATOM     25  O   UNL     1     -19.171  26.430  56.471  1.00  0.00    -0.508 OA
ATOM     26  H   UNL     1     -18.402  25.828  56.737  1.00  0.00     0.293 HD
ENDBRANCH  11  25
ENDBRANCH   1   2
BRANCH   1  27
ATOM     27  C   UNL     1     -18.745  30.503  48.919  1.00  0.00     0.339 C 
ATOM     28  C   UNL     1     -18.376  29.761  47.619  1.00  0.00     0.214 C 
ATOM     29  O   UNL     1     -19.008  31.877  48.688  1.00  0.00    -0.332 OA
ATOM     30  C   UNL     1     -17.210  30.458  46.895  1.00  0.00     0.180 C 
ATOM     31  C   UNL     1     -17.875  32.551  48.158  1.00  0.00     0.179 C 
ATOM     32  C   UNL     1     -17.459  31.974  46.782  1.00  0.00     0.177 C 
BRANCH  28  33
ATOM     33  O   UNL     1     -19.497  29.626  46.777  1.00  0.00    -0.384 OA
ATOM     34  H   UNL     1     -19.790  30.533  46.507  1.00  0.00     0.211 HD
ENDBRANCH  28  33
BRANCH  30  35
ATOM     35  O   UNL     1     -17.042  29.895  45.621  1.00  0.00    -0.387 OA
ATOM     36  H   UNL     1     -16.171  30.224  45.275  1.00  0.00     0.211 HD
ENDBRANCH  30  35
BRANCH  31  37
ATOM     37  C   UNL     1     -18.211  34.048  48.044  1.00  0.00     0.191 C 
BRANCH  37  38
ATOM     38  O   UNL     1     -17.054  34.834  48.173  1.00  0.00    -0.394 OA
ATOM     39  H   UNL     1     -17.296  35.608  48.744  1.00  0.00     0.210 HD
ENDBRANCH  37  38
ENDBRANCH  31  37
BRANCH  32  40
ATOM     40  O   UNL     1     -16.273  32.601  46.363  1.00  0.00    -0.387 OA
ATOM     41  H   UNL     1     -16.527  33.358  45.777  1.00  0.00     0.211 HD
ENDBRANCH  32  40
ENDBRANCH   1  27
TORSDOF 12
ENDMDL
MODEL 4
REMARK VINA RESULT:    -6.553     16.296     18.253
REMARK INTER + INTRA:         -10.750
REMARK INTER:                  -9.609
REMARK INTRA:                  -1.142
REMARK UNBOUND:                -1.133
REMARK SMILES O=c1c(O[C@H]2O[C@H](CO)[C@@H](O)[C@H](O)[C@@H]2O)c(-c2ccc(O)c(O)c2)oc2cc(O)cc(O)c12
REMARK SMILES IDX 4 1 3 2 16 3 25 4 2 5 26 6 1 7 33 8 27 9 31 10 28 11 30 12
REMARK SMILES IDX 17 13 18 14 19 15 20 16 24 17 22 18 21 19 23 21 32 23 29 25
REMARK SMILES IDX 5 27 14 28 6 29 12 30 7 31 10 32 15 33 13 35 8 37 9 38 11 40
REMARK H PARENT 21 20 23 22 32 24 29 26 15 34 13 36 9 39 11 41
REMARK Flexibility Score: inf
ROOT
ATOM      1  O   UNL     1     -16.306  29.184  50.225  1.00  0.00    -0.454 OA
ENDROOT
BRANCH   1   2
ATOM      2  C   UNL     1     -16.047  28.300  51.277  1.00  0.00     0.214 A 
ATOM      3  C   UNL     1     -15.082  27.292  51.140  1.00  0.00     0.180 A 
ATOM      4  O   UNL     1     -14.870  26.433  52.128  1.00  0.00    -0.452 OA
ATOM      5  C   UNL     1     -16.748  28.411  52.483  1.00  0.00     0.239 A 
ATOM      6  C   UNL     1     -15.523  26.482  53.283  1.00  0.00     0.146 A 
ATOM      7  O   UNL     1     -17.565  29.359  52.616  1.00  0.00    -0.285 OA
ATOM      8  C   UNL     1     -16.518  27.472  53.520  1.00  0.00     0.111 A 
ATOM      9  C   UNL     1     -15.196  25.550  54.269  1.00  0.00     0.094 A 
ATOM     10  C   UNL     1     -17.190  27.464  54.781  1.00  0.00     0.134 A 
ATOM     11  C   UNL     1     -15.827  25.579  55.510  1.00  0.00     0.123 A 
ATOM     12  C   UNL     1     -16.815  26.534  55.760  1.00  0.00     0.093 A 
BRANCH   3  13
ATOM     13  C   UNL     1     -14.272  27.182  49.918  1.00  0.00     0.025 A 
ATOM     14  C   UNL     1     -14.775  26.511  48.796  1.00  0.00     0.016 A 
ATOM     15  C   UNL     1     -14.022  26.447  47.622  1.00  0.00     0.051 A 
ATOM     16  C   UNL     1     -12.744  27.022  47.570  1.00  0.00     0.157 A 
ATOM     17  C   UNL     1     -12.988  27.748  49.873  1.00  0.00     0.062 A 
ATOM     18  C   UNL     1     -12.219  27.665  48.707  1.00  0.00     0.158 A 
BRANCH  16  19
ATOM     19  O   UNL     1     -11.993  26.952  46.397  1.00  0.00    -0.504 OA
ATOM     20  H   UNL     1     -11.402  26.154  46.192  1.00  0.00     0.293 HD
ENDBRANCH  16  19
BRANCH  18  21
ATOM     21  O   UNL     1     -10.941  28.223  48.696  1.00  0.00    -0.504 OA
ATOM     22  H   UNL     1     -10.107  27.654  48.633  1.00  0.00     0.293 HD
ENDBRANCH  18  21
ENDBRANCH   3  13
BRANCH  10  23
ATOM     23  O   UNL     1     -18.236  28.328  55.120  1.00  0.00    -0.507 OA
ATOM     24  H   UNL     1     -18.136  29.289  55.411  1.00  0.00     0.293 HD
ENDBRANCH  10  23
BRANCH  11  25
ATOM     25  O   UNL     1     -15.472  24.649  56.486  1.00  0.00    -0.508 OA
ATOM     26  H   UNL     1     -14.543  24.635  56.887  1.00  0.00     0.293 HD
ENDBRANCH  11  25
ENDBRANCH   1   2
BRANCH   1  27
ATOM     27  C   UNL     1     -17.591  29.245  49.595  1.00  0.00     0.339 C 
ATOM     28  C   UNL     1     -17.507  28.776  48.128  1.00  0.00     0.214 C 
ATOM     29  O   UNL     1     -18.146  30.545  49.704  1.00  0.00    -0.332 OA
ATOM     30  C   UNL     1     -16.752  29.801  47.263  1.00  0.00     0.180 C 
ATOM     31  C   UNL     1     -17.359  31.515  49.026  1.00  0.00     0.179 C 
ATOM     32  C   UNL     1     -17.283  31.226  47.506  1.00  0.00     0.177 C 
BRANCH  28  33
ATOM     33  O   UNL     1     -18.787  28.507  47.608  1.00  0.00    -0.384 OA
ATOM     34  H   UNL     1     -18.823  28.856  46.681  1.00  0.00     0.211 HD
ENDBRANCH  28  33
BRANCH  30  35
ATOM     35  O   UNL     1     -16.879  29.458  45.908  1.00  0.00    -0.387 OA
ATOM     36  H   UNL     1     -16.140  28.828  45.700  1.00  0.00     0.211 HD
ENDBRANCH  30  35
BRANCH  31  37
ATOM     37  C   UNL     1     -17.968  32.902  49.289  1.00  0.00     0.191 C 
BRANCH  37  38
ATOM     38  O   UNL     1     -16.963  33.862  49.492  1.00  0.00    -0.394 OA
ATOM     39  H   UNL     1     -17.171  34.626  48.896  1.00  0.00     0.210 HD
ENDBRANCH  37  38
ENDBRANCH  31  37
BRANCH  32  40
ATOM     40  O   UNL     1     -16.404  32.148  46.910  1.00  0.00    -0.387 OA
ATOM     41  H   UNL     1     -16.588  32.146  45.937  1.00  0.00     0.211 HD
ENDBRANCH  32  40
ENDBRANCH   1  27
TORSDOF 12
ENDMDL
MODEL 5
REMARK VINA RESULT:    -6.426     17.254     20.151
REMARK INTER + INTRA:         -10.564
REMARK INTER:                  -9.560
REMARK INTRA:                  -1.003
REMARK UNBOUND:                -1.133
REMARK SMILES O=c1c(O[C@H]2O[C@H](CO)[C@@H](O)[C@H](O)[C@@H]2O)c(-c2ccc(O)c(O)c2)oc2cc(O)cc(O)c12
REMARK SMILES IDX 4 1 3 2 16 3 25 4 2 5 26 6 1 7 33 8 27 9 31 10 28 11 30 12
REMARK SMILES IDX 17 13 18 14 19 15 20 16 24 17 22 18 21 19 23 21 32 23 29 25
REMARK SMILES IDX 5 27 14 28 6 29 12 30 7 31 10 32 15 33 13 35 8 37 9 38 11 40
REMARK H PARENT 21 20 23 22 32 24 29 26 15 34 13 36 9 39 11 41
REMARK Flexibility Score: inf
ROOT
ATOM      1  O   UNL     1     -17.799  29.878  49.933  1.00  0.00    -0.454 OA
ENDROOT
BRANCH   1   2
ATOM      2  C   UNL     1     -17.514  30.694  48.833  1.00  0.00     0.214 A 
ATOM      3  C   UNL     1     -17.288  30.132  47.568  1.00  0.00     0.180 A 
ATOM      4  O   UNL     1     -16.980  30.908  46.538  1.00  0.00    -0.452 OA
ATOM      5  C   UNL     1     -17.452  32.084  48.979  1.00  0.00     0.239 A 
ATOM      6  C   UNL     1     -16.888  32.230  46.630  1.00  0.00     0.146 A 
ATOM      7  O   UNL     1     -17.720  32.580  50.105  1.00  0.00    -0.285 OA
ATOM      8  C   UNL     1     -17.104  32.895  47.869  1.00  0.00     0.111 A 
ATOM      9  C   UNL     1     -16.592  32.954  45.475  1.00  0.00     0.094 A 
ATOM     10  C   UNL     1     -16.980  34.318  47.902  1.00  0.00     0.134 A 
ATOM     11  C   UNL     1     -16.517  34.344  45.509  1.00  0.00     0.123 A 
ATOM     12  C   UNL     1     -16.714  35.017  46.717  1.00  0.00     0.093 A 
BRANCH   3  13
ATOM     13  C   UNL     1     -17.413  28.682  47.352  1.00  0.00     0.025 A 
ATOM     14  C   UNL     1     -18.641  28.130  46.964  1.00  0.00     0.016 A 
ATOM     15  C   UNL     1     -18.746  26.761  46.717  1.00  0.00     0.051 A 
ATOM     16  C   UNL     1     -17.635  25.923  46.890  1.00  0.00     0.157 A 
ATOM     17  C   UNL     1     -16.302  27.846  47.539  1.00  0.00     0.062 A 
ATOM     18  C   UNL     1     -16.409  26.468  47.317  1.00  0.00     0.158 A 
BRANCH  16  19
ATOM     19  O   UNL     1     -17.744  24.555  46.647  1.00  0.00    -0.504 OA
ATOM     20  H   UNL     1     -16.981  23.918  46.849  1.00  0.00     0.293 HD
ENDBRANCH  16  19
BRANCH  18  21
ATOM     21  O   UNL     1     -15.292  25.659  47.525  1.00  0.00    -0.504 OA
ATOM     22  H   UNL     1     -15.375  24.692  47.810  1.00  0.00     0.293 HD
ENDBRANCH  18  21
ENDBRANCH   3  13
BRANCH  10  23
ATOM     23  O   UNL     1     -17.093  35.090  49.062  1.00  0.00    -0.507 OA
ATOM     24  H   UNL     1     -17.948  35.282  49.562  1.00  0.00     0.293 HD
ENDBRANCH  10  23
BRANCH  11  25
ATOM     25  O   UNL     1     -16.238  35.048  44.338  1.00  0.00    -0.508 OA
ATOM     26  H   UNL     1     -16.493  34.683  43.430  1.00  0.00     0.293 HD
ENDBRANCH  11  25
ENDBRANCH   1   2
BRANCH   1  27
ATOM     27  C   UNL     1     -16.916  29.801  51.058  1.00  0.00     0.339 C 
ATOM     28  C   UNL     1     -16.341  28.379  51.210  1.00  0.00     0.214 C 
ATOM     29  O   UNL     1     -17.565  30.239  52.240  1.00  0.00    -0.332 OA
ATOM     30  C   UNL     1     -17.427  27.390  51.672  1.00  0.00     0.180 C 
ATOM     31  C   UNL     1     -18.665  29.405  52.580  1.00  0.00     0.179 C 
ATOM     32  C   UNL     1     -18.211  27.954  52.872  1.00  0.00     0.177 C 
BRANCH  28  33
ATOM     33  O   UNL     1     -15.234  28.369  52.080  1.00  0.00    -0.384 OA
ATOM     34  H   UNL     1     -15.476  28.881  52.893  1.00  0.00     0.211 HD
ENDBRANCH  28  33
BRANCH  30  35
ATOM     35  O   UNL     1     -16.835  26.164  52.009  1.00  0.00    -0.387 OA
ATOM     36  H   UNL     1     -17.571  25.501  52.084  1.00  0.00     0.211 HD
ENDBRANCH  30  35
BRANCH  31  37
ATOM     37  C   UNL     1     -19.375  30.013  53.801  1.00  0.00     0.191 C 
BRANCH  37  38
ATOM     38  O   UNL     1     -19.788  31.329  53.538  1.00  0.00    -0.394 OA
ATOM     39  H   UNL     1     -19.107  31.729  52.938  1.00  0.00     0.210 HD
ENDBRANCH  37  38
ENDBRANCH  31  37
BRANCH  32  40
ATOM     40  O   UNL     1     -19.347  27.156  53.090  1.00  0.00    -0.387 OA
ATOM     41  H   UNL     1     -20.047  27.736  53.484  1.00  0.00     0.211 HD
ENDBRANCH  32  40
ENDBRANCH   1  27
TORSDOF 12
ENDMDL
MODEL 6
REMARK VINA RESULT:    -6.386     17.246     19.145
REMARK INTER + INTRA:         -10.505
REMARK INTER:                  -8.938
REMARK INTRA:                  -1.567
REMARK UNBOUND:                -1.133
REMARK SMILES O=c1c(O[C@H]2O[C@H](CO)[C@@H](O)[C@H](O)[C@@H]2O)c(-c2ccc(O)c(O)c2)oc2cc(O)cc(O)c12
REMARK SMILES IDX 4 1 3 2 16 3 25 4 2 5 26 6 1 7 33 8 27 9 31 10 28 11 30 12
REMARK SMILES IDX 17 13 18 14 19 15 20 16 24 17 22 18 21 19 23 21 32 23 29 25
REMARK SMILES IDX 5 27 14 28 6 29 12 30 7 31 10 32 15 33 13 35 8 37 9 38 11 40
REMARK H PARENT 21 20 23 22 32 24 29 26 15 34 13 36 9 39 11 41
REMARK Flexibility Score: inf
ROOT
ATOM      1  O   UNL     1     -17.071  27.518  50.517  1.00  0.00    -0.454 OA
ENDROOT
BRANCH   1   2
ATOM      2  C   UNL     1     -17.531  27.647  51.832  1.00  0.00     0.214 A 
ATOM      3  C   UNL     1     -17.824  28.910  52.364  1.00  0.00     0.180 A 
ATOM      4  O   UNL     1     -18.221  29.028  53.623  1.00  0.00    -0.452 OA
ATOM      5  C   UNL     1     -17.705  26.514  52.634  1.00  0.00     0.239 A 
ATOM      6  C   UNL     1     -18.382  27.986  54.432  1.00  0.00     0.146 A 
ATOM      7  O   UNL     1     -17.500  25.382  52.124  1.00  0.00    -0.285 OA
ATOM      8  C   UNL     1     -18.114  26.663  53.984  1.00  0.00     0.111 A 
ATOM      9  C   UNL     1     -18.838  28.220  55.730  1.00  0.00     0.094 A 
ATOM     10  C   UNL     1     -18.298  25.588  54.907  1.00  0.00     0.134 A 
ATOM     11  C   UNL     1     -19.055  27.161  56.607  1.00  0.00     0.123 A 
ATOM     12  C   UNL     1     -18.788  25.854  56.192  1.00  0.00     0.093 A 
BRANCH   3  13
ATOM     13  C   UNL     1     -17.724  30.121  51.535  1.00  0.00     0.025 A 
ATOM     14  C   UNL     1     -16.471  30.679  51.250  1.00  0.00     0.016 A 
ATOM     15  C   UNL     1     -16.375  31.802  50.427  1.00  0.00     0.051 A 
ATOM     16  C   UNL     1     -17.533  32.401  49.911  1.00  0.00     0.157 A 
ATOM     17  C   UNL     1     -18.886  30.725  51.031  1.00  0.00     0.062 A 
ATOM     18  C   UNL     1     -18.797  31.866  50.226  1.00  0.00     0.158 A 
BRANCH  16  19
ATOM     19  O   UNL     1     -17.435  33.526  49.092  1.00  0.00    -0.504 OA
ATOM     20  H   UNL     1     -17.269  34.449  49.477  1.00  0.00     0.293 HD
ENDBRANCH  16  19
BRANCH  18  21
ATOM     21  O   UNL     1     -19.969  32.454  49.750  1.00  0.00    -0.504 OA
ATOM     22  H   UNL     1     -20.885  32.155  50.061  1.00  0.00     0.293 HD
ENDBRANCH  18  21
ENDBRANCH   3  13
BRANCH  10  23
ATOM     23  O   UNL     1     -18.003  24.250  54.625  1.00  0.00    -0.507 OA
ATOM     24  H   UNL     1     -17.195  23.742  54.953  1.00  0.00     0.293 HD
ENDBRANCH  10  23
BRANCH  11  25
ATOM     25  O   UNL     1     -19.529  27.417  57.893  1.00  0.00    -0.508 OA
ATOM     26  H   UNL     1     -18.930  27.815  58.606  1.00  0.00     0.293 HD
ENDBRANCH  11  25
ENDBRANCH   1   2
BRANCH   1  27
ATOM     27  C   UNL     1     -17.966  27.240  49.433  1.00  0.00     0.339 C 
ATOM     28  C   UNL     1     -17.500  26.003  48.639  1.00  0.00     0.214 C 
ATOM     29  O   UNL     1     -18.118  28.377  48.601  1.00  0.00    -0.332 OA
ATOM     30  C   UNL     1     -16.221  26.309  47.839  1.00  0.00     0.180 C 
ATOM     31  C   UNL     1     -16.894  28.747  47.979  1.00  0.00     0.179 C 
ATOM     32  C   UNL     1     -16.364  27.625  47.052  1.00  0.00     0.177 C 
BRANCH  28  33
ATOM     33  O   UNL     1     -18.526  25.521  47.804  1.00  0.00    -0.384 OA
ATOM     34  H   UNL     1     -19.293  26.147  47.865  1.00  0.00     0.211 HD
ENDBRANCH  28  33
BRANCH  30  35
ATOM     35  O   UNL     1     -15.947  25.246  46.966  1.00  0.00    -0.387 OA
ATOM     36  H   UNL     1     -14.958  25.182  46.893  1.00  0.00     0.211 HD
ENDBRANCH  30  35
BRANCH  31  37
ATOM     37  C   UNL     1     -17.125  30.046  47.190  1.00  0.00     0.191 C 
BRANCH  37  38
ATOM     38  O   UNL     1     -16.939  29.837  45.813  1.00  0.00    -0.394 OA
ATOM     39  H   UNL     1     -16.642  30.702  45.430  1.00  0.00     0.210 HD
ENDBRANCH  37  38
ENDBRANCH  31  37
BRANCH  32  40
ATOM     40  O   UNL     1     -15.103  28.000  46.558  1.00  0.00    -0.387 OA
ATOM     41  H   UNL     1     -14.856  28.855  46.993  1.00  0.00     0.211 HD
ENDBRANCH  32  40
ENDBRANCH   1  27
TORSDOF 12
ENDMDL
MODEL 7
REMARK VINA RESULT:    -6.343     17.428     20.417
REMARK INTER + INTRA:         -10.443
REMARK INTER:                  -8.863
REMARK INTRA:                  -1.580
REMARK UNBOUND:                -1.133
REMARK SMILES O=c1c(O[C@H]2O[C@H](CO)[C@@H](O)[C@H](O)[C@@H]2O)c(-c2ccc(O)c(O)c2)oc2cc(O)cc(O)c12
REMARK SMILES IDX 4 1 3 2 16 3 25 4 2 5 26 6 1 7 33 8 27 9 31 10 28 11 30 12
REMARK SMILES IDX 17 13 18 14 19 15 20 16 24 17 22 18 21 19 23 21 32 23 29 25
REMARK SMILES IDX 5 27 14 28 6 29 12 30 7 31 10 32 15 33 13 35 8 37 9 38 11 40
REMARK H PARENT 21 20 23 22 32 24 29 26 15 34 13 36 9 39 11 41
REMARK Flexibility Score: inf
ROOT
ATOM      1  O   UNL     1     -17.180  29.447  50.047  1.00  0.00    -0.454 OA
ENDROOT
BRANCH   1   2
ATOM      2  C   UNL     1     -17.100  30.354  48.985  1.00  0.00     0.214 A 
ATOM      3  C   UNL     1     -17.012  29.897  47.662  1.00  0.00     0.180 A 
ATOM      4  O   UNL     1     -16.897  30.761  46.664  1.00  0.00    -0.452 OA
ATOM      5  C   UNL     1     -17.108  31.731  49.229  1.00  0.00     0.239 A 
ATOM      6  C   UNL     1     -16.879  32.077  46.844  1.00  0.00     0.146 A 
ATOM      7  O   UNL     1     -17.253  32.129  50.414  1.00  0.00    -0.285 OA
ATOM      8  C   UNL     1     -16.968  32.639  48.149  1.00  0.00     0.111 A 
ATOM      9  C   UNL     1     -16.790  32.898  45.719  1.00  0.00     0.094 A 
ATOM     10  C   UNL     1     -16.933  34.062  48.274  1.00  0.00     0.134 A 
ATOM     11  C   UNL     1     -16.801  34.285  45.850  1.00  0.00     0.123 A 
ATOM     12  C   UNL     1     -16.875  34.858  47.122  1.00  0.00     0.093 A 
BRANCH   3  13
ATOM     13  C   UNL     1     -17.071  28.460  47.354  1.00  0.00     0.025 A 
ATOM     14  C   UNL     1     -18.263  27.887  46.889  1.00  0.00     0.016 A 
ATOM     15  C   UNL     1     -18.304  26.532  46.556  1.00  0.00     0.051 A 
ATOM     16  C   UNL     1     -17.166  25.729  46.717  1.00  0.00     0.157 A 
ATOM     17  C   UNL     1     -15.934  27.657  47.529  1.00  0.00     0.062 A 
ATOM     18  C   UNL     1     -15.977  26.293  47.219  1.00  0.00     0.158 A 
BRANCH  16  19
ATOM     19  O   UNL     1     -17.212  24.375  46.386  1.00  0.00    -0.504 OA
ATOM     20  H   UNL     1     -16.968  24.047  45.458  1.00  0.00     0.293 HD
ENDBRANCH  16  19
BRANCH  18  21
ATOM     21  O   UNL     1     -14.836  25.515  47.416  1.00  0.00    -0.504 OA
ATOM     22  H   UNL     1     -13.917  25.828  47.130  1.00  0.00     0.293 HD
ENDBRANCH  18  21
ENDBRANCH   3  13
BRANCH  10  23
ATOM     23  O   UNL     1     -16.937  34.744  49.494  1.00  0.00    -0.507 OA
ATOM     24  H   UNL     1     -17.265  35.687  49.642  1.00  0.00     0.293 HD
ENDBRANCH  10  23
BRANCH  11  25
ATOM     25  O   UNL     1     -16.728  35.085  44.711  1.00  0.00    -0.508 OA
ATOM     26  H   UNL     1     -17.441  35.772  44.504  1.00  0.00     0.293 HD
ENDBRANCH  11  25
ENDBRANCH   1   2
BRANCH   1  27
ATOM     27  C   UNL     1     -18.419  29.179  50.713  1.00  0.00     0.339 C 
ATOM     28  C   UNL     1     -18.251  29.268  52.244  1.00  0.00     0.214 C 
ATOM     29  O   UNL     1     -18.948  27.927  50.310  1.00  0.00    -0.332 OA
ATOM     30  C   UNL     1     -17.417  28.090  52.778  1.00  0.00     0.180 C 
ATOM     31  C   UNL     1     -18.095  26.850  50.676  1.00  0.00     0.179 C 
ATOM     32  C   UNL     1     -17.927  26.751  52.212  1.00  0.00     0.177 C 
BRANCH  28  33
ATOM     33  O   UNL     1     -19.501  29.346  52.887  1.00  0.00    -0.384 OA
ATOM     34  H   UNL     1     -19.346  29.589  53.835  1.00  0.00     0.211 HD
ENDBRANCH  28  33
BRANCH  30  35
ATOM     35  O   UNL     1     -17.464  28.076  54.180  1.00  0.00    -0.387 OA
ATOM     36  H   UNL     1     -16.533  28.209  54.500  1.00  0.00     0.211 HD
ENDBRANCH  30  35
BRANCH  31  37
ATOM     37  C   UNL     1     -18.686  25.550  50.105  1.00  0.00     0.191 C 
BRANCH  37  38
ATOM     38  O   UNL     1     -19.174  24.726  51.133  1.00  0.00    -0.394 OA
ATOM     39  H   UNL     1     -19.320  23.829  50.736  1.00  0.00     0.210 HD
ENDBRANCH  37  38
ENDBRANCH  31  37
BRANCH  32  40
ATOM     40  O   UNL     1     -16.990  25.745  52.505  1.00  0.00    -0.387 OA
ATOM     41  H   UNL     1     -16.537  25.505  51.657  1.00  0.00     0.211 HD
ENDBRANCH  32  40
ENDBRANCH   1  27
TORSDOF 12
ENDMDL
MODEL 8
REMARK VINA RESULT:    -6.224     17.041     19.016
REMARK INTER + INTRA:         -10.267
REMARK INTER:                  -9.407
REMARK INTRA:                  -0.860
REMARK UNBOUND:                -1.133
REMARK SMILES O=c1c(O[C@H]2O[C@H](CO)[C@@H](O)[C@H](O)[C@@H]2O)c(-c2ccc(O)c(O)c2)oc2cc(O)cc(O)c12
REMARK SMILES IDX 4 1 3 2 16 3 25 4 2 5 26 6 1 7 33 8 27 9 31 10 28 11 30 12
REMARK SMILES IDX 17 13 18 14 19 15 20 16 24 17 22 18 21 19 23 21 32 23 29 25
REMARK SMILES IDX 5 27 14 28 6 29 12 30 7 31 10 32 15 33 13 35 8 37 9 38 11 40
REMARK H PARENT 21 20 23 22 32 24 29 26 15 34 13 36 9 39 11 41
REMARK Flexibility Score: inf
ROOT
ATOM      1  O   UNL     1     -18.067  28.947  50.176  1.00  0.00    -0.454 OA
ENDROOT
BRANCH   1   2
ATOM      2  C   UNL     1     -17.530  28.117  51.166  1.00  0.00     0.214 A 
ATOM      3  C   UNL     1     -16.800  26.972  50.817  1.00  0.00     0.180 A 
ATOM      4  O   UNL     1     -16.328  26.168  51.760  1.00  0.00    -0.452 OA
ATOM      5  C   UNL     1     -17.715  28.419  52.519  1.00  0.00     0.239 A 
ATOM      6  C   UNL     1     -16.493  26.399  53.057  1.00  0.00     0.146 A 
ATOM      7  O   UNL     1     -18.316  29.483  52.819  1.00  0.00    -0.285 OA
ATOM      8  C   UNL     1     -17.216  27.538  53.512  1.00  0.00     0.111 A 
ATOM      9  C   UNL     1     -15.924  25.507  53.966  1.00  0.00     0.094 A 
ATOM     10  C   UNL     1     -17.366  27.723  54.921  1.00  0.00     0.134 A 
ATOM     11  C   UNL     1     -16.039  25.721  55.338  1.00  0.00     0.123 A 
ATOM     12  C   UNL     1     -16.755  26.826  55.807  1.00  0.00     0.093 A 
BRANCH   3  13
ATOM     13  C   UNL     1     -16.521  26.653  49.408  1.00  0.00     0.025 A 
ATOM     14  C   UNL     1     -17.527  26.118  48.594  1.00  0.00     0.016 A 
ATOM     15  C   UNL     1     -17.273  25.858  47.246  1.00  0.00     0.051 A 
ATOM     16  C   UNL     1     -16.000  26.097  46.708  1.00  0.00     0.157 A 
ATOM     17  C   UNL     1     -15.243  26.882  48.876  1.00  0.00     0.062 A 
ATOM     18  C   UNL     1     -14.975  26.600  47.532  1.00  0.00     0.158 A 
BRANCH  16  19
ATOM     19  O   UNL     1     -15.748  25.833  45.362  1.00  0.00    -0.504 OA
ATOM     20  H   UNL     1     -15.345  26.534  44.750  1.00  0.00     0.293 HD
ENDBRANCH  16  19
BRANCH  18  21
ATOM     21  O   UNL     1     -13.692  26.824  47.034  1.00  0.00    -0.504 OA
ATOM     22  H   UNL     1     -13.216  26.147  46.452  1.00  0.00     0.293 HD
ENDBRANCH  18  21
ENDBRANCH   3  13
BRANCH  10  23
ATOM     23  O   UNL     1     -18.111  28.753  55.504  1.00  0.00    -0.507 OA
ATOM     24  H   UNL     1     -18.874  29.249  55.067  1.00  0.00     0.293 HD
ENDBRANCH  10  23
BRANCH  11  25
ATOM     25  O   UNL     1     -15.447  24.826  56.227  1.00  0.00    -0.508 OA
ATOM     26  H   UNL     1     -15.066  23.943  55.911  1.00  0.00     0.293 HD
ENDBRANCH  11  25
ENDBRANCH   1   2
BRANCH   1  27
ATOM     27  C   UNL     1     -17.237  29.580  49.196  1.00  0.00     0.339 C 
ATOM     28  C   UNL     1     -16.657  30.902  49.737  1.00  0.00     0.214 C 
ATOM     29  O   UNL     1     -17.944  29.769  47.982  1.00  0.00    -0.332 OA
ATOM     30  C   UNL     1     -17.754  31.974  49.869  1.00  0.00     0.180 C 
ATOM     31  C   UNL     1     -19.051  30.646  48.145  1.00  0.00     0.179 C 
ATOM     32  C   UNL     1     -18.598  32.061  48.583  1.00  0.00     0.177 C 
BRANCH  28  33
ATOM     33  O   UNL     1     -15.591  31.354  48.936  1.00  0.00    -0.384 OA
ATOM     34  H   UNL     1     -15.100  32.051  49.441  1.00  0.00     0.211 HD
ENDBRANCH  28  33
BRANCH  30  35
ATOM     35  O   UNL     1     -17.168  33.217  50.152  1.00  0.00    -0.387 OA
ATOM     36  H   UNL     1     -17.675  33.898  49.638  1.00  0.00     0.211 HD
ENDBRANCH  30  35
BRANCH  31  37
ATOM     37  C   UNL     1     -19.821  30.706  46.816  1.00  0.00     0.191 C 
BRANCH  37  38
ATOM     38  O   UNL     1     -19.504  31.873  46.103  1.00  0.00    -0.394 OA
ATOM     39  H   UNL     1     -18.515  31.917  46.051  1.00  0.00     0.210 HD
ENDBRANCH  37  38
ENDBRANCH  31  37
BRANCH  32  40
ATOM     40  O   UNL     1     -19.736  32.846  48.836  1.00  0.00    -0.387 OA
ATOM     41  H   UNL     1     -20.251  32.399  49.555  1.00  0.00     0.211 HD
ENDBRANCH  32  40
ENDBRANCH   1  27
TORSDOF 12
ENDMDL
MODEL 9
REMARK VINA RESULT:    -6.169     16.744     18.461
REMARK INTER + INTRA:         -10.187
REMARK INTER:                  -9.839
REMARK INTRA:                  -0.348
REMARK UNBOUND:                -1.133
REMARK SMILES O=c1c(O[C@H]2O[C@H](CO)[C@@H](O)[C@H](O)[C@@H]2O)c(-c2ccc(O)c(O)c2)oc2cc(O)cc(O)c12
REMARK SMILES IDX 4 1 3 2 16 3 25 4 2 5 26 6 1 7 33 8 27 9 31 10 28 11 30 12
REMARK SMILES IDX 17 13 18 14 19 15 20 16 24 17 22 18 21 19 23 21 32 23 29 25
REMARK SMILES IDX 5 27 14 28 6 29 12 30 7 31 10 32 15 33 13 35 8 37 9 38 11 40
REMARK H PARENT 21 20 23 22 32 24 29 26 15 34 13 36 9 39 11 41
REMARK Flexibility Score: inf
ROOT
ATOM      1  O   UNL     1     -15.339  28.380  50.447  1.00  0.00    -0.454 OA
ENDROOT
BRANCH   1   2
ATOM      2  C   UNL     1     -16.270  28.199  51.476  1.00  0.00     0.214 A 
ATOM      3  C   UNL     1     -17.232  29.182  51.748  1.00  0.00     0.180 A 
ATOM      4  O   UNL     1     -18.086  29.020  52.750  1.00  0.00    -0.452 OA
ATOM      5  C   UNL     1     -16.254  27.031  52.246  1.00  0.00     0.239 A 
ATOM      6  C   UNL     1     -18.098  27.940  53.524  1.00  0.00     0.146 A 
ATOM      7  O   UNL     1     -15.428  26.129  51.950  1.00  0.00    -0.285 OA
ATOM      8  C   UNL     1     -17.164  26.885  53.323  1.00  0.00     0.111 A 
ATOM      9  C   UNL     1     -19.063  27.857  54.528  1.00  0.00     0.094 A 
ATOM     10  C   UNL     1     -17.225  25.756  54.197  1.00  0.00     0.134 A 
ATOM     11  C   UNL     1     -19.141  26.732  55.345  1.00  0.00     0.123 A 
ATOM     12  C   UNL     1     -18.227  25.690  55.174  1.00  0.00     0.093 A 
BRANCH   3  13
ATOM     13  C   UNL     1     -17.332  30.392  50.919  1.00  0.00     0.025 A 
ATOM     14  C   UNL     1     -16.311  31.352  50.946  1.00  0.00     0.016 A 
ATOM     15  C   UNL     1     -16.387  32.478  50.126  1.00  0.00     0.051 A 
ATOM     16  C   UNL     1     -17.500  32.674  49.295  1.00  0.00     0.157 A 
ATOM     17  C   UNL     1     -18.453  30.591  50.099  1.00  0.00     0.062 A 
ATOM     18  C   UNL     1     -18.546  31.731  49.293  1.00  0.00     0.158 A 
BRANCH  16  19
ATOM     19  O   UNL     1     -17.575  33.803  48.479  1.00  0.00    -0.504 OA
ATOM     20  H   UNL     1     -17.952  33.753  47.539  1.00  0.00     0.293 HD
ENDBRANCH  16  19
BRANCH  18  21
ATOM     21  O   UNL     1     -19.679  31.911  48.499  1.00  0.00    -0.504 OA
ATOM     22  H   UNL     1     -19.982  31.214  47.831  1.00  0.00     0.293 HD
ENDBRANCH  18  21
ENDBRANCH   3  13
BRANCH  10  23
ATOM     23  O   UNL     1     -16.327  24.686  54.162  1.00  0.00    -0.507 OA
ATOM     24  H   UNL     1     -16.467  23.783  54.592  1.00  0.00     0.293 HD
ENDBRANCH  10  23
BRANCH  11  25
ATOM     25  O   UNL     1     -20.125  26.663  56.330  1.00  0.00    -0.508 OA
ATOM     26  H   UNL     1     -20.756  25.874  56.391  1.00  0.00     0.293 HD
ENDBRANCH  11  25
ENDBRANCH   1   2
BRANCH   1  27
ATOM     27  C   UNL     1     -15.749  28.677  49.108  1.00  0.00     0.339 C 
ATOM     28  C   UNL     1     -16.780  27.646  48.607  1.00  0.00     0.214 C 
ATOM     29  O   UNL     1     -14.628  28.767  48.245  1.00  0.00    -0.332 OA
ATOM     30  C   UNL     1     -16.121  26.275  48.372  1.00  0.00     0.180 C 
ATOM     31  C   UNL     1     -13.933  27.531  48.150  1.00  0.00     0.179 C 
ATOM     32  C   UNL     1     -14.827  26.418  47.549  1.00  0.00     0.177 C 
BRANCH  28  33
ATOM     33  O   UNL     1     -17.437  28.106  47.449  1.00  0.00    -0.384 OA
ATOM     34  H   UNL     1     -17.305  29.086  47.390  1.00  0.00     0.211 HD
ENDBRANCH  28  33
BRANCH  30  35
ATOM     35  O   UNL     1     -17.024  25.424  47.716  1.00  0.00    -0.387 OA
ATOM     36  H   UNL     1     -16.588  25.138  46.871  1.00  0.00     0.211 HD
ENDBRANCH  30  35
BRANCH  31  37
ATOM     37  C   UNL     1     -12.676  27.747  47.290  1.00  0.00     0.191 C 
BRANCH  37  38
ATOM     38  O   UNL     1     -11.863  28.754  47.832  1.00  0.00    -0.394 OA
ATOM     39  H   UNL     1     -10.931  28.546  47.563  1.00  0.00     0.210 HD
ENDBRANCH  37  38
ENDBRANCH  31  37
BRANCH  32  40
ATOM     40  O   UNL     1     -14.127  25.201  47.584  1.00  0.00    -0.387 OA
ATOM     41  H   UNL     1     -14.418  24.667  46.802  1.00  0.00     0.211 HD
ENDBRANCH  32  40
ENDBRANCH   1  27
TORSDOF 12
ENDMDL
