MODEL 1
REMARK VINA RESULT:    68.847      0.000      0.000
REMARK INTER + INTRA:          76.072
REMARK INTER:                  74.885
REMARK INTRA:                   1.188
REMARK UNBOUND:                 1.188
REMARK SMILES C[C@@H]1[C@H](C)CC[C@]2(C(=O)[O-])CC[C@]3(C)C(=CC[C@@H]4[C@]5(C)CC[C@@H](O)C(C)(C)[C@@H]5CC[C@]43C)[C@H]12
REMARK SMILES IDX 7 1 6 2 11 3 33 4 5 5 12 6 15 7 2 8 3 9 13 10 16 11 1 12
REMARK SMILES IDX 4 13 14 14 31 15 17 16 18 17 30 18 32 19 19 20 29 21 28 22
REMARK SMILES IDX 21 23 20 24 25 25 22 26 23 27 26 28 27 29 8 30 9 31 10 32
REMARK SMILES IDX 24 33
REMARK H PARENT 24 34
REMARK Flexibility Score: inf
ROOT
ATOM      1  C   UNL     1      37.297  36.381   7.017  1.00  0.00     0.017 C 
ATOM      2  C   UNL     1      37.735  35.500   8.239  1.00  0.00     0.014 C 
ATOM      3  C   UNL     1      36.752  37.765   7.536  1.00  0.00     0.014 C 
ATOM      4  C   UNL     1      36.233  35.597   6.148  1.00  0.00     0.030 C 
ATOM      5  C   UNL     1      37.805  34.012   7.878  1.00  0.00     0.004 C 
ATOM      6  C   UNL     1      35.382  38.249   7.011  1.00  0.00     0.013 C 
ATOM      7  C   UNL     1      35.433  36.488   5.182  1.00  0.00    -0.063 C 
ATOM      8  C   UNL     1      35.419  34.506   6.925  1.00  0.00    -0.003 C 
ATOM      9  C   UNL     1      36.411  33.431   7.507  1.00  0.00    -0.011 C 
ATOM     10  C   UNL     1      34.962  37.901   5.540  1.00  0.00    -0.006 C 
ATOM     11  C   UNL     1      35.322  36.076   3.897  1.00  0.00    -0.027 C 
ATOM     12  C   UNL     1      34.434  35.075   7.965  1.00  0.00     0.008 C 
ATOM     13  C   UNL     1      35.850  32.576   8.659  1.00  0.00     0.008 C 
ATOM     14  C   UNL     1      33.390  37.863   5.544  1.00  0.00     0.017 C 
ATOM     15  C   UNL     1      35.511  38.920   4.407  1.00  0.00    -0.020 C 
ATOM     16  C   UNL     1      35.010  36.981   2.725  1.00  0.00     0.032 C 
ATOM     17  C   UNL     1      34.861  38.511   3.029  1.00  0.00     0.006 C 
ATOM     18  C   UNL     1      35.119  40.392   4.689  1.00  0.00     0.008 C 
ATOM     19  C   UNL     1      37.064  38.845   4.338  1.00  0.00     0.012 C 
ATOM     20  C   UNL     1      35.128  39.461   1.772  1.00  0.00    -0.025 C 
ATOM     21  C   UNL     1      35.498  41.352   3.557  1.00  0.00     0.005 C 
ATOM     22  C   UNL     1      34.890  40.988   2.167  1.00  0.00     0.003 C 
ATOM     23  C   UNL     1      36.539  39.219   1.121  1.00  0.00     0.010 C 
ATOM     24  C   UNL     1      34.055  39.066   0.704  1.00  0.00     0.012 C 
ATOM     25  C   UNL     1      35.274  42.050   1.019  1.00  0.00    -0.006 C 
ATOM     26  C   UNL     1      37.309  40.493   0.757  1.00  0.00     0.033 C 
ATOM     27  C   UNL     1      36.410  41.521   0.061  1.00  0.00     0.120 C 
ATOM     28  C   UNL     1      34.002  42.433   0.208  1.00  0.00     0.014 C 
ATOM     29  C   UNL     1      35.773  43.409   1.599  1.00  0.00     0.014 C 
ENDROOT
BRANCH   1  30
ATOM     30  C   UNL     1      38.575  36.641   6.208  1.00  0.00     0.048 C 
ATOM     31  O   UNL     1      38.496  37.104   5.037  1.00  0.00    -0.550 OA
ATOM     32  O   UNL     1      39.845  36.451   6.747  1.00  0.00    -0.550 OA
ENDBRANCH   1  30
BRANCH  27  33
ATOM     33  O   UNL     1      35.888  40.973  -1.124  1.00  0.00    -0.393 OA
ATOM     34  H   UNL     1      35.932  41.679  -1.821  1.00  0.00     0.210 HD
ENDBRANCH  27  33
TORSDOF 2
ENDMDL
