MODEL 1
REMARK VINA RESULT:    -5.736      0.000      0.000
REMARK INTER + INTRA:         -18.592
REMARK INTER:                 -14.454
REMARK INTRA:                  -4.139
REMARK UNBOUND:                -4.139
REMARK SMILES CCCCCCCCCCCCCCCCCCCCCCCCCCCC(=O)[O-]
REMARK SMILES IDX 15 1 16 2 17 3 18 4 19 5 20 6 21 7 22 8 23 9 24 10 25 11
REMARK SMILES IDX 26 12 27 13 28 14 29 15 30 16 14 17 13 18 12 19 11 20 10 21
REMARK SMILES IDX 9 22 8 23 7 24 6 25 5 26 4 27 3 28 2 29 1 30
REMARK H PARENT
REMARK Flexibility Score: inf
ROOT
ATOM      1  C   UNL     1      13.157  45.013   3.829  1.00  0.00     0.000 C 
ENDROOT
BRANCH   1   2
ATOM      2  C   UNL     1      12.671  43.581   4.118  1.00  0.00     0.000 C 
BRANCH   2   3
ATOM      3  C   UNL     1      12.248  43.309   5.577  1.00  0.00     0.000 C 
BRANCH   3   4
ATOM      4  C   UNL     1      13.399  43.007   6.551  1.00  0.00     0.000 C 
BRANCH   4   5
ATOM      5  C   UNL     1      13.329  43.846   7.838  1.00  0.00     0.000 C 
BRANCH   5   6
ATOM      6  C   UNL     1      13.862  45.279   7.647  1.00  0.00     0.000 C 
BRANCH   6   7
ATOM      7  C   UNL     1      12.823  46.403   7.842  1.00  0.00     0.000 C 
BRANCH   7   8
ATOM      8  C   UNL     1      12.234  46.981   6.543  1.00  0.00     0.000 C 
BRANCH   8   9
ATOM      9  C   UNL     1      10.735  46.685   6.386  1.00  0.00     0.000 C 
BRANCH   9  10
ATOM     10  C   UNL     1      10.088  46.378   7.745  1.00  0.00     0.000 C 
BRANCH  10  11
ATOM     11  C   UNL     1       9.798  44.873   7.922  1.00  0.00     0.000 C 
BRANCH  11  12
ATOM     12  C   UNL     1       9.193  44.521   9.293  1.00  0.00     0.006 C 
BRANCH  12  13
ATOM     13  C   UNL     1      10.257  44.268  10.371  1.00  0.00     0.053 C 
BRANCH  13  14
ATOM     14  C   UNL     1       9.642  43.667  11.599  1.00  0.00     0.041 C 
ATOM     15  O   UNL     1      10.362  43.392  12.597  1.00  0.00    -0.550 OA
ATOM     16  O   UNL     1       8.271  43.446  11.659  1.00  0.00    -0.550 OA
ENDBRANCH  13  14
ENDBRANCH  12  13
ENDBRANCH  11  12
ENDBRANCH  10  11
ENDBRANCH   9  10
ENDBRANCH   8   9
ENDBRANCH   7   8
ENDBRANCH   6   7
ENDBRANCH   5   6
ENDBRANCH   4   5
ENDBRANCH   3   4
ENDBRANCH   2   3
ENDBRANCH   1   2
BRANCH   1  17
ATOM     17  C   UNL     1      14.691  45.129   3.800  1.00  0.00     0.000 C 
BRANCH  17  18
ATOM     18  C   UNL     1      15.387  43.831   3.349  1.00  0.00     0.000 C 
BRANCH  18  19
ATOM     19  C   UNL     1      16.407  43.250   4.346  1.00  0.00     0.000 C 
BRANCH  19  20
ATOM     20  C   UNL     1      16.835  44.255   5.428  1.00  0.00     0.000 C 
BRANCH  20  21
ATOM     21  C   UNL     1      17.740  43.579   6.471  1.00  0.00     0.000 C 
BRANCH  21  22
ATOM     22  C   UNL     1      17.240  43.777   7.910  1.00  0.00    -0.000 C 
BRANCH  22  23
ATOM     23  C   UNL     1      17.278  42.478   8.732  1.00  0.00    -0.000 C 
BRANCH  23  24
ATOM     24  C   UNL     1      16.165  41.493   8.338  1.00  0.00    -0.000 C 
BRANCH  24  25
ATOM     25  C   UNL     1      16.134  40.175   9.139  1.00  0.00    -0.000 C 
BRANCH  25  26
ATOM     26  C   UNL     1      14.719  39.583   9.326  1.00  0.00    -0.000 C 
BRANCH  26  27
ATOM     27  C   UNL     1      14.507  38.888  10.683  1.00  0.00    -0.000 C 
BRANCH  27  28
ATOM     28  C   UNL     1      13.046  38.460  10.908  1.00  0.00    -0.000 C 
BRANCH  28  29
ATOM     29  C   UNL     1      12.942  37.137  11.686  1.00  0.00    -0.003 C 
ATOM     30  C   UNL     1      11.534  36.884  12.229  1.00  0.00     0.004 C 
ENDBRANCH  28  29
ENDBRANCH  27  28
ENDBRANCH  26  27
ENDBRANCH  25  26
ENDBRANCH  24  25
ENDBRANCH  23  24
ENDBRANCH  22  23
ENDBRANCH  21  22
ENDBRANCH  20  21
ENDBRANCH  19  20
ENDBRANCH  18  19
ENDBRANCH  17  18
ENDBRANCH   1  17
TORSDOF 26
ENDMDL
MODEL 2
REMARK VINA RESULT:    -5.580      2.090      6.507
REMARK INTER + INTRA:         -18.200
REMARK INTER:                 -13.967
REMARK INTRA:                  -4.234
REMARK UNBOUND:                -4.139
REMARK SMILES CCCCCCCCCCCCCCCCCCCCCCCCCCCC(=O)[O-]
REMARK SMILES IDX 15 1 16 2 17 3 18 4 19 5 20 6 21 7 22 8 23 9 24 10 25 11
REMARK SMILES IDX 26 12 27 13 28 14 29 15 30 16 14 17 13 18 12 19 11 20 10 21
REMARK SMILES IDX 9 22 8 23 7 24 6 25 5 26 4 27 3 28 2 29 1 30
REMARK H PARENT
REMARK Flexibility Score: inf
ROOT
ATOM      1  C   UNL     1      14.063  43.243   3.107  1.00  0.00     0.000 C 
ENDROOT
BRANCH   1   2
ATOM      2  C   UNL     1      14.388  44.630   3.691  1.00  0.00     0.000 C 
BRANCH   2   3
ATOM      3  C   UNL     1      15.867  44.859   4.064  1.00  0.00     0.000 C 
BRANCH   3   4
ATOM      4  C   UNL     1      16.669  43.588   4.392  1.00  0.00     0.000 C 
BRANCH   4   5
ATOM      5  C   UNL     1      16.871  43.381   5.902  1.00  0.00     0.000 C 
BRANCH   5   6
ATOM      6  C   UNL     1      17.472  44.616   6.599  1.00  0.00     0.000 C 
BRANCH   6   7
ATOM      7  C   UNL     1      17.154  44.747   8.104  1.00  0.00     0.000 C 
BRANCH   7   8
ATOM      8  C   UNL     1      16.908  43.418   8.838  1.00  0.00     0.000 C 
BRANCH   8   9
ATOM      9  C   UNL     1      15.440  43.226   9.248  1.00  0.00     0.000 C 
BRANCH   9  10
ATOM     10  C   UNL     1      14.910  41.864   8.776  1.00  0.00     0.000 C 
BRANCH  10  11
ATOM     11  C   UNL     1      15.992  40.766   8.843  1.00  0.00     0.000 C 
BRANCH  11  12
ATOM     12  C   UNL     1      15.522  39.483   9.552  1.00  0.00     0.006 C 
BRANCH  12  13
ATOM     13  C   UNL     1      14.000  39.431   9.752  1.00  0.00     0.053 C 
BRANCH  13  14
ATOM     14  C   UNL     1      13.633  38.436  10.811  1.00  0.00     0.041 C 
ATOM     15  O   UNL     1      14.439  38.183  11.747  1.00  0.00    -0.550 OA
ATOM     16  O   UNL     1      12.389  37.816  10.787  1.00  0.00    -0.550 OA
ENDBRANCH  13  14
ENDBRANCH  12  13
ENDBRANCH  11  12
ENDBRANCH  10  11
ENDBRANCH   9  10
ENDBRANCH   8   9
ENDBRANCH   7   8
ENDBRANCH   6   7
ENDBRANCH   5   6
ENDBRANCH   4   5
ENDBRANCH   3   4
ENDBRANCH   2   3
ENDBRANCH   1   2
BRANCH   1  17
ATOM     17  C   UNL     1      12.925  42.530   3.856  1.00  0.00     0.000 C 
BRANCH  17  18
ATOM     18  C   UNL     1      13.042  42.650   5.388  1.00  0.00     0.000 C 
BRANCH  18  19
ATOM     19  C   UNL     1      12.027  43.598   6.054  1.00  0.00     0.000 C 
BRANCH  19  20
ATOM     20  C   UNL     1      12.541  44.208   7.368  1.00  0.00     0.000 C 
BRANCH  20  21
ATOM     21  C   UNL     1      13.510  45.367   7.087  1.00  0.00     0.000 C 
BRANCH  21  22
ATOM     22  C   UNL     1      12.824  46.741   7.133  1.00  0.00    -0.000 C 
BRANCH  22  23
ATOM     23  C   UNL     1      12.471  47.272   5.734  1.00  0.00    -0.000 C 
BRANCH  23  24
ATOM     24  C   UNL     1      11.056  46.869   5.284  1.00  0.00    -0.000 C 
BRANCH  24  25
ATOM     25  C   UNL     1       9.935  47.855   5.667  1.00  0.00    -0.000 C 
BRANCH  25  26
ATOM     26  C   UNL     1       9.333  47.613   7.069  1.00  0.00    -0.000 C 
BRANCH  26  27
ATOM     27  C   UNL     1       9.025  46.135   7.370  1.00  0.00    -0.000 C 
BRANCH  27  28
ATOM     28  C   UNL     1       9.556  45.685   8.743  1.00  0.00    -0.000 C 
BRANCH  28  29
ATOM     29  C   UNL     1       9.138  44.246   9.084  1.00  0.00    -0.003 C 
ATOM     30  C   UNL     1       7.730  44.167   9.678  1.00  0.00     0.004 C 
ENDBRANCH  28  29
ENDBRANCH  27  28
ENDBRANCH  26  27
ENDBRANCH  25  26
ENDBRANCH  24  25
ENDBRANCH  23  24
ENDBRANCH  22  23
ENDBRANCH  21  22
ENDBRANCH  20  21
ENDBRANCH  19  20
ENDBRANCH  18  19
ENDBRANCH  17  18
ENDBRANCH   1  17
TORSDOF 26
ENDMDL
MODEL 3
REMARK VINA RESULT:    -5.474      3.334      7.800
REMARK INTER + INTRA:         -17.932
REMARK INTER:                 -14.945
REMARK INTRA:                  -2.987
REMARK UNBOUND:                -4.139
REMARK SMILES CCCCCCCCCCCCCCCCCCCCCCCCCCCC(=O)[O-]
REMARK SMILES IDX 15 1 16 2 17 3 18 4 19 5 20 6 21 7 22 8 23 9 24 10 25 11
REMARK SMILES IDX 26 12 27 13 28 14 29 15 30 16 14 17 13 18 12 19 11 20 10 21
REMARK SMILES IDX 9 22 8 23 7 24 6 25 5 26 4 27 3 28 2 29 1 30
REMARK H PARENT
REMARK Flexibility Score: inf
ROOT
ATOM      1  C   UNL     1      16.732  44.876   8.422  1.00  0.00     0.000 C 
ENDROOT
BRANCH   1   2
ATOM      2  C   UNL     1      15.216  44.650   8.283  1.00  0.00     0.000 C 
BRANCH   2   3
ATOM      3  C   UNL     1      14.677  43.360   8.936  1.00  0.00     0.000 C 
BRANCH   3   4
ATOM      4  C   UNL     1      14.931  42.065   8.145  1.00  0.00     0.000 C 
BRANCH   4   5
ATOM      5  C   UNL     1      16.246  41.372   8.539  1.00  0.00     0.000 C 
BRANCH   5   6
ATOM      6  C   UNL     1      16.023  40.004   9.210  1.00  0.00     0.000 C 
BRANCH   6   7
ATOM      7  C   UNL     1      14.550  39.569   9.353  1.00  0.00     0.000 C 
BRANCH   7   8
ATOM      8  C   UNL     1      14.211  38.827  10.658  1.00  0.00     0.000 C 
BRANCH   8   9
ATOM      9  C   UNL     1      12.890  38.047  10.573  1.00  0.00     0.000 C 
BRANCH   9  10
ATOM     10  C   UNL     1      12.729  37.106  11.777  1.00  0.00     0.000 C 
BRANCH  10  11
ATOM     11  C   UNL     1      14.091  36.665  12.354  1.00  0.00     0.000 C 
BRANCH  11  12
ATOM     12  C   UNL     1      14.319  35.143  12.294  1.00  0.00     0.006 C 
BRANCH  12  13
ATOM     13  C   UNL     1      13.017  34.336  12.398  1.00  0.00     0.053 C 
BRANCH  13  14
ATOM     14  C   UNL     1      13.294  32.864  12.336  1.00  0.00     0.041 C 
ATOM     15  O   UNL     1      14.482  32.442  12.361  1.00  0.00    -0.550 OA
ATOM     16  O   UNL     1      12.242  31.956  12.289  1.00  0.00    -0.550 OA
ENDBRANCH  13  14
ENDBRANCH  12  13
ENDBRANCH  11  12
ENDBRANCH  10  11
ENDBRANCH   9  10
ENDBRANCH   8   9
ENDBRANCH   7   8
ENDBRANCH   6   7
ENDBRANCH   5   6
ENDBRANCH   4   5
ENDBRANCH   3   4
ENDBRANCH   2   3
ENDBRANCH   1   2
BRANCH   1  17
ATOM     17  C   UNL     1      17.448  44.982   7.065  1.00  0.00     0.000 C 
BRANCH  17  18
ATOM     18  C   UNL     1      16.559  44.563   5.878  1.00  0.00     0.000 C 
BRANCH  18  19
ATOM     19  C   UNL     1      16.940  43.230   5.208  1.00  0.00     0.000 C 
BRANCH  19  20
ATOM     20  C   UNL     1      16.419  43.106   3.767  1.00  0.00     0.000 C 
BRANCH  20  21
ATOM     21  C   UNL     1      15.174  43.984   3.563  1.00  0.00     0.000 C 
BRANCH  21  22
ATOM     22  C   UNL     1      13.870  43.173   3.545  1.00  0.00    -0.000 C 
BRANCH  22  23
ATOM     23  C   UNL     1      12.647  44.012   3.951  1.00  0.00    -0.000 C 
BRANCH  23  24
ATOM     24  C   UNL     1      12.948  45.519   3.992  1.00  0.00    -0.000 C 
BRANCH  24  25
ATOM     25  C   UNL     1      12.001  46.358   4.874  1.00  0.00    -0.000 C 
BRANCH  25  26
ATOM     26  C   UNL     1      12.693  47.024   6.085  1.00  0.00    -0.000 C 
BRANCH  26  27
ATOM     27  C   UNL     1      12.135  46.575   7.448  1.00  0.00    -0.000 C 
BRANCH  27  28
ATOM     28  C   UNL     1      11.643  45.117   7.437  1.00  0.00    -0.000 C 
BRANCH  28  29
ATOM     29  C   UNL     1      10.913  44.741   8.737  1.00  0.00    -0.003 C 
ATOM     30  C   UNL     1       9.426  44.455   8.515  1.00  0.00     0.004 C 
ENDBRANCH  28  29
ENDBRANCH  27  28
ENDBRANCH  26  27
ENDBRANCH  25  26
ENDBRANCH  24  25
ENDBRANCH  23  24
ENDBRANCH  22  23
ENDBRANCH  21  22
ENDBRANCH  20  21
ENDBRANCH  19  20
ENDBRANCH  18  19
ENDBRANCH  17  18
ENDBRANCH   1  17
TORSDOF 26
ENDMDL
MODEL 4
REMARK VINA RESULT:    -5.459      2.006      2.585
REMARK INTER + INTRA:         -17.896
REMARK INTER:                 -13.956
REMARK INTRA:                  -3.940
REMARK UNBOUND:                -4.139
REMARK SMILES CCCCCCCCCCCCCCCCCCCCCCCCCCCC(=O)[O-]
REMARK SMILES IDX 15 1 16 2 17 3 18 4 19 5 20 6 21 7 22 8 23 9 24 10 25 11
REMARK SMILES IDX 26 12 27 13 28 14 29 15 30 16 14 17 13 18 12 19 11 20 10 21
REMARK SMILES IDX 9 22 8 23 7 24 6 25 5 26 4 27 3 28 2 29 1 30
REMARK H PARENT
REMARK Flexibility Score: inf
ROOT
ATOM      1  C   UNL     1      13.412  45.390   4.081  1.00  0.00     0.000 C 
ENDROOT
BRANCH   1   2
ATOM      2  C   UNL     1      12.662  44.047   4.010  1.00  0.00     0.000 C 
BRANCH   2   3
ATOM      3  C   UNL     1      12.113  43.526   5.354  1.00  0.00     0.000 C 
BRANCH   3   4
ATOM      4  C   UNL     1      13.171  42.998   6.339  1.00  0.00     0.000 C 
BRANCH   4   5
ATOM      5  C   UNL     1      13.218  43.798   7.651  1.00  0.00     0.000 C 
BRANCH   5   6
ATOM      6  C   UNL     1      13.755  45.229   7.459  1.00  0.00     0.000 C 
BRANCH   6   7
ATOM      7  C   UNL     1      12.811  46.358   7.925  1.00  0.00     0.000 C 
BRANCH   7   8
ATOM      8  C   UNL     1      12.064  47.093   6.799  1.00  0.00     0.000 C 
BRANCH   8   9
ATOM      9  C   UNL     1      10.577  46.716   6.725  1.00  0.00     0.000 C 
BRANCH   9  10
ATOM     10  C   UNL     1      10.139  45.951   7.984  1.00  0.00     0.000 C 
BRANCH  10  11
ATOM     11  C   UNL     1       8.695  46.301   8.401  1.00  0.00     0.000 C 
BRANCH  11  12
ATOM     12  C   UNL     1       7.801  45.066   8.613  1.00  0.00     0.006 C 
BRANCH  12  13
ATOM     13  C   UNL     1       6.341  45.304   8.200  1.00  0.00     0.053 C 
BRANCH  13  14
ATOM     14  C   UNL     1       6.030  44.611   6.908  1.00  0.00     0.041 C 
ATOM     15  O   UNL     1       6.810  43.726   6.461  1.00  0.00    -0.550 OA
ATOM     16  O   UNL     1       4.863  44.912   6.216  1.00  0.00    -0.550 OA
ENDBRANCH  13  14
ENDBRANCH  12  13
ENDBRANCH  11  12
ENDBRANCH  10  11
ENDBRANCH   9  10
ENDBRANCH   8   9
ENDBRANCH   7   8
ENDBRANCH   6   7
ENDBRANCH   5   6
ENDBRANCH   4   5
ENDBRANCH   3   4
ENDBRANCH   2   3
ENDBRANCH   1   2
BRANCH   1  17
ATOM     17  C   UNL     1      14.927  45.242   3.864  1.00  0.00     0.000 C 
BRANCH  17  18
ATOM     18  C   UNL     1      15.325  43.863   3.304  1.00  0.00     0.000 C 
BRANCH  18  19
ATOM     19  C   UNL     1      16.527  43.192   3.996  1.00  0.00     0.000 C 
BRANCH  19  20
ATOM     20  C   UNL     1      16.421  43.195   5.530  1.00  0.00     0.000 C 
BRANCH  20  21
ATOM     21  C   UNL     1      17.645  43.879   6.158  1.00  0.00     0.000 C 
BRANCH  21  22
ATOM     22  C   UNL     1      17.273  44.825   7.310  1.00  0.00    -0.000 C 
BRANCH  22  23
ATOM     23  C   UNL     1      16.897  44.069   8.596  1.00  0.00    -0.000 C 
BRANCH  23  24
ATOM     24  C   UNL     1      17.894  42.950   8.941  1.00  0.00    -0.000 C 
BRANCH  24  25
ATOM     25  C   UNL     1      17.267  41.571   9.228  1.00  0.00    -0.000 C 
BRANCH  25  26
ATOM     26  C   UNL     1      15.953  41.303   8.460  1.00  0.00    -0.000 C 
BRANCH  26  27
ATOM     27  C   UNL     1      14.810  40.772   9.344  1.00  0.00    -0.000 C 
BRANCH  27  28
ATOM     28  C   UNL     1      14.958  39.276   9.671  1.00  0.00    -0.000 C 
BRANCH  28  29
ATOM     29  C   UNL     1      14.232  38.891  10.970  1.00  0.00    -0.003 C 
ATOM     30  C   UNL     1      12.992  38.030  10.719  1.00  0.00     0.004 C 
ENDBRANCH  28  29
ENDBRANCH  27  28
ENDBRANCH  26  27
ENDBRANCH  25  26
ENDBRANCH  24  25
ENDBRANCH  23  24
ENDBRANCH  22  23
ENDBRANCH  21  22
ENDBRANCH  20  21
ENDBRANCH  19  20
ENDBRANCH  18  19
ENDBRANCH  17  18
ENDBRANCH   1  17
TORSDOF 26
ENDMDL
MODEL 5
REMARK VINA RESULT:    -5.450      3.485      7.920
REMARK INTER + INTRA:         -17.873
REMARK INTER:                 -13.398
REMARK INTRA:                  -4.474
REMARK UNBOUND:                -4.139
REMARK SMILES CCCCCCCCCCCCCCCCCCCCCCCCCCCC(=O)[O-]
REMARK SMILES IDX 15 1 16 2 17 3 18 4 19 5 20 6 21 7 22 8 23 9 24 10 25 11
REMARK SMILES IDX 26 12 27 13 28 14 29 15 30 16 14 17 13 18 12 19 11 20 10 21
REMARK SMILES IDX 9 22 8 23 7 24 6 25 5 26 4 27 3 28 2 29 1 30
REMARK H PARENT
REMARK Flexibility Score: inf
ROOT
ATOM      1  C   UNL     1      12.373  46.697   7.425  1.00  0.00     0.000 C 
ENDROOT
BRANCH   1   2
ATOM      2  C   UNL     1      13.222  45.450   7.119  1.00  0.00     0.000 C 
BRANCH   2   3
ATOM      3  C   UNL     1      12.424  44.167   6.810  1.00  0.00     0.000 C 
BRANCH   3   4
ATOM      4  C   UNL     1      13.269  42.950   6.394  1.00  0.00     0.000 C 
BRANCH   4   5
ATOM      5  C   UNL     1      12.650  42.162   5.228  1.00  0.00     0.000 C 
BRANCH   5   6
ATOM      6  C   UNL     1      12.603  42.972   3.919  1.00  0.00     0.000 C 
BRANCH   6   7
ATOM      7  C   UNL     1      13.976  43.358   3.330  1.00  0.00     0.000 C 
BRANCH   7   8
ATOM      8  C   UNL     1      14.417  44.808   3.595  1.00  0.00     0.000 C 
BRANCH   8   9
ATOM      9  C   UNL     1      15.809  44.901   4.236  1.00  0.00     0.000 C 
BRANCH   9  10
ATOM     10  C   UNL     1      16.467  43.515   4.327  1.00  0.00     0.000 C 
BRANCH  10  11
ATOM     11  C   UNL     1      16.834  43.142   5.779  1.00  0.00     0.000 C 
BRANCH  11  12
ATOM     12  C   UNL     1      17.582  44.259   6.529  1.00  0.00     0.006 C 
BRANCH  12  13
ATOM     13  C   UNL     1      16.751  44.884   7.659  1.00  0.00     0.053 C 
BRANCH  13  14
ATOM     14  C   UNL     1      16.640  43.947   8.824  1.00  0.00     0.041 C 
ATOM     15  O   UNL     1      17.675  43.595   9.452  1.00  0.00    -0.550 OA
ATOM     16  O   UNL     1      15.394  43.493   9.240  1.00  0.00    -0.550 OA
ENDBRANCH  13  14
ENDBRANCH  12  13
ENDBRANCH  11  12
ENDBRANCH  10  11
ENDBRANCH   9  10
ENDBRANCH   8   9
ENDBRANCH   7   8
ENDBRANCH   6   7
ENDBRANCH   5   6
ENDBRANCH   4   5
ENDBRANCH   3   4
ENDBRANCH   2   3
ENDBRANCH   1   2
BRANCH   1  17
ATOM     17  C   UNL     1      11.956  47.463   6.159  1.00  0.00     0.000 C 
BRANCH  17  18
ATOM     18  C   UNL     1      10.466  47.288   5.809  1.00  0.00     0.000 C 
BRANCH  18  19
ATOM     19  C   UNL     1       9.492  47.405   6.996  1.00  0.00     0.000 C 
BRANCH  19  20
ATOM     20  C   UNL     1       8.559  48.622   6.895  1.00  0.00     0.000 C 
BRANCH  20  21
ATOM     21  C   UNL     1       7.116  48.233   7.254  1.00  0.00     0.000 C 
BRANCH  21  22
ATOM     22  C   UNL     1       6.703  46.874   6.669  1.00  0.00    -0.000 C 
BRANCH  22  23
ATOM     23  C   UNL     1       5.305  46.432   7.132  1.00  0.00    -0.000 C 
BRANCH  23  24
ATOM     24  C   UNL     1       5.353  45.267   8.135  1.00  0.00    -0.000 C 
BRANCH  24  25
ATOM     25  C   UNL     1       5.409  45.677   9.621  1.00  0.00    -0.000 C 
BRANCH  25  26
ATOM     26  C   UNL     1       6.665  45.173  10.367  1.00  0.00    -0.000 C 
BRANCH  26  27
ATOM     27  C   UNL     1       7.950  45.948  10.022  1.00  0.00    -0.000 C 
BRANCH  27  28
ATOM     28  C   UNL     1       9.170  45.026   9.846  1.00  0.00    -0.000 C 
BRANCH  28  29
ATOM     29  C   UNL     1       8.822  43.743   9.074  1.00  0.00    -0.003 C 
ATOM     30  C   UNL     1       8.838  43.948   7.557  1.00  0.00     0.004 C 
ENDBRANCH  28  29
ENDBRANCH  27  28
ENDBRANCH  26  27
ENDBRANCH  25  26
ENDBRANCH  24  25
ENDBRANCH  23  24
ENDBRANCH  22  23
ENDBRANCH  21  22
ENDBRANCH  20  21
ENDBRANCH  19  20
ENDBRANCH  18  19
ENDBRANCH  17  18
ENDBRANCH   1  17
TORSDOF 26
ENDMDL
MODEL 6
REMARK VINA RESULT:    -5.400      2.238      5.070
REMARK INTER + INTRA:         -17.747
REMARK INTER:                 -12.871
REMARK INTRA:                  -4.876
REMARK UNBOUND:                -4.139
REMARK SMILES CCCCCCCCCCCCCCCCCCCCCCCCCCCC(=O)[O-]
REMARK SMILES IDX 15 1 16 2 17 3 18 4 19 5 20 6 21 7 22 8 23 9 24 10 25 11
REMARK SMILES IDX 26 12 27 13 28 14 29 15 30 16 14 17 13 18 12 19 11 20 10 21
REMARK SMILES IDX 9 22 8 23 7 24 6 25 5 26 4 27 3 28 2 29 1 30
REMARK H PARENT
REMARK Flexibility Score: inf
ROOT
ATOM      1  C   UNL     1      12.878  46.279   6.755  1.00  0.00     0.000 C 
ENDROOT
BRANCH   1   2
ATOM      2  C   UNL     1      11.656  46.457   5.837  1.00  0.00     0.000 C 
BRANCH   2   3
ATOM      3  C   UNL     1      10.536  47.359   6.394  1.00  0.00     0.000 C 
BRANCH   3   4
ATOM      4  C   UNL     1       9.687  46.738   7.518  1.00  0.00     0.000 C 
BRANCH   4   5
ATOM      5  C   UNL     1       9.152  45.342   7.160  1.00  0.00     0.000 C 
BRANCH   5   6
ATOM      6  C   UNL     1       9.211  44.358   8.343  1.00  0.00     0.000 C 
BRANCH   6   7
ATOM      7  C   UNL     1      10.360  44.596   9.346  1.00  0.00     0.000 C 
BRANCH   7   8
ATOM      8  C   UNL     1      10.072  44.149  10.789  1.00  0.00     0.000 C 
BRANCH   8   9
ATOM      9  C   UNL     1       8.675  43.531  10.954  1.00  0.00     0.000 C 
BRANCH   9  10
ATOM     10  C   UNL     1       7.909  44.202  12.104  1.00  0.00     0.000 C 
BRANCH  10  11
ATOM     11  C   UNL     1       8.206  45.713  12.195  1.00  0.00     0.000 C 
BRANCH  11  12
ATOM     12  C   UNL     1       7.051  46.598  11.692  1.00  0.00     0.006 C 
BRANCH  12  13
ATOM     13  C   UNL     1       7.231  47.048  10.235  1.00  0.00     0.053 C 
BRANCH  13  14
ATOM     14  C   UNL     1       6.256  46.352   9.335  1.00  0.00     0.041 C 
ATOM     15  O   UNL     1       5.578  45.381   9.768  1.00  0.00    -0.550 OA
ATOM     16  O   UNL     1       6.066  46.797   8.032  1.00  0.00    -0.550 OA
ENDBRANCH  13  14
ENDBRANCH  12  13
ENDBRANCH  11  12
ENDBRANCH  10  11
ENDBRANCH   9  10
ENDBRANCH   8   9
ENDBRANCH   7   8
ENDBRANCH   6   7
ENDBRANCH   5   6
ENDBRANCH   4   5
ENDBRANCH   3   4
ENDBRANCH   2   3
ENDBRANCH   1   2
BRANCH   1  17
ATOM     17  C   UNL     1      13.248  44.803   6.981  1.00  0.00     0.000 C 
BRANCH  17  18
ATOM     18  C   UNL     1      12.300  43.826   6.258  1.00  0.00     0.000 C 
BRANCH  18  19
ATOM     19  C   UNL     1      12.954  42.526   5.755  1.00  0.00     0.000 C 
BRANCH  19  20
ATOM     20  C   UNL     1      12.458  42.099   4.364  1.00  0.00     0.000 C 
BRANCH  20  21
ATOM     21  C   UNL     1      12.875  43.125   3.299  1.00  0.00     0.000 C 
BRANCH  21  22
ATOM     22  C   UNL     1      14.394  43.351   3.253  1.00  0.00    -0.000 C 
BRANCH  22  23
ATOM     23  C   UNL     1      14.784  44.807   3.557  1.00  0.00    -0.000 C 
BRANCH  23  24
ATOM     24  C   UNL     1      15.967  44.913   4.534  1.00  0.00    -0.000 C 
BRANCH  24  25
ATOM     25  C   UNL     1      16.573  43.569   4.987  1.00  0.00    -0.000 C 
BRANCH  25  26
ATOM     26  C   UNL     1      17.656  43.702   6.080  1.00  0.00    -0.000 C 
BRANCH  26  27
ATOM     27  C   UNL     1      17.199  43.235   7.474  1.00  0.00    -0.000 C 
BRANCH  27  28
ATOM     28  C   UNL     1      16.035  42.229   7.411  1.00  0.00    -0.000 C 
BRANCH  28  29
ATOM     29  C   UNL     1      15.298  42.110   8.755  1.00  0.00    -0.003 C 
ATOM     30  C   UNL     1      15.112  40.656   9.196  1.00  0.00     0.004 C 
ENDBRANCH  28  29
ENDBRANCH  27  28
ENDBRANCH  26  27
ENDBRANCH  25  26
ENDBRANCH  24  25
ENDBRANCH  23  24
ENDBRANCH  22  23
ENDBRANCH  21  22
ENDBRANCH  20  21
ENDBRANCH  19  20
ENDBRANCH  18  19
ENDBRANCH  17  18
ENDBRANCH   1  17
TORSDOF 26
ENDMDL
MODEL 7
REMARK VINA RESULT:    -5.396      3.208      6.609
REMARK INTER + INTRA:         -17.737
REMARK INTER:                 -13.119
REMARK INTRA:                  -4.618
REMARK UNBOUND:                -4.139
REMARK SMILES CCCCCCCCCCCCCCCCCCCCCCCCCCCC(=O)[O-]
REMARK SMILES IDX 15 1 16 2 17 3 18 4 19 5 20 6 21 7 22 8 23 9 24 10 25 11
REMARK SMILES IDX 26 12 27 13 28 14 29 15 30 16 14 17 13 18 12 19 11 20 10 21
REMARK SMILES IDX 9 22 8 23 7 24 6 25 5 26 4 27 3 28 2 29 1 30
REMARK H PARENT
REMARK Flexibility Score: inf
ROOT
ATOM      1  C   UNL     1       8.983  43.990   7.620  1.00  0.00     0.000 C 
ENDROOT
BRANCH   1   2
ATOM      2  C   UNL     1       7.566  44.019   7.019  1.00  0.00     0.000 C 
BRANCH   2   3
ATOM      3  C   UNL     1       6.533  44.854   7.803  1.00  0.00     0.000 C 
BRANCH   3   4
ATOM      4  C   UNL     1       5.760  45.894   6.973  1.00  0.00     0.000 C 
BRANCH   4   5
ATOM      5  C   UNL     1       6.626  47.100   6.571  1.00  0.00     0.000 C 
BRANCH   5   6
ATOM      6  C   UNL     1       7.429  47.679   7.750  1.00  0.00     0.000 C 
BRANCH   6   7
ATOM      7  C   UNL     1       8.963  47.553   7.631  1.00  0.00     0.000 C 
BRANCH   7   8
ATOM      8  C   UNL     1       9.536  47.843   6.234  1.00  0.00     0.000 C 
BRANCH   8   9
ATOM      9  C   UNL     1      10.595  46.818   5.800  1.00  0.00     0.000 C 
BRANCH   9  10
ATOM     10  C   UNL     1      12.013  47.339   6.079  1.00  0.00     0.000 C 
BRANCH  10  11
ATOM     11  C   UNL     1      13.044  46.781   5.075  1.00  0.00     0.000 C 
BRANCH  11  12
ATOM     12  C   UNL     1      12.432  45.823   4.037  1.00  0.00     0.006 C 
BRANCH  12  13
ATOM     13  C   UNL     1      13.358  44.651   3.683  1.00  0.00     0.053 C 
BRANCH  13  14
ATOM     14  C   UNL     1      12.638  43.342   3.810  1.00  0.00     0.041 C 
ATOM     15  O   UNL     1      11.730  43.202   4.674  1.00  0.00    -0.550 OA
ATOM     16  O   UNL     1      12.941  42.291   2.953  1.00  0.00    -0.550 OA
ENDBRANCH  13  14
ENDBRANCH  12  13
ENDBRANCH  11  12
ENDBRANCH  10  11
ENDBRANCH   9  10
ENDBRANCH   8   9
ENDBRANCH   7   8
ENDBRANCH   6   7
ENDBRANCH   5   6
ENDBRANCH   4   5
ENDBRANCH   3   4
ENDBRANCH   2   3
ENDBRANCH   1   2
BRANCH   1  17
ATOM     17  C   UNL     1       8.981  43.816   9.148  1.00  0.00     0.000 C 
BRANCH  17  18
ATOM     18  C   UNL     1      10.254  44.366   9.820  1.00  0.00     0.000 C 
BRANCH  18  19
ATOM     19  C   UNL     1      11.307  44.949   8.860  1.00  0.00     0.000 C 
BRANCH  19  20
ATOM     20  C   UNL     1      12.652  44.207   8.915  1.00  0.00     0.000 C 
BRANCH  20  21
ATOM     21  C   UNL     1      13.159  43.895   7.497  1.00  0.00     0.000 C 
BRANCH  21  22
ATOM     22  C   UNL     1      14.030  42.631   7.442  1.00  0.00    -0.000 C 
BRANCH  22  23
ATOM     23  C   UNL     1      14.905  42.462   8.696  1.00  0.00    -0.000 C 
BRANCH  23  24
ATOM     24  C   UNL     1      16.275  41.837   8.384  1.00  0.00    -0.000 C 
BRANCH  24  25
ATOM     25  C   UNL     1      17.496  42.704   8.753  1.00  0.00    -0.000 C 
BRANCH  25  26
ATOM     26  C   UNL     1      17.219  44.224   8.736  1.00  0.00    -0.000 C 
BRANCH  26  27
ATOM     27  C   UNL     1      17.516  44.898   7.384  1.00  0.00    -0.000 C 
BRANCH  27  28
ATOM     28  C   UNL     1      16.237  45.303   6.630  1.00  0.00    -0.000 C 
BRANCH  28  29
ATOM     29  C   UNL     1      16.167  44.678   5.227  1.00  0.00    -0.003 C 
ATOM     30  C   UNL     1      16.982  43.387   5.118  1.00  0.00     0.004 C 
ENDBRANCH  28  29
ENDBRANCH  27  28
ENDBRANCH  26  27
ENDBRANCH  25  26
ENDBRANCH  24  25
ENDBRANCH  23  24
ENDBRANCH  22  23
ENDBRANCH  21  22
ENDBRANCH  20  21
ENDBRANCH  19  20
ENDBRANCH  18  19
ENDBRANCH  17  18
ENDBRANCH   1  17
TORSDOF 26
ENDMDL
MODEL 8
REMARK VINA RESULT:    -5.386      3.347      7.661
REMARK INTER + INTRA:         -17.712
REMARK INTER:                 -14.448
REMARK INTRA:                  -3.264
REMARK UNBOUND:                -4.139
REMARK SMILES CCCCCCCCCCCCCCCCCCCCCCCCCCCC(=O)[O-]
REMARK SMILES IDX 15 1 16 2 17 3 18 4 19 5 20 6 21 7 22 8 23 9 24 10 25 11
REMARK SMILES IDX 26 12 27 13 28 14 29 15 30 16 14 17 13 18 12 19 11 20 10 21
REMARK SMILES IDX 9 22 8 23 7 24 6 25 5 26 4 27 3 28 2 29 1 30
REMARK H PARENT
REMARK Flexibility Score: inf
ROOT
ATOM      1  C   UNL     1      17.140  42.944   5.584  1.00  0.00     0.000 C 
ENDROOT
BRANCH   1   2
ATOM      2  C   UNL     1      17.317  44.034   6.656  1.00  0.00     0.000 C 
BRANCH   2   3
ATOM      3  C   UNL     1      16.741  43.695   8.046  1.00  0.00     0.000 C 
BRANCH   3   4
ATOM      4  C   UNL     1      17.010  42.263   8.540  1.00  0.00     0.000 C 
BRANCH   4   5
ATOM      5  C   UNL     1      15.841  41.305   8.262  1.00  0.00     0.000 C 
BRANCH   5   6
ATOM      6  C   UNL     1      15.766  40.144   9.271  1.00  0.00     0.000 C 
BRANCH   6   7
ATOM      7  C   UNL     1      14.357  39.830   9.816  1.00  0.00     0.000 C 
BRANCH   7   8
ATOM      8  C   UNL     1      14.320  38.875  11.021  1.00  0.00     0.000 C 
BRANCH   8   9
ATOM      9  C   UNL     1      13.099  37.943  11.006  1.00  0.00     0.000 C 
BRANCH   9  10
ATOM     10  C   UNL     1      13.355  36.685  11.849  1.00  0.00     0.000 C 
BRANCH  10  11
ATOM     11  C   UNL     1      12.041  36.003  12.285  1.00  0.00     0.000 C 
BRANCH  11  12
ATOM     12  C   UNL     1      12.094  35.421  13.710  1.00  0.00     0.006 C 
BRANCH  12  13
ATOM     13  C   UNL     1      11.527  33.997  13.799  1.00  0.00     0.053 C 
BRANCH  13  14
ATOM     14  C   UNL     1      12.518  32.994  13.292  1.00  0.00     0.041 C 
ATOM     15  O   UNL     1      13.754  33.186  13.458  1.00  0.00    -0.550 OA
ATOM     16  O   UNL     1      12.080  31.830  12.671  1.00  0.00    -0.550 OA
ENDBRANCH  13  14
ENDBRANCH  12  13
ENDBRANCH  11  12
ENDBRANCH  10  11
ENDBRANCH   9  10
ENDBRANCH   8   9
ENDBRANCH   7   8
ENDBRANCH   6   7
ENDBRANCH   5   6
ENDBRANCH   4   5
ENDBRANCH   3   4
ENDBRANCH   2   3
ENDBRANCH   1   2
BRANCH   1  17
ATOM     17  C   UNL     1      16.877  43.519   4.182  1.00  0.00     0.000 C 
BRANCH  17  18
ATOM     18  C   UNL     1      15.389  43.822   3.923  1.00  0.00     0.000 C 
BRANCH  18  19
ATOM     19  C   UNL     1      15.079  45.259   3.463  1.00  0.00     0.000 C 
BRANCH  19  20
ATOM     20  C   UNL     1      14.232  46.048   4.474  1.00  0.00     0.000 C 
BRANCH  20  21
ATOM     21  C   UNL     1      12.771  46.138   4.006  1.00  0.00     0.000 C 
BRANCH  21  22
ATOM     22  C   UNL     1      11.832  46.688   5.089  1.00  0.00    -0.000 C 
BRANCH  22  23
ATOM     23  C   UNL     1      12.590  47.194   6.328  1.00  0.00    -0.000 C 
BRANCH  23  24
ATOM     24  C   UNL     1      12.258  46.391   7.597  1.00  0.00    -0.000 C 
BRANCH  24  25
ATOM     25  C   UNL     1      13.361  45.427   8.078  1.00  0.00    -0.000 C 
BRANCH  25  26
ATOM     26  C   UNL     1      12.994  43.932   7.947  1.00  0.00    -0.000 C 
BRANCH  26  27
ATOM     27  C   UNL     1      13.308  43.329   6.567  1.00  0.00    -0.000 C 
BRANCH  27  28
ATOM     28  C   UNL     1      12.041  43.035   5.744  1.00  0.00    -0.000 C 
BRANCH  28  29
ATOM     29  C   UNL     1      12.281  41.959   4.673  1.00  0.00    -0.003 C 
ATOM     30  C   UNL     1      12.303  42.535   3.255  1.00  0.00     0.004 C 
ENDBRANCH  28  29
ENDBRANCH  27  28
ENDBRANCH  26  27
ENDBRANCH  25  26
ENDBRANCH  24  25
ENDBRANCH  23  24
ENDBRANCH  22  23
ENDBRANCH  21  22
ENDBRANCH  20  21
ENDBRANCH  19  20
ENDBRANCH  18  19
ENDBRANCH  17  18
ENDBRANCH   1  17
TORSDOF 26
ENDMDL
MODEL 9
REMARK VINA RESULT:    -5.374      2.788      5.627
REMARK INTER + INTRA:         -17.682
REMARK INTER:                 -13.171
REMARK INTRA:                  -4.511
REMARK UNBOUND:                -4.139
REMARK SMILES CCCCCCCCCCCCCCCCCCCCCCCCCCCC(=O)[O-]
REMARK SMILES IDX 15 1 16 2 17 3 18 4 19 5 20 6 21 7 22 8 23 9 24 10 25 11
REMARK SMILES IDX 26 12 27 13 28 14 29 15 30 16 14 17 13 18 12 19 11 20 10 21
REMARK SMILES IDX 9 22 8 23 7 24 6 25 5 26 4 27 3 28 2 29 1 30
REMARK H PARENT
REMARK Flexibility Score: inf
ROOT
ATOM      1  C   UNL     1      11.101  46.422   7.255  1.00  0.00     0.000 C 
ENDROOT
BRANCH   1   2
ATOM      2  C   UNL     1      10.357  47.151   6.122  1.00  0.00     0.000 C 
BRANCH   2   3
ATOM      3  C   UNL     1       9.254  48.129   6.578  1.00  0.00     0.000 C 
BRANCH   3   4
ATOM      4  C   UNL     1       8.398  47.651   7.763  1.00  0.00     0.000 C 
BRANCH   4   5
ATOM      5  C   UNL     1       6.889  47.784   7.502  1.00  0.00     0.000 C 
BRANCH   5   6
ATOM      6  C   UNL     1       6.254  46.480   6.983  1.00  0.00     0.000 C 
BRANCH   6   7
ATOM      7  C   UNL     1       6.609  45.208   7.781  1.00  0.00     0.000 C 
BRANCH   7   8
ATOM      8  C   UNL     1       7.439  44.164   7.013  1.00  0.00     0.000 C 
BRANCH   8   9
ATOM      9  C   UNL     1       8.726  43.767   7.750  1.00  0.00     0.000 C 
BRANCH   9  10
ATOM     10  C   UNL     1       8.574  43.955   9.267  1.00  0.00     0.000 C 
BRANCH  10  11
ATOM     11  C   UNL     1       9.935  44.152   9.966  1.00  0.00     0.000 C 
BRANCH  11  12
ATOM     12  C   UNL     1       9.865  44.016  11.498  1.00  0.00     0.006 C 
BRANCH  12  13
ATOM     13  C   UNL     1       8.520  43.461  11.990  1.00  0.00     0.053 C 
BRANCH  13  14
ATOM     14  C   UNL     1       7.843  44.433  12.908  1.00  0.00     0.041 C 
ATOM     15  O   UNL     1       8.489  44.971  13.848  1.00  0.00    -0.550 OA
ATOM     16  O   UNL     1       6.511  44.776  12.704  1.00  0.00    -0.550 OA
ENDBRANCH  13  14
ENDBRANCH  12  13
ENDBRANCH  11  12
ENDBRANCH  10  11
ENDBRANCH   9  10
ENDBRANCH   8   9
ENDBRANCH   7   8
ENDBRANCH   6   7
ENDBRANCH   5   6
ENDBRANCH   4   5
ENDBRANCH   3   4
ENDBRANCH   2   3
ENDBRANCH   1   2
BRANCH   1  17
ATOM     17  C   UNL     1      12.616  46.685   7.243  1.00  0.00     0.000 C 
BRANCH  17  18
ATOM     18  C   UNL     1      13.397  45.763   8.199  1.00  0.00     0.000 C 
BRANCH  18  19
ATOM     19  C   UNL     1      12.931  44.295   8.227  1.00  0.00     0.000 C 
BRANCH  19  20
ATOM     20  C   UNL     1      14.059  43.297   7.917  1.00  0.00     0.000 C 
BRANCH  20  21
ATOM     21  C   UNL     1      15.435  43.940   8.156  1.00  0.00     0.000 C 
BRANCH  21  22
ATOM     22  C   UNL     1      16.582  43.145   7.515  1.00  0.00    -0.000 C 
BRANCH  22  23
ATOM     23  C   UNL     1      16.241  42.654   6.099  1.00  0.00    -0.000 C 
BRANCH  23  24
ATOM     24  C   UNL     1      16.911  43.497   5.001  1.00  0.00    -0.000 C 
BRANCH  24  25
ATOM     25  C   UNL     1      15.945  44.198   4.024  1.00  0.00    -0.000 C 
BRANCH  25  26
ATOM     26  C   UNL     1      14.850  45.040   4.716  1.00  0.00    -0.000 C 
BRANCH  26  27
ATOM     27  C   UNL     1      13.507  45.057   3.964  1.00  0.00    -0.000 C 
BRANCH  27  28
ATOM     28  C   UNL     1      12.453  44.139   4.609  1.00  0.00    -0.000 C 
BRANCH  28  29
ATOM     29  C   UNL     1      12.730  42.653   4.331  1.00  0.00    -0.003 C 
ATOM     30  C   UNL     1      12.809  42.339   2.835  1.00  0.00     0.004 C 
ENDBRANCH  28  29
ENDBRANCH  27  28
ENDBRANCH  26  27
ENDBRANCH  25  26
ENDBRANCH  24  25
ENDBRANCH  23  24
ENDBRANCH  22  23
ENDBRANCH  21  22
ENDBRANCH  20  21
ENDBRANCH  19  20
ENDBRANCH  18  19
ENDBRANCH  17  18
ENDBRANCH   1  17
TORSDOF 26
ENDMDL
