MODEL 1
REMARK VINA RESULT:    -4.118      0.000      0.000
REMARK INTER + INTRA:         -10.073
REMARK INTER:                  -7.488
REMARK INTRA:                  -2.585
REMARK UNBOUND:                -2.585
REMARK SMILES CCCCCCCCCCCCCCCC(=O)[O-]
REMARK SMILES IDX 9 1 10 2 11 3 12 4 13 5 14 6 15 7 16 8 17 9 18 10 8 11 7 12
REMARK SMILES IDX 6 13 5 14 4 15 3 16 2 17 1 18
REMARK H PARENT
REMARK Flexibility Score: inf
ROOT
ATOM      1  C   UNL     1      20.446  -5.426 -17.793  1.00  0.00     0.000 C 
ENDROOT
BRANCH   1   2
ATOM      2  C   UNL     1      19.190  -6.314 -17.694  1.00  0.00     0.000 C 
BRANCH   2   3
ATOM      3  C   UNL     1      18.487  -6.308 -16.324  1.00  0.00     0.000 C 
BRANCH   3   4
ATOM      4  C   UNL     1      16.986  -5.996 -16.420  1.00  0.00     0.000 C 
BRANCH   4   5
ATOM      5  C   UNL     1      16.718  -4.503 -16.175  1.00  0.00     0.000 C 
BRANCH   5   6
ATOM      6  C   UNL     1      15.988  -3.830 -17.356  1.00  0.00     0.006 C 
BRANCH   6   7
ATOM      7  C   UNL     1      15.507  -4.821 -18.430  1.00  0.00     0.053 C 
BRANCH   7   8
ATOM      8  C   UNL     1      14.781  -4.144 -19.551  1.00  0.00     0.041 C 
ATOM      9  O   UNL     1      14.017  -4.805 -20.300  1.00  0.00    -0.550 OA
ATOM     10  O   UNL     1      14.962  -2.785 -19.777  1.00  0.00    -0.550 OA
ENDBRANCH   7   8
ENDBRANCH   6   7
ENDBRANCH   5   6
ENDBRANCH   4   5
ENDBRANCH   3   4
ENDBRANCH   2   3
ENDBRANCH   1   2
BRANCH   1  11
ATOM     11  C   UNL     1      20.118  -3.927 -17.873  1.00  0.00     0.000 C 
BRANCH  11  12
ATOM     12  C   UNL     1      20.867  -3.218 -19.013  1.00  0.00    -0.000 C 
BRANCH  12  13
ATOM     13  C   UNL     1      19.926  -2.456 -19.962  1.00  0.00    -0.000 C 
BRANCH  13  14
ATOM     14  C   UNL     1      18.497  -3.041 -19.958  1.00  0.00    -0.000 C 
BRANCH  14  15
ATOM     15  C   UNL     1      18.145  -3.823 -21.238  1.00  0.00    -0.000 C 
BRANCH  15  16
ATOM     16  C   UNL     1      18.097  -5.350 -21.068  1.00  0.00    -0.000 C 
BRANCH  16  17
ATOM     17  C   UNL     1      19.442  -6.025 -21.375  1.00  0.00    -0.003 C 
ATOM     18  C   UNL     1      20.207  -5.260 -22.450  1.00  0.00     0.004 C 
ENDBRANCH  16  17
ENDBRANCH  15  16
ENDBRANCH  14  15
ENDBRANCH  13  14
ENDBRANCH  12  13
ENDBRANCH  11  12
ENDBRANCH   1  11
TORSDOF 14
ENDMDL
MODEL 2
REMARK VINA RESULT:    -4.096      1.180      2.542
REMARK INTER + INTRA:         -10.033
REMARK INTER:                  -7.529
REMARK INTRA:                  -2.504
REMARK UNBOUND:                -2.585
REMARK SMILES CCCCCCCCCCCCCCCC(=O)[O-]
REMARK SMILES IDX 9 1 10 2 11 3 12 4 13 5 14 6 15 7 16 8 17 9 18 10 8 11 7 12
REMARK SMILES IDX 6 13 5 14 4 15 3 16 2 17 1 18
REMARK H PARENT
REMARK Flexibility Score: inf
ROOT
ATOM      1  C   UNL     1      18.475  -6.349 -16.647  1.00  0.00     0.000 C 
ENDROOT
BRANCH   1   2
ATOM      2  C   UNL     1      16.995  -6.021 -16.371  1.00  0.00     0.000 C 
BRANCH   2   3
ATOM      3  C   UNL     1      16.711  -4.568 -15.949  1.00  0.00     0.000 C 
BRANCH   3   4
ATOM      4  C   UNL     1      15.920  -3.779 -17.004  1.00  0.00     0.000 C 
BRANCH   4   5
ATOM      5  C   UNL     1      16.793  -2.690 -17.644  1.00  0.00     0.000 C 
BRANCH   5   6
ATOM      6  C   UNL     1      16.994  -2.905 -19.159  1.00  0.00     0.006 C 
BRANCH   6   7
ATOM      7  C   UNL     1      16.263  -4.141 -19.710  1.00  0.00     0.053 C 
BRANCH   7   8
ATOM      8  C   UNL     1      15.256  -3.791 -20.761  1.00  0.00     0.041 C 
ATOM      9  O   UNL     1      14.034  -3.724 -20.469  1.00  0.00    -0.550 OA
ATOM     10  O   UNL     1      15.667  -3.553 -22.067  1.00  0.00    -0.550 OA
ENDBRANCH   7   8
ENDBRANCH   6   7
ENDBRANCH   5   6
ENDBRANCH   4   5
ENDBRANCH   3   4
ENDBRANCH   2   3
ENDBRANCH   1   2
BRANCH   1  11
ATOM     11  C   UNL     1      18.842  -6.267 -18.137  1.00  0.00     0.000 C 
BRANCH  11  12
ATOM     12  C   UNL     1      20.134  -5.472 -18.385  1.00  0.00    -0.000 C 
BRANCH  12  13
ATOM     13  C   UNL     1      20.374  -4.379 -17.327  1.00  0.00    -0.000 C 
BRANCH  13  14
ATOM     14  C   UNL     1      20.424  -2.967 -17.949  1.00  0.00    -0.000 C 
BRANCH  14  15
ATOM     15  C   UNL     1      21.227  -2.898 -19.263  1.00  0.00    -0.000 C 
BRANCH  15  16
ATOM     16  C   UNL     1      20.390  -2.595 -20.516  1.00  0.00    -0.000 C 
BRANCH  16  17
ATOM     17  C   UNL     1      20.704  -3.542 -21.683  1.00  0.00    -0.003 C 
ATOM     18  C   UNL     1      19.554  -4.515 -21.925  1.00  0.00     0.004 C 
ENDBRANCH  16  17
ENDBRANCH  15  16
ENDBRANCH  14  15
ENDBRANCH  13  14
ENDBRANCH  12  13
ENDBRANCH  11  12
ENDBRANCH   1  11
TORSDOF 14
ENDMDL
MODEL 3
REMARK VINA RESULT:    -4.091      2.574      4.561
REMARK INTER + INTRA:         -10.024
REMARK INTER:                  -7.674
REMARK INTRA:                  -2.349
REMARK UNBOUND:                -2.585
REMARK SMILES CCCCCCCCCCCCCCCC(=O)[O-]
REMARK SMILES IDX 9 1 10 2 11 3 12 4 13 5 14 6 15 7 16 8 17 9 18 10 8 11 7 12
REMARK SMILES IDX 6 13 5 14 4 15 3 16 2 17 1 18
REMARK H PARENT
REMARK Flexibility Score: inf
ROOT
ATOM      1  C   UNL     1      17.304  -5.898 -17.097  1.00  0.00     0.000 C 
ENDROOT
BRANCH   1   2
ATOM      2  C   UNL     1      18.830  -5.964 -17.301  1.00  0.00     0.000 C 
BRANCH   2   3
ATOM      3  C   UNL     1      19.393  -5.010 -18.370  1.00  0.00     0.000 C 
BRANCH   3   4
ATOM      4  C   UNL     1      20.317  -3.930 -17.787  1.00  0.00     0.000 C 
BRANCH   4   5
ATOM      5  C   UNL     1      20.873  -3.025 -18.896  1.00  0.00     0.000 C 
BRANCH   5   6
ATOM      6  C   UNL     1      20.032  -3.085 -20.188  1.00  0.00     0.006 C 
BRANCH   6   7
ATOM      7  C   UNL     1      20.852  -3.432 -21.442  1.00  0.00     0.053 C 
BRANCH   7   8
ATOM      8  C   UNL     1      20.796  -4.890 -21.779  1.00  0.00     0.041 C 
ATOM      9  O   UNL     1      21.523  -5.710 -21.161  1.00  0.00    -0.550 OA
ATOM     10  O   UNL     1      19.952  -5.340 -22.787  1.00  0.00    -0.550 OA
ENDBRANCH   7   8
ENDBRANCH   6   7
ENDBRANCH   5   6
ENDBRANCH   4   5
ENDBRANCH   3   4
ENDBRANCH   2   3
ENDBRANCH   1   2
BRANCH   1  11
ATOM     11  C   UNL     1      16.879  -4.833 -16.074  1.00  0.00     0.000 C 
BRANCH  11  12
ATOM     12  C   UNL     1      15.964  -3.759 -16.683  1.00  0.00    -0.000 C 
BRANCH  12  13
ATOM     13  C   UNL     1      16.751  -2.605 -17.331  1.00  0.00    -0.000 C 
BRANCH  13  14
ATOM     14  C   UNL     1      16.613  -2.598 -18.869  1.00  0.00    -0.000 C 
BRANCH  14  15
ATOM     15  C   UNL     1      15.501  -3.526 -19.395  1.00  0.00    -0.000 C 
BRANCH  15  16
ATOM     16  C   UNL     1      15.975  -4.608 -20.378  1.00  0.00    -0.000 C 
BRANCH  16  17
ATOM     17  C   UNL     1      16.988  -4.077 -21.403  1.00  0.00    -0.003 C 
ATOM     18  C   UNL     1      16.402  -4.091 -22.812  1.00  0.00     0.004 C 
ENDBRANCH  16  17
ENDBRANCH  15  16
ENDBRANCH  14  15
ENDBRANCH  13  14
ENDBRANCH  12  13
ENDBRANCH  11  12
ENDBRANCH   1  11
TORSDOF 14
ENDMDL
MODEL 4
REMARK VINA RESULT:    -4.055      2.546      5.394
REMARK INTER + INTRA:          -9.958
REMARK INTER:                  -7.538
REMARK INTRA:                  -2.420
REMARK UNBOUND:                -2.585
REMARK SMILES CCCCCCCCCCCCCCCC(=O)[O-]
REMARK SMILES IDX 9 1 10 2 11 3 12 4 13 5 14 6 15 7 16 8 17 9 18 10 8 11 7 12
REMARK SMILES IDX 6 13 5 14 4 15 3 16 2 17 1 18
REMARK H PARENT
REMARK Flexibility Score: inf
ROOT
ATOM      1  C   UNL     1      20.278  -3.637 -17.836  1.00  0.00     0.000 C 
ENDROOT
BRANCH   1   2
ATOM      2  C   UNL     1      20.805  -2.902 -19.084  1.00  0.00     0.000 C 
BRANCH   2   3
ATOM      3  C   UNL     1      19.747  -2.589 -20.158  1.00  0.00     0.000 C 
BRANCH   3   4
ATOM      4  C   UNL     1      18.738  -3.730 -20.360  1.00  0.00     0.000 C 
BRANCH   4   5
ATOM      5  C   UNL     1      18.792  -4.261 -21.800  1.00  0.00     0.000 C 
BRANCH   5   6
ATOM      6  C   UNL     1      20.201  -4.743 -22.203  1.00  0.00     0.006 C 
BRANCH   6   7
ATOM      7  C   UNL     1      20.722  -5.911 -21.348  1.00  0.00     0.053 C 
BRANCH   7   8
ATOM      8  C   UNL     1      20.196  -7.236 -21.804  1.00  0.00     0.041 C 
ATOM      9  O   UNL     1      19.631  -7.341 -22.924  1.00  0.00    -0.550 OA
ATOM     10  O   UNL     1      20.317  -8.353 -20.986  1.00  0.00    -0.550 OA
ENDBRANCH   7   8
ENDBRANCH   6   7
ENDBRANCH   5   6
ENDBRANCH   4   5
ENDBRANCH   3   4
ENDBRANCH   2   3
ENDBRANCH   1   2
BRANCH   1  11
ATOM     11  C   UNL     1      21.007  -4.962 -17.564  1.00  0.00     0.000 C 
BRANCH  11  12
ATOM     12  C   UNL     1      20.061  -6.067 -17.068  1.00  0.00    -0.000 C 
BRANCH  12  13
ATOM     13  C   UNL     1      19.088  -6.554 -18.157  1.00  0.00    -0.000 C 
BRANCH  13  14
ATOM     14  C   UNL     1      17.613  -6.323 -17.766  1.00  0.00    -0.000 C 
BRANCH  14  15
ATOM     15  C   UNL     1      17.415  -5.975 -16.278  1.00  0.00    -0.000 C 
BRANCH  15  16
ATOM     16  C   UNL     1      16.775  -4.602 -16.016  1.00  0.00    -0.000 C 
BRANCH  16  17
ATOM     17  C   UNL     1      16.410  -3.860 -17.310  1.00  0.00    -0.003 C 
ATOM     18  C   UNL     1      16.891  -2.412 -17.266  1.00  0.00     0.004 C 
ENDBRANCH  16  17
ENDBRANCH  15  16
ENDBRANCH  14  15
ENDBRANCH  13  14
ENDBRANCH  12  13
ENDBRANCH  11  12
ENDBRANCH   1  11
TORSDOF 14
ENDMDL
MODEL 5
REMARK VINA RESULT:    -4.021      2.452      5.012
REMARK INTER + INTRA:          -9.896
REMARK INTER:                  -7.477
REMARK INTRA:                  -2.420
REMARK UNBOUND:                -2.585
REMARK SMILES CCCCCCCCCCCCCCCC(=O)[O-]
REMARK SMILES IDX 9 1 10 2 11 3 12 4 13 5 14 6 15 7 16 8 17 9 18 10 8 11 7 12
REMARK SMILES IDX 6 13 5 14 4 15 3 16 2 17 1 18
REMARK H PARENT
REMARK Flexibility Score: inf
ROOT
ATOM      1  C   UNL     1      20.688  -5.338 -17.731  1.00  0.00     0.000 C 
ENDROOT
BRANCH   1   2
ATOM      2  C   UNL     1      20.815  -3.954 -18.396  1.00  0.00     0.000 C 
BRANCH   2   3
ATOM      3  C   UNL     1      19.577  -3.047 -18.268  1.00  0.00     0.000 C 
BRANCH   3   4
ATOM      4  C   UNL     1      19.108  -2.476 -19.615  1.00  0.00     0.000 C 
BRANCH   4   5
ATOM      5  C   UNL     1      19.784  -3.205 -20.785  1.00  0.00     0.000 C 
BRANCH   5   6
ATOM      6  C   UNL     1      18.850  -4.228 -21.466  1.00  0.00     0.006 C 
BRANCH   6   7
ATOM      7  C   UNL     1      19.583  -5.210 -22.396  1.00  0.00     0.053 C 
BRANCH   7   8
ATOM      8  C   UNL     1      20.362  -6.242 -21.642  1.00  0.00     0.041 C 
ATOM      9  O   UNL     1      21.609  -6.130 -21.520  1.00  0.00    -0.550 OA
ATOM     10  O   UNL     1      19.710  -7.337 -21.086  1.00  0.00    -0.550 OA
ENDBRANCH   7   8
ENDBRANCH   6   7
ENDBRANCH   5   6
ENDBRANCH   4   5
ENDBRANCH   3   4
ENDBRANCH   2   3
ENDBRANCH   1   2
BRANCH   1  11
ATOM     11  C   UNL     1      19.277  -5.937 -17.850  1.00  0.00     0.000 C 
BRANCH  11  12
ATOM     12  C   UNL     1      18.633  -6.211 -16.482  1.00  0.00    -0.000 C 
BRANCH  12  13
ATOM     13  C   UNL     1      17.107  -6.008 -16.490  1.00  0.00    -0.000 C 
BRANCH  13  14
ATOM     14  C   UNL     1      16.715  -4.532 -16.266  1.00  0.00    -0.000 C 
BRANCH  14  15
ATOM     15  C   UNL     1      16.105  -3.858 -17.510  1.00  0.00    -0.000 C 
BRANCH  15  16
ATOM     16  C   UNL     1      15.944  -4.780 -18.729  1.00  0.00    -0.000 C 
BRANCH  16  17
ATOM     17  C   UNL     1      15.378  -4.050 -19.956  1.00  0.00    -0.003 C 
ATOM     18  C   UNL     1      15.459  -2.536 -19.780  1.00  0.00     0.004 C 
ENDBRANCH  16  17
ENDBRANCH  15  16
ENDBRANCH  14  15
ENDBRANCH  13  14
ENDBRANCH  12  13
ENDBRANCH  11  12
ENDBRANCH   1  11
TORSDOF 14
ENDMDL
MODEL 6
REMARK VINA RESULT:    -4.003      9.389     11.743
REMARK INTER + INTRA:          -9.865
REMARK INTER:                  -7.621
REMARK INTRA:                  -2.244
REMARK UNBOUND:                -2.585
REMARK SMILES CCCCCCCCCCCCCCCC(=O)[O-]
REMARK SMILES IDX 9 1 10 2 11 3 12 4 13 5 14 6 15 7 16 8 17 9 18 10 8 11 7 12
REMARK SMILES IDX 6 13 5 14 4 15 3 16 2 17 1 18
REMARK H PARENT
REMARK Flexibility Score: inf
ROOT
ATOM      1  C   UNL     1       8.405  -9.024 -21.770  1.00  0.00     0.000 C 
ENDROOT
BRANCH   1   2
ATOM      2  C   UNL     1       8.248  -9.795 -23.095  1.00  0.00     0.000 C 
BRANCH   2   3
ATOM      3  C   UNL     1       9.182  -9.345 -24.233  1.00  0.00     0.000 C 
BRANCH   3   4
ATOM      4  C   UNL     1       8.450  -8.574 -25.342  1.00  0.00     0.000 C 
BRANCH   4   5
ATOM      5  C   UNL     1       9.238  -7.321 -25.752  1.00  0.00     0.000 C 
BRANCH   5   6
ATOM      6  C   UNL     1      10.144  -6.794 -24.620  1.00  0.00     0.006 C 
BRANCH   6   7
ATOM      7  C   UNL     1      10.566  -5.325 -24.800  1.00  0.00     0.053 C 
BRANCH   7   8
ATOM      8  C   UNL     1      11.811  -5.182 -25.620  1.00  0.00     0.041 C 
ATOM      9  O   UNL     1      11.795  -5.462 -26.846  1.00  0.00    -0.550 OA
ATOM     10  O   UNL     1      12.992  -4.755 -25.024  1.00  0.00    -0.550 OA
ENDBRANCH   7   8
ENDBRANCH   6   7
ENDBRANCH   5   6
ENDBRANCH   4   5
ENDBRANCH   3   4
ENDBRANCH   2   3
ENDBRANCH   1   2
BRANCH   1  11
ATOM     11  C   UNL     1       7.081  -8.436 -21.255  1.00  0.00     0.000 C 
BRANCH  11  12
ATOM     12  C   UNL     1       6.796  -7.036 -21.822  1.00  0.00    -0.000 C 
BRANCH  12  13
ATOM     13  C   UNL     1       7.960  -6.054 -21.600  1.00  0.00    -0.000 C 
BRANCH  13  14
ATOM     14  C   UNL     1       7.807  -4.770 -22.443  1.00  0.00    -0.000 C 
BRANCH  14  15
ATOM     15  C   UNL     1       7.031  -4.981 -23.757  1.00  0.00    -0.000 C 
BRANCH  15  16
ATOM     16  C   UNL     1       7.057  -3.784 -24.721  1.00  0.00    -0.000 C 
BRANCH  16  17
ATOM     17  C   UNL     1       6.607  -4.156 -26.142  1.00  0.00    -0.003 C 
ATOM     18  C   UNL     1       5.886  -5.500 -26.155  1.00  0.00     0.004 C 
ENDBRANCH  16  17
ENDBRANCH  15  16
ENDBRANCH  14  15
ENDBRANCH  13  14
ENDBRANCH  12  13
ENDBRANCH  11  12
ENDBRANCH   1  11
TORSDOF 14
ENDMDL
MODEL 7
REMARK VINA RESULT:    -3.983      9.431     11.612
REMARK INTER + INTRA:          -9.828
REMARK INTER:                  -7.441
REMARK INTRA:                  -2.386
REMARK UNBOUND:                -2.585
REMARK SMILES CCCCCCCCCCCCCCCC(=O)[O-]
REMARK SMILES IDX 9 1 10 2 11 3 12 4 13 5 14 6 15 7 16 8 17 9 18 10 8 11 7 12
REMARK SMILES IDX 6 13 5 14 4 15 3 16 2 17 1 18
REMARK H PARENT
REMARK Flexibility Score: inf
ROOT
ATOM      1  C   UNL     1       7.866  -9.134 -21.297  1.00  0.00     0.000 C 
ENDROOT
BRANCH   1   2
ATOM      2  C   UNL     1       7.915  -7.638 -20.931  1.00  0.00     0.000 C 
BRANCH   2   3
ATOM      3  C   UNL     1       6.848  -6.760 -21.610  1.00  0.00     0.000 C 
BRANCH   3   4
ATOM      4  C   UNL     1       7.333  -5.328 -21.885  1.00  0.00     0.000 C 
BRANCH   4   5
ATOM      5  C   UNL     1       8.864  -5.278 -21.991  1.00  0.00     0.000 C 
BRANCH   5   6
ATOM      6  C   UNL     1       9.352  -4.266 -23.048  1.00  0.00     0.006 C 
BRANCH   6   7
ATOM      7  C   UNL     1      10.516  -4.785 -23.910  1.00  0.00     0.053 C 
BRANCH   7   8
ATOM      8  C   UNL     1      10.626  -4.068 -25.219  1.00  0.00     0.041 C 
ATOM      9  O   UNL     1       9.812  -3.153 -25.509  1.00  0.00    -0.550 OA
ATOM     10  O   UNL     1      11.618  -4.421 -26.126  1.00  0.00    -0.550 OA
ENDBRANCH   7   8
ENDBRANCH   6   7
ENDBRANCH   5   6
ENDBRANCH   4   5
ENDBRANCH   3   4
ENDBRANCH   2   3
ENDBRANCH   1   2
BRANCH   1  11
ATOM     11  C   UNL     1       7.959  -9.388 -22.810  1.00  0.00     0.000 C 
BRANCH  11  12
ATOM     12  C   UNL     1       9.171  -8.695 -23.452  1.00  0.00    -0.000 C 
BRANCH  12  13
ATOM     13  C   UNL     1       9.052  -8.586 -24.983  1.00  0.00    -0.000 C 
BRANCH  13  14
ATOM     14  C   UNL     1       7.693  -7.999 -25.421  1.00  0.00    -0.000 C 
BRANCH  14  15
ATOM     15  C   UNL     1       7.640  -6.460 -25.377  1.00  0.00    -0.000 C 
BRANCH  15  16
ATOM     16  C   UNL     1       6.236  -5.858 -25.548  1.00  0.00    -0.000 C 
BRANCH  16  17
ATOM     17  C   UNL     1       6.266  -4.433 -26.121  1.00  0.00    -0.003 C 
ATOM     18  C   UNL     1       6.321  -3.394 -25.004  1.00  0.00     0.004 C 
ENDBRANCH  16  17
ENDBRANCH  15  16
ENDBRANCH  14  15
ENDBRANCH  13  14
ENDBRANCH  12  13
ENDBRANCH  11  12
ENDBRANCH   1  11
TORSDOF 14
ENDMDL
MODEL 8
REMARK VINA RESULT:    -3.970      7.807     11.319
REMARK INTER + INTRA:          -9.804
REMARK INTER:                  -7.298
REMARK INTRA:                  -2.506
REMARK UNBOUND:                -2.585
REMARK SMILES CCCCCCCCCCCCCCCC(=O)[O-]
REMARK SMILES IDX 9 1 10 2 11 3 12 4 13 5 14 6 15 7 16 8 17 9 18 10 8 11 7 12
REMARK SMILES IDX 6 13 5 14 4 15 3 16 2 17 1 18
REMARK H PARENT
REMARK Flexibility Score: inf
ROOT
ATOM      1  C   UNL     1       7.074  -6.225 -25.828  1.00  0.00     0.000 C 
ENDROOT
BRANCH   1   2
ATOM      2  C   UNL     1       7.633  -7.521 -25.211  1.00  0.00     0.000 C 
BRANCH   2   3
ATOM      3  C   UNL     1       9.121  -7.798 -25.498  1.00  0.00     0.000 C 
BRANCH   3   4
ATOM      4  C   UNL     1      10.061  -6.793 -24.817  1.00  0.00     0.000 C 
BRANCH   4   5
ATOM      5  C   UNL     1      10.768  -5.910 -25.856  1.00  0.00     0.000 C 
BRANCH   5   6
ATOM      6  C   UNL     1      11.304  -4.596 -25.252  1.00  0.00     0.006 C 
BRANCH   6   7
ATOM      7  C   UNL     1      12.144  -4.799 -23.979  1.00  0.00     0.053 C 
BRANCH   7   8
ATOM      8  C   UNL     1      11.785  -3.831 -22.894  1.00  0.00     0.041 C 
ATOM      9  O   UNL     1      11.643  -2.609 -23.158  1.00  0.00    -0.550 OA
ATOM     10  O   UNL     1      11.623  -4.278 -21.588  1.00  0.00    -0.550 OA
ENDBRANCH   7   8
ENDBRANCH   6   7
ENDBRANCH   5   6
ENDBRANCH   4   5
ENDBRANCH   3   4
ENDBRANCH   2   3
ENDBRANCH   1   2
BRANCH   1  11
ATOM     11  C   UNL     1       6.575  -5.223 -24.774  1.00  0.00     0.000 C 
BRANCH  11  12
ATOM     12  C   UNL     1       7.561  -4.068 -24.542  1.00  0.00    -0.000 C 
BRANCH  12  13
ATOM     13  C   UNL     1       8.159  -4.070 -23.123  1.00  0.00    -0.000 C 
BRANCH  13  14
ATOM     14  C   UNL     1       7.538  -5.167 -22.232  1.00  0.00    -0.000 C 
BRANCH  14  15
ATOM     15  C   UNL     1       8.579  -6.098 -21.580  1.00  0.00    -0.000 C 
BRANCH  15  16
ATOM     16  C   UNL     1       7.988  -7.300 -20.827  1.00  0.00    -0.000 C 
BRANCH  16  17
ATOM     17  C   UNL     1       6.937  -8.059 -21.650  1.00  0.00    -0.003 C 
ATOM     18  C   UNL     1       7.499  -9.378 -22.174  1.00  0.00     0.004 C 
ENDBRANCH  16  17
ENDBRANCH  15  16
ENDBRANCH  14  15
ENDBRANCH  13  14
ENDBRANCH  12  13
ENDBRANCH  11  12
ENDBRANCH   1  11
TORSDOF 14
ENDMDL
MODEL 9
REMARK VINA RESULT:    -3.924      1.122      2.864
REMARK INTER + INTRA:          -9.720
REMARK INTER:                  -7.419
REMARK INTRA:                  -2.301
REMARK UNBOUND:                -2.585
REMARK SMILES CCCCCCCCCCCCCCCC(=O)[O-]
REMARK SMILES IDX 9 1 10 2 11 3 12 4 13 5 14 6 15 7 16 8 17 9 18 10 8 11 7 12
REMARK SMILES IDX 6 13 5 14 4 15 3 16 2 17 1 18
REMARK H PARENT
REMARK Flexibility Score: inf
ROOT
ATOM      1  C   UNL     1      17.961  -6.749 -19.533  1.00  0.00     0.000 C 
ENDROOT
BRANCH   1   2
ATOM      2  C   UNL     1      19.106  -6.515 -18.528  1.00  0.00     0.000 C 
BRANCH   2   3
ATOM      3  C   UNL     1      18.663  -6.180 -17.092  1.00  0.00     0.000 C 
BRANCH   3   4
ATOM      4  C   UNL     1      17.142  -6.016 -16.955  1.00  0.00     0.000 C 
BRANCH   4   5
ATOM      5  C   UNL     1      16.798  -4.898 -15.959  1.00  0.00     0.000 C 
BRANCH   5   6
ATOM      6  C   UNL     1      16.176  -3.664 -16.644  1.00  0.00     0.006 C 
BRANCH   6   7
ATOM      7  C   UNL     1      16.625  -3.475 -18.103  1.00  0.00     0.053 C 
BRANCH   7   8
ATOM      8  C   UNL     1      15.475  -3.476 -19.063  1.00  0.00     0.041 C 
ATOM      9  O   UNL     1      14.725  -4.483 -19.149  1.00  0.00    -0.550 OA
ATOM     10  O   UNL     1      15.243  -2.371 -19.872  1.00  0.00    -0.550 OA
ENDBRANCH   7   8
ENDBRANCH   6   7
ENDBRANCH   5   6
ENDBRANCH   4   5
ENDBRANCH   3   4
ENDBRANCH   2   3
ENDBRANCH   1   2
BRANCH   1  11
ATOM     11  C   UNL     1      17.984  -5.764 -20.713  1.00  0.00     0.000 C 
BRANCH  11  12
ATOM     12  C   UNL     1      18.641  -6.360 -21.968  1.00  0.00    -0.000 C 
BRANCH  12  13
ATOM     13  C   UNL     1      19.850  -5.540 -22.454  1.00  0.00    -0.000 C 
BRANCH  13  14
ATOM     14  C   UNL     1      21.083  -5.727 -21.545  1.00  0.00    -0.000 C 
BRANCH  14  15
ATOM     15  C   UNL     1      21.456  -4.467 -20.740  1.00  0.00    -0.000 C 
BRANCH  15  16
ATOM     16  C   UNL     1      20.724  -3.186 -21.172  1.00  0.00    -0.000 C 
BRANCH  16  17
ATOM     17  C   UNL     1      19.839  -2.604 -20.060  1.00  0.00    -0.003 C 
ATOM     18  C   UNL     1      20.343  -3.022 -18.682  1.00  0.00     0.004 C 
ENDBRANCH  16  17
ENDBRANCH  15  16
ENDBRANCH  14  15
ENDBRANCH  13  14
ENDBRANCH  12  13
ENDBRANCH  11  12
ENDBRANCH   1  11
TORSDOF 14
ENDMDL
