MODEL 1
REMARK VINA RESULT:    -2.517      0.000      0.000
REMARK INTER + INTRA:          -8.157
REMARK INTER:                  -5.753
REMARK INTRA:                  -2.404
REMARK UNBOUND:                -2.404
REMARK SMILES CCCCCCCCCCCCCCCCCCCCCCCC(=O)[O-]
REMARK SMILES IDX 13 1 14 2 15 3 16 4 17 5 18 6 19 7 20 8 21 9 22 10 23 11
REMARK SMILES IDX 24 12 25 13 26 14 12 15 11 16 10 17 9 18 8 19 7 20 6 21 5 22
REMARK SMILES IDX 4 23 3 24 2 25 1 26
REMARK H PARENT
REMARK Flexibility Score: inf
ROOT
ATOM      1  C   UNL     1      23.016  34.339  11.703  1.00  0.00     0.000 C 
ENDROOT
BRANCH   1   2
ATOM      2  C   UNL     1      24.105  33.254  11.837  1.00  0.00     0.000 C 
BRANCH   2   3
ATOM      3  C   UNL     1      25.487  33.706  11.333  1.00  0.00     0.000 C 
BRANCH   3   4
ATOM      4  C   UNL     1      26.646  33.052  12.104  1.00  0.00     0.000 C 
BRANCH   4   5
ATOM      5  C   UNL     1      26.223  31.758  12.816  1.00  0.00     0.000 C 
BRANCH   5   6
ATOM      6  C   UNL     1      26.599  31.757  14.309  1.00  0.00     0.000 C 
BRANCH   6   7
ATOM      7  C   UNL     1      25.371  31.878  15.226  1.00  0.00     0.000 C 
BRANCH   7   8
ATOM      8  C   UNL     1      25.405  33.146  16.093  1.00  0.00     0.000 C 
BRANCH   8   9
ATOM      9  C   UNL     1      25.697  34.386  15.240  1.00  0.00     0.000 C 
BRANCH   9  10
ATOM     10  C   UNL     1      25.076  35.642  15.863  1.00  0.00     0.006 C 
BRANCH  10  11
ATOM     11  C   UNL     1      24.614  36.622  14.781  1.00  0.00     0.053 C 
BRANCH  11  12
ATOM     12  C   UNL     1      23.430  37.403  15.254  1.00  0.00     0.041 C 
ATOM     13  O   UNL     1      23.465  38.663  15.265  1.00  0.00    -0.550 OA
ATOM     14  O   UNL     1      22.269  36.744  15.637  1.00  0.00    -0.550 OA
ENDBRANCH  11  12
ENDBRANCH  10  11
ENDBRANCH   9  10
ENDBRANCH   8   9
ENDBRANCH   7   8
ENDBRANCH   6   7
ENDBRANCH   5   6
ENDBRANCH   4   5
ENDBRANCH   3   4
ENDBRANCH   2   3
ENDBRANCH   1   2
BRANCH   1  15
ATOM     15  C   UNL     1      21.799  34.054  12.603  1.00  0.00     0.000 C 
BRANCH  15  16
ATOM     16  C   UNL     1      22.198  33.769  14.060  1.00  0.00     0.000 C 
BRANCH  16  17
ATOM     17  C   UNL     1      22.223  32.262  14.375  1.00  0.00     0.000 C 
BRANCH  17  18
ATOM     18  C   UNL     1      21.893  31.965  15.846  1.00  0.00    -0.000 C 
BRANCH  18  19
ATOM     19  C   UNL     1      20.605  31.137  16.010  1.00  0.00    -0.000 C 
BRANCH  19  20
ATOM     20  C   UNL     1      19.348  32.025  16.125  1.00  0.00    -0.000 C 
BRANCH  20  21
ATOM     21  C   UNL     1      18.343  31.829  14.973  1.00  0.00    -0.000 C 
BRANCH  21  22
ATOM     22  C   UNL     1      17.173  30.875  15.284  1.00  0.00    -0.000 C 
BRANCH  22  23
ATOM     23  C   UNL     1      15.936  31.548  15.907  1.00  0.00    -0.000 C 
BRANCH  23  24
ATOM     24  C   UNL     1      14.682  31.420  15.032  1.00  0.00    -0.000 C 
BRANCH  24  25
ATOM     25  C   UNL     1      13.440  31.929  15.774  1.00  0.00    -0.003 C 
ATOM     26  C   UNL     1      12.836  33.141  15.073  1.00  0.00     0.004 C 
ENDBRANCH  24  25
ENDBRANCH  23  24
ENDBRANCH  22  23
ENDBRANCH  21  22
ENDBRANCH  20  21
ENDBRANCH  19  20
ENDBRANCH  18  19
ENDBRANCH  17  18
ENDBRANCH  16  17
ENDBRANCH  15  16
ENDBRANCH   1  15
TORSDOF 22
ENDMDL
MODEL 2
REMARK VINA RESULT:    -1.650      2.994      7.822
REMARK INTER + INTRA:          -6.176
REMARK INTER:                  -4.065
REMARK INTRA:                  -2.111
REMARK UNBOUND:                -2.404
REMARK SMILES CCCCCCCCCCCCCCCCCCCCCCCC(=O)[O-]
REMARK SMILES IDX 13 1 14 2 15 3 16 4 17 5 18 6 19 7 20 8 21 9 22 10 23 11
REMARK SMILES IDX 24 12 25 13 26 14 12 15 11 16 10 17 9 18 8 19 7 20 6 21 5 22
REMARK SMILES IDX 4 23 3 24 2 25 1 26
REMARK H PARENT
REMARK Flexibility Score: inf
ROOT
ATOM      1  C   UNL     1      23.051  33.312  10.936  1.00  0.00     0.000 C 
ENDROOT
BRANCH   1   2
ATOM      2  C   UNL     1      22.324  34.561  11.478  1.00  0.00     0.000 C 
BRANCH   2   3
ATOM      3  C   UNL     1      22.473  34.747  12.998  1.00  0.00     0.000 C 
BRANCH   3   4
ATOM      4  C   UNL     1      21.547  33.822  13.805  1.00  0.00     0.000 C 
BRANCH   4   5
ATOM      5  C   UNL     1      22.325  32.858  14.716  1.00  0.00     0.000 C 
BRANCH   5   6
ATOM      6  C   UNL     1      21.696  32.733  16.115  1.00  0.00     0.000 C 
BRANCH   6   7
ATOM      7  C   UNL     1      20.166  32.871  16.088  1.00  0.00     0.000 C 
BRANCH   7   8
ATOM      8  C   UNL     1      19.454  31.519  15.932  1.00  0.00     0.000 C 
BRANCH   8   9
ATOM      9  C   UNL     1      18.413  31.573  14.807  1.00  0.00     0.000 C 
BRANCH   9  10
ATOM     10  C   UNL     1      17.111  30.880  15.226  1.00  0.00     0.006 C 
BRANCH  10  11
ATOM     11  C   UNL     1      16.184  31.851  15.963  1.00  0.00     0.053 C 
BRANCH  11  12
ATOM     12  C   UNL     1      14.838  31.885  15.312  1.00  0.00     0.041 C 
ATOM     13  O   UNL     1      14.451  30.916  14.606  1.00  0.00    -0.550 OA
ATOM     14  O   UNL     1      13.991  32.965  15.521  1.00  0.00    -0.550 OA
ENDBRANCH  11  12
ENDBRANCH  10  11
ENDBRANCH   9  10
ENDBRANCH   8   9
ENDBRANCH   7   8
ENDBRANCH   6   7
ENDBRANCH   5   6
ENDBRANCH   4   5
ENDBRANCH   3   4
ENDBRANCH   2   3
ENDBRANCH   1   2
BRANCH   1  15
ATOM     15  C   UNL     1      24.060  32.742  11.950  1.00  0.00     0.000 C 
BRANCH  15  16
ATOM     16  C   UNL     1      25.457  33.366  11.806  1.00  0.00     0.000 C 
BRANCH  16  17
ATOM     17  C   UNL     1      26.456  32.807  12.835  1.00  0.00     0.000 C 
BRANCH  17  18
ATOM     18  C   UNL     1      27.403  33.888  13.380  1.00  0.00    -0.000 C 
BRANCH  18  19
ATOM     19  C   UNL     1      26.713  34.829  14.385  1.00  0.00    -0.000 C 
BRANCH  19  20
ATOM     20  C   UNL     1      25.819  34.066  15.385  1.00  0.00    -0.000 C 
BRANCH  20  21
ATOM     21  C   UNL     1      24.801  34.963  16.117  1.00  0.00    -0.000 C 
BRANCH  21  22
ATOM     22  C   UNL     1      24.267  36.149  15.292  1.00  0.00    -0.000 C 
BRANCH  22  23
ATOM     23  C   UNL     1      23.157  36.968  15.978  1.00  0.00    -0.000 C 
BRANCH  23  24
ATOM     24  C   UNL     1      23.100  38.422  15.489  1.00  0.00    -0.000 C 
BRANCH  24  25
ATOM     25  C   UNL     1      24.417  38.827  14.816  1.00  0.00    -0.003 C 
ATOM     26  C   UNL     1      24.187  39.265  13.373  1.00  0.00     0.004 C 
ENDBRANCH  24  25
ENDBRANCH  23  24
ENDBRANCH  22  23
ENDBRANCH  21  22
ENDBRANCH  20  21
ENDBRANCH  19  20
ENDBRANCH  18  19
ENDBRANCH  17  18
ENDBRANCH  16  17
ENDBRANCH  15  16
ENDBRANCH   1  15
TORSDOF 22
ENDMDL
MODEL 3
REMARK VINA RESULT:    -1.541      3.388      5.698
REMARK INTER + INTRA:          -5.928
REMARK INTER:                  -4.042
REMARK INTRA:                  -1.886
REMARK UNBOUND:                -2.404
REMARK SMILES CCCCCCCCCCCCCCCCCCCCCCCC(=O)[O-]
REMARK SMILES IDX 13 1 14 2 15 3 16 4 17 5 18 6 19 7 20 8 21 9 22 10 23 11
REMARK SMILES IDX 24 12 25 13 26 14 12 15 11 16 10 17 9 18 8 19 7 20 6 21 5 22
REMARK SMILES IDX 4 23 3 24 2 25 1 26
REMARK H PARENT
REMARK Flexibility Score: inf
ROOT
ATOM      1  C   UNL     1      26.034  35.642  14.349  1.00  0.00     0.000 C 
ENDROOT
BRANCH   1   2
ATOM      2  C   UNL     1      25.595  34.575  13.325  1.00  0.00     0.000 C 
BRANCH   2   3
ATOM      3  C   UNL     1      26.625  34.335  12.208  1.00  0.00     0.000 C 
BRANCH   3   4
ATOM      4  C   UNL     1      27.490  33.088  12.452  1.00  0.00     0.000 C 
BRANCH   4   5
ATOM      5  C   UNL     1      26.881  32.144  13.500  1.00  0.00     0.000 C 
BRANCH   5   6
ATOM      6  C   UNL     1      26.213  30.910  12.866  1.00  0.00     0.000 C 
BRANCH   6   7
ATOM      7  C   UNL     1      24.764  31.182  12.432  1.00  0.00     0.000 C 
BRANCH   7   8
ATOM      8  C   UNL     1      24.528  30.883  10.944  1.00  0.00     0.000 C 
BRANCH   8   9
ATOM      9  C   UNL     1      25.003  32.049  10.068  1.00  0.00     0.000 C 
BRANCH   9  10
ATOM     10  C   UNL     1      23.921  33.130   9.954  1.00  0.00     0.006 C 
BRANCH  10  11
ATOM     11  C   UNL     1      23.209  33.338  11.294  1.00  0.00     0.053 C 
BRANCH  11  12
ATOM     12  C   UNL     1      22.789  34.765  11.447  1.00  0.00     0.041 C 
ATOM     13  O   UNL     1      22.564  35.471  10.428  1.00  0.00    -0.550 OA
ATOM     14  O   UNL     1      22.599  35.303  12.713  1.00  0.00    -0.550 OA
ENDBRANCH  11  12
ENDBRANCH  10  11
ENDBRANCH   9  10
ENDBRANCH   8   9
ENDBRANCH   7   8
ENDBRANCH   6   7
ENDBRANCH   5   6
ENDBRANCH   4   5
ENDBRANCH   3   4
ENDBRANCH   2   3
ENDBRANCH   1   2
BRANCH   1  15
ATOM     15  C   UNL     1      25.992  35.111  15.795  1.00  0.00     0.000 C 
BRANCH  15  16
ATOM     16  C   UNL     1      25.595  33.629  15.866  1.00  0.00     0.000 C 
BRANCH  16  17
ATOM     17  C   UNL     1      24.090  33.437  16.125  1.00  0.00     0.000 C 
BRANCH  17  18
ATOM     18  C   UNL     1      23.534  32.174  15.447  1.00  0.00    -0.000 C 
BRANCH  18  19
ATOM     19  C   UNL     1      22.020  32.002  15.664  1.00  0.00    -0.000 C 
BRANCH  19  20
ATOM     20  C   UNL     1      21.206  33.181  15.091  1.00  0.00    -0.000 C 
BRANCH  20  21
ATOM     21  C   UNL     1      20.903  34.286  16.121  1.00  0.00    -0.000 C 
BRANCH  21  22
ATOM     22  C   UNL     1      21.035  35.726  15.591  1.00  0.00    -0.000 C 
BRANCH  22  23
ATOM     23  C   UNL     1      22.377  36.413  15.906  1.00  0.00    -0.000 C 
BRANCH  23  24
ATOM     24  C   UNL     1      22.445  37.857  15.390  1.00  0.00    -0.000 C 
BRANCH  24  25
ATOM     25  C   UNL     1      23.803  38.144  14.739  1.00  0.00    -0.003 C 
ATOM     26  C   UNL     1      24.566  39.219  15.507  1.00  0.00     0.004 C 
ENDBRANCH  24  25
ENDBRANCH  23  24
ENDBRANCH  22  23
ENDBRANCH  21  22
ENDBRANCH  20  21
ENDBRANCH  19  20
ENDBRANCH  18  19
ENDBRANCH  17  18
ENDBRANCH  16  17
ENDBRANCH  15  16
ENDBRANCH   1  15
TORSDOF 22
ENDMDL
MODEL 4
REMARK VINA RESULT:    -1.527      3.065      5.263
REMARK INTER + INTRA:          -5.896
REMARK INTER:                  -4.037
REMARK INTRA:                  -1.859
REMARK UNBOUND:                -2.404
REMARK SMILES CCCCCCCCCCCCCCCCCCCCCCCC(=O)[O-]
REMARK SMILES IDX 13 1 14 2 15 3 16 4 17 5 18 6 19 7 20 8 21 9 22 10 23 11
REMARK SMILES IDX 24 12 25 13 26 14 12 15 11 16 10 17 9 18 8 19 7 20 6 21 5 22
REMARK SMILES IDX 4 23 3 24 2 25 1 26
REMARK H PARENT
REMARK Flexibility Score: inf
ROOT
ATOM      1  C   UNL     1      23.149  34.251  10.944  1.00  0.00     0.000 C 
ENDROOT
BRANCH   1   2
ATOM      2  C   UNL     1      24.390  33.337  10.863  1.00  0.00     0.000 C 
BRANCH   2   3
ATOM      3  C   UNL     1      25.701  34.044  11.247  1.00  0.00     0.000 C 
BRANCH   3   4
ATOM      4  C   UNL     1      26.506  33.273  12.305  1.00  0.00     0.000 C 
BRANCH   4   5
ATOM      5  C   UNL     1      26.557  31.763  12.022  1.00  0.00     0.000 C 
BRANCH   5   6
ATOM      6  C   UNL     1      26.609  30.924  13.311  1.00  0.00     0.000 C 
BRANCH   6   7
ATOM      7  C   UNL     1      25.269  30.916  14.064  1.00  0.00     0.000 C 
BRANCH   7   8
ATOM      8  C   UNL     1      25.449  30.877  15.589  1.00  0.00     0.000 C 
BRANCH   8   9
ATOM      9  C   UNL     1      26.934  30.939  15.969  1.00  0.00     0.000 C 
BRANCH   9  10
ATOM     10  C   UNL     1      27.406  32.391  16.110  1.00  0.00     0.006 C 
BRANCH  10  11
ATOM     11  C   UNL     1      26.216  33.357  16.125  1.00  0.00     0.053 C 
BRANCH  11  12
ATOM     12  C   UNL     1      26.629  34.702  15.618  1.00  0.00     0.041 C 
ATOM     13  O   UNL     1      27.677  35.248  16.052  1.00  0.00    -0.550 OA
ATOM     14  O   UNL     1      25.882  35.333  14.631  1.00  0.00    -0.550 OA
ENDBRANCH  11  12
ENDBRANCH  10  11
ENDBRANCH   9  10
ENDBRANCH   8   9
ENDBRANCH   7   8
ENDBRANCH   6   7
ENDBRANCH   5   6
ENDBRANCH   4   5
ENDBRANCH   3   4
ENDBRANCH   2   3
ENDBRANCH   1   2
BRANCH   1  15
ATOM     15  C   UNL     1      22.187  33.825  12.069  1.00  0.00     0.000 C 
BRANCH  15  16
ATOM     16  C   UNL     1      22.882  33.734  13.436  1.00  0.00     0.000 C 
BRANCH  16  17
ATOM     17  C   UNL     1      22.758  32.334  14.064  1.00  0.00     0.000 C 
BRANCH  17  18
ATOM     18  C   UNL     1      21.894  32.335  15.335  1.00  0.00    -0.000 C 
BRANCH  18  19
ATOM     19  C   UNL     1      20.511  32.972  15.111  1.00  0.00    -0.000 C 
BRANCH  19  20
ATOM     20  C   UNL     1      20.212  34.097  16.125  1.00  0.00    -0.000 C 
BRANCH  20  21
ATOM     21  C   UNL     1      20.508  35.511  15.588  1.00  0.00    -0.000 C 
BRANCH  21  22
ATOM     22  C   UNL     1      21.974  35.966  15.724  1.00  0.00    -0.000 C 
BRANCH  22  23
ATOM     23  C   UNL     1      22.223  37.452  15.408  1.00  0.00    -0.000 C 
BRANCH  23  24
ATOM     24  C   UNL     1      23.714  37.791  15.272  1.00  0.00    -0.000 C 
BRANCH  24  25
ATOM     25  C   UNL     1      24.097  38.002  13.802  1.00  0.00    -0.003 C 
ATOM     26  C   UNL     1      24.071  39.482  13.432  1.00  0.00     0.004 C 
ENDBRANCH  24  25
ENDBRANCH  23  24
ENDBRANCH  22  23
ENDBRANCH  21  22
ENDBRANCH  20  21
ENDBRANCH  19  20
ENDBRANCH  18  19
ENDBRANCH  17  18
ENDBRANCH  16  17
ENDBRANCH  15  16
ENDBRANCH   1  15
TORSDOF 22
ENDMDL
MODEL 5
REMARK VINA RESULT:    -1.452      2.331      4.166
REMARK INTER + INTRA:          -5.722
REMARK INTER:                  -5.403
REMARK INTRA:                  -0.319
REMARK UNBOUND:                -2.404
REMARK SMILES CCCCCCCCCCCCCCCCCCCCCCCC(=O)[O-]
REMARK SMILES IDX 13 1 14 2 15 3 16 4 17 5 18 6 19 7 20 8 21 9 22 10 23 11
REMARK SMILES IDX 24 12 25 13 26 14 12 15 11 16 10 17 9 18 8 19 7 20 6 21 5 22
REMARK SMILES IDX 4 23 3 24 2 25 1 26
REMARK H PARENT
REMARK Flexibility Score: inf
ROOT
ATOM      1  C   UNL     1      21.572  35.808  15.334  1.00  0.00     0.000 C 
ENDROOT
BRANCH   1   2
ATOM      2  C   UNL     1      22.138  37.202  15.678  1.00  0.00     0.000 C 
BRANCH   2   3
ATOM      3  C   UNL     1      23.014  37.801  14.564  1.00  0.00     0.000 C 
BRANCH   3   4
ATOM      4  C   UNL     1      24.355  38.341  15.084  1.00  0.00     0.000 C 
BRANCH   4   5
ATOM      5  C   UNL     1      25.122  37.307  15.923  1.00  0.00     0.000 C 
BRANCH   5   6
ATOM      6  C   UNL     1      24.918  35.868  15.415  1.00  0.00     0.000 C 
BRANCH   6   7
ATOM      7  C   UNL     1      25.726  35.572  14.141  1.00  0.00     0.000 C 
BRANCH   7   8
ATOM      8  C   UNL     1      26.600  34.316  14.275  1.00  0.00     0.000 C 
BRANCH   8   9
ATOM      9  C   UNL     1      25.755  33.043  14.144  1.00  0.00     0.000 C 
BRANCH   9  10
ATOM     10  C   UNL     1      26.383  32.066  13.143  1.00  0.00     0.006 C 
BRANCH  10  11
ATOM     11  C   UNL     1      26.296  32.611  11.714  1.00  0.00     0.053 C 
BRANCH  11  12
ATOM     12  C   UNL     1      24.930  32.383  11.149  1.00  0.00     0.041 C 
ATOM     13  O   UNL     1      24.382  33.268  10.440  1.00  0.00    -0.550 OA
ATOM     14  O   UNL     1      24.280  31.174  11.366  1.00  0.00    -0.550 OA
ENDBRANCH  11  12
ENDBRANCH  10  11
ENDBRANCH   9  10
ENDBRANCH   8   9
ENDBRANCH   7   8
ENDBRANCH   6   7
ENDBRANCH   5   6
ENDBRANCH   4   5
ENDBRANCH   3   4
ENDBRANCH   2   3
ENDBRANCH   1   2
BRANCH   1  15
ATOM     15  C   UNL     1      22.445  34.672  15.899  1.00  0.00     0.000 C 
BRANCH  15  16
ATOM     16  C   UNL     1      22.458  33.432  14.991  1.00  0.00     0.000 C 
BRANCH  16  17
ATOM     17  C   UNL     1      21.045  33.023  14.539  1.00  0.00     0.000 C 
BRANCH  17  18
ATOM     18  C   UNL     1      20.228  32.384  15.673  1.00  0.00    -0.000 C 
BRANCH  18  19
ATOM     19  C   UNL     1      19.412  31.166  15.204  1.00  0.00    -0.000 C 
BRANCH  19  20
ATOM     20  C   UNL     1      18.208  30.875  16.125  1.00  0.00    -0.000 C 
BRANCH  20  21
ATOM     21  C   UNL     1      17.003  31.805  15.882  1.00  0.00    -0.000 C 
BRANCH  21  22
ATOM     22  C   UNL     1      15.633  31.101  15.850  1.00  0.00    -0.000 C 
BRANCH  22  23
ATOM     23  C   UNL     1      14.417  32.045  15.911  1.00  0.00    -0.000 C 
BRANCH  23  24
ATOM     24  C   UNL     1      13.108  31.358  15.498  1.00  0.00    -0.000 C 
BRANCH  24  25
ATOM     25  C   UNL     1      11.918  32.315  15.643  1.00  0.00    -0.003 C 
ATOM     26  C   UNL     1      12.383  33.765  15.725  1.00  0.00     0.004 C 
ENDBRANCH  24  25
ENDBRANCH  23  24
ENDBRANCH  22  23
ENDBRANCH  21  22
ENDBRANCH  20  21
ENDBRANCH  19  20
ENDBRANCH  18  19
ENDBRANCH  17  18
ENDBRANCH  16  17
ENDBRANCH  15  16
ENDBRANCH   1  15
TORSDOF 22
ENDMDL
MODEL 6
REMARK VINA RESULT:    -1.328      2.111      3.583
REMARK INTER + INTRA:          -5.439
REMARK INTER:                  -3.622
REMARK INTRA:                  -1.817
REMARK UNBOUND:                -2.404
REMARK SMILES CCCCCCCCCCCCCCCCCCCCCCCC(=O)[O-]
REMARK SMILES IDX 13 1 14 2 15 3 16 4 17 5 18 6 19 7 20 8 21 9 22 10 23 11
REMARK SMILES IDX 24 12 25 13 26 14 12 15 11 16 10 17 9 18 8 19 7 20 6 21 5 22
REMARK SMILES IDX 4 23 3 24 2 25 1 26
REMARK H PARENT
REMARK Flexibility Score: inf
ROOT
ATOM      1  C   UNL     1      24.046  35.910  13.873  1.00  0.00     0.000 C 
ENDROOT
BRANCH   1   2
ATOM      2  C   UNL     1      25.462  35.873  14.488  1.00  0.00     0.000 C 
BRANCH   2   3
ATOM      3  C   UNL     1      25.736  34.610  15.323  1.00  0.00     0.000 C 
BRANCH   3   4
ATOM      4  C   UNL     1      27.237  34.335  15.512  1.00  0.00     0.000 C 
BRANCH   4   5
ATOM      5  C   UNL     1      27.526  32.871  15.881  1.00  0.00     0.000 C 
BRANCH   5   6
ATOM      6  C   UNL     1      26.241  32.042  16.053  1.00  0.00     0.000 C 
BRANCH   6   7
ATOM      7  C   UNL     1      26.045  31.016  14.925  1.00  0.00     0.000 C 
BRANCH   7   8
ATOM      8  C   UNL     1      24.574  30.876  14.504  1.00  0.00     0.000 C 
BRANCH   8   9
ATOM      9  C   UNL     1      24.433  30.932  12.978  1.00  0.00     0.000 C 
BRANCH   9  10
ATOM     10  C   UNL     1      25.804  31.048  12.301  1.00  0.00     0.006 C 
BRANCH  10  11
ATOM     11  C   UNL     1      25.742  31.983  11.089  1.00  0.00     0.053 C 
BRANCH  11  12
ATOM     12  C   UNL     1      25.587  33.403  11.532  1.00  0.00     0.041 C 
ATOM     13  O   UNL     1      26.600  34.140  11.662  1.00  0.00    -0.550 OA
ATOM     14  O   UNL     1      24.321  33.929  11.755  1.00  0.00    -0.550 OA
ENDBRANCH  11  12
ENDBRANCH  10  11
ENDBRANCH   9  10
ENDBRANCH   8   9
ENDBRANCH   7   8
ENDBRANCH   6   7
ENDBRANCH   5   6
ENDBRANCH   4   5
ENDBRANCH   3   4
ENDBRANCH   2   3
ENDBRANCH   1   2
BRANCH   1  15
ATOM     15  C   UNL     1      22.949  36.017  14.949  1.00  0.00     0.000 C 
BRANCH  15  16
ATOM     16  C   UNL     1      21.582  35.525  14.447  1.00  0.00     0.000 C 
BRANCH  16  17
ATOM     17  C   UNL     1      20.709  34.963  15.584  1.00  0.00     0.000 C 
BRANCH  17  18
ATOM     18  C   UNL     1      21.208  33.599  16.087  1.00  0.00    -0.000 C 
BRANCH  18  19
ATOM     19  C   UNL     1      21.823  32.742  14.965  1.00  0.00    -0.000 C 
BRANCH  19  20
ATOM     20  C   UNL     1      21.120  31.376  14.818  1.00  0.00    -0.000 C 
BRANCH  20  21
ATOM     21  C   UNL     1      19.582  31.464  14.845  1.00  0.00    -0.000 C 
BRANCH  21  22
ATOM     22  C   UNL     1      18.920  30.907  16.120  1.00  0.00    -0.000 C 
BRANCH  22  23
ATOM     23  C   UNL     1      17.380  30.875  16.090  1.00  0.00    -0.000 C 
BRANCH  23  24
ATOM     24  C   UNL     1      16.781  31.877  15.092  1.00  0.00    -0.000 C 
BRANCH  24  25
ATOM     25  C   UNL     1      15.269  31.668  14.946  1.00  0.00    -0.003 C 
ATOM     26  C   UNL     1      14.499  32.450  16.004  1.00  0.00     0.004 C 
ENDBRANCH  24  25
ENDBRANCH  23  24
ENDBRANCH  22  23
ENDBRANCH  21  22
ENDBRANCH  20  21
ENDBRANCH  19  20
ENDBRANCH  18  19
ENDBRANCH  17  18
ENDBRANCH  16  17
ENDBRANCH  15  16
ENDBRANCH   1  15
TORSDOF 22
ENDMDL
MODEL 7
REMARK VINA RESULT:    -1.182      2.520      5.092
REMARK INTER + INTRA:          -5.107
REMARK INTER:                  -3.860
REMARK INTRA:                  -1.247
REMARK UNBOUND:                -2.404
REMARK SMILES CCCCCCCCCCCCCCCCCCCCCCCC(=O)[O-]
REMARK SMILES IDX 13 1 14 2 15 3 16 4 17 5 18 6 19 7 20 8 21 9 22 10 23 11
REMARK SMILES IDX 24 12 25 13 26 14 12 15 11 16 10 17 9 18 8 19 7 20 6 21 5 22
REMARK SMILES IDX 4 23 3 24 2 25 1 26
REMARK H PARENT
REMARK Flexibility Score: inf
ROOT
ATOM      1  C   UNL     1      25.166  38.594  13.944  1.00  0.00     0.000 C 
ENDROOT
BRANCH   1   2
ATOM      2  C   UNL     1      25.016  38.724  15.475  1.00  0.00     0.000 C 
BRANCH   2   3
ATOM      3  C   UNL     1      23.734  38.073  16.023  1.00  0.00     0.000 C 
BRANCH   3   4
ATOM      4  C   UNL     1      23.840  36.543  16.125  1.00  0.00     0.000 C 
BRANCH   4   5
ATOM      5  C   UNL     1      25.249  36.025  15.793  1.00  0.00     0.000 C 
BRANCH   5   6
ATOM      6  C   UNL     1      25.421  34.532  16.124  1.00  0.00     0.000 C 
BRANCH   6   7
ATOM      7  C   UNL     1      26.632  33.906  15.414  1.00  0.00     0.000 C 
BRANCH   7   8
ATOM      8  C   UNL     1      26.379  32.453  14.986  1.00  0.00     0.000 C 
BRANCH   8   9
ATOM      9  C   UNL     1      26.107  32.364  13.479  1.00  0.00     0.000 C 
BRANCH   9  10
ATOM     10  C   UNL     1      26.481  33.673  12.773  1.00  0.00     0.006 C 
BRANCH  10  11
ATOM     11  C   UNL     1      25.927  33.705  11.346  1.00  0.00     0.053 C 
BRANCH  11  12
ATOM     12  C   UNL     1      25.169  32.450  11.051  1.00  0.00     0.041 C 
ATOM     13  O   UNL     1      23.910  32.451  11.073  1.00  0.00    -0.550 OA
ATOM     14  O   UNL     1      25.851  31.291  10.703  1.00  0.00    -0.550 OA
ENDBRANCH  11  12
ENDBRANCH  10  11
ENDBRANCH   9  10
ENDBRANCH   8   9
ENDBRANCH   7   8
ENDBRANCH   6   7
ENDBRANCH   5   6
ENDBRANCH   4   5
ENDBRANCH   3   4
ENDBRANCH   2   3
ENDBRANCH   1   2
BRANCH   1  15
ATOM     15  C   UNL     1      23.833  38.824  13.208  1.00  0.00     0.000 C 
BRANCH  15  16
ATOM     16  C   UNL     1      23.377  37.589  12.416  1.00  0.00     0.000 C 
BRANCH  16  17
ATOM     17  C   UNL     1      23.493  36.291  13.237  1.00  0.00     0.000 C 
BRANCH  17  18
ATOM     18  C   UNL     1      22.878  35.083  12.514  1.00  0.00    -0.000 C 
BRANCH  18  19
ATOM     19  C   UNL     1      22.410  33.985  13.486  1.00  0.00    -0.000 C 
BRANCH  19  20
ATOM     20  C   UNL     1      21.780  34.566  14.769  1.00  0.00    -0.000 C 
BRANCH  20  21
ATOM     21  C   UNL     1      21.650  33.544  15.915  1.00  0.00    -0.000 C 
BRANCH  21  22
ATOM     22  C   UNL     1      22.056  32.103  15.552  1.00  0.00    -0.000 C 
BRANCH  22  23
ATOM     23  C   UNL     1      20.994  31.032  15.862  1.00  0.00    -0.000 C 
BRANCH  23  24
ATOM     24  C   UNL     1      19.584  31.618  16.023  1.00  0.00    -0.000 C 
BRANCH  24  25
ATOM     25  C   UNL     1      18.577  30.877  15.135  1.00  0.00    -0.003 C 
ATOM     26  C   UNL     1      17.309  31.700  14.934  1.00  0.00     0.004 C 
ENDBRANCH  24  25
ENDBRANCH  23  24
ENDBRANCH  22  23
ENDBRANCH  21  22
ENDBRANCH  20  21
ENDBRANCH  19  20
ENDBRANCH  18  19
ENDBRANCH  17  18
ENDBRANCH  16  17
ENDBRANCH  15  16
ENDBRANCH   1  15
TORSDOF 22
ENDMDL
MODEL 8
REMARK VINA RESULT:    -1.152      2.608      4.426
REMARK INTER + INTRA:          -5.037
REMARK INTER:                  -3.337
REMARK INTRA:                  -1.700
REMARK UNBOUND:                -2.404
REMARK SMILES CCCCCCCCCCCCCCCCCCCCCCCC(=O)[O-]
REMARK SMILES IDX 13 1 14 2 15 3 16 4 17 5 18 6 19 7 20 8 21 9 22 10 23 11
REMARK SMILES IDX 24 12 25 13 26 14 12 15 11 16 10 17 9 18 8 19 7 20 6 21 5 22
REMARK SMILES IDX 4 23 3 24 2 25 1 26
REMARK H PARENT
REMARK Flexibility Score: inf
ROOT
ATOM      1  C   UNL     1      23.206  35.727  12.438  1.00  0.00     0.000 C 
ENDROOT
BRANCH   1   2
ATOM      2  C   UNL     1      23.768  34.306  12.657  1.00  0.00     0.000 C 
BRANCH   2   3
ATOM      3  C   UNL     1      22.971  33.483  13.685  1.00  0.00     0.000 C 
BRANCH   3   4
ATOM      4  C   UNL     1      23.573  32.090  13.928  1.00  0.00     0.000 C 
BRANCH   4   5
ATOM      5  C   UNL     1      23.724  31.766  15.423  1.00  0.00     0.000 C 
BRANCH   5   6
ATOM      6  C   UNL     1      24.777  32.650  16.115  1.00  0.00     0.000 C 
BRANCH   6   7
ATOM      7  C   UNL     1      26.085  32.745  15.314  1.00  0.00     0.000 C 
BRANCH   7   8
ATOM      8  C   UNL     1      26.628  31.368  14.905  1.00  0.00     0.000 C 
BRANCH   8   9
ATOM      9  C   UNL     1      27.067  31.365  13.435  1.00  0.00     0.000 C 
BRANCH   9  10
ATOM     10  C   UNL     1      25.874  31.123  12.504  1.00  0.00     0.006 C 
BRANCH  10  11
ATOM     11  C   UNL     1      25.983  31.976  11.236  1.00  0.00     0.053 C 
BRANCH  11  12
ATOM     12  C   UNL     1      24.708  31.922  10.458  1.00  0.00     0.041 C 
ATOM     13  O   UNL     1      24.458  32.801   9.590  1.00  0.00    -0.550 OA
ATOM     14  O   UNL     1      23.816  30.876  10.655  1.00  0.00    -0.550 OA
ENDBRANCH  11  12
ENDBRANCH  10  11
ENDBRANCH   9  10
ENDBRANCH   8   9
ENDBRANCH   7   8
ENDBRANCH   6   7
ENDBRANCH   5   6
ENDBRANCH   4   5
ENDBRANCH   3   4
ENDBRANCH   2   3
ENDBRANCH   1   2
BRANCH   1  15
ATOM     15  C   UNL     1      24.244  36.817  12.764  1.00  0.00     0.000 C 
BRANCH  15  16
ATOM     16  C   UNL     1      24.987  36.549  14.082  1.00  0.00     0.000 C 
BRANCH  16  17
ATOM     17  C   UNL     1      24.155  36.951  15.314  1.00  0.00     0.000 C 
BRANCH  17  18
ATOM     18  C   UNL     1      23.410  35.758  15.933  1.00  0.00    -0.000 C 
BRANCH  18  19
ATOM     19  C   UNL     1      21.907  36.029  16.122  1.00  0.00    -0.000 C 
BRANCH  19  20
ATOM     20  C   UNL     1      21.029  35.081  15.278  1.00  0.00    -0.000 C 
BRANCH  20  21
ATOM     21  C   UNL     1      20.479  33.877  16.067  1.00  0.00    -0.000 C 
BRANCH  21  22
ATOM     22  C   UNL     1      19.735  32.828  15.220  1.00  0.00    -0.000 C 
BRANCH  22  23
ATOM     23  C   UNL     1      19.598  31.442  15.878  1.00  0.00    -0.000 C 
BRANCH  23  24
ATOM     24  C   UNL     1      18.138  31.039  16.124  1.00  0.00    -0.000 C 
BRANCH  24  25
ATOM     25  C   UNL     1      17.204  31.716  15.114  1.00  0.00    -0.003 C 
ATOM     26  C   UNL     1      15.770  31.219  15.268  1.00  0.00     0.004 C 
ENDBRANCH  24  25
ENDBRANCH  23  24
ENDBRANCH  22  23
ENDBRANCH  21  22
ENDBRANCH  20  21
ENDBRANCH  19  20
ENDBRANCH  18  19
ENDBRANCH  17  18
ENDBRANCH  16  17
ENDBRANCH  15  16
ENDBRANCH   1  15
TORSDOF 22
ENDMDL
