MODEL 1
REMARK VINA RESULT:    -4.037      0.000      0.000
REMARK INTER + INTRA:          -9.174
REMARK INTER:                  -7.342
REMARK INTRA:                  -1.833
REMARK UNBOUND:                -1.833
REMARK SMILES CCCCCCCCCCCCCCCC(=O)[O-]
REMARK SMILES IDX 9 1 10 2 11 3 12 4 13 5 14 6 15 7 16 8 17 9 18 10 8 11 7 12
REMARK SMILES IDX 6 13 5 14 4 15 3 16 2 17 1 18
REMARK H PARENT
REMARK Flexibility Score: inf
ROOT
ATOM      1  C   UNL     1      -2.880  -0.873  -6.471  1.00  0.00     0.000 C 
ENDROOT
BRANCH   1   2
ATOM      2  C   UNL     1      -2.564  -1.733  -5.238  1.00  0.00     0.000 C 
BRANCH   2   3
ATOM      3  C   UNL     1      -3.853  -2.178  -4.535  1.00  0.00     0.000 C 
BRANCH   3   4
ATOM      4  C   UNL     1      -3.906  -3.706  -4.398  1.00  0.00     0.000 C 
BRANCH   4   5
ATOM      5  C   UNL     1      -2.517  -4.364  -4.470  1.00  0.00     0.000 C 
BRANCH   5   6
ATOM      6  C   UNL     1      -2.467  -5.839  -4.019  1.00  0.00     0.006 C 
BRANCH   6   7
ATOM      7  C   UNL     1      -1.055  -6.441  -3.965  1.00  0.00     0.053 C 
BRANCH   7   8
ATOM      8  C   UNL     1      -0.446  -6.320  -2.602  1.00  0.00     0.041 C 
ATOM      9  O   UNL     1      -0.966  -6.913  -1.621  1.00  0.00    -0.550 OA
ATOM     10  O   UNL     1       0.716  -5.581  -2.423  1.00  0.00    -0.550 OA
ENDBRANCH   7   8
ENDBRANCH   6   7
ENDBRANCH   5   6
ENDBRANCH   4   5
ENDBRANCH   3   4
ENDBRANCH   2   3
ENDBRANCH   1   2
BRANCH   1  11
ATOM     11  C   UNL     1      -4.381  -0.838  -6.799  1.00  0.00     0.000 C 
BRANCH  11  12
ATOM     12  C   UNL     1      -4.908   0.589  -7.010  1.00  0.00    -0.000 C 
BRANCH  12  13
ATOM     13  C   UNL     1      -4.958   1.358  -5.684  1.00  0.00    -0.000 C 
BRANCH  13  14
ATOM     14  C   UNL     1      -6.359   1.302  -5.066  1.00  0.00    -0.000 C 
BRANCH  14  15
ATOM     15  C   UNL     1      -6.322   0.650  -3.675  1.00  0.00    -0.000 C 
BRANCH  15  16
ATOM     16  C   UNL     1      -7.011  -0.723  -3.646  1.00  0.00    -0.000 C 
BRANCH  16  17
ATOM     17  C   UNL     1      -7.833  -1.000  -4.913  1.00  0.00    -0.003 C 
ATOM     18  C   UNL     1      -7.484  -2.361  -5.509  1.00  0.00     0.004 C 
ENDBRANCH  16  17
ENDBRANCH  15  16
ENDBRANCH  14  15
ENDBRANCH  13  14
ENDBRANCH  12  13
ENDBRANCH  11  12
ENDBRANCH   1  11
TORSDOF 14
ENDMDL
MODEL 2
REMARK VINA RESULT:    -3.960      1.082      1.877
REMARK INTER + INTRA:          -9.034
REMARK INTER:                  -7.105
REMARK INTRA:                  -1.929
REMARK UNBOUND:                -1.833
REMARK SMILES CCCCCCCCCCCCCCCC(=O)[O-]
REMARK SMILES IDX 9 1 10 2 11 3 12 4 13 5 14 6 15 7 16 8 17 9 18 10 8 11 7 12
REMARK SMILES IDX 6 13 5 14 4 15 3 16 2 17 1 18
REMARK H PARENT
REMARK Flexibility Score: inf
ROOT
ATOM      1  C   UNL     1      -2.810  -1.641  -4.916  1.00  0.00     0.000 C 
ENDROOT
BRANCH   1   2
ATOM      2  C   UNL     1      -3.304  -2.937  -4.256  1.00  0.00     0.000 C 
BRANCH   2   3
ATOM      3  C   UNL     1      -3.329  -4.092  -5.265  1.00  0.00     0.000 C 
BRANCH   3   4
ATOM      4  C   UNL     1      -2.590  -5.320  -4.715  1.00  0.00     0.000 C 
BRANCH   4   5
ATOM      5  C   UNL     1      -1.190  -5.503  -5.327  1.00  0.00     0.000 C 
BRANCH   5   6
ATOM      6  C   UNL     1      -0.071  -5.829  -4.316  1.00  0.00     0.006 C 
BRANCH   6   7
ATOM      7  C   UNL     1      -0.494  -5.719  -2.843  1.00  0.00     0.053 C 
BRANCH   7   8
ATOM      8  C   UNL     1      -0.146  -6.952  -2.066  1.00  0.00     0.041 C 
ATOM      9  O   UNL     1       0.708  -6.899  -1.142  1.00  0.00    -0.550 OA
ATOM     10  O   UNL     1      -0.791  -8.151  -2.340  1.00  0.00    -0.550 OA
ENDBRANCH   7   8
ENDBRANCH   6   7
ENDBRANCH   5   6
ENDBRANCH   4   5
ENDBRANCH   3   4
ENDBRANCH   2   3
ENDBRANCH   1   2
BRANCH   1  11
ATOM     11  C   UNL     1      -2.867  -1.701  -6.451  1.00  0.00     0.000 C 
BRANCH  11  12
ATOM     12  C   UNL     1      -3.465  -0.431  -7.072  1.00  0.00    -0.000 C 
BRANCH  12  13
ATOM     13  C   UNL     1      -3.501   0.715  -6.053  1.00  0.00    -0.000 C 
BRANCH  13  14
ATOM     14  C   UNL     1      -4.784   1.542  -6.198  1.00  0.00    -0.000 C 
BRANCH  14  15
ATOM     15  C   UNL     1      -5.994   0.784  -5.632  1.00  0.00    -0.000 C 
BRANCH  15  16
ATOM     16  C   UNL     1      -5.825   0.423  -4.148  1.00  0.00    -0.000 C 
BRANCH  16  17
ATOM     17  C   UNL     1      -6.392  -0.963  -3.808  1.00  0.00    -0.003 C 
ATOM     18  C   UNL     1      -6.739  -1.741  -5.074  1.00  0.00     0.004 C 
ENDBRANCH  16  17
ENDBRANCH  15  16
ENDBRANCH  14  15
ENDBRANCH  13  14
ENDBRANCH  12  13
ENDBRANCH  11  12
ENDBRANCH   1  11
TORSDOF 14
ENDMDL
MODEL 3
REMARK VINA RESULT:    -3.929      3.741      7.444
REMARK INTER + INTRA:          -8.978
REMARK INTER:                  -6.852
REMARK INTRA:                  -2.126
REMARK UNBOUND:                -1.833
REMARK SMILES CCCCCCCCCCCCCCCC(=O)[O-]
REMARK SMILES IDX 9 1 10 2 11 3 12 4 13 5 14 6 15 7 16 8 17 9 18 10 8 11 7 12
REMARK SMILES IDX 6 13 5 14 4 15 3 16 2 17 1 18
REMARK H PARENT
REMARK Flexibility Score: inf
ROOT
ATOM      1  C   UNL     1      -4.103  -4.163  -4.988  1.00  0.00     0.000 C 
ENDROOT
BRANCH   1   2
ATOM      2  C   UNL     1      -3.390  -3.122  -4.112  1.00  0.00     0.000 C 
BRANCH   2   3
ATOM      3  C   UNL     1      -2.388  -2.303  -4.937  1.00  0.00     0.000 C 
BRANCH   3   4
ATOM      4  C   UNL     1      -3.012  -1.847  -6.264  1.00  0.00     0.000 C 
BRANCH   4   5
ATOM      5  C   UNL     1      -3.549  -0.406  -6.211  1.00  0.00     0.000 C 
BRANCH   5   6
ATOM      6  C   UNL     1      -5.077  -0.283  -6.043  1.00  0.00     0.006 C 
BRANCH   6   7
ATOM      7  C   UNL     1      -5.549  -0.164  -4.586  1.00  0.00     0.053 C 
BRANCH   7   8
ATOM      8  C   UNL     1      -6.128   1.186  -4.294  1.00  0.00     0.041 C 
ATOM      9  O   UNL     1      -5.462   2.227  -4.534  1.00  0.00    -0.550 OA
ATOM     10  O   UNL     1      -7.417   1.295  -3.788  1.00  0.00    -0.550 OA
ENDBRANCH   7   8
ENDBRANCH   6   7
ENDBRANCH   5   6
ENDBRANCH   4   5
ENDBRANCH   3   4
ENDBRANCH   2   3
ENDBRANCH   1   2
BRANCH   1  11
ATOM     11  C   UNL     1      -3.874  -5.603  -4.501  1.00  0.00     0.000 C 
BRANCH  11  12
ATOM     12  C   UNL     1      -3.219  -6.492  -5.567  1.00  0.00    -0.000 C 
BRANCH  12  13
ATOM     13  C   UNL     1      -2.431  -5.649  -6.577  1.00  0.00    -0.000 C 
BRANCH  13  14
ATOM     14  C   UNL     1      -0.931  -5.957  -6.502  1.00  0.00    -0.000 C 
BRANCH  14  15
ATOM     15  C   UNL     1      -0.244  -5.090  -5.435  1.00  0.00    -0.000 C 
BRANCH  15  16
ATOM     16  C   UNL     1       0.238  -5.910  -4.228  1.00  0.00    -0.000 C 
BRANCH  16  17
ATOM     17  C   UNL     1      -0.610  -5.669  -2.971  1.00  0.00    -0.003 C 
ATOM     18  C   UNL     1      -0.974  -6.987  -2.292  1.00  0.00     0.004 C 
ENDBRANCH  16  17
ENDBRANCH  15  16
ENDBRANCH  14  15
ENDBRANCH  13  14
ENDBRANCH  12  13
ENDBRANCH  11  12
ENDBRANCH   1  11
TORSDOF 14
ENDMDL
MODEL 4
REMARK VINA RESULT:    -3.887      3.356      7.529
REMARK INTER + INTRA:          -8.901
REMARK INTER:                  -7.085
REMARK INTRA:                  -1.816
REMARK UNBOUND:                -1.833
REMARK SMILES CCCCCCCCCCCCCCCC(=O)[O-]
REMARK SMILES IDX 9 1 10 2 11 3 12 4 13 5 14 6 15 7 16 8 17 9 18 10 8 11 7 12
REMARK SMILES IDX 6 13 5 14 4 15 3 16 2 17 1 18
REMARK H PARENT
REMARK Flexibility Score: inf
ROOT
ATOM      1  C   UNL     1      -0.818  -4.287  -5.923  1.00  0.00     0.000 C 
ENDROOT
BRANCH   1   2
ATOM      2  C   UNL     1      -1.901  -3.526  -6.704  1.00  0.00     0.000 C 
BRANCH   2   3
ATOM      3  C   UNL     1      -2.481  -2.381  -5.863  1.00  0.00     0.000 C 
BRANCH   3   4
ATOM      4  C   UNL     1      -2.778  -2.846  -4.430  1.00  0.00     0.000 C 
BRANCH   4   5
ATOM      5  C   UNL     1      -4.281  -3.041  -4.161  1.00  0.00     0.000 C 
BRANCH   5   6
ATOM      6  C   UNL     1      -5.221  -2.290  -5.126  1.00  0.00     0.006 C 
BRANCH   6   7
ATOM      7  C   UNL     1      -6.107  -1.230  -4.455  1.00  0.00     0.053 C 
BRANCH   7   8
ATOM      8  C   UNL     1      -5.397   0.080  -4.302  1.00  0.00     0.041 C 
ATOM      9  O   UNL     1      -4.360   0.320  -4.975  1.00  0.00    -0.550 OA
ATOM     10  O   UNL     1      -5.901   1.048  -3.443  1.00  0.00    -0.550 OA
ENDBRANCH   7   8
ENDBRANCH   6   7
ENDBRANCH   5   6
ENDBRANCH   4   5
ENDBRANCH   3   4
ENDBRANCH   2   3
ENDBRANCH   1   2
BRANCH   1  11
ATOM     11  C   UNL     1      -0.873  -5.804  -6.162  1.00  0.00     0.000 C 
BRANCH  11  12
ATOM     12  C   UNL     1      -2.246  -6.407  -5.830  1.00  0.00    -0.000 C 
BRANCH  12  13
ATOM     13  C   UNL     1      -2.489  -6.418  -4.316  1.00  0.00    -0.000 C 
BRANCH  13  14
ATOM     14  C   UNL     1      -1.479  -7.323  -3.601  1.00  0.00    -0.000 C 
BRANCH  14  15
ATOM     15  C   UNL     1      -0.799  -6.580  -2.441  1.00  0.00    -0.000 C 
BRANCH  15  16
ATOM     16  C   UNL     1       0.556  -5.975  -2.839  1.00  0.00    -0.000 C 
BRANCH  16  17
ATOM     17  C   UNL     1       1.670  -7.027  -2.932  1.00  0.00    -0.003 C 
ATOM     18  C   UNL     1       2.116  -7.230  -4.377  1.00  0.00     0.004 C 
ENDBRANCH  16  17
ENDBRANCH  15  16
ENDBRANCH  14  15
ENDBRANCH  13  14
ENDBRANCH  12  13
ENDBRANCH  11  12
ENDBRANCH   1  11
TORSDOF 14
ENDMDL
MODEL 5
REMARK VINA RESULT:    -3.823     11.329     13.253
REMARK INTER + INTRA:          -8.785
REMARK INTER:                  -7.320
REMARK INTRA:                  -1.465
REMARK UNBOUND:                -1.833
REMARK SMILES CCCCCCCCCCCCCCCC(=O)[O-]
REMARK SMILES IDX 9 1 10 2 11 3 12 4 13 5 14 6 15 7 16 8 17 9 18 10 8 11 7 12
REMARK SMILES IDX 6 13 5 14 4 15 3 16 2 17 1 18
REMARK H PARENT
REMARK Flexibility Score: inf
ROOT
ATOM      1  C   UNL     1       2.401   8.107  -4.996  1.00  0.00     0.000 C 
ENDROOT
BRANCH   1   2
ATOM      2  C   UNL     1       2.327   7.418  -6.367  1.00  0.00     0.000 C 
BRANCH   2   3
ATOM      3  C   UNL     1       3.615   6.636  -6.659  1.00  0.00     0.000 C 
BRANCH   3   4
ATOM      4  C   UNL     1       4.822   7.286  -5.967  1.00  0.00     0.000 C 
BRANCH   4   5
ATOM      5  C   UNL     1       5.883   6.262  -5.526  1.00  0.00     0.000 C 
BRANCH   5   6
ATOM      6  C   UNL     1       5.507   4.786  -5.765  1.00  0.00     0.006 C 
BRANCH   6   7
ATOM      7  C   UNL     1       6.646   3.788  -5.503  1.00  0.00     0.053 C 
BRANCH   7   8
ATOM      8  C   UNL     1       6.427   3.005  -4.245  1.00  0.00     0.041 C 
ATOM      9  O   UNL     1       6.816   3.462  -3.138  1.00  0.00    -0.550 OA
ATOM     10  O   UNL     1       5.763   1.786  -4.291  1.00  0.00    -0.550 OA
ENDBRANCH   7   8
ENDBRANCH   6   7
ENDBRANCH   5   6
ENDBRANCH   4   5
ENDBRANCH   3   4
ENDBRANCH   2   3
ENDBRANCH   1   2
BRANCH   1  11
ATOM     11  C   UNL     1       1.019   8.522  -4.467  1.00  0.00     0.000 C 
BRANCH  11  12
ATOM     12  C   UNL     1       1.029   8.831  -2.963  1.00  0.00    -0.000 C 
BRANCH  12  13
ATOM     13  C   UNL     1       2.444   8.710  -2.386  1.00  0.00    -0.000 C 
BRANCH  13  14
ATOM     14  C   UNL     1       2.875  10.014  -1.704  1.00  0.00    -0.000 C 
BRANCH  14  15
ATOM     15  C   UNL     1       4.404  10.165  -1.723  1.00  0.00    -0.000 C 
BRANCH  15  16
ATOM     16  C   UNL     1       5.034   9.646  -3.025  1.00  0.00    -0.000 C 
BRANCH  16  17
ATOM     17  C   UNL     1       6.568   9.695  -3.001  1.00  0.00    -0.003 C 
ATOM     18  C   UNL     1       7.139   9.754  -4.416  1.00  0.00     0.004 C 
ENDBRANCH  16  17
ENDBRANCH  15  16
ENDBRANCH  14  15
ENDBRANCH  13  14
ENDBRANCH  12  13
ENDBRANCH  11  12
ENDBRANCH   1  11
TORSDOF 14
ENDMDL
MODEL 6
REMARK VINA RESULT:    -3.821      3.187      8.022
REMARK INTER + INTRA:          -8.782
REMARK INTER:                  -6.999
REMARK INTRA:                  -1.783
REMARK UNBOUND:                -1.833
REMARK SMILES CCCCCCCCCCCCCCCC(=O)[O-]
REMARK SMILES IDX 9 1 10 2 11 3 12 4 13 5 14 6 15 7 16 8 17 9 18 10 8 11 7 12
REMARK SMILES IDX 6 13 5 14 4 15 3 16 2 17 1 18
REMARK H PARENT
REMARK Flexibility Score: inf
ROOT
ATOM      1  C   UNL     1      -2.354  -6.780  -5.411  1.00  0.00     0.000 C 
ENDROOT
BRANCH   1   2
ATOM      2  C   UNL     1      -2.896  -6.018  -4.191  1.00  0.00     0.000 C 
BRANCH   2   3
ATOM      3  C   UNL     1      -2.395  -4.568  -4.184  1.00  0.00     0.000 C 
BRANCH   3   4
ATOM      4  C   UNL     1      -1.761  -4.197  -5.532  1.00  0.00     0.000 C 
BRANCH   4   5
ATOM      5  C   UNL     1      -2.274  -2.856  -6.088  1.00  0.00     0.000 C 
BRANCH   5   6
ATOM      6  C   UNL     1      -2.641  -1.804  -5.021  1.00  0.00     0.006 C 
BRANCH   6   7
ATOM      7  C   UNL     1      -3.668  -0.760  -5.485  1.00  0.00     0.053 C 
BRANCH   7   8
ATOM      8  C   UNL     1      -4.702  -0.486  -4.437  1.00  0.00     0.041 C 
ATOM      9  O   UNL     1      -5.119  -1.418  -3.699  1.00  0.00    -0.550 OA
ATOM     10  O   UNL     1      -5.181   0.804  -4.252  1.00  0.00    -0.550 OA
ENDBRANCH   7   8
ENDBRANCH   6   7
ENDBRANCH   5   6
ENDBRANCH   4   5
ENDBRANCH   3   4
ENDBRANCH   2   3
ENDBRANCH   1   2
BRANCH   1  11
ATOM     11  C   UNL     1      -1.894  -8.204  -5.061  1.00  0.00     0.000 C 
BRANCH  11  12
ATOM     12  C   UNL     1      -0.373  -8.380  -5.174  1.00  0.00    -0.000 C 
BRANCH  12  13
ATOM     13  C   UNL     1       0.283  -7.126  -5.765  1.00  0.00    -0.000 C 
BRANCH  13  14
ATOM     14  C   UNL     1       1.363  -6.574  -4.827  1.00  0.00    -0.000 C 
BRANCH  14  15
ATOM     15  C   UNL     1       0.805  -6.360  -3.412  1.00  0.00    -0.000 C 
BRANCH  15  16
ATOM     16  C   UNL     1       1.751  -6.879  -2.318  1.00  0.00    -0.000 C 
BRANCH  16  17
ATOM     17  C   UNL     1       1.007  -7.604  -1.187  1.00  0.00    -0.003 C 
ATOM     18  C   UNL     1      -0.388  -8.035  -1.634  1.00  0.00     0.004 C 
ENDBRANCH  16  17
ENDBRANCH  15  16
ENDBRANCH  14  15
ENDBRANCH  13  14
ENDBRANCH  12  13
ENDBRANCH  11  12
ENDBRANCH   1  11
TORSDOF 14
ENDMDL
MODEL 7
REMARK VINA RESULT:    -3.793      3.341      7.050
REMARK INTER + INTRA:          -8.730
REMARK INTER:                  -6.792
REMARK INTRA:                  -1.938
REMARK UNBOUND:                -1.833
REMARK SMILES CCCCCCCCCCCCCCCC(=O)[O-]
REMARK SMILES IDX 9 1 10 2 11 3 12 4 13 5 14 6 15 7 16 8 17 9 18 10 8 11 7 12
REMARK SMILES IDX 6 13 5 14 4 15 3 16 2 17 1 18
REMARK H PARENT
REMARK Flexibility Score: inf
ROOT
ATOM      1  C   UNL     1      -3.862  -5.143  -4.542  1.00  0.00     0.000 C 
ENDROOT
BRANCH   1   2
ATOM      2  C   UNL     1      -5.323  -5.349  -4.971  1.00  0.00     0.000 C 
BRANCH   2   3
ATOM      3  C   UNL     1      -5.647  -4.528  -6.226  1.00  0.00     0.000 C 
BRANCH   3   4
ATOM      4  C   UNL     1      -7.007  -3.829  -6.090  1.00  0.00     0.000 C 
BRANCH   4   5
ATOM      5  C   UNL     1      -6.912  -2.458  -5.396  1.00  0.00     0.000 C 
BRANCH   5   6
ATOM      6  C   UNL     1      -5.871  -1.492  -5.998  1.00  0.00     0.006 C 
BRANCH   6   7
ATOM      7  C   UNL     1      -6.168  -0.005  -5.754  1.00  0.00     0.053 C 
BRANCH   7   8
ATOM      8  C   UNL     1      -5.267   0.584  -4.713  1.00  0.00     0.041 C 
ATOM      9  O   UNL     1      -4.502  -0.159  -4.043  1.00  0.00    -0.550 OA
ATOM     10  O   UNL     1      -5.246   1.957  -4.507  1.00  0.00    -0.550 OA
ENDBRANCH   7   8
ENDBRANCH   6   7
ENDBRANCH   5   6
ENDBRANCH   4   5
ENDBRANCH   3   4
ENDBRANCH   2   3
ENDBRANCH   1   2
BRANCH   1  11
ATOM     11  C   UNL     1      -3.535  -3.670  -4.247  1.00  0.00     0.000 C 
BRANCH  11  12
ATOM     12  C   UNL     1      -2.403  -3.126  -5.129  1.00  0.00    -0.000 C 
BRANCH  12  13
ATOM     13  C   UNL     1      -1.974  -4.163  -6.174  1.00  0.00    -0.000 C 
BRANCH  13  14
ATOM     14  C   UNL     1      -0.466  -4.430  -6.100  1.00  0.00    -0.000 C 
BRANCH  14  15
ATOM     15  C   UNL     1      -0.183  -5.825  -5.522  1.00  0.00    -0.000 C 
BRANCH  15  16
ATOM     16  C   UNL     1       0.486  -5.768  -4.139  1.00  0.00    -0.000 C 
BRANCH  16  17
ATOM     17  C   UNL     1      -0.524  -5.871  -2.988  1.00  0.00    -0.003 C 
ATOM     18  C   UNL     1      -1.233  -7.223  -2.997  1.00  0.00     0.004 C 
ENDBRANCH  16  17
ENDBRANCH  15  16
ENDBRANCH  14  15
ENDBRANCH  13  14
ENDBRANCH  12  13
ENDBRANCH  11  12
ENDBRANCH   1  11
TORSDOF 14
ENDMDL
MODEL 8
REMARK VINA RESULT:    -3.783      1.319      2.343
REMARK INTER + INTRA:          -8.712
REMARK INTER:                  -7.216
REMARK INTRA:                  -1.495
REMARK UNBOUND:                -1.833
REMARK SMILES CCCCCCCCCCCCCCCC(=O)[O-]
REMARK SMILES IDX 9 1 10 2 11 3 12 4 13 5 14 6 15 7 16 8 17 9 18 10 8 11 7 12
REMARK SMILES IDX 6 13 5 14 4 15 3 16 2 17 1 18
REMARK H PARENT
REMARK Flexibility Score: inf
ROOT
ATOM      1  C   UNL     1      -4.882  -1.975  -4.274  1.00  0.00     0.000 C 
ENDROOT
BRANCH   1   2
ATOM      2  C   UNL     1      -5.473  -3.030  -5.220  1.00  0.00     0.000 C 
BRANCH   2   3
ATOM      3  C   UNL     1      -4.823  -4.400  -4.990  1.00  0.00     0.000 C 
BRANCH   3   4
ATOM      4  C   UNL     1      -3.835  -4.737  -6.115  1.00  0.00     0.000 C 
BRANCH   4   5
ATOM      5  C   UNL     1      -2.364  -4.631  -5.675  1.00  0.00     0.000 C 
BRANCH   5   6
ATOM      6  C   UNL     1      -2.126  -4.747  -4.156  1.00  0.00     0.006 C 
BRANCH   6   7
ATOM      7  C   UNL     1      -1.796  -6.166  -3.669  1.00  0.00     0.053 C 
BRANCH   7   8
ATOM      8  C   UNL     1      -0.555  -6.198  -2.833  1.00  0.00     0.041 C 
ATOM      9  O   UNL     1       0.537  -5.782  -3.302  1.00  0.00    -0.550 OA
ATOM     10  O   UNL     1      -0.611  -6.655  -1.522  1.00  0.00    -0.550 OA
ENDBRANCH   7   8
ENDBRANCH   6   7
ENDBRANCH   5   6
ENDBRANCH   4   5
ENDBRANCH   3   4
ENDBRANCH   2   3
ENDBRANCH   1   2
BRANCH   1  11
ATOM     11  C   UNL     1      -3.692  -1.225  -4.893  1.00  0.00     0.000 C 
BRANCH  11  12
ATOM     12  C   UNL     1      -4.052  -0.530  -6.215  1.00  0.00    -0.000 C 
BRANCH  12  13
ATOM     13  C   UNL     1      -3.990   0.995  -6.068  1.00  0.00    -0.000 C 
BRANCH  13  14
ATOM     14  C   UNL     1      -5.394   1.609  -6.084  1.00  0.00    -0.000 C 
BRANCH  14  15
ATOM     15  C   UNL     1      -5.822   2.040  -4.673  1.00  0.00    -0.000 C 
BRANCH  15  16
ATOM     16  C   UNL     1      -6.864   1.094  -4.056  1.00  0.00    -0.000 C 
BRANCH  16  17
ATOM     17  C   UNL     1      -8.305   1.496  -4.398  1.00  0.00    -0.003 C 
ATOM     18  C   UNL     1      -8.483   3.011  -4.337  1.00  0.00     0.004 C 
ENDBRANCH  16  17
ENDBRANCH  15  16
ENDBRANCH  14  15
ENDBRANCH  13  14
ENDBRANCH  12  13
ENDBRANCH  11  12
ENDBRANCH   1  11
TORSDOF 14
ENDMDL
MODEL 9
REMARK VINA RESULT:    -3.779      3.662      9.293
REMARK INTER + INTRA:          -8.704
REMARK INTER:                  -7.547
REMARK INTRA:                  -1.158
REMARK UNBOUND:                -1.833
REMARK SMILES CCCCCCCCCCCCCCCC(=O)[O-]
REMARK SMILES IDX 9 1 10 2 11 3 12 4 13 5 14 6 15 7 16 8 17 9 18 10 8 11 7 12
REMARK SMILES IDX 6 13 5 14 4 15 3 16 2 17 1 18
REMARK H PARENT
REMARK Flexibility Score: inf
ROOT
ATOM      1  C   UNL     1       0.169  -6.033  -2.940  1.00  0.00     0.000 C 
ENDROOT
BRANCH   1   2
ATOM      2  C   UNL     1      -0.381  -5.678  -4.330  1.00  0.00     0.000 C 
BRANCH   2   3
ATOM      3  C   UNL     1      -1.739  -4.973  -4.219  1.00  0.00     0.000 C 
BRANCH   3   4
ATOM      4  C   UNL     1      -2.596  -5.229  -5.466  1.00  0.00     0.000 C 
BRANCH   4   5
ATOM      5  C   UNL     1      -2.583  -4.051  -6.457  1.00  0.00     0.000 C 
BRANCH   5   6
ATOM      6  C   UNL     1      -2.371  -2.663  -5.819  1.00  0.00     0.006 C 
BRANCH   6   7
ATOM      7  C   UNL     1      -3.619  -1.766  -5.818  1.00  0.00     0.053 C 
BRANCH   7   8
ATOM      8  C   UNL     1      -4.135  -1.526  -4.433  1.00  0.00     0.041 C 
ATOM      9  O   UNL     1      -4.355  -2.497  -3.661  1.00  0.00    -0.550 OA
ATOM     10  O   UNL     1      -4.342  -0.229  -3.983  1.00  0.00    -0.550 OA
ENDBRANCH   7   8
ENDBRANCH   6   7
ENDBRANCH   5   6
ENDBRANCH   4   5
ENDBRANCH   3   4
ENDBRANCH   2   3
ENDBRANCH   1   2
BRANCH   1  11
ATOM     11  C   UNL     1      -0.786  -6.932  -2.138  1.00  0.00     0.000 C 
BRANCH  11  12
ATOM     12  C   UNL     1      -0.416  -8.419  -2.229  1.00  0.00    -0.000 C 
BRANCH  12  13
ATOM     13  C   UNL     1       1.046  -8.648  -1.826  1.00  0.00    -0.000 C 
BRANCH  13  14
ATOM     14  C   UNL     1       1.199  -8.684  -0.301  1.00  0.00    -0.000 C 
BRANCH  14  15
ATOM     15  C   UNL     1       2.095  -7.537   0.190  1.00  0.00    -0.000 C 
BRANCH  15  16
ATOM     16  C   UNL     1       3.309  -7.303  -0.722  1.00  0.00    -0.000 C 
BRANCH  16  17
ATOM     17  C   UNL     1       4.607  -7.881  -0.140  1.00  0.00    -0.003 C 
ATOM     18  C   UNL     1       5.671  -8.043  -1.222  1.00  0.00     0.004 C 
ENDBRANCH  16  17
ENDBRANCH  15  16
ENDBRANCH  14  15
ENDBRANCH  13  14
ENDBRANCH  12  13
ENDBRANCH  11  12
ENDBRANCH   1  11
TORSDOF 14
ENDMDL
