MODEL 1
REMARK VINA RESULT:    -3.304      0.000      0.000
REMARK INTER + INTRA:          -8.695
REMARK INTER:                  -6.008
REMARK INTRA:                  -2.687
REMARK UNBOUND:                -2.687
REMARK SMILES CCCCCCCCCCCCCCCC(=O)[O-]
REMARK SMILES IDX 9 1 10 2 11 3 12 4 13 5 14 6 15 7 16 8 17 9 18 10 8 11 7 12
REMARK SMILES IDX 6 13 5 14 4 15 3 16 2 17 1 18
REMARK H PARENT
REMARK Flexibility Score: inf
ROOT
ATOM      1  C   UNL     1      -5.617  -1.281  34.304  1.00  0.00     0.000 C 
ENDROOT
BRANCH   1   2
ATOM      2  C   UNL     1      -4.792   0.013  34.237  1.00  0.00     0.000 C 
BRANCH   2   3
ATOM      3  C   UNL     1      -3.305  -0.216  34.553  1.00  0.00     0.000 C 
BRANCH   3   4
ATOM      4  C   UNL     1      -2.938   0.192  35.991  1.00  0.00     0.000 C 
BRANCH   4   5
ATOM      5  C   UNL     1      -2.044  -0.845  36.690  1.00  0.00     0.000 C 
BRANCH   5   6
ATOM      6  C   UNL     1      -1.413  -1.845  35.710  1.00  0.00     0.006 C 
BRANCH   6   7
ATOM      7  C   UNL     1      -0.366  -2.715  36.412  1.00  0.00     0.053 C 
BRANCH   7   8
ATOM      8  C   UNL     1       1.008  -2.377  35.927  1.00  0.00     0.041 C 
ATOM      9  O   UNL     1       1.714  -3.253  35.363  1.00  0.00    -0.550 OA
ATOM     10  O   UNL     1       1.529  -1.107  36.143  1.00  0.00    -0.550 OA
ENDBRANCH   7   8
ENDBRANCH   6   7
ENDBRANCH   5   6
ENDBRANCH   4   5
ENDBRANCH   3   4
ENDBRANCH   2   3
ENDBRANCH   1   2
BRANCH   1  11
ATOM     11  C   UNL     1      -4.710  -2.515  34.210  1.00  0.00     0.000 C 
BRANCH  11  12
ATOM     12  C   UNL     1      -4.836  -3.388  35.463  1.00  0.00    -0.000 C 
BRANCH  12  13
ATOM     13  C   UNL     1      -5.720  -2.712  36.519  1.00  0.00    -0.000 C 
BRANCH  13  14
ATOM     14  C   UNL     1      -4.930  -2.439  37.805  1.00  0.00    -0.000 C 
BRANCH  14  15
ATOM     15  C   UNL     1      -5.369  -1.115  38.449  1.00  0.00    -0.000 C 
BRANCH  15  16
ATOM     16  C   UNL     1      -6.673  -0.560  37.848  1.00  0.00    -0.000 C 
BRANCH  16  17
ATOM     17  C   UNL     1      -6.591   0.895  37.351  1.00  0.00    -0.003 C 
ATOM     18  C   UNL     1      -5.580   1.737  38.129  1.00  0.00     0.004 C 
ENDBRANCH  16  17
ENDBRANCH  15  16
ENDBRANCH  14  15
ENDBRANCH  13  14
ENDBRANCH  12  13
ENDBRANCH  11  12
ENDBRANCH   1  11
TORSDOF 14
ENDMDL
MODEL 2
REMARK VINA RESULT:    -3.281      3.582      5.621
REMARK INTER + INTRA:          -8.654
REMARK INTER:                  -6.304
REMARK INTRA:                  -2.350
REMARK UNBOUND:                -2.687
REMARK SMILES CCCCCCCCCCCCCCCC(=O)[O-]
REMARK SMILES IDX 9 1 10 2 11 3 12 4 13 5 14 6 15 7 16 8 17 9 18 10 8 11 7 12
REMARK SMILES IDX 6 13 5 14 4 15 3 16 2 17 1 18
REMARK H PARENT
REMARK Flexibility Score: inf
ROOT
ATOM      1  C   UNL     1      -5.294  -2.507  37.132  1.00  0.00     0.000 C 
ENDROOT
BRANCH   1   2
ATOM      2  C   UNL     1      -6.401  -1.450  37.256  1.00  0.00     0.000 C 
BRANCH   2   3
ATOM      3  C   UNL     1      -5.844  -0.028  37.436  1.00  0.00     0.000 C 
BRANCH   3   4
ATOM      4  C   UNL     1      -6.040   0.845  36.184  1.00  0.00     0.000 C 
BRANCH   4   5
ATOM      5  C   UNL     1      -4.939   0.627  35.133  1.00  0.00     0.000 C 
BRANCH   5   6
ATOM      6  C   UNL     1      -5.456  -0.067  33.863  1.00  0.00     0.006 C 
BRANCH   6   7
ATOM      7  C   UNL     1      -6.871   0.406  33.517  1.00  0.00     0.053 C 
BRANCH   7   8
ATOM      8  C   UNL     1      -6.844   1.313  32.328  1.00  0.00     0.041 C 
ATOM      9  O   UNL     1      -5.750   1.600  31.774  1.00  0.00    -0.550 OA
ATOM     10  O   UNL     1      -8.022   1.884  31.862  1.00  0.00    -0.550 OA
ENDBRANCH   7   8
ENDBRANCH   6   7
ENDBRANCH   5   6
ENDBRANCH   4   5
ENDBRANCH   3   4
ENDBRANCH   2   3
ENDBRANCH   1   2
BRANCH   1  11
ATOM     11  C   UNL     1      -5.381  -3.237  35.786  1.00  0.00     0.000 C 
BRANCH  11  12
ATOM     12  C   UNL     1      -4.017  -3.808  35.380  1.00  0.00    -0.000 C 
BRANCH  12  13
ATOM     13  C   UNL     1      -3.428  -3.036  34.193  1.00  0.00    -0.000 C 
BRANCH  13  14
ATOM     14  C   UNL     1      -2.361  -2.038  34.659  1.00  0.00    -0.000 C 
BRANCH  14  15
ATOM     15  C   UNL     1      -1.615  -2.567  35.893  1.00  0.00    -0.000 C 
BRANCH  15  16
ATOM     16  C   UNL     1      -1.089  -1.441  36.802  1.00  0.00    -0.000 C 
BRANCH  16  17
ATOM     17  C   UNL     1      -2.174  -0.688  37.593  1.00  0.00    -0.003 C 
ATOM     18  C   UNL     1      -1.762   0.736  37.968  1.00  0.00     0.004 C 
ENDBRANCH  16  17
ENDBRANCH  15  16
ENDBRANCH  14  15
ENDBRANCH  13  14
ENDBRANCH  12  13
ENDBRANCH  11  12
ENDBRANCH   1  11
TORSDOF 14
ENDMDL
MODEL 3
REMARK VINA RESULT:    -3.200      3.408      5.511
REMARK INTER + INTRA:          -8.505
REMARK INTER:                  -5.876
REMARK INTRA:                  -2.629
REMARK UNBOUND:                -2.687
REMARK SMILES CCCCCCCCCCCCCCCC(=O)[O-]
REMARK SMILES IDX 9 1 10 2 11 3 12 4 13 5 14 6 15 7 16 8 17 9 18 10 8 11 7 12
REMARK SMILES IDX 6 13 5 14 4 15 3 16 2 17 1 18
REMARK H PARENT
REMARK Flexibility Score: inf
ROOT
ATOM      1  C   UNL     1      -5.828  -2.537  36.750  1.00  0.00     0.000 C 
ENDROOT
BRANCH   1   2
ATOM      2  C   UNL     1      -4.608  -2.171  37.609  1.00  0.00     0.000 C 
BRANCH   2   3
ATOM      3  C   UNL     1      -4.459  -0.654  37.810  1.00  0.00     0.000 C 
BRANCH   3   4
ATOM      4  C   UNL     1      -5.039   0.155  36.637  1.00  0.00     0.000 C 
BRANCH   4   5
ATOM      5  C   UNL     1      -3.950   0.724  35.714  1.00  0.00     0.000 C 
BRANCH   5   6
ATOM      6  C   UNL     1      -4.416   0.863  34.257  1.00  0.00     0.006 C 
BRANCH   6   7
ATOM      7  C   UNL     1      -5.554  -0.116  33.949  1.00  0.00     0.053 C 
BRANCH   7   8
ATOM      8  C   UNL     1      -6.624   0.558  33.151  1.00  0.00     0.041 C 
ATOM      9  O   UNL     1      -7.821   0.521  33.537  1.00  0.00    -0.550 OA
ATOM     10  O   UNL     1      -6.306   1.184  31.951  1.00  0.00    -0.550 OA
ENDBRANCH   7   8
ENDBRANCH   6   7
ENDBRANCH   5   6
ENDBRANCH   4   5
ENDBRANCH   3   4
ENDBRANCH   2   3
ENDBRANCH   1   2
BRANCH   1  11
ATOM     11  C   UNL     1      -5.419  -3.417  35.563  1.00  0.00     0.000 C 
BRANCH  11  12
ATOM     12  C   UNL     1      -3.897  -3.588  35.503  1.00  0.00    -0.000 C 
BRANCH  12  13
ATOM     13  C   UNL     1      -3.314  -2.906  34.258  1.00  0.00    -0.000 C 
BRANCH  13  14
ATOM     14  C   UNL     1      -2.077  -2.073  34.615  1.00  0.00    -0.000 C 
BRANCH  14  15
ATOM     15  C   UNL     1      -1.332  -2.680  35.812  1.00  0.00    -0.000 C 
BRANCH  15  16
ATOM     16  C   UNL     1      -0.251  -1.744  36.382  1.00  0.00    -0.000 C 
BRANCH  16  17
ATOM     17  C   UNL     1      -0.775  -0.398  36.915  1.00  0.00    -0.003 C 
ATOM     18  C   UNL     1      -0.187   0.807  36.181  1.00  0.00     0.004 C 
ENDBRANCH  16  17
ENDBRANCH  15  16
ENDBRANCH  14  15
ENDBRANCH  13  14
ENDBRANCH  12  13
ENDBRANCH  11  12
ENDBRANCH   1  11
TORSDOF 14
ENDMDL
MODEL 4
REMARK VINA RESULT:    -3.163      1.424      3.454
REMARK INTER + INTRA:          -8.439
REMARK INTER:                  -5.716
REMARK INTRA:                  -2.722
REMARK UNBOUND:                -2.687
REMARK SMILES CCCCCCCCCCCCCCCC(=O)[O-]
REMARK SMILES IDX 9 1 10 2 11 3 12 4 13 5 14 6 15 7 16 8 17 9 18 10 8 11 7 12
REMARK SMILES IDX 6 13 5 14 4 15 3 16 2 17 1 18
REMARK H PARENT
REMARK Flexibility Score: inf
ROOT
ATOM      1  C   UNL     1      -4.821  -2.493  37.679  1.00  0.00     0.000 C 
ENDROOT
BRANCH   1   2
ATOM      2  C   UNL     1      -5.820  -2.454  36.512  1.00  0.00     0.000 C 
BRANCH   2   3
ATOM      3  C   UNL     1      -5.212  -2.966  35.196  1.00  0.00     0.000 C 
BRANCH   3   4
ATOM      4  C   UNL     1      -3.722  -3.325  35.335  1.00  0.00     0.000 C 
BRANCH   4   5
ATOM      5  C   UNL     1      -2.832  -2.550  34.351  1.00  0.00     0.000 C 
BRANCH   5   6
ATOM      6  C   UNL     1      -2.117  -1.358  35.005  1.00  0.00     0.006 C 
BRANCH   6   7
ATOM      7  C   UNL     1      -1.553  -1.741  36.376  1.00  0.00     0.053 C 
BRANCH   7   8
ATOM      8  C   UNL     1      -0.277  -2.506  36.223  1.00  0.00     0.041 C 
ATOM      9  O   UNL     1      -0.117  -3.599  36.827  1.00  0.00    -0.550 OA
ATOM     10  O   UNL     1       0.757  -1.986  35.454  1.00  0.00    -0.550 OA
ENDBRANCH   7   8
ENDBRANCH   6   7
ENDBRANCH   5   6
ENDBRANCH   4   5
ENDBRANCH   3   4
ENDBRANCH   2   3
ENDBRANCH   1   2
BRANCH   1  11
ATOM     11  C   UNL     1      -5.054  -1.321  38.639  1.00  0.00     0.000 C 
BRANCH  11  12
ATOM     12  C   UNL     1      -5.380  -0.035  37.870  1.00  0.00    -0.000 C 
BRANCH  12  13
ATOM     13  C   UNL     1      -4.139   0.856  37.736  1.00  0.00    -0.000 C 
BRANCH  13  14
ATOM     14  C   UNL     1      -3.997   1.391  36.305  1.00  0.00    -0.000 C 
BRANCH  14  15
ATOM     15  C   UNL     1      -5.314   1.241  35.529  1.00  0.00    -0.000 C 
BRANCH  15  16
ATOM     16  C   UNL     1      -5.115   0.651  34.121  1.00  0.00    -0.000 C 
BRANCH  16  17
ATOM     17  C   UNL     1      -6.388   0.078  33.472  1.00  0.00    -0.003 C 
ATOM     18  C   UNL     1      -7.671   0.522  34.176  1.00  0.00     0.004 C 
ENDBRANCH  16  17
ENDBRANCH  15  16
ENDBRANCH  14  15
ENDBRANCH  13  14
ENDBRANCH  12  13
ENDBRANCH  11  12
ENDBRANCH   1  11
TORSDOF 14
ENDMDL
MODEL 5
REMARK VINA RESULT:    -3.140      1.003      2.632
REMARK INTER + INTRA:          -8.397
REMARK INTER:                  -5.563
REMARK INTRA:                  -2.834
REMARK UNBOUND:                -2.687
REMARK SMILES CCCCCCCCCCCCCCCC(=O)[O-]
REMARK SMILES IDX 9 1 10 2 11 3 12 4 13 5 14 6 15 7 16 8 17 9 18 10 8 11 7 12
REMARK SMILES IDX 6 13 5 14 4 15 3 16 2 17 1 18
REMARK H PARENT
REMARK Flexibility Score: inf
ROOT
ATOM      1  C   UNL     1      -5.719  -2.663  36.514  1.00  0.00     0.000 C 
ENDROOT
BRANCH   1   2
ATOM      2  C   UNL     1      -4.928  -2.342  37.791  1.00  0.00     0.000 C 
BRANCH   2   3
ATOM      3  C   UNL     1      -4.338  -0.922  37.780  1.00  0.00     0.000 C 
BRANCH   3   4
ATOM      4  C   UNL     1      -2.815  -0.919  37.564  1.00  0.00     0.000 C 
BRANCH   4   5
ATOM      5  C   UNL     1      -2.388  -0.046  36.374  1.00  0.00     0.000 C 
BRANCH   5   6
ATOM      6  C   UNL     1      -1.544  -0.813  35.344  1.00  0.00     0.006 C 
BRANCH   6   7
ATOM      7  C   UNL     1      -1.050  -2.143  35.922  1.00  0.00     0.053 C 
BRANCH   7   8
ATOM      8  C   UNL     1       0.438  -2.127  36.075  1.00  0.00     0.041 C 
ATOM      9  O   UNL     1       1.031  -1.061  36.388  1.00  0.00    -0.550 OA
ATOM     10  O   UNL     1       1.176  -3.276  35.821  1.00  0.00    -0.550 OA
ENDBRANCH   7   8
ENDBRANCH   6   7
ENDBRANCH   5   6
ENDBRANCH   4   5
ENDBRANCH   3   4
ENDBRANCH   2   3
ENDBRANCH   1   2
BRANCH   1  11
ATOM     11  C   UNL     1      -4.829  -3.363  35.480  1.00  0.00     0.000 C 
BRANCH  11  12
ATOM     12  C   UNL     1      -4.569  -2.455  34.273  1.00  0.00    -0.000 C 
BRANCH  12  13
ATOM     13  C   UNL     1      -5.651  -1.374  34.153  1.00  0.00    -0.000 C 
BRANCH  13  14
ATOM     14  C   UNL     1      -5.025   0.011  33.947  1.00  0.00    -0.000 C 
BRANCH  14  15
ATOM     15  C   UNL     1      -5.631   1.037  34.916  1.00  0.00    -0.000 C 
BRANCH  15  16
ATOM     16  C   UNL     1      -7.074   0.694  35.326  1.00  0.00    -0.000 C 
BRANCH  16  17
ATOM     17  C   UNL     1      -7.445   1.072  36.772  1.00  0.00    -0.003 C 
ATOM     18  C   UNL     1      -8.060  -0.087  37.555  1.00  0.00     0.004 C 
ENDBRANCH  16  17
ENDBRANCH  15  16
ENDBRANCH  14  15
ENDBRANCH  13  14
ENDBRANCH  12  13
ENDBRANCH  11  12
ENDBRANCH   1  11
TORSDOF 14
ENDMDL
MODEL 6
REMARK VINA RESULT:    -3.135      3.268      5.857
REMARK INTER + INTRA:          -8.387
REMARK INTER:                  -5.844
REMARK INTRA:                  -2.543
REMARK UNBOUND:                -2.687
REMARK SMILES CCCCCCCCCCCCCCCC(=O)[O-]
REMARK SMILES IDX 9 1 10 2 11 3 12 4 13 5 14 6 15 7 16 8 17 9 18 10 8 11 7 12
REMARK SMILES IDX 6 13 5 14 4 15 3 16 2 17 1 18
REMARK H PARENT
REMARK Flexibility Score: inf
ROOT
ATOM      1  C   UNL     1      -5.293  -3.020  36.128  1.00  0.00     0.000 C 
ENDROOT
BRANCH   1   2
ATOM      2  C   UNL     1      -4.832  -2.512  37.503  1.00  0.00     0.000 C 
BRANCH   2   3
ATOM      3  C   UNL     1      -5.618  -1.276  37.971  1.00  0.00     0.000 C 
BRANCH   3   4
ATOM      4  C   UNL     1      -6.731  -0.878  36.986  1.00  0.00     0.000 C 
BRANCH   4   5
ATOM      5  C   UNL     1      -6.525   0.527  36.396  1.00  0.00     0.000 C 
BRANCH   5   6
ATOM      6  C   UNL     1      -7.589   0.897  35.352  1.00  0.00     0.006 C 
BRANCH   6   7
ATOM      7  C   UNL     1      -7.251   0.292  33.986  1.00  0.00     0.053 C 
BRANCH   7   8
ATOM      8  C   UNL     1      -6.657   1.329  33.087  1.00  0.00     0.041 C 
ATOM      9  O   UNL     1      -6.067   0.986  32.028  1.00  0.00    -0.550 OA
ATOM     10  O   UNL     1      -6.708   2.671  33.443  1.00  0.00    -0.550 OA
ENDBRANCH   7   8
ENDBRANCH   6   7
ENDBRANCH   5   6
ENDBRANCH   4   5
ENDBRANCH   3   4
ENDBRANCH   2   3
ENDBRANCH   1   2
BRANCH   1  11
ATOM     11  C   UNL     1      -4.147  -3.722  35.391  1.00  0.00     0.000 C 
BRANCH  11  12
ATOM     12  C   UNL     1      -3.893  -3.075  34.024  1.00  0.00    -0.000 C 
BRANCH  12  13
ATOM     13  C   UNL     1      -4.295  -1.595  34.032  1.00  0.00    -0.000 C 
BRANCH  13  14
ATOM     14  C   UNL     1      -3.062  -0.689  34.137  1.00  0.00    -0.000 C 
BRANCH  14  15
ATOM     15  C   UNL     1      -2.947  -0.077  35.541  1.00  0.00    -0.000 C 
BRANCH  15  16
ATOM     16  C   UNL     1      -1.666  -0.506  36.278  1.00  0.00    -0.000 C 
BRANCH  16  17
ATOM     17  C   UNL     1      -0.842  -1.594  35.566  1.00  0.00    -0.003 C 
ATOM     18  C   UNL     1      -0.617  -2.836  36.429  1.00  0.00     0.004 C 
ENDBRANCH  16  17
ENDBRANCH  15  16
ENDBRANCH  14  15
ENDBRANCH  13  14
ENDBRANCH  12  13
ENDBRANCH  11  12
ENDBRANCH   1  11
TORSDOF 14
ENDMDL
MODEL 7
REMARK VINA RESULT:    -3.133      1.496      2.739
REMARK INTER + INTRA:          -8.385
REMARK INTER:                  -5.897
REMARK INTRA:                  -2.488
REMARK UNBOUND:                -2.687
REMARK SMILES CCCCCCCCCCCCCCCC(=O)[O-]
REMARK SMILES IDX 9 1 10 2 11 3 12 4 13 5 14 6 15 7 16 8 17 9 18 10 8 11 7 12
REMARK SMILES IDX 6 13 5 14 4 15 3 16 2 17 1 18
REMARK H PARENT
REMARK Flexibility Score: inf
ROOT
ATOM      1  C   UNL     1      -5.401  -3.100  35.413  1.00  0.00     0.000 C 
ENDROOT
BRANCH   1   2
ATOM      2  C   UNL     1      -3.899  -3.424  35.415  1.00  0.00     0.000 C 
BRANCH   2   3
ATOM      3  C   UNL     1      -3.116  -2.609  34.372  1.00  0.00     0.000 C 
BRANCH   3   4
ATOM      4  C   UNL     1      -1.829  -1.995  34.949  1.00  0.00     0.000 C 
BRANCH   4   5
ATOM      5  C   UNL     1      -1.313  -2.753  36.183  1.00  0.00     0.000 C 
BRANCH   5   6
ATOM      6  C   UNL     1       0.220  -2.805  36.253  1.00  0.00     0.006 C 
BRANCH   6   7
ATOM      7  C   UNL     1       0.820  -1.397  36.205  1.00  0.00     0.053 C 
BRANCH   7   8
ATOM      8  C   UNL     1       1.902  -1.323  35.175  1.00  0.00     0.041 C 
ATOM      9  O   UNL     1       1.691  -0.748  34.075  1.00  0.00    -0.550 OA
ATOM     10  O   UNL     1       3.127  -1.935  35.409  1.00  0.00    -0.550 OA
ENDBRANCH   7   8
ENDBRANCH   6   7
ENDBRANCH   5   6
ENDBRANCH   4   5
ENDBRANCH   3   4
ENDBRANCH   2   3
ENDBRANCH   1   2
BRANCH   1  11
ATOM     11  C   UNL     1      -5.830  -2.478  36.747  1.00  0.00     0.000 C 
BRANCH  11  12
ATOM     12  C   UNL     1      -4.687  -2.521  37.768  1.00  0.00    -0.000 C 
BRANCH  12  13
ATOM     13  C   UNL     1      -4.559  -1.184  38.508  1.00  0.00    -0.000 C 
BRANCH  13  14
ATOM     14  C   UNL     1      -3.566  -0.254  37.798  1.00  0.00    -0.000 C 
BRANCH  14  15
ATOM     15  C   UNL     1      -4.300   0.893  37.087  1.00  0.00    -0.000 C 
BRANCH  15  16
ATOM     16  C   UNL     1      -4.321   0.732  35.557  1.00  0.00    -0.000 C 
BRANCH  16  17
ATOM     17  C   UNL     1      -5.722   0.784  34.919  1.00  0.00    -0.003 C 
ATOM     18  C   UNL     1      -5.788   0.089  33.560  1.00  0.00     0.004 C 
ENDBRANCH  16  17
ENDBRANCH  15  16
ENDBRANCH  14  15
ENDBRANCH  13  14
ENDBRANCH  12  13
ENDBRANCH  11  12
ENDBRANCH   1  11
TORSDOF 14
ENDMDL
MODEL 8
REMARK VINA RESULT:    -3.105      1.267      3.264
REMARK INTER + INTRA:          -8.334
REMARK INTER:                  -5.925
REMARK INTRA:                  -2.409
REMARK UNBOUND:                -2.687
REMARK SMILES CCCCCCCCCCCCCCCC(=O)[O-]
REMARK SMILES IDX 9 1 10 2 11 3 12 4 13 5 14 6 15 7 16 8 17 9 18 10 8 11 7 12
REMARK SMILES IDX 6 13 5 14 4 15 3 16 2 17 1 18
REMARK H PARENT
REMARK Flexibility Score: inf
ROOT
ATOM      1  C   UNL     1      -4.808  -0.022  37.794  1.00  0.00     0.000 C 
ENDROOT
BRANCH   1   2
ATOM      2  C   UNL     1      -3.464  -0.540  38.329  1.00  0.00     0.000 C 
BRANCH   2   3
ATOM      3  C   UNL     1      -2.312   0.450  38.092  1.00  0.00     0.000 C 
BRANCH   3   4
ATOM      4  C   UNL     1      -1.195  -0.145  37.216  1.00  0.00     0.000 C 
BRANCH   4   5
ATOM      5  C   UNL     1      -1.424  -1.630  36.893  1.00  0.00     0.000 C 
BRANCH   5   6
ATOM      6  C   UNL     1      -0.136  -2.355  36.479  1.00  0.00     0.006 C 
BRANCH   6   7
ATOM      7  C   UNL     1       0.383  -1.830  35.137  1.00  0.00     0.053 C 
BRANCH   7   8
ATOM      8  C   UNL     1       1.805  -1.386  35.262  1.00  0.00     0.041 C 
ATOM      9  O   UNL     1       2.220  -0.887  36.341  1.00  0.00    -0.550 OA
ATOM     10  O   UNL     1       2.660  -1.473  34.171  1.00  0.00    -0.550 OA
ENDBRANCH   7   8
ENDBRANCH   6   7
ENDBRANCH   5   6
ENDBRANCH   4   5
ENDBRANCH   3   4
ENDBRANCH   2   3
ENDBRANCH   1   2
BRANCH   1  11
ATOM     11  C   UNL     1      -5.779  -1.181  37.537  1.00  0.00     0.000 C 
BRANCH  11  12
ATOM     12  C   UNL     1      -5.028  -2.512  37.418  1.00  0.00    -0.000 C 
BRANCH  12  13
ATOM     13  C   UNL     1      -5.418  -3.253  36.133  1.00  0.00    -0.000 C 
BRANCH  13  14
ATOM     14  C   UNL     1      -4.176  -3.625  35.313  1.00  0.00    -0.000 C 
BRANCH  14  15
ATOM     15  C   UNL     1      -4.134  -2.842  33.993  1.00  0.00    -0.000 C 
BRANCH  15  16
ATOM     16  C   UNL     1      -3.247  -1.586  34.069  1.00  0.00    -0.000 C 
BRANCH  16  17
ATOM     17  C   UNL     1      -4.013  -0.258  34.204  1.00  0.00    -0.003 C 
ATOM     18  C   UNL     1      -5.500  -0.387  33.873  1.00  0.00     0.004 C 
ENDBRANCH  16  17
ENDBRANCH  15  16
ENDBRANCH  14  15
ENDBRANCH  13  14
ENDBRANCH  12  13
ENDBRANCH  11  12
ENDBRANCH   1  11
TORSDOF 14
ENDMDL
MODEL 9
REMARK VINA RESULT:    -3.091      3.183      5.255
REMARK INTER + INTRA:          -8.307
REMARK INTER:                  -5.760
REMARK INTRA:                  -2.547
REMARK UNBOUND:                -2.687
REMARK SMILES CCCCCCCCCCCCCCCC(=O)[O-]
REMARK SMILES IDX 9 1 10 2 11 3 12 4 13 5 14 6 15 7 16 8 17 9 18 10 8 11 7 12
REMARK SMILES IDX 6 13 5 14 4 15 3 16 2 17 1 18
REMARK H PARENT
REMARK Flexibility Score: inf
ROOT
ATOM      1  C   UNL     1      -4.928  -0.047  38.169  1.00  0.00     0.000 C 
ENDROOT
BRANCH   1   2
ATOM      2  C   UNL     1      -3.447  -0.455  38.175  1.00  0.00     0.000 C 
BRANCH   2   3
ATOM      3  C   UNL     1      -2.545   0.578  37.479  1.00  0.00     0.000 C 
BRANCH   3   4
ATOM      4  C   UNL     1      -3.219   1.216  36.252  1.00  0.00     0.000 C 
BRANCH   4   5
ATOM      5  C   UNL     1      -2.550   0.806  34.930  1.00  0.00     0.000 C 
BRANCH   5   6
ATOM      6  C   UNL     1      -3.548   0.692  33.767  1.00  0.00     0.006 C 
BRANCH   6   7
ATOM      7  C   UNL     1      -4.656  -0.313  34.093  1.00  0.00     0.053 C 
BRANCH   7   8
ATOM      8  C   UNL     1      -5.973   0.174  33.577  1.00  0.00     0.041 C 
ATOM      9  O   UNL     1      -6.045   0.735  32.452  1.00  0.00    -0.550 OA
ATOM     10  O   UNL     1      -7.114   0.056  34.361  1.00  0.00    -0.550 OA
ENDBRANCH   7   8
ENDBRANCH   6   7
ENDBRANCH   5   6
ENDBRANCH   4   5
ENDBRANCH   3   4
ENDBRANCH   2   3
ENDBRANCH   1   2
BRANCH   1  11
ATOM     11  C   UNL     1      -5.812  -1.200  37.678  1.00  0.00     0.000 C 
BRANCH  11  12
ATOM     12  C   UNL     1      -4.974  -2.448  37.380  1.00  0.00    -0.000 C 
BRANCH  12  13
ATOM     13  C   UNL     1      -5.439  -3.128  36.086  1.00  0.00    -0.000 C 
BRANCH  13  14
ATOM     14  C   UNL     1      -4.243  -3.621  35.262  1.00  0.00    -0.000 C 
BRANCH  14  15
ATOM     15  C   UNL     1      -2.957  -3.613  36.101  1.00  0.00    -0.000 C 
BRANCH  15  16
ATOM     16  C   UNL     1      -1.879  -2.672  35.534  1.00  0.00    -0.000 C 
BRANCH  16  17
ATOM     17  C   UNL     1      -0.700  -2.391  36.484  1.00  0.00    -0.003 C 
ATOM     18  C   UNL     1       0.400  -1.547  35.841  1.00  0.00     0.004 C 
ENDBRANCH  16  17
ENDBRANCH  15  16
ENDBRANCH  14  15
ENDBRANCH  13  14
ENDBRANCH  12  13
ENDBRANCH  11  12
ENDBRANCH   1  11
TORSDOF 14
ENDMDL
