MODEL 1
REMARK VINA RESULT:    -5.621      0.000      0.000
REMARK INTER + INTRA:          -6.731
REMARK INTER:                  -6.607
REMARK INTRA:                  -0.125
REMARK UNBOUND:                -0.125
REMARK SMILES O=C([O-])C=Cc1ccc(O)c(O)c1
REMARK SMILES IDX 6 1 13 2 7 3 11 4 8 5 9 6 5 7 4 8 2 9 1 10 3 11 12 12 10 14
REMARK H PARENT 12 13 10 15
REMARK Flexibility Score: inf
ROOT
ATOM      1  C   UNL     1     -13.155 -29.047 -20.628  1.00  0.00    -0.022 A 
ATOM      2  C   UNL     1     -13.828 -30.271 -20.780  1.00  0.00     0.058 A 
ATOM      3  C   UNL     1     -13.798 -27.999 -19.938  1.00  0.00     0.012 A 
ATOM      4  C   UNL     1     -15.106 -30.460 -20.234  1.00  0.00     0.157 A 
ATOM      5  C   UNL     1     -15.073 -28.187 -19.396  1.00  0.00     0.051 A 
ATOM      6  C   UNL     1     -15.730 -29.413 -19.537  1.00  0.00     0.157 A 
ENDROOT
BRANCH   1   7
ATOM      7  C   UNL     1     -11.809 -28.896 -21.233  1.00  0.00     0.010 C 
ATOM      8  C   UNL     1     -10.688 -29.398 -20.693  1.00  0.00     0.025 C 
BRANCH   8   9
ATOM      9  C   UNL     1      -9.371 -29.238 -21.330  1.00  0.00     0.064 C 
ATOM     10  O   UNL     1      -8.604 -28.290 -21.014  1.00  0.00    -0.545 OA
ATOM     11  O   UNL     1      -8.965 -30.150 -22.295  1.00  0.00    -0.545 OA
ENDBRANCH   8   9
ENDBRANCH   1   7
BRANCH   4  12
ATOM     12  O   UNL     1     -15.759 -31.683 -20.384  1.00  0.00    -0.504 OA
ATOM     13  H   UNL     1     -16.186 -31.952 -21.263  1.00  0.00     0.293 HD
ENDBRANCH   4  12
BRANCH   6  14
ATOM     14  O   UNL     1     -16.999 -29.569 -18.982  1.00  0.00    -0.504 OA
ATOM     15  H   UNL     1     -17.224 -29.236 -18.052  1.00  0.00     0.293 HD
ENDBRANCH   6  14
TORSDOF 4
ENDMDL
MODEL 2
REMARK VINA RESULT:    -5.211      3.289      4.806
REMARK INTER + INTRA:          -6.249
REMARK INTER:                  -6.119
REMARK INTRA:                  -0.131
REMARK UNBOUND:                -0.125
REMARK SMILES O=C([O-])C=Cc1ccc(O)c(O)c1
REMARK SMILES IDX 6 1 13 2 7 3 11 4 8 5 9 6 5 7 4 8 2 9 1 10 3 11 12 12 10 14
REMARK H PARENT 12 13 10 15
REMARK Flexibility Score: inf
ROOT
ATOM      1  C   UNL     1     -14.502 -27.970 -20.092  1.00  0.00    -0.022 A 
ATOM      2  C   UNL     1     -15.848 -28.301 -20.315  1.00  0.00     0.058 A 
ATOM      3  C   UNL     1     -13.516 -28.955 -20.305  1.00  0.00     0.012 A 
ATOM      4  C   UNL     1     -16.209 -29.580 -20.767  1.00  0.00     0.157 A 
ATOM      5  C   UNL     1     -13.874 -30.229 -20.754  1.00  0.00     0.051 A 
ATOM      6  C   UNL     1     -15.215 -30.547 -20.989  1.00  0.00     0.157 A 
ENDROOT
BRANCH   1   7
ATOM      7  C   UNL     1     -14.176 -26.607 -19.605  1.00  0.00     0.010 C 
ATOM      8  C   UNL     1     -14.980 -25.889 -18.807  1.00  0.00     0.025 C 
BRANCH   8   9
ATOM      9  C   UNL     1     -14.617 -24.543 -18.333  1.00  0.00     0.064 C 
ATOM     10  O   UNL     1     -14.853 -24.182 -17.150  1.00  0.00    -0.545 OA
ATOM     11  O   UNL     1     -13.999 -23.657 -19.205  1.00  0.00    -0.545 OA
ENDBRANCH   8   9
ENDBRANCH   1   7
BRANCH   4  12
ATOM     12  O   UNL     1     -17.548 -29.892 -20.993  1.00  0.00    -0.504 OA
ATOM     13  H   UNL     1     -18.152 -29.280 -21.531  1.00  0.00     0.293 HD
ENDBRANCH   4  12
BRANCH   6  14
ATOM     14  O   UNL     1     -15.539 -31.826 -21.438  1.00  0.00    -0.504 OA
ATOM     15  H   UNL     1     -16.386 -32.013 -21.962  1.00  0.00     0.293 HD
ENDBRANCH   6  14
TORSDOF 4
ENDMDL
MODEL 3
REMARK VINA RESULT:    -5.207      3.217      4.856
REMARK INTER + INTRA:          -6.244
REMARK INTER:                  -6.112
REMARK INTRA:                  -0.132
REMARK UNBOUND:                -0.125
REMARK SMILES O=C([O-])C=Cc1ccc(O)c(O)c1
REMARK SMILES IDX 6 1 13 2 7 3 11 4 8 5 9 6 5 7 4 8 2 9 1 10 3 11 12 12 10 14
REMARK H PARENT 12 13 10 15
REMARK Flexibility Score: inf
ROOT
ATOM      1  C   UNL     1     -15.365 -27.717 -19.335  1.00  0.00    -0.022 A 
ATOM      2  C   UNL     1     -14.197 -28.418 -19.672  1.00  0.00     0.058 A 
ATOM      3  C   UNL     1     -16.606 -28.381 -19.421  1.00  0.00     0.012 A 
ATOM      4  C   UNL     1     -14.254 -29.764 -20.063  1.00  0.00     0.157 A 
ATOM      5  C   UNL     1     -16.664 -29.722 -19.811  1.00  0.00     0.051 A 
ATOM      6  C   UNL     1     -15.495 -30.419 -20.131  1.00  0.00     0.157 A 
ENDROOT
BRANCH   1   7
ATOM      7  C   UNL     1     -15.250 -26.291 -18.937  1.00  0.00     0.010 C 
ATOM      8  C   UNL     1     -14.298 -25.465 -19.395  1.00  0.00     0.025 C 
BRANCH   8   9
ATOM      9  C   UNL     1     -14.222 -24.053 -18.987  1.00  0.00     0.064 C 
ATOM     10  O   UNL     1     -13.686 -23.187 -19.729  1.00  0.00    -0.545 OA
ATOM     11  O   UNL     1     -14.755 -23.667 -17.764  1.00  0.00    -0.545 OA
ENDBRANCH   8   9
ENDBRANCH   1   7
BRANCH   4  12
ATOM     12  O   UNL     1     -13.085 -30.451 -20.386  1.00  0.00    -0.504 OA
ATOM     13  H   UNL     1     -12.170 -30.056 -20.204  1.00  0.00     0.293 HD
ENDBRANCH   4  12
BRANCH   6  14
ATOM     14  O   UNL     1     -15.586 -31.755 -20.514  1.00  0.00    -0.504 OA
ATOM     15  H   UNL     1     -15.465 -32.514 -19.854  1.00  0.00     0.293 HD
ENDBRANCH   6  14
TORSDOF 4
ENDMDL
MODEL 4
REMARK VINA RESULT:    -5.172      2.900      4.124
REMARK INTER + INTRA:          -6.204
REMARK INTER:                  -6.080
REMARK INTRA:                  -0.123
REMARK UNBOUND:                -0.125
REMARK SMILES O=C([O-])C=Cc1ccc(O)c(O)c1
REMARK SMILES IDX 6 1 13 2 7 3 11 4 8 5 9 6 5 7 4 8 2 9 1 10 3 11 12 12 10 14
REMARK H PARENT 12 13 10 15
REMARK Flexibility Score: inf
ROOT
ATOM      1  C   UNL     1     -14.020 -27.807 -20.026  1.00  0.00    -0.022 A 
ATOM      2  C   UNL     1     -15.258 -28.077 -19.422  1.00  0.00     0.058 A 
ATOM      3  C   UNL     1     -13.354 -28.846 -20.707  1.00  0.00     0.012 A 
ATOM      4  C   UNL     1     -15.840 -29.351 -19.514  1.00  0.00     0.157 A 
ATOM      5  C   UNL     1     -13.932 -30.116 -20.798  1.00  0.00     0.051 A 
ATOM      6  C   UNL     1     -15.173 -30.374 -20.208  1.00  0.00     0.157 A 
ENDROOT
BRANCH   1   7
ATOM      7  C   UNL     1     -13.444 -26.446 -19.889  1.00  0.00     0.010 C 
ATOM      8  C   UNL     1     -13.583 -25.482 -20.812  1.00  0.00     0.025 C 
BRANCH   8   9
ATOM      9  C   UNL     1     -13.007 -24.139 -20.636  1.00  0.00     0.064 C 
ATOM     10  O   UNL     1     -11.923 -23.815 -21.190  1.00  0.00    -0.545 OA
ATOM     11  O   UNL     1     -13.673 -23.210 -19.847  1.00  0.00    -0.545 OA
ENDBRANCH   8   9
ENDBRANCH   1   7
BRANCH   4  12
ATOM     12  O   UNL     1     -17.075 -29.603 -18.918  1.00  0.00    -0.504 OA
ATOM     13  H   UNL     1     -17.323 -29.201 -18.021  1.00  0.00     0.293 HD
ENDBRANCH   4  12
BRANCH   6  14
ATOM     14  O   UNL     1     -15.724 -31.649 -20.319  1.00  0.00    -0.504 OA
ATOM     15  H   UNL     1     -15.159 -32.463 -20.530  1.00  0.00     0.293 HD
ENDBRANCH   6  14
TORSDOF 4
ENDMDL
MODEL 5
REMARK VINA RESULT:    -5.003      3.835      5.913
REMARK INTER + INTRA:          -6.005
REMARK INTER:                  -5.865
REMARK INTRA:                  -0.140
REMARK UNBOUND:                -0.125
REMARK SMILES O=C([O-])C=Cc1ccc(O)c(O)c1
REMARK SMILES IDX 6 1 13 2 7 3 11 4 8 5 9 6 5 7 4 8 2 9 1 10 3 11 12 12 10 14
REMARK H PARENT 12 13 10 15
REMARK Flexibility Score: inf
ROOT
ATOM      1  C   UNL     1     -14.750 -26.543 -19.740  1.00  0.00    -0.022 A 
ATOM      2  C   UNL     1     -14.798 -25.854 -18.518  1.00  0.00     0.058 A 
ATOM      3  C   UNL     1     -14.342 -25.848 -20.897  1.00  0.00     0.012 A 
ATOM      4  C   UNL     1     -14.421 -24.505 -18.438  1.00  0.00     0.157 A 
ATOM      5  C   UNL     1     -13.967 -24.504 -20.819  1.00  0.00     0.051 A 
ATOM      6  C   UNL     1     -14.002 -23.828 -19.596  1.00  0.00     0.157 A 
ENDROOT
BRANCH   1   7
ATOM      7  C   UNL     1     -15.169 -27.966 -19.771  1.00  0.00     0.010 C 
ATOM      8  C   UNL     1     -15.316 -28.676 -20.900  1.00  0.00     0.025 C 
BRANCH   8   9
ATOM      9  C   UNL     1     -15.722 -30.091 -20.890  1.00  0.00     0.064 C 
ATOM     10  O   UNL     1     -15.380 -30.861 -19.953  1.00  0.00    -0.545 OA
ATOM     11  O   UNL     1     -16.497 -30.585 -21.930  1.00  0.00    -0.545 OA
ENDBRANCH   8   9
ENDBRANCH   1   7
BRANCH   4  12
ATOM     12  O   UNL     1     -14.463 -23.835 -17.216  1.00  0.00    -0.504 OA
ATOM     13  H   UNL     1     -14.060 -24.236 -16.377  1.00  0.00     0.293 HD
ENDBRANCH   4  12
BRANCH   6  14
ATOM     14  O   UNL     1     -13.620 -22.488 -19.551  1.00  0.00    -0.504 OA
ATOM     15  H   UNL     1     -12.660 -22.207 -19.389  1.00  0.00     0.293 HD
ENDBRANCH   6  14
TORSDOF 4
ENDMDL
MODEL 6
REMARK VINA RESULT:    -5.000     14.022     15.610
REMARK INTER + INTRA:          -6.001
REMARK INTER:                  -5.876
REMARK INTRA:                  -0.125
REMARK UNBOUND:                -0.125
REMARK SMILES O=C([O-])C=Cc1ccc(O)c(O)c1
REMARK SMILES IDX 6 1 13 2 7 3 11 4 8 5 9 6 5 7 4 8 2 9 1 10 3 11 12 12 10 14
REMARK H PARENT 12 13 10 15
REMARK Flexibility Score: inf
ROOT
ATOM      1  C   UNL     1      -4.858 -22.674 -30.776  1.00  0.00    -0.022 A 
ATOM      2  C   UNL     1      -3.479 -22.857 -30.971  1.00  0.00     0.058 A 
ATOM      3  C   UNL     1      -5.665 -23.803 -30.532  1.00  0.00     0.012 A 
ATOM      4  C   UNL     1      -2.907 -24.136 -30.900  1.00  0.00     0.157 A 
ATOM      5  C   UNL     1      -5.096 -25.078 -30.462  1.00  0.00     0.051 A 
ATOM      6  C   UNL     1      -3.720 -25.251 -30.641  1.00  0.00     0.157 A 
ENDROOT
BRANCH   1   7
ATOM      7  C   UNL     1      -5.414 -21.301 -30.872  1.00  0.00     0.010 C 
ATOM      8  C   UNL     1      -5.326 -20.391 -29.891  1.00  0.00     0.025 C 
BRANCH   8   9
ATOM      9  C   UNL     1      -5.880 -19.034 -30.028  1.00  0.00     0.064 C 
ATOM     10  O   UNL     1      -5.129 -18.022 -30.048  1.00  0.00    -0.545 OA
ATOM     11  O   UNL     1      -7.253 -18.866 -30.139  1.00  0.00    -0.545 OA
ENDBRANCH   8   9
ENDBRANCH   1   7
BRANCH   4  12
ATOM     12  O   UNL     1      -1.535 -24.302 -31.086  1.00  0.00    -0.504 OA
ATOM     13  H   UNL     1      -1.029 -23.781 -31.793  1.00  0.00     0.293 HD
ENDBRANCH   4  12
BRANCH   6  14
ATOM     14  O   UNL     1      -3.183 -26.534 -30.563  1.00  0.00    -0.504 OA
ATOM     15  H   UNL     1      -2.204 -26.697 -30.357  1.00  0.00     0.293 HD
ENDBRANCH   6  14
TORSDOF 4
ENDMDL
MODEL 7
REMARK VINA RESULT:    -4.903      2.069      6.451
REMARK INTER + INTRA:          -5.887
REMARK INTER:                  -5.749
REMARK INTRA:                  -0.138
REMARK UNBOUND:                -0.125
REMARK SMILES O=C([O-])C=Cc1ccc(O)c(O)c1
REMARK SMILES IDX 6 1 13 2 7 3 11 4 8 5 9 6 5 7 4 8 2 9 1 10 3 11 12 12 10 14
REMARK H PARENT 12 13 10 15
REMARK Flexibility Score: inf
ROOT
ATOM      1  C   UNL     1     -10.358 -28.917 -22.056  1.00  0.00    -0.022 A 
ATOM      2  C   UNL     1     -10.055 -29.339 -23.360  1.00  0.00     0.058 A 
ATOM      3  C   UNL     1      -9.300 -28.654 -21.163  1.00  0.00     0.012 A 
ATOM      4  C   UNL     1      -8.723 -29.472 -23.781  1.00  0.00     0.157 A 
ATOM      5  C   UNL     1      -7.973 -28.787 -21.580  1.00  0.00     0.051 A 
ATOM      6  C   UNL     1      -7.678 -29.192 -22.885  1.00  0.00     0.157 A 
ENDROOT
BRANCH   1   7
ATOM      7  C   UNL     1     -11.784 -28.803 -21.660  1.00  0.00     0.010 C 
ATOM      8  C   UNL     1     -12.223 -28.963 -20.403  1.00  0.00     0.025 C 
BRANCH   8   9
ATOM      9  C   UNL     1     -13.645 -28.830 -20.045  1.00  0.00     0.064 C 
ATOM     10  O   UNL     1     -14.095 -27.765 -19.543  1.00  0.00    -0.545 OA
ATOM     11  O   UNL     1     -14.507 -29.895 -20.267  1.00  0.00    -0.545 OA
ENDBRANCH   8   9
ENDBRANCH   1   7
BRANCH   4  12
ATOM     12  O   UNL     1      -8.435 -29.882 -25.082  1.00  0.00    -0.504 OA
ATOM     13  H   UNL     1      -8.690 -30.805 -25.415  1.00  0.00     0.293 HD
ENDBRANCH   4  12
BRANCH   6  14
ATOM     14  O   UNL     1      -6.344 -29.314 -23.271  1.00  0.00    -0.504 OA
ATOM     15  H   UNL     1      -5.948 -28.759 -24.022  1.00  0.00     0.293 HD
ENDBRANCH   6  14
TORSDOF 4
ENDMDL
MODEL 8
REMARK VINA RESULT:    -4.880      3.599      7.378
REMARK INTER + INTRA:          -5.860
REMARK INTER:                  -5.722
REMARK INTRA:                  -0.138
REMARK UNBOUND:                -0.125
REMARK SMILES O=C([O-])C=Cc1ccc(O)c(O)c1
REMARK SMILES IDX 6 1 13 2 7 3 11 4 8 5 9 6 5 7 4 8 2 9 1 10 3 11 12 12 10 14
REMARK H PARENT 12 13 10 15
REMARK Flexibility Score: inf
ROOT
ATOM      1  C   UNL     1      -8.929 -28.141 -22.498  1.00  0.00    -0.022 A 
ATOM      2  C   UNL     1      -7.772 -28.894 -22.241  1.00  0.00     0.058 A 
ATOM      3  C   UNL     1      -9.116 -27.600 -23.787  1.00  0.00     0.012 A 
ATOM      4  C   UNL     1      -6.829 -29.131 -23.253  1.00  0.00     0.157 A 
ATOM      5  C   UNL     1      -8.176 -27.834 -24.795  1.00  0.00     0.051 A 
ATOM      6  C   UNL     1      -7.034 -28.599 -24.536  1.00  0.00     0.157 A 
ENDROOT
BRANCH   1   7
ATOM      7  C   UNL     1      -9.889 -27.912 -21.390  1.00  0.00     0.010 C 
ATOM      8  C   UNL     1     -10.931 -27.071 -21.469  1.00  0.00     0.025 C 
BRANCH   8   9
ATOM      9  C   UNL     1     -11.871 -26.880 -20.352  1.00  0.00     0.064 C 
ATOM     10  O   UNL     1     -12.716 -27.765 -20.052  1.00  0.00    -0.545 OA
ATOM     11  O   UNL     1     -11.824 -25.705 -19.615  1.00  0.00    -0.545 OA
ENDBRANCH   8   9
ENDBRANCH   1   7
BRANCH   4  12
ATOM     12  O   UNL     1      -5.690 -29.889 -22.986  1.00  0.00    -0.504 OA
ATOM     13  H   UNL     1      -5.741 -30.891 -22.842  1.00  0.00     0.293 HD
ENDBRANCH   4  12
BRANCH   6  14
ATOM     14  O   UNL     1      -6.117 -28.816 -25.563  1.00  0.00    -0.504 OA
ATOM     15  H   UNL     1      -5.152 -28.514 -25.496  1.00  0.00     0.293 HD
ENDBRANCH   6  14
TORSDOF 4
ENDMDL
MODEL 9
REMARK VINA RESULT:    -4.835     11.238     14.817
REMARK INTER + INTRA:          -5.807
REMARK INTER:                  -5.667
REMARK INTRA:                  -0.140
REMARK UNBOUND:                -0.125
REMARK SMILES O=C([O-])C=Cc1ccc(O)c(O)c1
REMARK SMILES IDX 6 1 13 2 7 3 11 4 8 5 9 6 5 7 4 8 2 9 1 10 3 11 12 12 10 14
REMARK H PARENT 12 13 10 15
REMARK Flexibility Score: inf
ROOT
ATOM      1  C   UNL     1      -4.698 -24.026 -29.925  1.00  0.00    -0.022 A 
ATOM      2  C   UNL     1      -3.742 -23.032 -30.189  1.00  0.00     0.058 A 
ATOM      3  C   UNL     1      -4.351 -25.376 -30.134  1.00  0.00     0.012 A 
ATOM      4  C   UNL     1      -2.454 -23.372 -30.627  1.00  0.00     0.157 A 
ATOM      5  C   UNL     1      -3.068 -25.716 -30.572  1.00  0.00     0.051 A 
ATOM      6  C   UNL     1      -2.116 -24.722 -30.817  1.00  0.00     0.157 A 
ENDROOT
BRANCH   1   7
ATOM      7  C   UNL     1      -6.050 -23.611 -29.473  1.00  0.00     0.010 C 
ATOM      8  C   UNL     1      -7.001 -24.471 -29.080  1.00  0.00     0.025 C 
BRANCH   8   9
ATOM      9  C   UNL     1      -8.327 -24.021 -28.626  1.00  0.00     0.064 C 
ATOM     10  O   UNL     1      -8.460 -22.978 -27.931  1.00  0.00    -0.545 OA
ATOM     11  O   UNL     1      -9.452 -24.757 -28.971  1.00  0.00    -0.545 OA
ENDBRANCH   8   9
ENDBRANCH   1   7
BRANCH   4  12
ATOM     12  O   UNL     1      -1.511 -22.375 -30.875  1.00  0.00    -0.504 OA
ATOM     13  H   UNL     1      -0.626 -22.348 -30.383  1.00  0.00     0.293 HD
ENDBRANCH   4  12
BRANCH   6  14
ATOM     14  O   UNL     1      -0.844 -25.093 -31.250  1.00  0.00    -0.504 OA
ATOM     15  H   UNL     1      -0.671 -25.421 -32.193  1.00  0.00     0.293 HD
ENDBRANCH   6  14
TORSDOF 4
ENDMDL
