MODEL 1
REMARK VINA RESULT:    -4.290      0.000      0.000
REMARK INTER + INTRA:          -8.058
REMARK INTER:                  -7.300
REMARK INTRA:                  -0.758
REMARK UNBOUND:                -0.758
REMARK SMILES CCCCCCCCCCCCCC(=O)[O-]
REMARK SMILES IDX 8 1 9 2 10 3 11 4 12 5 13 6 14 7 15 8 16 9 7 10 6 11 5 12
REMARK SMILES IDX 4 13 3 14 2 15 1 16
REMARK H PARENT
REMARK Flexibility Score: inf
ROOT
ATOM      1  C   UNL     1     -31.086  21.928  28.484  1.00  0.00     0.000 C 
ENDROOT
BRANCH   1   2
ATOM      2  C   UNL     1     -31.812  22.625  29.649  1.00  0.00     0.000 C 
BRANCH   2   3
ATOM      3  C   UNL     1     -30.961  23.716  30.315  1.00  0.00     0.000 C 
BRANCH   3   4
ATOM      4  C   UNL     1     -31.751  25.023  30.450  1.00  0.00     0.000 C 
BRANCH   4   5
ATOM      5  C   UNL     1     -33.208  24.835  30.003  1.00  0.00     0.006 C 
BRANCH   5   6
ATOM      6  C   UNL     1     -34.181  25.698  30.818  1.00  0.00     0.053 C 
BRANCH   6   7
ATOM      7  C   UNL     1     -34.643  24.995  32.058  1.00  0.00     0.041 C 
ATOM      8  O   UNL     1     -35.464  24.044  31.979  1.00  0.00    -0.550 OA
ATOM      9  O   UNL     1     -34.193  25.414  33.303  1.00  0.00    -0.550 OA
ENDBRANCH   6   7
ENDBRANCH   5   6
ENDBRANCH   4   5
ENDBRANCH   3   4
ENDBRANCH   2   3
ENDBRANCH   1   2
BRANCH   1  10
ATOM     10  C   UNL     1     -29.691  22.494  28.150  1.00  0.00     0.000 C 
BRANCH  10  11
ATOM     11  C   UNL     1     -29.349  22.536  26.649  1.00  0.00    -0.000 C 
BRANCH  11  12
ATOM     12  C   UNL     1     -29.000  21.150  26.081  1.00  0.00    -0.000 C 
BRANCH  12  13
ATOM     13  C   UNL     1     -29.913  20.742  24.914  1.00  0.00    -0.000 C 
BRANCH  13  14
ATOM     14  C   UNL     1     -31.239  20.126  25.392  1.00  0.00    -0.000 C 
BRANCH  14  15
ATOM     15  C   UNL     1     -32.187  19.796  24.229  1.00  0.00    -0.003 C 
ATOM     16  C   UNL     1     -33.418  19.005  24.673  1.00  0.00     0.004 C 
ENDBRANCH  14  15
ENDBRANCH  13  14
ENDBRANCH  12  13
ENDBRANCH  11  12
ENDBRANCH  10  11
ENDBRANCH   1  10
TORSDOF 12
ENDMDL
MODEL 2
REMARK VINA RESULT:    -4.277      1.149      2.302
REMARK INTER + INTRA:          -8.036
REMARK INTER:                  -7.216
REMARK INTRA:                  -0.819
REMARK UNBOUND:                -0.758
REMARK SMILES CCCCCCCCCCCCCC(=O)[O-]
REMARK SMILES IDX 8 1 9 2 10 3 11 4 12 5 13 6 14 7 15 8 16 9 7 10 6 11 5 12
REMARK SMILES IDX 4 13 3 14 2 15 1 16
REMARK H PARENT
REMARK Flexibility Score: inf
ROOT
ATOM      1  C   UNL     1     -29.299  22.357  26.431  1.00  0.00     0.000 C 
ENDROOT
BRANCH   1   2
ATOM      2  C   UNL     1     -29.546  22.394  27.950  1.00  0.00     0.000 C 
BRANCH   2   3
ATOM      3  C   UNL     1     -30.894  21.778  28.351  1.00  0.00     0.000 C 
BRANCH   3   4
ATOM      4  C   UNL     1     -31.553  22.584  29.477  1.00  0.00     0.000 C 
BRANCH   4   5
ATOM      5  C   UNL     1     -31.345  24.091  29.271  1.00  0.00     0.006 C 
BRANCH   5   6
ATOM      6  C   UNL     1     -31.717  24.905  30.517  1.00  0.00     0.053 C 
BRANCH   6   7
ATOM      7  C   UNL     1     -33.185  24.837  30.808  1.00  0.00     0.041 C 
ATOM      8  O   UNL     1     -33.975  25.661  30.276  1.00  0.00    -0.550 OA
ATOM      9  O   UNL     1     -33.677  23.885  31.692  1.00  0.00    -0.550 OA
ENDBRANCH   6   7
ENDBRANCH   5   6
ENDBRANCH   4   5
ENDBRANCH   3   4
ENDBRANCH   2   3
ENDBRANCH   1   2
BRANCH   1  10
ATOM     10  C   UNL     1     -28.364  21.231  25.946  1.00  0.00     0.000 C 
BRANCH  10  11
ATOM     11  C   UNL     1     -28.429  20.936  24.437  1.00  0.00    -0.000 C 
BRANCH  11  12
ATOM     12  C   UNL     1     -29.856  21.041  23.871  1.00  0.00    -0.000 C 
BRANCH  12  13
ATOM     13  C   UNL     1     -30.685  19.770  24.115  1.00  0.00    -0.000 C 
BRANCH  13  14
ATOM     14  C   UNL     1     -31.778  19.975  25.178  1.00  0.00    -0.000 C 
BRANCH  14  15
ATOM     15  C   UNL     1     -33.187  19.693  24.634  1.00  0.00    -0.003 C 
ATOM     16  C   UNL     1     -33.489  18.200  24.514  1.00  0.00     0.004 C 
ENDBRANCH  14  15
ENDBRANCH  13  14
ENDBRANCH  12  13
ENDBRANCH  11  12
ENDBRANCH  10  11
ENDBRANCH   1  10
TORSDOF 12
ENDMDL
MODEL 3
REMARK VINA RESULT:    -4.246      3.483      7.421
REMARK INTER + INTRA:          -7.982
REMARK INTER:                  -7.367
REMARK INTRA:                  -0.616
REMARK UNBOUND:                -0.758
REMARK SMILES CCCCCCCCCCCCCC(=O)[O-]
REMARK SMILES IDX 8 1 9 2 10 3 11 4 12 5 13 6 14 7 15 8 16 9 7 10 6 11 5 12
REMARK SMILES IDX 4 13 3 14 2 15 1 16
REMARK H PARENT
REMARK Flexibility Score: inf
ROOT
ATOM      1  C   UNL     1     -29.096  21.670  27.265  1.00  0.00     0.000 C 
ENDROOT
BRANCH   1   2
ATOM      2  C   UNL     1     -28.689  22.416  25.982  1.00  0.00     0.000 C 
BRANCH   2   3
ATOM      3  C   UNL     1     -28.366  21.469  24.817  1.00  0.00     0.000 C 
BRANCH   3   4
ATOM      4  C   UNL     1     -29.395  21.613  23.690  1.00  0.00     0.000 C 
BRANCH   4   5
ATOM      5  C   UNL     1     -30.248  20.343  23.557  1.00  0.00     0.006 C 
BRANCH   5   6
ATOM      6  C   UNL     1     -31.195  20.152  24.749  1.00  0.00     0.053 C 
BRANCH   6   7
ATOM      7  C   UNL     1     -32.491  19.523  24.335  1.00  0.00     0.041 C 
ATOM      8  O   UNL     1     -32.523  18.317  23.976  1.00  0.00    -0.550 OA
ATOM      9  O   UNL     1     -33.656  20.280  24.313  1.00  0.00    -0.550 OA
ENDBRANCH   6   7
ENDBRANCH   5   6
ENDBRANCH   4   5
ENDBRANCH   3   4
ENDBRANCH   2   3
ENDBRANCH   1   2
BRANCH   1  10
ATOM     10  C   UNL     1     -29.757  22.545  28.350  1.00  0.00     0.000 C 
BRANCH  10  11
ATOM     11  C   UNL     1     -30.752  21.807  29.264  1.00  0.00    -0.000 C 
BRANCH  11  12
ATOM     12  C   UNL     1     -31.849  22.734  29.816  1.00  0.00    -0.000 C 
BRANCH  12  13
ATOM     13  C   UNL     1     -31.553  24.220  29.562  1.00  0.00    -0.000 C 
BRANCH  13  14
ATOM     14  C   UNL     1     -31.974  25.114  30.741  1.00  0.00    -0.000 C 
BRANCH  14  15
ATOM     15  C   UNL     1     -33.452  25.528  30.667  1.00  0.00    -0.003 C 
ATOM     16  C   UNL     1     -34.207  25.264  31.970  1.00  0.00     0.004 C 
ENDBRANCH  14  15
ENDBRANCH  13  14
ENDBRANCH  12  13
ENDBRANCH  11  12
ENDBRANCH  10  11
ENDBRANCH   1  10
TORSDOF 12
ENDMDL
MODEL 4
REMARK VINA RESULT:    -4.175      3.517      7.188
REMARK INTER + INTRA:          -7.862
REMARK INTER:                  -6.804
REMARK INTRA:                  -1.058
REMARK UNBOUND:                -0.758
REMARK SMILES CCCCCCCCCCCCCC(=O)[O-]
REMARK SMILES IDX 8 1 9 2 10 3 11 4 12 5 13 6 14 7 15 8 16 9 7 10 6 11 5 12
REMARK SMILES IDX 4 13 3 14 2 15 1 16
REMARK H PARENT
REMARK Flexibility Score: inf
ROOT
ATOM      1  C   UNL     1     -28.979  22.311  25.872  1.00  0.00     0.000 C 
ENDROOT
BRANCH   1   2
ATOM      2  C   UNL     1     -29.567  21.228  24.948  1.00  0.00     0.000 C 
BRANCH   2   3
ATOM      3  C   UNL     1     -29.394  19.808  25.507  1.00  0.00     0.000 C 
BRANCH   3   4
ATOM      4  C   UNL     1     -30.752  19.120  25.687  1.00  0.00     0.000 C 
BRANCH   4   5
ATOM      5  C   UNL     1     -31.905  20.116  25.497  1.00  0.00     0.006 C 
BRANCH   5   6
ATOM      6  C   UNL     1     -32.923  19.634  24.455  1.00  0.00     0.053 C 
BRANCH   6   7
ATOM      7  C   UNL     1     -33.499  18.299  24.817  1.00  0.00     0.041 C 
ATOM      8  O   UNL     1     -34.168  18.163  25.875  1.00  0.00    -0.550 OA
ATOM      9  O   UNL     1     -33.269  17.198  24.002  1.00  0.00    -0.550 OA
ENDBRANCH   6   7
ENDBRANCH   5   6
ENDBRANCH   4   5
ENDBRANCH   3   4
ENDBRANCH   2   3
ENDBRANCH   1   2
BRANCH   1  10
ATOM     10  C   UNL     1     -29.031  21.985  27.378  1.00  0.00     0.000 C 
BRANCH  10  11
ATOM     11  C   UNL     1     -30.045  22.812  28.189  1.00  0.00    -0.000 C 
BRANCH  11  12
ATOM     12  C   UNL     1     -31.179  21.953  28.776  1.00  0.00    -0.000 C 
BRANCH  12  13
ATOM     13  C   UNL     1     -32.004  22.704  29.832  1.00  0.00    -0.000 C 
BRANCH  13  14
ATOM     14  C   UNL     1     -31.986  24.228  29.620  1.00  0.00    -0.000 C 
BRANCH  14  15
ATOM     15  C   UNL     1     -32.410  25.002  30.877  1.00  0.00    -0.003 C 
ATOM     16  C   UNL     1     -33.804  25.617  30.753  1.00  0.00     0.004 C 
ENDBRANCH  14  15
ENDBRANCH  13  14
ENDBRANCH  12  13
ENDBRANCH  11  12
ENDBRANCH  10  11
ENDBRANCH   1  10
TORSDOF 12
ENDMDL
MODEL 5
REMARK VINA RESULT:    -4.143      1.788      3.647
REMARK INTER + INTRA:          -7.807
REMARK INTER:                  -6.375
REMARK INTRA:                  -1.432
REMARK UNBOUND:                -0.758
REMARK SMILES CCCCCCCCCCCCCC(=O)[O-]
REMARK SMILES IDX 8 1 9 2 10 3 11 4 12 5 13 6 14 7 15 8 16 9 7 10 6 11 5 12
REMARK SMILES IDX 4 13 3 14 2 15 1 16
REMARK H PARENT
REMARK Flexibility Score: inf
ROOT
ATOM      1  C   UNL     1     -29.769  20.313  27.122  1.00  0.00     0.000 C 
ENDROOT
BRANCH   1   2
ATOM      2  C   UNL     1     -29.733  21.805  26.745  1.00  0.00     0.000 C 
BRANCH   2   3
ATOM      3  C   UNL     1     -29.835  22.731  27.966  1.00  0.00     0.000 C 
BRANCH   3   4
ATOM      4  C   UNL     1     -29.853  21.924  29.269  1.00  0.00     0.000 C 
BRANCH   4   5
ATOM      5  C   UNL     1     -30.939  22.442  30.223  1.00  0.00     0.006 C 
BRANCH   5   6
ATOM      6  C   UNL     1     -31.973  23.319  29.505  1.00  0.00     0.053 C 
BRANCH   6   7
ATOM      7  C   UNL     1     -32.351  24.516  30.324  1.00  0.00     0.041 C 
ATOM      8  O   UNL     1     -31.534  25.461  30.479  1.00  0.00    -0.550 OA
ATOM      9  O   UNL     1     -33.594  24.572  30.942  1.00  0.00    -0.550 OA
ENDBRANCH   6   7
ENDBRANCH   5   6
ENDBRANCH   4   5
ENDBRANCH   3   4
ENDBRANCH   2   3
ENDBRANCH   1   2
BRANCH   1  10
ATOM     10  C   UNL     1     -30.570  19.414  26.159  1.00  0.00     0.000 C 
BRANCH  10  11
ATOM     11  C   UNL     1     -31.618  20.149  25.302  1.00  0.00    -0.000 C 
BRANCH  11  12
ATOM     12  C   UNL     1     -31.518  19.794  23.809  1.00  0.00    -0.000 C 
BRANCH  12  13
ATOM     13  C   UNL     1     -30.083  19.900  23.269  1.00  0.00    -0.000 C 
BRANCH  13  14
ATOM     14  C   UNL     1     -29.699  21.342  22.896  1.00  0.00    -0.000 C 
BRANCH  14  15
ATOM     15  C   UNL     1     -28.284  21.714  23.365  1.00  0.00    -0.003 C 
ATOM     16  C   UNL     1     -27.409  20.491  23.638  1.00  0.00     0.004 C 
ENDBRANCH  14  15
ENDBRANCH  13  14
ENDBRANCH  12  13
ENDBRANCH  11  12
ENDBRANCH  10  11
ENDBRANCH   1  10
TORSDOF 12
ENDMDL
MODEL 6
REMARK VINA RESULT:    -4.118      6.075      7.966
REMARK INTER + INTRA:          -7.765
REMARK INTER:                  -6.432
REMARK INTRA:                  -1.333
REMARK UNBOUND:                -0.758
REMARK SMILES CCCCCCCCCCCCCC(=O)[O-]
REMARK SMILES IDX 8 1 9 2 10 3 11 4 12 5 13 6 14 7 15 8 16 9 7 10 6 11 5 12
REMARK SMILES IDX 4 13 3 14 2 15 1 16
REMARK H PARENT
REMARK Flexibility Score: inf
ROOT
ATOM      1  C   UNL     1     -31.357  17.265  23.995  1.00  0.00     0.000 C 
ENDROOT
BRANCH   1   2
ATOM      2  C   UNL     1     -32.526  16.380  23.526  1.00  0.00     0.000 C 
BRANCH   2   3
ATOM      3  C   UNL     1     -33.895  16.907  23.984  1.00  0.00     0.000 C 
BRANCH   3   4
ATOM      4  C   UNL     1     -33.765  17.723  25.275  1.00  0.00     0.000 C 
BRANCH   4   5
ATOM      5  C   UNL     1     -34.528  17.056  26.428  1.00  0.00     0.006 C 
BRANCH   5   6
ATOM      6  C   UNL     1     -34.146  15.579  26.600  1.00  0.00     0.053 C 
BRANCH   6   7
ATOM      7  C   UNL     1     -32.825  15.423  27.290  1.00  0.00     0.041 C 
ATOM      8  O   UNL     1     -32.618  15.989  28.396  1.00  0.00    -0.550 OA
ATOM      9  O   UNL     1     -31.813  14.679  26.696  1.00  0.00    -0.550 OA
ENDBRANCH   6   7
ENDBRANCH   5   6
ENDBRANCH   4   5
ENDBRANCH   3   4
ENDBRANCH   2   3
ENDBRANCH   1   2
BRANCH   1  10
ATOM     10  C   UNL     1     -30.829  18.263  22.944  1.00  0.00     0.000 C 
BRANCH  10  11
ATOM     11  C   UNL     1     -31.139  19.742  23.238  1.00  0.00    -0.000 C 
BRANCH  11  12
ATOM     12  C   UNL     1     -30.787  20.147  24.680  1.00  0.00    -0.000 C 
BRANCH  12  13
ATOM     13  C   UNL     1     -29.647  21.176  24.744  1.00  0.00    -0.000 C 
BRANCH  13  14
ATOM     14  C   UNL     1     -29.202  21.649  23.350  1.00  0.00    -0.000 C 
BRANCH  14  15
ATOM     15  C   UNL     1     -27.679  21.571  23.160  1.00  0.00    -0.003 C 
ATOM     16  C   UNL     1     -27.180  20.141  22.952  1.00  0.00     0.004 C 
ENDBRANCH  14  15
ENDBRANCH  13  14
ENDBRANCH  12  13
ENDBRANCH  11  12
ENDBRANCH  10  11
ENDBRANCH   1  10
TORSDOF 12
ENDMDL
MODEL 7
REMARK VINA RESULT:    -4.112      6.023      7.083
REMARK INTER + INTRA:          -7.754
REMARK INTER:                  -6.083
REMARK INTRA:                  -1.671
REMARK UNBOUND:                -0.758
REMARK SMILES CCCCCCCCCCCCCC(=O)[O-]
REMARK SMILES IDX 8 1 9 2 10 3 11 4 12 5 13 6 14 7 15 8 16 9 7 10 6 11 5 12
REMARK SMILES IDX 4 13 3 14 2 15 1 16
REMARK H PARENT
REMARK Flexibility Score: inf
ROOT
ATOM      1  C   UNL     1     -29.739  21.245  23.387  1.00  0.00     0.000 C 
ENDROOT
BRANCH   1   2
ATOM      2  C   UNL     1     -29.824  20.701  24.824  1.00  0.00     0.000 C 
BRANCH   2   3
ATOM      3  C   UNL     1     -30.857  19.574  24.976  1.00  0.00     0.000 C 
BRANCH   3   4
ATOM      4  C   UNL     1     -32.088  19.837  24.103  1.00  0.00     0.000 C 
BRANCH   4   5
ATOM      5  C   UNL     1     -33.368  19.339  24.791  1.00  0.00     0.006 C 
BRANCH   5   6
ATOM      6  C   UNL     1     -33.656  17.864  24.484  1.00  0.00     0.053 C 
BRANCH   6   7
ATOM      7  C   UNL     1     -33.595  17.017  25.719  1.00  0.00     0.041 C 
ATOM      8  O   UNL     1     -34.535  17.050  26.557  1.00  0.00    -0.550 OA
ATOM      9  O   UNL     1     -32.486  16.217  25.961  1.00  0.00    -0.550 OA
ENDBRANCH   6   7
ENDBRANCH   5   6
ENDBRANCH   4   5
ENDBRANCH   3   4
ENDBRANCH   2   3
ENDBRANCH   1   2
BRANCH   1  10
ATOM     10  C   UNL     1     -28.310  21.500  22.867  1.00  0.00     0.000 C 
BRANCH  10  11
ATOM     11  C   UNL     1     -27.241  20.526  23.395  1.00  0.00    -0.000 C 
BRANCH  11  12
ATOM     12  C   UNL     1     -26.993  19.344  22.443  1.00  0.00    -0.000 C 
BRANCH  12  13
ATOM     13  C   UNL     1     -27.765  18.080  22.853  1.00  0.00    -0.000 C 
BRANCH  13  14
ATOM     14  C   UNL     1     -28.579  17.484  21.692  1.00  0.00    -0.000 C 
BRANCH  14  15
ATOM     15  C   UNL     1     -30.067  17.860  21.764  1.00  0.00    -0.003 C 
ATOM     16  C   UNL     1     -30.953  16.694  22.200  1.00  0.00     0.004 C 
ENDBRANCH  14  15
ENDBRANCH  13  14
ENDBRANCH  12  13
ENDBRANCH  11  12
ENDBRANCH  10  11
ENDBRANCH   1  10
TORSDOF 12
ENDMDL
MODEL 8
REMARK VINA RESULT:    -4.091      4.818      7.044
REMARK INTER + INTRA:          -7.719
REMARK INTER:                  -5.881
REMARK INTRA:                  -1.838
REMARK UNBOUND:                -0.758
REMARK SMILES CCCCCCCCCCCCCC(=O)[O-]
REMARK SMILES IDX 8 1 9 2 10 3 11 4 12 5 13 6 14 7 15 8 16 9 7 10 6 11 5 12
REMARK SMILES IDX 4 13 3 14 2 15 1 16
REMARK H PARENT
REMARK Flexibility Score: inf
ROOT
ATOM      1  C   UNL     1     -29.057  19.947  23.726  1.00  0.00     0.000 C 
ENDROOT
BRANCH   1   2
ATOM      2  C   UNL     1     -30.518  20.288  23.381  1.00  0.00     0.000 C 
BRANCH   2   3
ATOM      3  C   UNL     1     -31.513  19.233  23.888  1.00  0.00     0.000 C 
BRANCH   3   4
ATOM      4  C   UNL     1     -32.820  19.887  24.349  1.00  0.00     0.000 C 
BRANCH   4   5
ATOM      5  C   UNL     1     -33.726  18.870  25.057  1.00  0.00     0.006 C 
BRANCH   5   6
ATOM      6  C   UNL     1     -33.328  17.421  24.745  1.00  0.00     0.053 C 
BRANCH   6   7
ATOM      7  C   UNL     1     -33.846  16.467  25.778  1.00  0.00     0.041 C 
ATOM      8  O   UNL     1     -34.569  16.885  26.720  1.00  0.00    -0.550 OA
ATOM      9  O   UNL     1     -33.503  15.122  25.717  1.00  0.00    -0.550 OA
ENDBRANCH   6   7
ENDBRANCH   5   6
ENDBRANCH   4   5
ENDBRANCH   3   4
ENDBRANCH   2   3
ENDBRANCH   1   2
BRANCH   1  10
ATOM     10  C   UNL     1     -28.214  21.131  24.242  1.00  0.00     0.000 C 
BRANCH  10  11
ATOM     11  C   UNL     1     -28.994  22.183  25.050  1.00  0.00    -0.000 C 
BRANCH  11  12
ATOM     12  C   UNL     1     -28.626  22.178  26.543  1.00  0.00    -0.000 C 
BRANCH  12  13
ATOM     13  C   UNL     1     -29.857  22.068  27.457  1.00  0.00    -0.000 C 
BRANCH  13  14
ATOM     14  C   UNL     1     -30.654  20.775  27.216  1.00  0.00    -0.000 C 
BRANCH  14  15
ATOM     15  C   UNL     1     -29.810  19.511  27.443  1.00  0.00    -0.003 C 
ATOM     16  C   UNL     1     -30.630  18.225  27.347  1.00  0.00     0.004 C 
ENDBRANCH  14  15
ENDBRANCH  13  14
ENDBRANCH  12  13
ENDBRANCH  11  12
ENDBRANCH  10  11
ENDBRANCH   1  10
TORSDOF 12
ENDMDL
MODEL 9
REMARK VINA RESULT:    -4.053      4.568      6.709
REMARK INTER + INTRA:          -7.654
REMARK INTER:                  -6.307
REMARK INTRA:                  -1.347
REMARK UNBOUND:                -0.758
REMARK SMILES CCCCCCCCCCCCCC(=O)[O-]
REMARK SMILES IDX 8 1 9 2 10 3 11 4 12 5 13 6 14 7 15 8 16 9 7 10 6 11 5 12
REMARK SMILES IDX 4 13 3 14 2 15 1 16
REMARK H PARENT
REMARK Flexibility Score: inf
ROOT
ATOM      1  C   UNL     1     -30.806  18.705  25.133  1.00  0.00     0.000 C 
ENDROOT
BRANCH   1   2
ATOM      2  C   UNL     1     -29.720  19.189  24.156  1.00  0.00     0.000 C 
BRANCH   2   3
ATOM      3  C   UNL     1     -30.187  20.357  23.274  1.00  0.00     0.000 C 
BRANCH   3   4
ATOM      4  C   UNL     1     -29.236  21.552  23.396  1.00  0.00     0.000 C 
BRANCH   4   5
ATOM      5  C   UNL     1     -28.352  21.428  24.645  1.00  0.00     0.006 C 
BRANCH   5   6
ATOM      6  C   UNL     1     -28.681  22.495  25.698  1.00  0.00     0.053 C 
BRANCH   6   7
ATOM      7  C   UNL     1     -29.190  21.884  26.968  1.00  0.00     0.041 C 
ATOM      8  O   UNL     1     -28.883  20.701  27.269  1.00  0.00    -0.550 OA
ATOM      9  O   UNL     1     -30.030  22.611  27.802  1.00  0.00    -0.550 OA
ENDBRANCH   6   7
ENDBRANCH   5   6
ENDBRANCH   4   5
ENDBRANCH   3   4
ENDBRANCH   2   3
ENDBRANCH   1   2
BRANCH   1  10
ATOM     10  C   UNL     1     -31.991  19.673  25.325  1.00  0.00     0.000 C 
BRANCH  10  11
ATOM     11  C   UNL     1     -33.381  19.056  25.082  1.00  0.00    -0.000 C 
BRANCH  11  12
ATOM     12  C   UNL     1     -33.314  17.728  24.309  1.00  0.00    -0.000 C 
BRANCH  12  13
ATOM     13  C   UNL     1     -33.871  16.544  25.115  1.00  0.00    -0.000 C 
BRANCH  13  14
ATOM     14  C   UNL     1     -34.472  16.981  26.462  1.00  0.00    -0.000 C 
BRANCH  14  15
ATOM     15  C   UNL     1     -34.090  16.034  27.611  1.00  0.00    -0.003 C 
ATOM     16  C   UNL     1     -33.617  14.666  27.120  1.00  0.00     0.004 C 
ENDBRANCH  14  15
ENDBRANCH  13  14
ENDBRANCH  12  13
ENDBRANCH  11  12
ENDBRANCH  10  11
ENDBRANCH   1  10
TORSDOF 12
ENDMDL
