MODEL 1
REMARK VINA RESULT:     2.466      0.000      0.000
REMARK INTER + INTRA:           4.065
REMARK INTER:                   5.350
REMARK INTRA:                  -1.285
REMARK UNBOUND:                -1.285
REMARK SMILES CCCCCCCCCCCCCCCCCCCCCC(=O)[O-]
REMARK SMILES IDX 12 1 11 2 10 3 9 4 8 5 7 6 6 7 5 8 4 9 3 10 2 11 1 12 13 13
REMARK SMILES IDX 14 14 15 15 16 16 17 17 18 18 19 19 20 20 21 21 22 22 23 23
REMARK SMILES IDX 24 24
REMARK H PARENT
REMARK Flexibility Score: inf
ROOT
ATOM      1  C   UNL     1     -29.502 -21.448 -19.937  1.00  0.00     0.000 C 
ENDROOT
BRANCH   1   2
ATOM      2  C   UNL     1     -28.384 -21.454 -18.883  1.00  0.00     0.000 C 
BRANCH   2   3
ATOM      3  C   UNL     1     -28.008 -22.871 -18.419  1.00  0.00     0.000 C 
BRANCH   3   4
ATOM      4  C   UNL     1     -28.163 -23.052 -16.898  1.00  0.00    -0.000 C 
BRANCH   4   5
ATOM      5  C   UNL     1     -29.635 -23.124 -16.449  1.00  0.00    -0.000 C 
BRANCH   5   6
ATOM      6  C   UNL     1     -29.928 -22.565 -15.044  1.00  0.00    -0.000 C 
BRANCH   6   7
ATOM      7  C   UNL     1     -31.390 -22.127 -14.863  1.00  0.00    -0.000 C 
BRANCH   7   8
ATOM      8  C   UNL     1     -31.529 -20.774 -14.141  1.00  0.00    -0.000 C 
BRANCH   8   9
ATOM      9  C   UNL     1     -30.226 -20.209 -13.545  1.00  0.00    -0.000 C 
BRANCH   9  10
ATOM     10  C   UNL     1     -30.417 -18.832 -12.885  1.00  0.00    -0.000 C 
BRANCH  10  11
ATOM     11  C   UNL     1     -29.519 -18.640 -11.652  1.00  0.00    -0.003 C 
ATOM     12  C   UNL     1     -28.877 -17.253 -11.595  1.00  0.00     0.004 C 
ENDBRANCH  10  11
ENDBRANCH   9  10
ENDBRANCH   8   9
ENDBRANCH   7   8
ENDBRANCH   6   7
ENDBRANCH   5   6
ENDBRANCH   4   5
ENDBRANCH   3   4
ENDBRANCH   2   3
ENDBRANCH   1   2
BRANCH   1  13
ATOM     13  C   UNL     1     -29.763 -22.869 -20.460  1.00  0.00     0.000 C 
BRANCH  13  14
ATOM     14  C   UNL     1     -29.285 -23.068 -21.907  1.00  0.00     0.000 C 
BRANCH  14  15
ATOM     15  C   UNL     1     -28.013 -22.263 -22.228  1.00  0.00     0.000 C 
BRANCH  15  16
ATOM     16  C   UNL     1     -28.229 -21.277 -23.396  1.00  0.00     0.000 C 
BRANCH  16  17
ATOM     17  C   UNL     1     -29.469 -21.596 -24.249  1.00  0.00     0.000 C 
BRANCH  17  18
ATOM     18  C   UNL     1     -29.827 -20.468 -25.231  1.00  0.00     0.000 C 
BRANCH  18  19
ATOM     19  C   UNL     1     -31.284 -19.983 -25.056  1.00  0.00     0.000 C 
BRANCH  19  20
ATOM     20  C   UNL     1     -32.175 -20.984 -24.295  1.00  0.00     0.006 C 
BRANCH  20  21
ATOM     21  C   UNL     1     -32.072 -20.869 -22.767  1.00  0.00     0.053 C 
BRANCH  21  22
ATOM     22  C   UNL     1     -32.742 -19.629 -22.255  1.00  0.00     0.041 C 
ATOM     23  O   UNL     1     -32.457 -19.182 -21.112  1.00  0.00    -0.550 OA
ATOM     24  O   UNL     1     -33.672 -18.962 -23.041  1.00  0.00    -0.550 OA
ENDBRANCH  21  22
ENDBRANCH  20  21
ENDBRANCH  19  20
ENDBRANCH  18  19
ENDBRANCH  17  18
ENDBRANCH  16  17
ENDBRANCH  15  16
ENDBRANCH  14  15
ENDBRANCH  13  14
ENDBRANCH   1  13
TORSDOF 20
ENDMDL
MODEL 2
REMARK VINA RESULT:     3.171      2.990      8.615
REMARK INTER + INTRA:           5.594
REMARK INTER:                   6.985
REMARK INTRA:                  -1.391
REMARK UNBOUND:                -1.285
REMARK SMILES CCCCCCCCCCCCCCCCCCCCCC(=O)[O-]
REMARK SMILES IDX 12 1 11 2 10 3 9 4 8 5 7 6 6 7 5 8 4 9 3 10 2 11 1 12 13 13
REMARK SMILES IDX 14 14 15 15 16 16 17 17 18 18 19 19 20 20 21 21 22 22 23 23
REMARK SMILES IDX 24 24
REMARK H PARENT
REMARK Flexibility Score: inf
ROOT
ATOM      1  C   UNL     1     -30.693 -20.545 -20.358  1.00  0.00     0.000 C 
ENDROOT
BRANCH   1   2
ATOM      2  C   UNL     1     -31.628 -19.853 -21.361  1.00  0.00     0.000 C 
BRANCH   2   3
ATOM      3  C   UNL     1     -32.427 -20.848 -22.218  1.00  0.00     0.000 C 
BRANCH   3   4
ATOM      4  C   UNL     1     -32.887 -20.237 -23.554  1.00  0.00    -0.000 C 
BRANCH   4   5
ATOM      5  C   UNL     1     -31.956 -19.117 -24.055  1.00  0.00    -0.000 C 
BRANCH   5   6
ATOM      6  C   UNL     1     -31.377 -19.316 -25.468  1.00  0.00    -0.000 C 
BRANCH   6   7
ATOM      7  C   UNL     1     -31.554 -20.750 -25.995  1.00  0.00    -0.000 C 
BRANCH   7   8
ATOM      8  C   UNL     1     -30.266 -21.589 -25.897  1.00  0.00    -0.000 C 
BRANCH   8   9
ATOM      9  C   UNL     1     -29.869 -22.024 -24.473  1.00  0.00    -0.000 C 
BRANCH   9  10
ATOM     10  C   UNL     1     -28.566 -21.366 -23.987  1.00  0.00    -0.000 C 
BRANCH  10  11
ATOM     11  C   UNL     1     -28.098 -21.916 -22.630  1.00  0.00    -0.003 C 
ATOM     12  C   UNL     1     -26.910 -22.871 -22.754  1.00  0.00     0.004 C 
ENDBRANCH  10  11
ENDBRANCH   9  10
ENDBRANCH   8   9
ENDBRANCH   7   8
ENDBRANCH   6   7
ENDBRANCH   5   6
ENDBRANCH   4   5
ENDBRANCH   3   4
ENDBRANCH   2   3
ENDBRANCH   1   2
BRANCH   1  13
ATOM     13  C   UNL     1     -30.797 -22.073 -20.483  1.00  0.00     0.000 C 
BRANCH  13  14
ATOM     14  C   UNL     1     -29.714 -22.811 -19.680  1.00  0.00     0.000 C 
BRANCH  14  15
ATOM     15  C   UNL     1     -28.326 -22.159 -19.816  1.00  0.00     0.000 C 
BRANCH  15  16
ATOM     16  C   UNL     1     -27.754 -21.719 -18.452  1.00  0.00     0.000 C 
BRANCH  16  17
ATOM     17  C   UNL     1     -27.132 -22.872 -17.644  1.00  0.00     0.000 C 
BRANCH  17  18
ATOM     18  C   UNL     1     -27.852 -23.125 -16.309  1.00  0.00     0.000 C 
BRANCH  18  19
ATOM     19  C   UNL     1     -29.353 -22.767 -16.378  1.00  0.00     0.000 C 
BRANCH  19  20
ATOM     20  C   UNL     1     -30.065 -22.851 -15.015  1.00  0.00     0.006 C 
BRANCH  20  21
ATOM     21  C   UNL     1     -31.543 -22.434 -15.059  1.00  0.00     0.053 C 
BRANCH  21  22
ATOM     22  C   UNL     1     -31.772 -21.120 -14.374  1.00  0.00     0.041 C 
ATOM     23  O   UNL     1     -32.943 -20.744 -14.103  1.00  0.00    -0.550 OA
ATOM     24  O   UNL     1     -30.694 -20.317 -14.025  1.00  0.00    -0.550 OA
ENDBRANCH  21  22
ENDBRANCH  20  21
ENDBRANCH  19  20
ENDBRANCH  18  19
ENDBRANCH  17  18
ENDBRANCH  16  17
ENDBRANCH  15  16
ENDBRANCH  14  15
ENDBRANCH  13  14
ENDBRANCH   1  13
TORSDOF 20
ENDMDL
MODEL 3
REMARK VINA RESULT:     3.181      3.268      9.098
REMARK INTER + INTRA:           5.616
REMARK INTER:                   7.438
REMARK INTRA:                  -1.822
REMARK UNBOUND:                -1.285
REMARK SMILES CCCCCCCCCCCCCCCCCCCCCC(=O)[O-]
REMARK SMILES IDX 12 1 11 2 10 3 9 4 8 5 7 6 6 7 5 8 4 9 3 10 2 11 1 12 13 13
REMARK SMILES IDX 14 14 15 15 16 16 17 17 18 18 19 19 20 20 21 21 22 22 23 23
REMARK SMILES IDX 24 24
REMARK H PARENT
REMARK Flexibility Score: inf
ROOT
ATOM      1  C   UNL     1     -28.963 -21.307 -19.185  1.00  0.00     0.000 C 
ENDROOT
BRANCH   1   2
ATOM      2  C   UNL     1     -29.865 -20.946 -20.374  1.00  0.00     0.000 C 
BRANCH   2   3
ATOM      3  C   UNL     1     -30.507 -22.177 -21.034  1.00  0.00     0.000 C 
BRANCH   3   4
ATOM      4  C   UNL     1     -31.755 -21.819 -21.860  1.00  0.00    -0.000 C 
BRANCH   4   5
ATOM      5  C   UNL     1     -32.285 -20.403 -21.566  1.00  0.00    -0.000 C 
BRANCH   5   6
ATOM      6  C   UNL     1     -32.548 -19.522 -22.801  1.00  0.00    -0.000 C 
BRANCH   6   7
ATOM      7  C   UNL     1     -32.453 -20.297 -24.125  1.00  0.00    -0.000 C 
BRANCH   7   8
ATOM      8  C   UNL     1     -31.501 -19.640 -25.141  1.00  0.00    -0.000 C 
BRANCH   8   9
ATOM      9  C   UNL     1     -30.558 -20.606 -25.882  1.00  0.00    -0.000 C 
BRANCH   9  10
ATOM     10  C   UNL     1     -29.853 -21.597 -24.940  1.00  0.00    -0.000 C 
BRANCH  10  11
ATOM     11  C   UNL     1     -28.903 -20.899 -23.953  1.00  0.00    -0.003 C 
ATOM     12  C   UNL     1     -27.863 -21.849 -23.356  1.00  0.00     0.004 C 
ENDBRANCH  10  11
ENDBRANCH   9  10
ENDBRANCH   8   9
ENDBRANCH   7   8
ENDBRANCH   6   7
ENDBRANCH   5   6
ENDBRANCH   4   5
ENDBRANCH   3   4
ENDBRANCH   2   3
ENDBRANCH   1   2
BRANCH   1  13
ATOM     13  C   UNL     1     -28.307 -22.679 -19.398  1.00  0.00     0.000 C 
BRANCH  13  14
ATOM     14  C   UNL     1     -27.424 -23.107 -18.214  1.00  0.00     0.000 C 
BRANCH  14  15
ATOM     15  C   UNL     1     -27.957 -22.598 -16.862  1.00  0.00     0.000 C 
BRANCH  15  16
ATOM     16  C   UNL     1     -29.377 -23.124 -16.562  1.00  0.00     0.000 C 
BRANCH  16  17
ATOM     17  C   UNL     1     -29.849 -22.836 -15.126  1.00  0.00     0.000 C 
BRANCH  17  18
ATOM     18  C   UNL     1     -31.341 -22.474 -15.047  1.00  0.00     0.000 C 
BRANCH  18  19
ATOM     19  C   UNL     1     -31.564 -20.997 -14.655  1.00  0.00     0.000 C 
BRANCH  19  20
ATOM     20  C   UNL     1     -30.455 -20.431 -13.747  1.00  0.00     0.006 C 
BRANCH  20  21
ATOM     21  C   UNL     1     -30.850 -19.141 -13.014  1.00  0.00     0.053 C 
BRANCH  21  22
ATOM     22  C   UNL     1     -29.733 -18.619 -12.161  1.00  0.00     0.041 C 
ATOM     23  O   UNL     1     -28.884 -19.413 -11.676  1.00  0.00    -0.550 OA
ATOM     24  O   UNL     1     -29.622 -17.257 -11.912  1.00  0.00    -0.550 OA
ENDBRANCH  21  22
ENDBRANCH  20  21
ENDBRANCH  19  20
ENDBRANCH  18  19
ENDBRANCH  17  18
ENDBRANCH  16  17
ENDBRANCH  15  16
ENDBRANCH  14  15
ENDBRANCH  13  14
ENDBRANCH   1  13
TORSDOF 20
ENDMDL
MODEL 4
REMARK VINA RESULT:     3.243      3.120      8.910
REMARK INTER + INTRA:           5.750
REMARK INTER:                   6.996
REMARK INTRA:                  -1.246
REMARK UNBOUND:                -1.285
REMARK SMILES CCCCCCCCCCCCCCCCCCCCCC(=O)[O-]
REMARK SMILES IDX 12 1 11 2 10 3 9 4 8 5 7 6 6 7 5 8 4 9 3 10 2 11 1 12 13 13
REMARK SMILES IDX 14 14 15 15 16 16 17 17 18 18 19 19 20 20 21 21 22 22 23 23
REMARK SMILES IDX 24 24
REMARK H PARENT
REMARK Flexibility Score: inf
ROOT
ATOM      1  C   UNL     1     -28.764 -21.000 -19.844  1.00  0.00     0.000 C 
ENDROOT
BRANCH   1   2
ATOM      2  C   UNL     1     -29.830 -22.049 -20.190  1.00  0.00     0.000 C 
BRANCH   2   3
ATOM      3  C   UNL     1     -29.395 -22.993 -21.324  1.00  0.00     0.000 C 
BRANCH   3   4
ATOM      4  C   UNL     1     -27.987 -22.666 -21.853  1.00  0.00    -0.000 C 
BRANCH   4   5
ATOM      5  C   UNL     1     -27.997 -22.127 -23.296  1.00  0.00    -0.000 C 
BRANCH   5   6
ATOM      6  C   UNL     1     -29.103 -21.104 -23.615  1.00  0.00    -0.000 C 
BRANCH   6   7
ATOM      7  C   UNL     1     -29.478 -21.066 -25.105  1.00  0.00    -0.000 C 
BRANCH   7   8
ATOM      8  C   UNL     1     -30.892 -20.510 -25.356  1.00  0.00    -0.000 C 
BRANCH   8   9
ATOM      9  C   UNL     1     -31.887 -20.690 -24.194  1.00  0.00    -0.000 C 
BRANCH   9  10
ATOM     10  C   UNL     1     -32.588 -19.379 -23.797  1.00  0.00    -0.000 C 
BRANCH  10  11
ATOM     11  C   UNL     1     -32.978 -19.346 -22.310  1.00  0.00    -0.003 C 
ATOM     12  C   UNL     1     -32.400 -20.519 -21.518  1.00  0.00     0.004 C 
ENDBRANCH  10  11
ENDBRANCH   9  10
ENDBRANCH   8   9
ENDBRANCH   7   8
ENDBRANCH   6   7
ENDBRANCH   5   6
ENDBRANCH   4   5
ENDBRANCH   3   4
ENDBRANCH   2   3
ENDBRANCH   1   2
BRANCH   1  13
ATOM     13  C   UNL     1     -28.137 -21.293 -18.473  1.00  0.00     0.000 C 
BRANCH  13  14
ATOM     14  C   UNL     1     -28.028 -22.798 -18.179  1.00  0.00     0.000 C 
BRANCH  14  15
ATOM     15  C   UNL     1     -28.203 -23.125 -16.684  1.00  0.00     0.000 C 
BRANCH  15  16
ATOM     16  C   UNL     1     -29.687 -23.125 -16.259  1.00  0.00     0.000 C 
BRANCH  16  17
ATOM     17  C   UNL     1     -30.058 -21.966 -15.318  1.00  0.00     0.000 C 
BRANCH  17  18
ATOM     18  C   UNL     1     -31.493 -22.070 -14.775  1.00  0.00     0.000 C 
BRANCH  18  19
ATOM     19  C   UNL     1     -31.779 -21.021 -13.677  1.00  0.00     0.000 C 
BRANCH  19  20
ATOM     20  C   UNL     1     -30.986 -19.713 -13.860  1.00  0.00     0.006 C 
BRANCH  20  21
ATOM     21  C   UNL     1     -29.641 -19.694 -13.119  1.00  0.00     0.053 C 
BRANCH  21  22
ATOM     22  C   UNL     1     -29.631 -18.688 -12.008  1.00  0.00     0.041 C 
ATOM     23  O   UNL     1     -29.355 -19.046 -10.832  1.00  0.00    -0.550 OA
ATOM     24  O   UNL     1     -29.914 -17.353 -12.270  1.00  0.00    -0.550 OA
ENDBRANCH  21  22
ENDBRANCH  20  21
ENDBRANCH  19  20
ENDBRANCH  18  19
ENDBRANCH  17  18
ENDBRANCH  16  17
ENDBRANCH  15  16
ENDBRANCH  14  15
ENDBRANCH  13  14
ENDBRANCH   1  13
TORSDOF 20
ENDMDL
MODEL 5
REMARK VINA RESULT:     3.355      5.718     11.051
REMARK INTER + INTRA:           5.992
REMARK INTER:                   7.209
REMARK INTRA:                  -1.217
REMARK UNBOUND:                -1.285
REMARK SMILES CCCCCCCCCCCCCCCCCCCCCC(=O)[O-]
REMARK SMILES IDX 12 1 11 2 10 3 9 4 8 5 7 6 6 7 5 8 4 9 3 10 2 11 1 12 13 13
REMARK SMILES IDX 14 14 15 15 16 16 17 17 18 18 19 19 20 20 21 21 22 22 23 23
REMARK SMILES IDX 24 24
REMARK H PARENT
REMARK Flexibility Score: inf
ROOT
ATOM      1  C   UNL     1     -28.200 -21.948 -19.022  1.00  0.00     0.000 C 
ENDROOT
BRANCH   1   2
ATOM      2  C   UNL     1     -27.755 -23.125 -19.902  1.00  0.00     0.000 C 
BRANCH   2   3
ATOM      3  C   UNL     1     -27.821 -22.806 -21.405  1.00  0.00     0.000 C 
BRANCH   3   4
ATOM      4  C   UNL     1     -29.105 -22.050 -21.790  1.00  0.00    -0.000 C 
BRANCH   4   5
ATOM      5  C   UNL     1     -30.372 -22.920 -21.677  1.00  0.00    -0.000 C 
BRANCH   5   6
ATOM      6  C   UNL     1     -31.706 -22.180 -21.887  1.00  0.00    -0.000 C 
BRANCH   6   7
ATOM      7  C   UNL     1     -31.523 -20.731 -22.367  1.00  0.00    -0.000 C 
BRANCH   7   8
ATOM      8  C   UNL     1     -32.653 -20.258 -23.299  1.00  0.00    -0.000 C 
BRANCH   8   9
ATOM      9  C   UNL     1     -32.200 -19.761 -24.684  1.00  0.00    -0.000 C 
BRANCH   9  10
ATOM     10  C   UNL     1     -30.702 -19.992 -24.944  1.00  0.00    -0.000 C 
BRANCH  10  11
ATOM     11  C   UNL     1     -30.448 -20.966 -26.108  1.00  0.00    -0.003 C 
ATOM     12  C   UNL     1     -31.605 -21.941 -26.328  1.00  0.00     0.004 C 
ENDBRANCH  10  11
ENDBRANCH   9  10
ENDBRANCH   8   9
ENDBRANCH   7   8
ENDBRANCH   6   7
ENDBRANCH   5   6
ENDBRANCH   4   5
ENDBRANCH   3   4
ENDBRANCH   2   3
ENDBRANCH   1   2
BRANCH   1  13
ATOM     13  C   UNL     1     -28.213 -22.352 -17.540  1.00  0.00     0.000 C 
BRANCH  13  14
ATOM     14  C   UNL     1     -26.938 -23.099 -17.116  1.00  0.00     0.000 C 
BRANCH  14  15
ATOM     15  C   UNL     1     -26.539 -22.812 -15.657  1.00  0.00     0.000 C 
BRANCH  15  16
ATOM     16  C   UNL     1     -25.063 -22.379 -15.533  1.00  0.00     0.000 C 
BRANCH  16  17
ATOM     17  C   UNL     1     -24.611 -22.143 -14.081  1.00  0.00     0.000 C 
BRANCH  17  18
ATOM     18  C   UNL     1     -23.092 -21.942 -13.952  1.00  0.00     0.000 C 
BRANCH  18  19
ATOM     19  C   UNL     1     -22.697 -21.346 -12.582  1.00  0.00     0.000 C 
BRANCH  19  20
ATOM     20  C   UNL     1     -21.381 -20.546 -12.620  1.00  0.00     0.006 C 
BRANCH  20  21
ATOM     21  C   UNL     1     -21.578 -19.036 -12.826  1.00  0.00     0.053 C 
BRANCH  21  22
ATOM     22  C   UNL     1     -21.433 -18.275 -11.543  1.00  0.00     0.041 C 
ATOM     23  O   UNL     1     -20.896 -17.136 -11.539  1.00  0.00    -0.550 OA
ATOM     24  O   UNL     1     -21.901 -18.817 -10.352  1.00  0.00    -0.550 OA
ENDBRANCH  21  22
ENDBRANCH  20  21
ENDBRANCH  19  20
ENDBRANCH  18  19
ENDBRANCH  17  18
ENDBRANCH  16  17
ENDBRANCH  15  16
ENDBRANCH  14  15
ENDBRANCH  13  14
ENDBRANCH   1  13
TORSDOF 20
ENDMDL
MODEL 6
REMARK VINA RESULT:     3.430      0.845      1.664
REMARK INTER + INTRA:           6.157
REMARK INTER:                   6.437
REMARK INTRA:                  -0.280
REMARK UNBOUND:                -1.285
REMARK SMILES CCCCCCCCCCCCCCCCCCCCCC(=O)[O-]
REMARK SMILES IDX 12 1 11 2 10 3 9 4 8 5 7 6 6 7 5 8 4 9 3 10 2 11 1 12 13 13
REMARK SMILES IDX 14 14 15 15 16 16 17 17 18 18 19 19 20 20 21 21 22 22 23 23
REMARK SMILES IDX 24 24
REMARK H PARENT
REMARK Flexibility Score: inf
ROOT
ATOM      1  C   UNL     1     -29.870 -21.826 -20.561  1.00  0.00     0.000 C 
ENDROOT
BRANCH   1   2
ATOM      2  C   UNL     1     -28.642 -20.990 -20.171  1.00  0.00     0.000 C 
BRANCH   2   3
ATOM      3  C   UNL     1     -28.285 -21.111 -18.680  1.00  0.00     0.000 C 
BRANCH   3   4
ATOM      4  C   UNL     1     -27.321 -22.277 -18.399  1.00  0.00    -0.000 C 
BRANCH   4   5
ATOM      5  C   UNL     1     -27.736 -23.121 -17.179  1.00  0.00    -0.000 C 
BRANCH   5   6
ATOM      6  C   UNL     1     -29.242 -23.123 -16.855  1.00  0.00    -0.000 C 
BRANCH   6   7
ATOM      7  C   UNL     1     -29.541 -22.829 -15.376  1.00  0.00    -0.000 C 
BRANCH   7   8
ATOM      8  C   UNL     1     -31.035 -22.956 -15.027  1.00  0.00    -0.000 C 
BRANCH   8   9
ATOM      9  C   UNL     1     -31.846 -21.649 -15.112  1.00  0.00    -0.000 C 
BRANCH   9  10
ATOM     10  C   UNL     1     -31.702 -20.771 -13.857  1.00  0.00    -0.000 C 
BRANCH  10  11
ATOM     11  C   UNL     1     -30.249 -20.334 -13.607  1.00  0.00    -0.003 C 
ATOM     12  C   UNL     1     -30.149 -19.073 -12.746  1.00  0.00     0.004 C 
ENDBRANCH  10  11
ENDBRANCH   9  10
ENDBRANCH   8   9
ENDBRANCH   7   8
ENDBRANCH   6   7
ENDBRANCH   5   6
ENDBRANCH   4   5
ENDBRANCH   3   4
ENDBRANCH   2   3
ENDBRANCH   1   2
BRANCH   1  13
ATOM     13  C   UNL     1     -29.454 -23.042 -21.401  1.00  0.00     0.000 C 
BRANCH  13  14
ATOM     14  C   UNL     1     -28.075 -22.869 -22.058  1.00  0.00     0.000 C 
BRANCH  14  15
ATOM     15  C   UNL     1     -28.003 -21.633 -22.972  1.00  0.00     0.000 C 
BRANCH  15  16
ATOM     16  C   UNL     1     -29.021 -21.707 -24.130  1.00  0.00     0.000 C 
BRANCH  16  17
ATOM     17  C   UNL     1     -29.484 -20.328 -24.631  1.00  0.00     0.000 C 
BRANCH  17  18
ATOM     18  C   UNL     1     -30.689 -20.410 -25.583  1.00  0.00     0.000 C 
BRANCH  18  19
ATOM     19  C   UNL     1     -31.913 -21.079 -24.918  1.00  0.00     0.000 C 
BRANCH  19  20
ATOM     20  C   UNL     1     -31.722 -21.345 -23.412  1.00  0.00     0.006 C 
BRANCH  20  21
ATOM     21  C   UNL     1     -32.902 -20.881 -22.546  1.00  0.00     0.053 C 
BRANCH  21  22
ATOM     22  C   UNL     1     -32.804 -19.425 -22.205  1.00  0.00     0.041 C 
ATOM     23  O   UNL     1     -32.613 -19.065 -21.012  1.00  0.00    -0.550 OA
ATOM     24  O   UNL     1     -32.913 -18.464 -23.202  1.00  0.00    -0.550 OA
ENDBRANCH  21  22
ENDBRANCH  20  21
ENDBRANCH  19  20
ENDBRANCH  18  19
ENDBRANCH  17  18
ENDBRANCH  16  17
ENDBRANCH  15  16
ENDBRANCH  14  15
ENDBRANCH  13  14
ENDBRANCH   1  13
TORSDOF 20
ENDMDL
MODEL 7
REMARK VINA RESULT:     3.980      2.393      4.201
REMARK INTER + INTRA:           7.349
REMARK INTER:                   6.950
REMARK INTRA:                   0.399
REMARK UNBOUND:                -1.285
REMARK SMILES CCCCCCCCCCCCCCCCCCCCCC(=O)[O-]
REMARK SMILES IDX 12 1 11 2 10 3 9 4 8 5 7 6 6 7 5 8 4 9 3 10 2 11 1 12 13 13
REMARK SMILES IDX 14 14 15 15 16 16 17 17 18 18 19 19 20 20 21 21 22 22 23 23
REMARK SMILES IDX 24 24
REMARK H PARENT
REMARK Flexibility Score: inf
ROOT
ATOM      1  C   UNL     1     -31.396 -19.972 -20.893  1.00  0.00     0.000 C 
ENDROOT
BRANCH   1   2
ATOM      2  C   UNL     1     -31.241 -21.355 -21.543  1.00  0.00     0.000 C 
BRANCH   2   3
ATOM      3  C   UNL     1     -30.671 -22.408 -20.578  1.00  0.00     0.000 C 
BRANCH   3   4
ATOM      4  C   UNL     1     -29.250 -22.060 -20.100  1.00  0.00    -0.000 C 
BRANCH   4   5
ATOM      5  C   UNL     1     -28.655 -23.124 -19.158  1.00  0.00    -0.000 C 
BRANCH   5   6
ATOM      6  C   UNL     1     -27.542 -22.629 -18.216  1.00  0.00    -0.000 C 
BRANCH   6   7
ATOM      7  C   UNL     1     -27.831 -22.919 -16.735  1.00  0.00    -0.000 C 
BRANCH   7   8
ATOM      8  C   UNL     1     -29.330 -23.121 -16.443  1.00  0.00    -0.000 C 
BRANCH   8   9
ATOM      9  C   UNL     1     -29.882 -22.324 -15.247  1.00  0.00    -0.000 C 
BRANCH   9  10
ATOM     10  C   UNL     1     -31.415 -22.392 -15.137  1.00  0.00    -0.000 C 
BRANCH  10  11
ATOM     11  C   UNL     1     -31.984 -21.346 -14.165  1.00  0.00    -0.003 C 
ATOM     12  C   UNL     1     -30.989 -20.229 -13.845  1.00  0.00     0.004 C 
ENDBRANCH  10  11
ENDBRANCH   9  10
ENDBRANCH   8   9
ENDBRANCH   7   8
ENDBRANCH   6   7
ENDBRANCH   5   6
ENDBRANCH   4   5
ENDBRANCH   3   4
ENDBRANCH   2   3
ENDBRANCH   1   2
BRANCH   1  13
ATOM     13  C   UNL     1     -32.819 -19.433 -21.096  1.00  0.00     0.000 C 
BRANCH  13  14
ATOM     14  C   UNL     1     -33.253 -19.437 -22.571  1.00  0.00     0.000 C 
BRANCH  14  15
ATOM     15  C   UNL     1     -32.151 -19.958 -23.512  1.00  0.00     0.000 C 
BRANCH  15  16
ATOM     16  C   UNL     1     -31.663 -18.871 -24.493  1.00  0.00     0.000 C 
BRANCH  16  17
ATOM     17  C   UNL     1     -31.191 -19.430 -25.847  1.00  0.00     0.000 C 
BRANCH  17  18
ATOM     18  C   UNL     1     -31.657 -20.874 -26.093  1.00  0.00     0.000 C 
BRANCH  18  19
ATOM     19  C   UNL     1     -30.473 -21.866 -26.159  1.00  0.00     0.000 C 
BRANCH  19  20
ATOM     20  C   UNL     1     -29.285 -21.460 -25.266  1.00  0.00     0.006 C 
BRANCH  20  21
ATOM     21  C   UNL     1     -29.317 -22.091 -23.866  1.00  0.00     0.053 C 
BRANCH  21  22
ATOM     22  C   UNL     1     -27.958 -22.112 -23.234  1.00  0.00     0.041 C 
ATOM     23  O   UNL     1     -27.070 -21.304 -23.614  1.00  0.00    -0.550 OA
ATOM     24  O   UNL     1     -27.674 -23.017 -22.218  1.00  0.00    -0.550 OA
ENDBRANCH  21  22
ENDBRANCH  20  21
ENDBRANCH  19  20
ENDBRANCH  18  19
ENDBRANCH  17  18
ENDBRANCH  16  17
ENDBRANCH  15  16
ENDBRANCH  14  15
ENDBRANCH  13  14
ENDBRANCH   1  13
TORSDOF 20
ENDMDL
MODEL 8
REMARK VINA RESULT:     4.098      1.775      2.391
REMARK INTER + INTRA:           7.605
REMARK INTER:                   8.073
REMARK INTRA:                  -0.468
REMARK UNBOUND:                -1.285
REMARK SMILES CCCCCCCCCCCCCCCCCCCCCC(=O)[O-]
REMARK SMILES IDX 12 1 11 2 10 3 9 4 8 5 7 6 6 7 5 8 4 9 3 10 2 11 1 12 13 13
REMARK SMILES IDX 14 14 15 15 16 16 17 17 18 18 19 19 20 20 21 21 22 22 23 23
REMARK SMILES IDX 24 24
REMARK H PARENT
REMARK Flexibility Score: inf
ROOT
ATOM      1  C   UNL     1     -28.211 -21.563 -18.490  1.00  0.00     0.000 C 
ENDROOT
BRANCH   1   2
ATOM      2  C   UNL     1     -27.609 -22.912 -18.071  1.00  0.00     0.000 C 
BRANCH   2   3
ATOM      3  C   UNL     1     -27.034 -22.894 -16.645  1.00  0.00     0.000 C 
BRANCH   3   4
ATOM      4  C   UNL     1     -28.113 -23.125 -15.572  1.00  0.00    -0.000 C 
BRANCH   4   5
ATOM      5  C   UNL     1     -29.475 -22.511 -15.947  1.00  0.00    -0.000 C 
BRANCH   5   6
ATOM      6  C   UNL     1     -30.688 -23.070 -15.182  1.00  0.00    -0.000 C 
BRANCH   6   7
ATOM      7  C   UNL     1     -31.512 -21.980 -14.477  1.00  0.00    -0.000 C 
BRANCH   7   8
ATOM      8  C   UNL     1     -30.797 -20.618 -14.436  1.00  0.00    -0.000 C 
BRANCH   8   9
ATOM      9  C   UNL     1     -31.080 -19.761 -13.188  1.00  0.00    -0.000 C 
BRANCH   9  10
ATOM     10  C   UNL     1     -29.863 -19.640 -12.255  1.00  0.00    -0.000 C 
BRANCH  10  11
ATOM     11  C   UNL     1     -29.121 -18.304 -12.423  1.00  0.00    -0.003 C 
ATOM     12  C   UNL     1     -30.048 -17.093 -12.318  1.00  0.00     0.004 C 
ENDBRANCH  10  11
ENDBRANCH   9  10
ENDBRANCH   8   9
ENDBRANCH   7   8
ENDBRANCH   6   7
ENDBRANCH   5   6
ENDBRANCH   4   5
ENDBRANCH   3   4
ENDBRANCH   2   3
ENDBRANCH   1   2
BRANCH   1  13
ATOM     13  C   UNL     1     -28.604 -21.581 -19.975  1.00  0.00     0.000 C 
BRANCH  13  14
ATOM     14  C   UNL     1     -28.800 -23.004 -20.522  1.00  0.00     0.000 C 
BRANCH  14  15
ATOM     15  C   UNL     1     -28.720 -23.065 -22.058  1.00  0.00     0.000 C 
BRANCH  15  16
ATOM     16  C   UNL     1     -29.451 -21.881 -22.726  1.00  0.00     0.000 C 
BRANCH  16  17
ATOM     17  C   UNL     1     -30.983 -22.018 -22.715  1.00  0.00     0.000 C 
BRANCH  17  18
ATOM     18  C   UNL     1     -31.663 -21.071 -21.713  1.00  0.00     0.000 C 
BRANCH  18  19
ATOM     19  C   UNL     1     -32.495 -19.976 -22.417  1.00  0.00     0.000 C 
BRANCH  19  20
ATOM     20  C   UNL     1     -32.722 -20.250 -23.917  1.00  0.00     0.006 C 
BRANCH  20  21
ATOM     21  C   UNL     1     -31.596 -19.726 -24.820  1.00  0.00     0.053 C 
BRANCH  21  22
ATOM     22  C   UNL     1     -31.096 -20.784 -25.757  1.00  0.00     0.041 C 
ATOM     23  O   UNL     1     -29.897 -20.772 -26.144  1.00  0.00    -0.550 OA
ATOM     24  O   UNL     1     -31.949 -21.790 -26.195  1.00  0.00    -0.550 OA
ENDBRANCH  21  22
ENDBRANCH  20  21
ENDBRANCH  19  20
ENDBRANCH  18  19
ENDBRANCH  17  18
ENDBRANCH  16  17
ENDBRANCH  15  16
ENDBRANCH  14  15
ENDBRANCH  13  14
ENDBRANCH   1  13
TORSDOF 20
ENDMDL
MODEL 9
REMARK VINA RESULT:     4.184      5.863     10.854
REMARK INTER + INTRA:           7.791
REMARK INTER:                   8.230
REMARK INTRA:                  -0.439
REMARK UNBOUND:                -1.285
REMARK SMILES CCCCCCCCCCCCCCCCCCCCCC(=O)[O-]
REMARK SMILES IDX 12 1 11 2 10 3 9 4 8 5 7 6 6 7 5 8 4 9 3 10 2 11 1 12 13 13
REMARK SMILES IDX 14 14 15 15 16 16 17 17 18 18 19 19 20 20 21 21 22 22 23 23
REMARK SMILES IDX 24 24
REMARK H PARENT
REMARK Flexibility Score: inf
ROOT
ATOM      1  C   UNL     1     -28.250 -22.083 -18.279  1.00  0.00     0.000 C 
ENDROOT
BRANCH   1   2
ATOM      2  C   UNL     1     -28.834 -23.124 -19.246  1.00  0.00     0.000 C 
BRANCH   2   3
ATOM      3  C   UNL     1     -29.770 -22.505 -20.297  1.00  0.00     0.000 C 
BRANCH   3   4
ATOM      4  C   UNL     1     -29.018 -21.609 -21.298  1.00  0.00    -0.000 C 
BRANCH   4   5
ATOM      5  C   UNL     1     -28.599 -22.357 -22.578  1.00  0.00    -0.000 C 
BRANCH   5   6
ATOM      6  C   UNL     1     -28.365 -21.473 -23.817  1.00  0.00    -0.000 C 
BRANCH   6   7
ATOM      7  C   UNL     1     -29.616 -21.325 -24.697  1.00  0.00    -0.000 C 
BRANCH   7   8
ATOM      8  C   UNL     1     -30.929 -21.434 -23.900  1.00  0.00    -0.000 C 
BRANCH   8   9
ATOM      9  C   UNL     1     -31.798 -20.162 -23.885  1.00  0.00    -0.000 C 
BRANCH   9  10
ATOM     10  C   UNL     1     -33.004 -20.272 -22.937  1.00  0.00    -0.000 C 
BRANCH  10  11
ATOM     11  C   UNL     1     -32.587 -20.418 -21.464  1.00  0.00    -0.003 C 
ATOM     12  C   UNL     1     -32.353 -19.073 -20.776  1.00  0.00     0.004 C 
ENDBRANCH  10  11
ENDBRANCH   9  10
ENDBRANCH   8   9
ENDBRANCH   7   8
ENDBRANCH   6   7
ENDBRANCH   5   6
ENDBRANCH   4   5
ENDBRANCH   3   4
ENDBRANCH   2   3
ENDBRANCH   1   2
BRANCH   1  13
ATOM     13  C   UNL     1     -28.024 -22.699 -16.890  1.00  0.00     0.000 C 
BRANCH  13  14
ATOM     14  C   UNL     1     -26.553 -23.059 -16.631  1.00  0.00     0.000 C 
BRANCH  14  15
ATOM     15  C   UNL     1     -26.109 -22.746 -15.190  1.00  0.00     0.000 C 
BRANCH  15  16
ATOM     16  C   UNL     1     -24.626 -22.327 -15.117  1.00  0.00     0.000 C 
BRANCH  16  17
ATOM     17  C   UNL     1     -24.154 -21.978 -13.694  1.00  0.00     0.000 C 
BRANCH  17  18
ATOM     18  C   UNL     1     -22.649 -21.674 -13.620  1.00  0.00     0.000 C 
BRANCH  18  19
ATOM     19  C   UNL     1     -22.302 -20.724 -12.452  1.00  0.00     0.000 C 
BRANCH  19  20
ATOM     20  C   UNL     1     -21.036 -19.882 -12.703  1.00  0.00     0.006 C 
BRANCH  20  21
ATOM     21  C   UNL     1     -21.229 -18.379 -12.449  1.00  0.00     0.053 C 
BRANCH  21  22
ATOM     22  C   UNL     1     -21.465 -18.085 -10.998  1.00  0.00     0.041 C 
ATOM     23  O   UNL     1     -21.129 -16.971 -10.516  1.00  0.00    -0.550 OA
ATOM     24  O   UNL     1     -22.065 -19.034 -10.181  1.00  0.00    -0.550 OA
ENDBRANCH  21  22
ENDBRANCH  20  21
ENDBRANCH  19  20
ENDBRANCH  18  19
ENDBRANCH  17  18
ENDBRANCH  16  17
ENDBRANCH  15  16
ENDBRANCH  14  15
ENDBRANCH  13  14
ENDBRANCH   1  13
TORSDOF 20
ENDMDL
