MODEL 1
REMARK VINA RESULT:    -4.269      0.000      0.000
REMARK INTER + INTRA:          -9.469
REMARK INTER:                  -8.012
REMARK INTRA:                  -1.457
REMARK UNBOUND:                -1.457
REMARK SMILES CCCCCCCCC=CCCCCCCCC(=O)[O-]
REMARK SMILES IDX 10 1 9 2 11 3 12 4 13 5 14 6 15 7 16 8 17 9 18 10 19 11
REMARK SMILES IDX 20 12 8 13 7 14 6 15 5 16 4 17 3 18 2 19 1 20
REMARK H PARENT
REMARK Flexibility Score: inf
ROOT
ATOM      1  C   UNL     1       2.652  13.746  17.162  1.00  0.00    -0.031 C 
ATOM      2  C   UNL     1       1.916  14.443  18.047  1.00  0.00    -0.031 C 
ENDROOT
BRANCH   1   3
ATOM      3  C   UNL     1       2.409  13.723  15.674  1.00  0.00     0.027 C 
BRANCH   3   4
ATOM      4  C   UNL     1       3.250  12.630  15.003  1.00  0.00     0.004 C 
BRANCH   4   5
ATOM      5  C   UNL     1       4.733  12.772  15.376  1.00  0.00     0.000 C 
BRANCH   5   6
ATOM      6  C   UNL     1       5.277  11.557  16.150  1.00  0.00     0.000 C 
BRANCH   6   7
ATOM      7  C   UNL     1       6.499  11.845  17.039  1.00  0.00     0.000 C 
BRANCH   7   8
ATOM      8  C   UNL     1       6.378  11.231  18.441  1.00  0.00     0.006 C 
BRANCH   8   9
ATOM      9  C   UNL     1       5.180  11.815  19.195  1.00  0.00     0.053 C 
BRANCH   9  10
ATOM     10  C   UNL     1       4.202  10.738  19.542  1.00  0.00     0.041 C 
ATOM     11  O   UNL     1       4.432   9.961  20.505  1.00  0.00    -0.550 OA
ATOM     12  O   UNL     1       3.015  10.621  18.831  1.00  0.00    -0.550 OA
ENDBRANCH   9  10
ENDBRANCH   8   9
ENDBRANCH   7   8
ENDBRANCH   6   7
ENDBRANCH   5   6
ENDBRANCH   4   5
ENDBRANCH   3   4
ENDBRANCH   1   3
BRANCH   2  13
ATOM     13  C   UNL     1       0.797  15.387  17.680  1.00  0.00     0.027 C 
BRANCH  13  14
ATOM     14  C   UNL     1      -0.153  15.647  18.862  1.00  0.00     0.004 C 
BRANCH  14  15
ATOM     15  C   UNL     1      -1.559  16.124  18.450  1.00  0.00     0.000 C 
BRANCH  15  16
ATOM     16  C   UNL     1      -1.721  17.650  18.533  1.00  0.00     0.000 C 
BRANCH  16  17
ATOM     17  C   UNL     1      -0.867  18.231  19.669  1.00  0.00    -0.000 C 
BRANCH  17  18
ATOM     18  C   UNL     1      -0.032  19.447  19.229  1.00  0.00    -0.000 C 
BRANCH  18  19
ATOM     19  C   UNL     1       1.146  19.119  18.294  1.00  0.00    -0.003 C 
ATOM     20  C   UNL     1       1.101  19.901  16.982  1.00  0.00     0.004 C 
ENDBRANCH  18  19
ENDBRANCH  17  18
ENDBRANCH  16  17
ENDBRANCH  15  16
ENDBRANCH  14  15
ENDBRANCH  13  14
ENDBRANCH   2  13
TORSDOF 15
ENDMDL
MODEL 2
REMARK VINA RESULT:    -4.049      3.213      8.564
REMARK INTER + INTRA:          -9.057
REMARK INTER:                  -7.820
REMARK INTRA:                  -1.237
REMARK UNBOUND:                -1.457
REMARK SMILES CCCCCCCCC=CCCCCCCCC(=O)[O-]
REMARK SMILES IDX 10 1 9 2 11 3 12 4 13 5 14 6 15 7 16 8 17 9 18 10 19 11
REMARK SMILES IDX 20 12 8 13 7 14 6 15 5 16 4 17 3 18 2 19 1 20
REMARK H PARENT
REMARK Flexibility Score: inf
ROOT
ATOM      1  C   UNL     1       2.003  14.143  18.062  1.00  0.00    -0.031 C 
ATOM      2  C   UNL     1       2.754  13.339  17.288  1.00  0.00    -0.031 C 
ENDROOT
BRANCH   1   3
ATOM      3  C   UNL     1       1.258  15.357  17.567  1.00  0.00     0.027 C 
BRANCH   3   4
ATOM      4  C   UNL     1       0.439  15.990  18.698  1.00  0.00     0.004 C 
BRANCH   4   5
ATOM      5  C   UNL     1      -1.064  15.940  18.384  1.00  0.00     0.000 C 
BRANCH   5   6
ATOM      6  C   UNL     1      -1.845  17.118  18.994  1.00  0.00     0.000 C 
BRANCH   6   7
ATOM      7  C   UNL     1      -1.077  17.929  20.052  1.00  0.00     0.000 C 
BRANCH   7   8
ATOM      8  C   UNL     1      -1.173  19.446  19.831  1.00  0.00     0.006 C 
BRANCH   8   9
ATOM      9  C   UNL     1       0.197  20.037  19.485  1.00  0.00     0.053 C 
BRANCH   9  10
ATOM     10  C   UNL     1       0.460  19.931  18.017  1.00  0.00     0.041 C 
ATOM     11  O   UNL     1       1.609  19.629  17.600  1.00  0.00    -0.550 OA
ATOM     12  O   UNL     1      -0.575  20.119  17.110  1.00  0.00    -0.550 OA
ENDBRANCH   9  10
ENDBRANCH   8   9
ENDBRANCH   7   8
ENDBRANCH   6   7
ENDBRANCH   5   6
ENDBRANCH   4   5
ENDBRANCH   3   4
ENDBRANCH   1   3
BRANCH   2  13
ATOM     13  C   UNL     1       2.889  13.466  15.790  1.00  0.00     0.027 C 
BRANCH  13  14
ATOM     14  C   UNL     1       3.797  12.377  15.193  1.00  0.00     0.004 C 
BRANCH  14  15
ATOM     15  C   UNL     1       4.516  11.508  16.242  1.00  0.00     0.000 C 
BRANCH  15  16
ATOM     16  C   UNL     1       5.965  11.951  16.493  1.00  0.00     0.000 C 
BRANCH  16  17
ATOM     17  C   UNL     1       6.449  11.490  17.877  1.00  0.00    -0.000 C 
BRANCH  17  18
ATOM     18  C   UNL     1       5.293  11.234  18.860  1.00  0.00    -0.000 C 
BRANCH  18  19
ATOM     19  C   UNL     1       5.718  10.659  20.223  1.00  0.00    -0.003 C 
ATOM     20  C   UNL     1       7.235  10.566  20.385  1.00  0.00     0.004 C 
ENDBRANCH  18  19
ENDBRANCH  17  18
ENDBRANCH  16  17
ENDBRANCH  15  16
ENDBRANCH  14  15
ENDBRANCH  13  14
ENDBRANCH   2  13
TORSDOF 15
ENDMDL
MODEL 3
REMARK VINA RESULT:    -4.007      0.641      1.652
REMARK INTER + INTRA:          -8.979
REMARK INTER:                  -7.762
REMARK INTRA:                  -1.216
REMARK UNBOUND:                -1.457
REMARK SMILES CCCCCCCCC=CCCCCCCCC(=O)[O-]
REMARK SMILES IDX 10 1 9 2 11 3 12 4 13 5 14 6 15 7 16 8 17 9 18 10 19 11
REMARK SMILES IDX 20 12 8 13 7 14 6 15 5 16 4 17 3 18 2 19 1 20
REMARK H PARENT
REMARK Flexibility Score: inf
ROOT
ATOM      1  C   UNL     1       2.358  13.412  14.772  1.00  0.00    -0.031 C 
ATOM      2  C   UNL     1       2.027  14.052  15.908  1.00  0.00    -0.031 C 
ENDROOT
BRANCH   1   3
ATOM      3  C   UNL     1       3.230  12.183  14.705  1.00  0.00     0.027 C 
BRANCH   3   4
ATOM      4  C   UNL     1       4.698  12.570  14.492  1.00  0.00     0.004 C 
BRANCH   4   5
ATOM      5  C   UNL     1       5.402  12.816  15.835  1.00  0.00     0.000 C 
BRANCH   5   6
ATOM      6  C   UNL     1       5.682  11.517  16.612  1.00  0.00     0.000 C 
BRANCH   6   7
ATOM      7  C   UNL     1       6.957  11.535  17.473  1.00  0.00     0.000 C 
BRANCH   7   8
ATOM      8  C   UNL     1       6.717  11.061  18.913  1.00  0.00     0.006 C 
BRANCH   8   9
ATOM      9  C   UNL     1       5.449  11.693  19.494  1.00  0.00     0.053 C 
BRANCH   9  10
ATOM     10  C   UNL     1       4.425  10.643  19.787  1.00  0.00     0.041 C 
ATOM     11  O   UNL     1       4.570   9.875  20.773  1.00  0.00    -0.550 OA
ATOM     12  O   UNL     1       3.287  10.543  18.997  1.00  0.00    -0.550 OA
ENDBRANCH   9  10
ENDBRANCH   8   9
ENDBRANCH   7   8
ENDBRANCH   6   7
ENDBRANCH   5   6
ENDBRANCH   4   5
ENDBRANCH   3   4
ENDBRANCH   1   3
BRANCH   2  13
ATOM     13  C   UNL     1       2.391  13.586  17.297  1.00  0.00     0.027 C 
BRANCH  13  14
ATOM     14  C   UNL     1       1.928  14.574  18.381  1.00  0.00     0.004 C 
BRANCH  14  15
ATOM     15  C   UNL     1       0.838  15.559  17.917  1.00  0.00     0.000 C 
BRANCH  15  16
ATOM     16  C   UNL     1      -0.492  15.374  18.665  1.00  0.00     0.000 C 
BRANCH  16  17
ATOM     17  C   UNL     1      -1.329  16.661  18.620  1.00  0.00    -0.000 C 
BRANCH  17  18
ATOM     18  C   UNL     1      -0.619  17.861  19.271  1.00  0.00    -0.000 C 
BRANCH  18  19
ATOM     19  C   UNL     1      -0.332  19.038  18.320  1.00  0.00    -0.003 C 
ATOM     20  C   UNL     1       1.160  19.278  18.101  1.00  0.00     0.004 C 
ENDBRANCH  18  19
ENDBRANCH  17  18
ENDBRANCH  16  17
ENDBRANCH  15  16
ENDBRANCH  14  15
ENDBRANCH  13  14
ENDBRANCH   2  13
TORSDOF 15
ENDMDL
MODEL 4
REMARK VINA RESULT:    -3.857      2.031      2.940
REMARK INTER + INTRA:          -8.697
REMARK INTER:                  -7.232
REMARK INTRA:                  -1.465
REMARK UNBOUND:                -1.457
REMARK SMILES CCCCCCCCC=CCCCCCCCC(=O)[O-]
REMARK SMILES IDX 10 1 9 2 11 3 12 4 13 5 14 6 15 7 16 8 17 9 18 10 19 11
REMARK SMILES IDX 20 12 8 13 7 14 6 15 5 16 4 17 3 18 2 19 1 20
REMARK H PARENT
REMARK Flexibility Score: inf
ROOT
ATOM      1  C   UNL     1       2.366  13.804  17.516  1.00  0.00    -0.031 C 
ATOM      2  C   UNL     1       1.541  14.866  17.468  1.00  0.00    -0.031 C 
ENDROOT
BRANCH   1   3
ATOM      3  C   UNL     1       2.699  13.033  18.769  1.00  0.00     0.027 C 
BRANCH   3   4
ATOM      4  C   UNL     1       2.778  11.530  18.475  1.00  0.00     0.004 C 
BRANCH   4   5
ATOM      5  C   UNL     1       4.039  10.914  19.101  1.00  0.00     0.000 C 
BRANCH   5   6
ATOM      6  C   UNL     1       5.234  11.884  19.124  1.00  0.00     0.000 C 
BRANCH   6   7
ATOM      7  C   UNL     1       6.254  11.688  17.990  1.00  0.00     0.000 C 
BRANCH   7   8
ATOM      8  C   UNL     1       5.600  11.304  16.655  1.00  0.00     0.006 C 
BRANCH   8   9
ATOM      9  C   UNL     1       5.239  12.551  15.843  1.00  0.00     0.053 C 
BRANCH   9  10
ATOM     10  C   UNL     1       4.341  12.192  14.701  1.00  0.00     0.041 C 
ATOM     11  O   UNL     1       4.497  11.102  14.092  1.00  0.00    -0.550 OA
ATOM     12  O   UNL     1       3.303  13.041  14.339  1.00  0.00    -0.550 OA
ENDBRANCH   9  10
ENDBRANCH   8   9
ENDBRANCH   7   8
ENDBRANCH   6   7
ENDBRANCH   5   6
ENDBRANCH   4   5
ENDBRANCH   3   4
ENDBRANCH   1   3
BRANCH   2  13
ATOM     13  C   UNL     1       0.743  15.390  18.638  1.00  0.00     0.027 C 
BRANCH  13  14
ATOM     14  C   UNL     1      -0.659  15.863  18.219  1.00  0.00     0.004 C 
BRANCH  14  15
ATOM     15  C   UNL     1      -1.718  15.768  19.334  1.00  0.00     0.000 C 
BRANCH  15  16
ATOM     16  C   UNL     1      -1.781  17.031  20.207  1.00  0.00     0.000 C 
BRANCH  16  17
ATOM     17  C   UNL     1      -1.583  18.296  19.359  1.00  0.00    -0.000 C 
BRANCH  17  18
ATOM     18  C   UNL     1      -0.517  19.244  19.936  1.00  0.00    -0.000 C 
BRANCH  18  19
ATOM     19  C   UNL     1       0.326  19.988  18.884  1.00  0.00    -0.003 C 
ATOM     20  C   UNL     1       1.248  19.061  18.094  1.00  0.00     0.004 C 
ENDBRANCH  18  19
ENDBRANCH  17  18
ENDBRANCH  16  17
ENDBRANCH  15  16
ENDBRANCH  14  15
ENDBRANCH  13  14
ENDBRANCH   2  13
TORSDOF 15
ENDMDL
MODEL 5
REMARK VINA RESULT:    -3.838      3.237      8.187
REMARK INTER + INTRA:          -8.661
REMARK INTER:                  -7.205
REMARK INTRA:                  -1.456
REMARK UNBOUND:                -1.457
REMARK SMILES CCCCCCCCC=CCCCCCCCC(=O)[O-]
REMARK SMILES IDX 10 1 9 2 11 3 12 4 13 5 14 6 15 7 16 8 17 9 18 10 19 11
REMARK SMILES IDX 20 12 8 13 7 14 6 15 5 16 4 17 3 18 2 19 1 20
REMARK H PARENT
REMARK Flexibility Score: inf
ROOT
ATOM      1  C   UNL     1       2.064  13.722  15.545  1.00  0.00    -0.031 C 
ATOM      2  C   UNL     1       2.777  13.040  14.629  1.00  0.00    -0.031 C 
ENDROOT
BRANCH   1   3
ATOM      3  C   UNL     1       2.625  14.267  16.834  1.00  0.00     0.027 C 
BRANCH   3   4
ATOM      4  C   UNL     1       1.535  14.343  17.910  1.00  0.00     0.004 C 
BRANCH   4   5
ATOM      5  C   UNL     1       0.882  15.734  17.934  1.00  0.00     0.000 C 
BRANCH   5   6
ATOM      6  C   UNL     1      -0.612  15.690  18.299  1.00  0.00     0.000 C 
BRANCH   6   7
ATOM      7  C   UNL     1      -1.046  16.684  19.391  1.00  0.00     0.000 C 
BRANCH   7   8
ATOM      8  C   UNL     1      -1.633  17.982  18.820  1.00  0.00     0.006 C 
BRANCH   8   9
ATOM      9  C   UNL     1      -0.748  19.183  19.165  1.00  0.00     0.053 C 
BRANCH   9  10
ATOM     10  C   UNL     1       0.066  19.593  17.980  1.00  0.00     0.041 C 
ATOM     11  O   UNL     1       1.313  19.423  17.980  1.00  0.00    -0.550 OA
ATOM     12  O   UNL     1      -0.557  20.122  16.857  1.00  0.00    -0.550 OA
ENDBRANCH   9  10
ENDBRANCH   8   9
ENDBRANCH   7   8
ENDBRANCH   6   7
ENDBRANCH   5   6
ENDBRANCH   4   5
ENDBRANCH   3   4
ENDBRANCH   1   3
BRANCH   2  13
ATOM     13  C   UNL     1       4.266  12.800  14.701  1.00  0.00     0.027 C 
BRANCH  13  14
ATOM     14  C   UNL     1       4.605  11.430  15.312  1.00  0.00     0.004 C 
BRANCH  14  15
ATOM     15  C   UNL     1       4.911  11.468  16.821  1.00  0.00     0.000 C 
BRANCH  15  16
ATOM     16  C   UNL     1       3.735  10.980  17.682  1.00  0.00     0.000 C 
BRANCH  16  17
ATOM     17  C   UNL     1       3.923  11.387  19.151  1.00  0.00    -0.000 C 
BRANCH  17  18
ATOM     18  C   UNL     1       5.396  11.645  19.516  1.00  0.00    -0.000 C 
BRANCH  18  19
ATOM     19  C   UNL     1       6.051  10.548  20.374  1.00  0.00    -0.003 C 
ATOM     20  C   UNL     1       7.570  10.494  20.216  1.00  0.00     0.004 C 
ENDBRANCH  18  19
ENDBRANCH  17  18
ENDBRANCH  16  17
ENDBRANCH  15  16
ENDBRANCH  14  15
ENDBRANCH  13  14
ENDBRANCH   2  13
TORSDOF 15
ENDMDL
MODEL 6
REMARK VINA RESULT:    -3.707      1.097      1.724
REMARK INTER + INTRA:          -8.415
REMARK INTER:                  -6.996
REMARK INTRA:                  -1.419
REMARK UNBOUND:                -1.457
REMARK SMILES CCCCCCCCC=CCCCCCCCC(=O)[O-]
REMARK SMILES IDX 10 1 9 2 11 3 12 4 13 5 14 6 15 7 16 8 17 9 18 10 19 11
REMARK SMILES IDX 20 12 8 13 7 14 6 15 5 16 4 17 3 18 2 19 1 20
REMARK H PARENT
REMARK Flexibility Score: inf
ROOT
ATOM      1  C   UNL     1       1.876  15.597  17.827  1.00  0.00    -0.031 C 
ATOM      2  C   UNL     1       0.737  16.151  18.282  1.00  0.00    -0.031 C 
ENDROOT
BRANCH   1   3
ATOM      3  C   UNL     1       2.027  14.150  17.432  1.00  0.00     0.027 C 
BRANCH   3   4
ATOM      4  C   UNL     1       2.100  14.009  15.907  1.00  0.00     0.004 C 
BRANCH   4   5
ATOM      5  C   UNL     1       3.244  13.070  15.495  1.00  0.00     0.000 C 
BRANCH   5   6
ATOM      6  C   UNL     1       3.724  12.168  16.647  1.00  0.00     0.000 C 
BRANCH   6   7
ATOM      7  C   UNL     1       5.172  11.665  16.519  1.00  0.00     0.000 C 
BRANCH   7   8
ATOM      8  C   UNL     1       5.883  11.530  17.873  1.00  0.00     0.006 C 
BRANCH   8   9
ATOM      9  C   UNL     1       4.874  11.298  19.001  1.00  0.00     0.053 C 
BRANCH   9  10
ATOM     10  C   UNL     1       5.524  10.598  20.152  1.00  0.00     0.041 C 
ATOM     11  O   UNL     1       6.770  10.669  20.313  1.00  0.00    -0.550 OA
ATOM     12  O   UNL     1       4.749   9.904  21.072  1.00  0.00    -0.550 OA
ENDBRANCH   9  10
ENDBRANCH   8   9
ENDBRANCH   7   8
ENDBRANCH   6   7
ENDBRANCH   5   6
ENDBRANCH   4   5
ENDBRANCH   3   4
ENDBRANCH   1   3
BRANCH   2  13
ATOM     13  C   UNL     1      -0.590  15.437  18.374  1.00  0.00     0.027 C 
BRANCH  13  14
ATOM     14  C   UNL     1      -1.612  16.218  19.217  1.00  0.00     0.004 C 
BRANCH  14  15
ATOM     15  C   UNL     1      -1.046  17.487  19.884  1.00  0.00     0.000 C 
BRANCH  15  16
ATOM     16  C   UNL     1      -2.042  18.657  19.884  1.00  0.00     0.000 C 
BRANCH  16  17
ATOM     17  C   UNL     1      -1.332  19.982  19.569  1.00  0.00    -0.000 C 
BRANCH  17  18
ATOM     18  C   UNL     1       0.131  19.789  19.134  1.00  0.00    -0.000 C 
BRANCH  18  19
ATOM     19  C   UNL     1       0.398  20.019  17.636  1.00  0.00    -0.003 C 
ATOM     20  C   UNL     1       1.849  19.751  17.240  1.00  0.00     0.004 C 
ENDBRANCH  18  19
ENDBRANCH  17  18
ENDBRANCH  16  17
ENDBRANCH  15  16
ENDBRANCH  14  15
ENDBRANCH  13  14
ENDBRANCH   2  13
TORSDOF 15
ENDMDL
MODEL 7
REMARK VINA RESULT:    -3.555      2.086      3.603
REMARK INTER + INTRA:          -8.129
REMARK INTER:                  -7.085
REMARK INTRA:                  -1.044
REMARK UNBOUND:                -1.457
REMARK SMILES CCCCCCCCC=CCCCCCCCC(=O)[O-]
REMARK SMILES IDX 10 1 9 2 11 3 12 4 13 5 14 6 15 7 16 8 17 9 18 10 19 11
REMARK SMILES IDX 20 12 8 13 7 14 6 15 5 16 4 17 3 18 2 19 1 20
REMARK H PARENT
REMARK Flexibility Score: inf
ROOT
ATOM      1  C   UNL     1       3.569  11.242  18.688  1.00  0.00    -0.031 C 
ATOM      2  C   UNL     1       2.697  12.124  18.166  1.00  0.00    -0.031 C 
ENDROOT
BRANCH   1   3
ATOM      3  C   UNL     1       4.486  11.530  19.851  1.00  0.00     0.027 C 
BRANCH   3   4
ATOM      4  C   UNL     1       5.495  10.391  20.040  1.00  0.00     0.004 C 
BRANCH   4   5
ATOM      5  C   UNL     1       6.929  10.879  19.787  1.00  0.00     0.000 C 
BRANCH   5   6
ATOM      6  C   UNL     1       7.320  10.846  18.298  1.00  0.00     0.000 C 
BRANCH   6   7
ATOM      7  C   UNL     1       6.822  12.042  17.468  1.00  0.00     0.000 C 
BRANCH   7   8
ATOM      8  C   UNL     1       6.010  11.619  16.236  1.00  0.00     0.006 C 
BRANCH   8   9
ATOM      9  C   UNL     1       5.208  12.798  15.676  1.00  0.00     0.053 C 
BRANCH   9  10
ATOM     10  C   UNL     1       4.080  12.309  14.824  1.00  0.00     0.041 C 
ATOM     11  O   UNL     1       3.058  13.024  14.657  1.00  0.00    -0.550 OA
ATOM     12  O   UNL     1       4.177  11.084  14.178  1.00  0.00    -0.550 OA
ENDBRANCH   9  10
ENDBRANCH   8   9
ENDBRANCH   7   8
ENDBRANCH   6   7
ENDBRANCH   5   6
ENDBRANCH   4   5
ENDBRANCH   3   4
ENDBRANCH   1   3
BRANCH   2  13
ATOM     13  C   UNL     1       2.428  13.501  18.722  1.00  0.00     0.027 C 
BRANCH  13  14
ATOM     14  C   UNL     1       1.928  14.476  17.642  1.00  0.00     0.004 C 
BRANCH  14  15
ATOM     15  C   UNL     1       0.692  15.298  18.054  1.00  0.00     0.000 C 
BRANCH  15  16
ATOM     16  C   UNL     1       1.034  16.754  18.408  1.00  0.00     0.000 C 
BRANCH  16  17
ATOM     17  C   UNL     1      -0.235  17.546  18.757  1.00  0.00    -0.000 C 
BRANCH  17  18
ATOM     18  C   UNL     1       0.066  18.965  19.271  1.00  0.00    -0.000 C 
BRANCH  18  19
ATOM     19  C   UNL     1       0.112  20.052  18.182  1.00  0.00    -0.003 C 
ATOM     20  C   UNL     1       1.303  19.899  17.237  1.00  0.00     0.004 C 
ENDBRANCH  18  19
ENDBRANCH  17  18
ENDBRANCH  16  17
ENDBRANCH  15  16
ENDBRANCH  14  15
ENDBRANCH  13  14
ENDBRANCH   2  13
TORSDOF 15
ENDMDL
MODEL 8
REMARK VINA RESULT:    -3.518      3.400      7.921
REMARK INTER + INTRA:          -8.060
REMARK INTER:                  -7.357
REMARK INTRA:                  -0.702
REMARK UNBOUND:                -1.457
REMARK SMILES CCCCCCCCC=CCCCCCCCC(=O)[O-]
REMARK SMILES IDX 10 1 9 2 11 3 12 4 13 5 14 6 15 7 16 8 17 9 18 10 19 11
REMARK SMILES IDX 20 12 8 13 7 14 6 15 5 16 4 17 3 18 2 19 1 20
REMARK H PARENT
REMARK Flexibility Score: inf
ROOT
ATOM      1  C   UNL     1       3.768  11.684  14.648  1.00  0.00    -0.031 C 
ATOM      2  C   UNL     1       4.844  11.309  15.364  1.00  0.00    -0.031 C 
ENDROOT
BRANCH   1   3
ATOM      3  C   UNL     1       3.091  13.027  14.759  1.00  0.00     0.027 C 
BRANCH   3   4
ATOM      4  C   UNL     1       3.095  13.518  16.212  1.00  0.00     0.004 C 
BRANCH   4   5
ATOM      5  C   UNL     1       1.907  14.454  16.480  1.00  0.00     0.000 C 
BRANCH   5   6
ATOM      6  C   UNL     1       1.627  14.656  17.980  1.00  0.00     0.000 C 
BRANCH   6   7
ATOM      7  C   UNL     1       0.478  15.626  18.303  1.00  0.00     0.000 C 
BRANCH   7   8
ATOM      8  C   UNL     1       0.926  17.094  18.344  1.00  0.00     0.006 C 
BRANCH   8   9
ATOM      9  C   UNL     1      -0.211  18.002  18.821  1.00  0.00     0.053 C 
BRANCH   9  10
ATOM     10  C   UNL     1       0.267  19.412  18.964  1.00  0.00     0.041 C 
ATOM     11  O   UNL     1      -0.117  20.114  19.936  1.00  0.00    -0.550 OA
ATOM     12  O   UNL     1       1.172  19.936  18.051  1.00  0.00    -0.550 OA
ENDBRANCH   9  10
ENDBRANCH   8   9
ENDBRANCH   7   8
ENDBRANCH   6   7
ENDBRANCH   5   6
ENDBRANCH   4   5
ENDBRANCH   3   4
ENDBRANCH   1   3
BRANCH   2  13
ATOM     13  C   UNL     1       5.601  12.205  16.314  1.00  0.00     0.027 C 
BRANCH  13  14
ATOM     14  C   UNL     1       6.831  11.506  16.917  1.00  0.00     0.004 C 
BRANCH  14  15
ATOM     15  C   UNL     1       7.097  11.854  18.394  1.00  0.00     0.000 C 
BRANCH  15  16
ATOM     16  C   UNL     1       7.033  10.628  19.318  1.00  0.00     0.000 C 
BRANCH  16  17
ATOM     17  C   UNL     1       6.029  10.853  20.458  1.00  0.00    -0.000 C 
BRANCH  17  18
ATOM     18  C   UNL     1       4.598  10.425  20.089  1.00  0.00    -0.000 C 
BRANCH  18  19
ATOM     19  C   UNL     1       3.821  11.436  19.227  1.00  0.00    -0.003 C 
ATOM     20  C   UNL     1       2.725  10.785  18.386  1.00  0.00     0.004 C 
ENDBRANCH  18  19
ENDBRANCH  17  18
ENDBRANCH  16  17
ENDBRANCH  15  16
ENDBRANCH  14  15
ENDBRANCH  13  14
ENDBRANCH   2  13
TORSDOF 15
ENDMDL
MODEL 9
REMARK VINA RESULT:    -3.317      3.189      8.251
REMARK INTER + INTRA:          -7.683
REMARK INTER:                  -6.529
REMARK INTRA:                  -1.154
REMARK UNBOUND:                -1.457
REMARK SMILES CCCCCCCCC=CCCCCCCCC(=O)[O-]
REMARK SMILES IDX 10 1 9 2 11 3 12 4 13 5 14 6 15 7 16 8 17 9 18 10 19 11
REMARK SMILES IDX 20 12 8 13 7 14 6 15 5 16 4 17 3 18 2 19 1 20
REMARK H PARENT
REMARK Flexibility Score: inf
ROOT
ATOM      1  C   UNL     1       1.774  14.535  17.300  1.00  0.00    -0.031 C 
ATOM      2  C   UNL     1       2.361  13.338  17.481  1.00  0.00    -0.031 C 
ENDROOT
BRANCH   1   3
ATOM      3  C   UNL     1       1.425  15.494  18.410  1.00  0.00     0.027 C 
BRANCH   3   4
ATOM      4  C   UNL     1       0.143  16.267  18.076  1.00  0.00     0.004 C 
BRANCH   4   5
ATOM      5  C   UNL     1      -1.074  15.643  18.776  1.00  0.00     0.000 C 
BRANCH   5   6
ATOM      6  C   UNL     1      -1.859  16.655  19.631  1.00  0.00     0.000 C 
BRANCH   6   7
ATOM      7  C   UNL     1      -1.112  17.964  19.939  1.00  0.00     0.000 C 
BRANCH   7   8
ATOM      8  C   UNL     1      -1.479  19.105  18.980  1.00  0.00     0.006 C 
BRANCH   8   9
ATOM      9  C   UNL     1      -0.338  20.120  18.872  1.00  0.00     0.053 C 
BRANCH   9  10
ATOM     10  C   UNL     1       0.459  19.883  17.629  1.00  0.00     0.041 C 
ATOM     11  O   UNL     1      -0.042  20.124  16.500  1.00  0.00    -0.550 OA
ATOM     12  O   UNL     1       1.772  19.439  17.719  1.00  0.00    -0.550 OA
ENDBRANCH   9  10
ENDBRANCH   8   9
ENDBRANCH   7   8
ENDBRANCH   6   7
ENDBRANCH   5   6
ENDBRANCH   4   5
ENDBRANCH   3   4
ENDBRANCH   1   3
BRANCH   2  13
ATOM     13  C   UNL     1       2.852  12.811  18.808  1.00  0.00     0.027 C 
BRANCH  13  14
ATOM     14  C   UNL     1       3.479  11.413  18.681  1.00  0.00     0.004 C 
BRANCH  14  15
ATOM     15  C   UNL     1       4.951  11.336  19.130  1.00  0.00     0.000 C 
BRANCH  15  16
ATOM     16  C   UNL     1       5.934  11.765  18.030  1.00  0.00     0.000 C 
BRANCH  16  17
ATOM     17  C   UNL     1       5.448  11.301  16.648  1.00  0.00    -0.000 C 
BRANCH  17  18
ATOM     18  C   UNL     1       5.159  12.471  15.691  1.00  0.00    -0.000 C 
BRANCH  18  19
ATOM     19  C   UNL     1       4.393  12.087  14.412  1.00  0.00    -0.003 C 
ATOM     20  C   UNL     1       3.100  12.881  14.231  1.00  0.00     0.004 C 
ENDBRANCH  18  19
ENDBRANCH  17  18
ENDBRANCH  16  17
ENDBRANCH  15  16
ENDBRANCH  14  15
ENDBRANCH  13  14
ENDBRANCH   2  13
TORSDOF 15
ENDMDL
