MODEL 1
REMARK VINA RESULT:    -7.074      0.000      0.000
REMARK INTER + INTRA:          -8.741
REMARK INTER:                  -8.521
REMARK INTRA:                  -0.220
REMARK UNBOUND:                -0.220
REMARK SMILES O=c1c(O)c(-c2ccc(O)c(O)c2)oc2cc(O)cc(O)c12
REMARK SMILES IDX 5 1 3 2 2 3 1 4 22 5 20 6 19 7 17 8 16 9 15 10 14 11 6 12
REMARK SMILES IDX 7 13 8 14 9 15 13 16 11 17 10 18 12 20 4 22 21 24 18 26
REMARK H PARENT 10 19 12 21 4 23 21 25 18 27
REMARK Flexibility Score: inf
ROOT
ATOM      1  C   UNL     1      17.341  -1.650  10.252  1.00  0.00     0.180 A 
ATOM      2  C   UNL     1      16.121  -1.635  10.951  1.00  0.00     0.208 A 
ATOM      3  C   UNL     1      14.937  -1.946  10.262  1.00  0.00     0.238 A 
ATOM      4  O   UNL     1      13.843  -1.878  10.880  1.00  0.00    -0.285 OA
ATOM      5  C   UNL     1      14.990  -2.286   8.889  1.00  0.00     0.111 A 
ATOM      6  C   UNL     1      13.859  -2.657   8.103  1.00  0.00     0.134 A 
ATOM      7  C   UNL     1      14.009  -2.845   6.723  1.00  0.00     0.093 A 
ATOM      8  C   UNL     1      15.261  -2.739   6.113  1.00  0.00     0.123 A 
ATOM      9  C   UNL     1      16.381  -2.435   6.883  1.00  0.00     0.094 A 
ATOM     10  C   UNL     1      16.258  -2.206   8.256  1.00  0.00     0.146 A 
ATOM     11  O   UNL     1      17.350  -1.907   8.950  1.00  0.00    -0.452 OA
ENDROOT
BRANCH   1  12
ATOM     12  C   UNL     1      18.632  -1.357  10.915  1.00  0.00     0.025 A 
ATOM     13  C   UNL     1      19.156  -2.273  11.841  1.00  0.00     0.016 A 
ATOM     14  C   UNL     1      20.362  -2.007  12.494  1.00  0.00     0.051 A 
ATOM     15  C   UNL     1      21.054  -0.818  12.246  1.00  0.00     0.157 A 
ATOM     16  C   UNL     1      19.318  -0.152  10.682  1.00  0.00     0.062 A 
ATOM     17  C   UNL     1      20.528   0.118  11.339  1.00  0.00     0.158 A 
BRANCH  15  18
ATOM     18  O   UNL     1      22.256  -0.581  12.911  1.00  0.00    -0.504 OA
ATOM     19  H   UNL     1      23.098  -1.106  12.706  1.00  0.00     0.293 HD
ENDBRANCH  15  18
BRANCH  17  20
ATOM     20  O   UNL     1      21.205   1.312  11.097  1.00  0.00    -0.504 OA
ATOM     21  H   UNL     1      22.205   1.332  10.931  1.00  0.00     0.293 HD
ENDBRANCH  17  20
ENDBRANCH   1  12
BRANCH   2  22
ATOM     22  O   UNL     1      16.089  -1.276  12.302  1.00  0.00    -0.502 OA
ATOM     23  H   UNL     1      15.686  -0.404  12.623  1.00  0.00     0.293 HD
ENDBRANCH   2  22
BRANCH   6  24
ATOM     24  O   UNL     1      12.583  -2.880   8.627  1.00  0.00    -0.507 OA
ATOM     25  H   UNL     1      11.993  -2.166   9.026  1.00  0.00     0.293 HD
ENDBRANCH   6  24
BRANCH   8  26
ATOM     26  O   UNL     1      15.405  -2.943   4.743  1.00  0.00    -0.508 OA
ATOM     27  H   UNL     1      14.663  -2.711   4.092  1.00  0.00     0.293 HD
ENDBRANCH   8  26
TORSDOF 6
ENDMDL
MODEL 2
REMARK VINA RESULT:    -6.546      1.516      6.843
REMARK INTER + INTRA:          -8.105
REMARK INTER:                  -7.920
REMARK INTRA:                  -0.184
REMARK UNBOUND:                -0.220
REMARK SMILES O=c1c(O)c(-c2ccc(O)c(O)c2)oc2cc(O)cc(O)c12
REMARK SMILES IDX 5 1 3 2 2 3 1 4 22 5 20 6 19 7 17 8 16 9 15 10 14 11 6 12
REMARK SMILES IDX 7 13 8 14 9 15 13 16 11 17 10 18 12 20 4 22 21 24 18 26
REMARK H PARENT 10 19 12 21 4 23 21 25 18 27
REMARK Flexibility Score: inf
ROOT
ATOM      1  C   UNL     1      17.379  -1.660  10.545  1.00  0.00     0.180 A 
ATOM      2  C   UNL     1      17.254  -2.172  11.848  1.00  0.00     0.208 A 
ATOM      3  C   UNL     1      18.152  -1.742  12.838  1.00  0.00     0.238 A 
ATOM      4  O   UNL     1      18.069  -2.244  13.989  1.00  0.00    -0.285 OA
ATOM      5  C   UNL     1      19.152  -0.792  12.518  1.00  0.00     0.111 A 
ATOM      6  C   UNL     1      20.089  -0.256  13.451  1.00  0.00     0.134 A 
ATOM      7  C   UNL     1      21.117   0.578  12.995  1.00  0.00     0.093 A 
ATOM      8  C   UNL     1      21.203   0.947  11.651  1.00  0.00     0.123 A 
ATOM      9  C   UNL     1      20.258   0.476  10.743  1.00  0.00     0.094 A 
ATOM     10  C   UNL     1      19.242  -0.387  11.161  1.00  0.00     0.146 A 
ATOM     11  O   UNL     1      18.368  -0.822  10.259  1.00  0.00    -0.452 OA
ENDROOT
BRANCH   1  12
ATOM     12  C   UNL     1      16.456  -2.047   9.454  1.00  0.00     0.025 A 
ATOM     13  C   UNL     1      16.964  -2.692   8.316  1.00  0.00     0.016 A 
ATOM     14  C   UNL     1      16.113  -3.047   7.265  1.00  0.00     0.051 A 
ATOM     15  C   UNL     1      14.749  -2.752   7.329  1.00  0.00     0.157 A 
ATOM     16  C   UNL     1      15.086  -1.732   9.508  1.00  0.00     0.062 A 
ATOM     17  C   UNL     1      14.232  -2.086   8.453  1.00  0.00     0.158 A 
BRANCH  15  18
ATOM     18  O   UNL     1      13.924  -3.121   6.266  1.00  0.00    -0.504 OA
ATOM     19  H   UNL     1      14.126  -3.924   5.683  1.00  0.00     0.293 HD
ENDBRANCH  15  18
BRANCH  17  20
ATOM     20  O   UNL     1      12.874  -1.776   8.517  1.00  0.00    -0.504 OA
ATOM     21  H   UNL     1      12.456  -1.091   7.899  1.00  0.00     0.293 HD
ENDBRANCH  17  20
ENDBRANCH   1  12
BRANCH   2  22
ATOM     22  O   UNL     1      16.273  -3.125  12.137  1.00  0.00    -0.502 OA
ATOM     23  H   UNL     1      16.020  -3.374  13.086  1.00  0.00     0.293 HD
ENDBRANCH   2  22
BRANCH   6  24
ATOM     24  O   UNL     1      20.037  -0.487  14.828  1.00  0.00    -0.507 OA
ATOM     25  H   UNL     1      19.600  -1.286  15.262  1.00  0.00     0.293 HD
ENDBRANCH   6  24
BRANCH   8  26
ATOM     26  O   UNL     1      22.220   1.790  11.208  1.00  0.00    -0.508 OA
ATOM     27  H   UNL     1      23.068   1.423  10.791  1.00  0.00     0.293 HD
ENDBRANCH   8  26
TORSDOF 6
ENDMDL
MODEL 3
REMARK VINA RESULT:    -6.423      3.062      5.360
REMARK INTER + INTRA:          -7.957
REMARK INTER:                  -7.862
REMARK INTRA:                  -0.095
REMARK UNBOUND:                -0.220
REMARK SMILES O=c1c(O)c(-c2ccc(O)c(O)c2)oc2cc(O)cc(O)c12
REMARK SMILES IDX 5 1 3 2 2 3 1 4 22 5 20 6 19 7 17 8 16 9 15 10 14 11 6 12
REMARK SMILES IDX 7 13 8 14 9 15 13 16 11 17 10 18 12 20 4 22 21 24 18 26
REMARK H PARENT 10 19 12 21 4 23 21 25 18 27
REMARK Flexibility Score: inf
ROOT
ATOM      1  C   UNL     1      14.339  -2.195  11.357  1.00  0.00     0.180 A 
ATOM      2  C   UNL     1      15.684  -2.031  10.982  1.00  0.00     0.208 A 
ATOM      3  C   UNL     1      16.021  -2.066   9.619  1.00  0.00     0.238 A 
ATOM      4  O   UNL     1      17.232  -1.972   9.293  1.00  0.00    -0.285 OA
ATOM      5  C   UNL     1      15.007  -2.247   8.648  1.00  0.00     0.111 A 
ATOM      6  C   UNL     1      15.228  -2.259   7.238  1.00  0.00     0.134 A 
ATOM      7  C   UNL     1      14.172  -2.577   6.376  1.00  0.00     0.093 A 
ATOM      8  C   UNL     1      12.887  -2.820   6.869  1.00  0.00     0.123 A 
ATOM      9  C   UNL     1      12.649  -2.753   8.239  1.00  0.00     0.094 A 
ATOM     10  C   UNL     1      13.691  -2.474   9.128  1.00  0.00     0.146 A 
ATOM     11  O   UNL     1      13.421  -2.430  10.427  1.00  0.00    -0.452 OA
ENDROOT
BRANCH   1  12
ATOM     12  C   UNL     1      13.905  -2.146  12.771  1.00  0.00     0.025 A 
ATOM     13  C   UNL     1      14.407  -3.089  13.681  1.00  0.00     0.016 A 
ATOM     14  C   UNL     1      13.994  -3.075  15.016  1.00  0.00     0.051 A 
ATOM     15  C   UNL     1      13.064  -2.130  15.458  1.00  0.00     0.157 A 
ATOM     16  C   UNL     1      12.954  -1.209  13.213  1.00  0.00     0.062 A 
ATOM     17  C   UNL     1      12.537  -1.194  14.553  1.00  0.00     0.158 A 
BRANCH  15  18
ATOM     18  O   UNL     1      12.673  -2.138  16.797  1.00  0.00    -0.504 OA
ATOM     19  H   UNL     1      11.811  -1.704  17.108  1.00  0.00     0.293 HD
ENDBRANCH  15  18
BRANCH  17  20
ATOM     20  O   UNL     1      11.599  -0.257  14.984  1.00  0.00    -0.504 OA
ATOM     21  H   UNL     1      11.726   0.735  14.823  1.00  0.00     0.293 HD
ENDBRANCH  17  20
ENDBRANCH   1  12
BRANCH   2  22
ATOM     22  O   UNL     1      16.672  -1.874  11.958  1.00  0.00    -0.502 OA
ATOM     23  H   UNL     1      16.817  -2.550  12.698  1.00  0.00     0.293 HD
ENDBRANCH   2  22
BRANCH   6  24
ATOM     24  O   UNL     1      16.449  -1.940   6.637  1.00  0.00    -0.507 OA
ATOM     25  H   UNL     1      16.548  -1.436   5.769  1.00  0.00     0.293 HD
ENDBRANCH   6  24
BRANCH   8  26
ATOM     26  O   UNL     1      11.839  -3.121   6.003  1.00  0.00    -0.508 OA
ATOM     27  H   UNL     1      11.753  -4.034   5.571  1.00  0.00     0.293 HD
ENDBRANCH   8  26
TORSDOF 6
ENDMDL
MODEL 4
REMARK VINA RESULT:    -6.268      4.439      7.846
REMARK INTER + INTRA:          -7.770
REMARK INTER:                  -7.449
REMARK INTRA:                  -0.322
REMARK UNBOUND:                -0.220
REMARK SMILES O=c1c(O)c(-c2ccc(O)c(O)c2)oc2cc(O)cc(O)c12
REMARK SMILES IDX 5 1 3 2 2 3 1 4 22 5 20 6 19 7 17 8 16 9 15 10 14 11 6 12
REMARK SMILES IDX 7 13 8 14 9 15 13 16 11 17 10 18 12 20 4 22 21 24 18 26
REMARK H PARENT 10 19 12 21 4 23 21 25 18 27
REMARK Flexibility Score: inf
ROOT
ATOM      1  C   UNL     1      17.129  -1.180  14.118  1.00  0.00     0.180 A 
ATOM      2  C   UNL     1      17.676  -2.056  13.164  1.00  0.00     0.208 A 
ATOM      3  C   UNL     1      18.977  -1.821  12.690  1.00  0.00     0.238 A 
ATOM      4  O   UNL     1      19.440  -2.577  11.797  1.00  0.00    -0.285 OA
ATOM      5  C   UNL     1      19.720  -0.724  13.188  1.00  0.00     0.111 A 
ATOM      6  C   UNL     1      21.060  -0.415  12.808  1.00  0.00     0.134 A 
ATOM      7  C   UNL     1      21.652   0.770  13.266  1.00  0.00     0.093 A 
ATOM      8  C   UNL     1      20.975   1.623  14.140  1.00  0.00     0.123 A 
ATOM      9  C   UNL     1      19.687   1.299  14.563  1.00  0.00     0.094 A 
ATOM     10  C   UNL     1      19.057   0.143  14.095  1.00  0.00     0.146 A 
ATOM     11  O   UNL     1      17.826  -0.122  14.515  1.00  0.00    -0.452 OA
ENDROOT
BRANCH   1  12
ATOM     12  C   UNL     1      15.774  -1.377  14.682  1.00  0.00     0.025 A 
ATOM     13  C   UNL     1      15.604  -2.223  15.788  1.00  0.00     0.016 A 
ATOM     14  C   UNL     1      14.331  -2.440  16.323  1.00  0.00     0.051 A 
ATOM     15  C   UNL     1      13.211  -1.829  15.754  1.00  0.00     0.157 A 
ATOM     16  C   UNL     1      14.644  -0.779  14.097  1.00  0.00     0.062 A 
ATOM     17  C   UNL     1      13.365  -0.997  14.633  1.00  0.00     0.158 A 
BRANCH  15  18
ATOM     18  O   UNL     1      11.953  -2.062  16.312  1.00  0.00    -0.504 OA
ATOM     19  H   UNL     1      11.271  -2.664  15.866  1.00  0.00     0.293 HD
ENDBRANCH  15  18
BRANCH  17  20
ATOM     20  O   UNL     1      12.250  -0.395  14.051  1.00  0.00    -0.504 OA
ATOM     21  H   UNL     1      11.324  -0.795  14.139  1.00  0.00     0.293 HD
ENDBRANCH  17  20
ENDBRANCH   1  12
BRANCH   2  22
ATOM     22  O   UNL     1      16.917  -3.120  12.670  1.00  0.00    -0.502 OA
ATOM     23  H   UNL     1      17.336  -3.983  12.345  1.00  0.00     0.293 HD
ENDBRANCH   2  22
BRANCH   6  24
ATOM     24  O   UNL     1      21.858  -1.244  12.015  1.00  0.00    -0.507 OA
ATOM     25  H   UNL     1      22.786  -1.013  11.693  1.00  0.00     0.293 HD
ENDBRANCH   6  24
BRANCH   8  26
ATOM     26  O   UNL     1      21.576   2.791  14.602  1.00  0.00    -0.508 OA
ATOM     27  H   UNL     1      21.067   3.461  15.168  1.00  0.00     0.293 HD
ENDBRANCH   8  26
TORSDOF 6
ENDMDL
MODEL 5
REMARK VINA RESULT:    -6.236      3.529      5.041
REMARK INTER + INTRA:          -7.732
REMARK INTER:                  -7.469
REMARK INTRA:                  -0.263
REMARK UNBOUND:                -0.220
REMARK SMILES O=c1c(O)c(-c2ccc(O)c(O)c2)oc2cc(O)cc(O)c12
REMARK SMILES IDX 5 1 3 2 2 3 1 4 22 5 20 6 19 7 17 8 16 9 15 10 14 11 6 12
REMARK SMILES IDX 7 13 8 14 9 15 13 16 11 17 10 18 12 20 4 22 21 24 18 26
REMARK H PARENT 10 19 12 21 4 23 21 25 18 27
REMARK Flexibility Score: inf
ROOT
ATOM      1  C   UNL     1      17.132  -1.020  13.661  1.00  0.00     0.180 A 
ATOM      2  C   UNL     1      16.986  -1.676  12.426  1.00  0.00     0.208 A 
ATOM      3  C   UNL     1      15.695  -1.941  11.943  1.00  0.00     0.238 A 
ATOM      4  O   UNL     1      15.572  -2.575  10.863  1.00  0.00    -0.285 OA
ATOM      5  C   UNL     1      14.565  -1.532  12.692  1.00  0.00     0.111 A 
ATOM      6  C   UNL     1      13.211  -1.713  12.280  1.00  0.00     0.134 A 
ATOM      7  C   UNL     1      12.172  -1.388  13.160  1.00  0.00     0.093 A 
ATOM      8  C   UNL     1      12.437  -0.828  14.413  1.00  0.00     0.123 A 
ATOM      9  C   UNL     1      13.754  -0.593  14.800  1.00  0.00     0.094 A 
ATOM     10  C   UNL     1      14.814  -0.941  13.958  1.00  0.00     0.146 A 
ATOM     11  O   UNL     1      16.054  -0.709  14.371  1.00  0.00    -0.452 OA
ENDROOT
BRANCH   1  12
ATOM     12  C   UNL     1      18.460  -0.685  14.223  1.00  0.00     0.025 A 
ATOM     13  C   UNL     1      19.227  -1.692  14.829  1.00  0.00     0.016 A 
ATOM     14  C   UNL     1      20.474  -1.394  15.385  1.00  0.00     0.051 A 
ATOM     15  C   UNL     1      20.966  -0.086  15.358  1.00  0.00     0.157 A 
ATOM     16  C   UNL     1      18.947   0.634  14.215  1.00  0.00     0.062 A 
ATOM     17  C   UNL     1      20.198   0.935  14.774  1.00  0.00     0.158 A 
BRANCH  15  18
ATOM     18  O   UNL     1      22.215   0.181  15.919  1.00  0.00    -0.504 OA
ATOM     19  H   UNL     1      22.528  -0.266  16.772  1.00  0.00     0.293 HD
ENDBRANCH  15  18
BRANCH  17  20
ATOM     20  O   UNL     1      20.676   2.245  14.756  1.00  0.00    -0.504 OA
ATOM     21  H   UNL     1      20.826   2.768  15.611  1.00  0.00     0.293 HD
ENDBRANCH  17  20
ENDBRANCH   1  12
BRANCH   2  22
ATOM     22  O   UNL     1      18.115  -2.089  11.713  1.00  0.00    -0.502 OA
ATOM     23  H   UNL     1      19.010  -2.253  12.158  1.00  0.00     0.293 HD
ENDBRANCH   2  22
BRANCH   6  24
ATOM     24  O   UNL     1      12.836  -2.178  11.016  1.00  0.00    -0.507 OA
ATOM     25  H   UNL     1      11.902  -2.461  10.762  1.00  0.00     0.293 HD
ENDBRANCH   6  24
BRANCH   8  26
ATOM     26  O   UNL     1      11.397  -0.493  15.276  1.00  0.00    -0.508 OA
ATOM     27  H   UNL     1      10.677  -1.163  15.524  1.00  0.00     0.293 HD
ENDBRANCH   8  26
TORSDOF 6
ENDMDL
MODEL 6
REMARK VINA RESULT:    -6.205      2.121      2.718
REMARK INTER + INTRA:          -7.695
REMARK INTER:                  -7.385
REMARK INTRA:                  -0.310
REMARK UNBOUND:                -0.220
REMARK SMILES O=c1c(O)c(-c2ccc(O)c(O)c2)oc2cc(O)cc(O)c12
REMARK SMILES IDX 5 1 3 2 2 3 1 4 22 5 20 6 19 7 17 8 16 9 15 10 14 11 6 12
REMARK SMILES IDX 7 13 8 14 9 15 13 16 11 17 10 18 12 20 4 22 21 24 18 26
REMARK H PARENT 10 19 12 21 4 23 21 25 18 27
REMARK Flexibility Score: inf
ROOT
ATOM      1  C   UNL     1      17.840  -1.179  12.768  1.00  0.00     0.180 A 
ATOM      2  C   UNL     1      16.651  -1.495  13.448  1.00  0.00     0.208 A 
ATOM      3  C   UNL     1      15.544  -1.947  12.713  1.00  0.00     0.238 A 
ATOM      4  O   UNL     1      14.467  -2.178  13.322  1.00  0.00    -0.285 OA
ATOM      5  C   UNL     1      15.644  -2.094  11.308  1.00  0.00     0.111 A 
ATOM      6  C   UNL     1      14.599  -2.582  10.468  1.00  0.00     0.134 A 
ATOM      7  C   UNL     1      14.764  -2.561   9.078  1.00  0.00     0.093 A 
ATOM      8  C   UNL     1      15.962  -2.131   8.500  1.00  0.00     0.123 A 
ATOM      9  C   UNL     1      17.009  -1.708   9.315  1.00  0.00     0.094 A 
ATOM     10  C   UNL     1      16.861  -1.683  10.705  1.00  0.00     0.146 A 
ATOM     11  O   UNL     1      17.882  -1.262  11.443  1.00  0.00    -0.452 OA
ENDROOT
BRANCH   1  12
ATOM     12  C   UNL     1      19.056  -0.719  13.477  1.00  0.00     0.025 A 
ATOM     13  C   UNL     1      20.029  -1.657  13.856  1.00  0.00     0.016 A 
ATOM     14  C   UNL     1      21.174  -1.248  14.545  1.00  0.00     0.051 A 
ATOM     15  C   UNL     1      21.357   0.096  14.879  1.00  0.00     0.157 A 
ATOM     16  C   UNL     1      19.230   0.630  13.833  1.00  0.00     0.062 A 
ATOM     17  C   UNL     1      20.379   1.041  14.526  1.00  0.00     0.158 A 
BRANCH  15  18
ATOM     18  O   UNL     1      22.511   0.475  15.566  1.00  0.00    -0.504 OA
ATOM     19  H   UNL     1      23.430   0.415  15.145  1.00  0.00     0.293 HD
ENDBRANCH  15  18
BRANCH  17  20
ATOM     20  O   UNL     1      20.547   2.382  14.869  1.00  0.00    -0.504 OA
ATOM     21  H   UNL     1      20.378   3.126  14.202  1.00  0.00     0.293 HD
ENDBRANCH  17  20
ENDBRANCH   1  12
BRANCH   2  22
ATOM     22  O   UNL     1      16.568  -1.323  14.833  1.00  0.00    -0.502 OA
ATOM     23  H   UNL     1      15.757  -1.608  15.369  1.00  0.00     0.293 HD
ENDBRANCH   2  22
BRANCH   6  24
ATOM     24  O   UNL     1      13.401  -3.119  10.946  1.00  0.00    -0.507 OA
ATOM     25  H   UNL     1      13.123  -3.134  11.916  1.00  0.00     0.293 HD
ENDBRANCH   6  24
BRANCH   8  26
ATOM     26  O   UNL     1      16.123  -2.128   7.117  1.00  0.00    -0.508 OA
ATOM     27  H   UNL     1      16.826  -1.552   6.667  1.00  0.00     0.293 HD
ENDBRANCH   8  26
TORSDOF 6
ENDMDL
MODEL 7
REMARK VINA RESULT:    -6.204      3.873      7.458
REMARK INTER + INTRA:          -7.694
REMARK INTER:                  -7.558
REMARK INTRA:                  -0.136
REMARK UNBOUND:                -0.220
REMARK SMILES O=c1c(O)c(-c2ccc(O)c(O)c2)oc2cc(O)cc(O)c12
REMARK SMILES IDX 5 1 3 2 2 3 1 4 22 5 20 6 19 7 17 8 16 9 15 10 14 11 6 12
REMARK SMILES IDX 7 13 8 14 9 15 13 16 11 17 10 18 12 20 4 22 21 24 18 26
REMARK H PARENT 10 19 12 21 4 23 21 25 18 27
REMARK Flexibility Score: inf
ROOT
ATOM      1  C   UNL     1      16.063  -1.825  13.928  1.00  0.00     0.180 A 
ATOM      2  C   UNL     1      16.721  -2.131  15.132  1.00  0.00     0.208 A 
ATOM      3  C   UNL     1      18.124  -2.103  15.169  1.00  0.00     0.238 A 
ATOM      4  O   UNL     1      18.707  -2.429  16.235  1.00  0.00    -0.285 OA
ATOM      5  C   UNL     1      18.852  -1.752  14.006  1.00  0.00     0.111 A 
ATOM      6  C   UNL     1      20.273  -1.653  13.940  1.00  0.00     0.134 A 
ATOM      7  C   UNL     1      20.893  -1.426  12.705  1.00  0.00     0.093 A 
ATOM      8  C   UNL     1      20.139  -1.232  11.545  1.00  0.00     0.123 A 
ATOM      9  C   UNL     1      18.748  -1.269  11.611  1.00  0.00     0.094 A 
ATOM     10  C   UNL     1      18.102  -1.529  12.822  1.00  0.00     0.146 A 
ATOM     11  O   UNL     1      16.775  -1.566  12.838  1.00  0.00    -0.452 OA
ENDROOT
BRANCH   1  12
ATOM     12  C   UNL     1      14.587  -1.810  13.819  1.00  0.00     0.025 A 
ATOM     13  C   UNL     1      13.957  -2.627  12.866  1.00  0.00     0.016 A 
ATOM     14  C   UNL     1      12.566  -2.613  12.731  1.00  0.00     0.051 A 
ATOM     15  C   UNL     1      11.786  -1.775  13.532  1.00  0.00     0.157 A 
ATOM     16  C   UNL     1      13.802  -0.952  14.609  1.00  0.00     0.062 A 
ATOM     17  C   UNL     1      12.406  -0.936  14.474  1.00  0.00     0.158 A 
BRANCH  15  18
ATOM     18  O   UNL     1      10.400  -1.784  13.377  1.00  0.00    -0.504 OA
ATOM     19  H   UNL     1       9.903  -1.021  12.931  1.00  0.00     0.293 HD
ENDBRANCH  15  18
BRANCH  17  20
ATOM     20  O   UNL     1      11.635  -0.087  15.267  1.00  0.00    -0.504 OA
ATOM     21  H   UNL     1      10.765  -0.395  15.686  1.00  0.00     0.293 HD
ENDBRANCH  17  20
ENDBRANCH   1  12
BRANCH   2  22
ATOM     22  O   UNL     1      15.983  -2.495  16.263  1.00  0.00    -0.502 OA
ATOM     23  H   UNL     1      15.549  -1.812  16.872  1.00  0.00     0.293 HD
ENDBRANCH   2  22
BRANCH   6  24
ATOM     24  O   UNL     1      21.114  -1.739  15.053  1.00  0.00    -0.507 OA
ATOM     25  H   UNL     1      21.442  -2.601  15.461  1.00  0.00     0.293 HD
ENDBRANCH   6  24
BRANCH   8  26
ATOM     26  O   UNL     1      20.762  -0.992  10.323  1.00  0.00    -0.508 OA
ATOM     27  H   UNL     1      21.612  -1.478  10.057  1.00  0.00     0.293 HD
ENDBRANCH   8  26
TORSDOF 6
ENDMDL
MODEL 8
REMARK VINA RESULT:    -6.145      3.109      7.458
REMARK INTER + INTRA:          -7.622
REMARK INTER:                  -7.489
REMARK INTRA:                  -0.133
REMARK UNBOUND:                -0.220
REMARK SMILES O=c1c(O)c(-c2ccc(O)c(O)c2)oc2cc(O)cc(O)c12
REMARK SMILES IDX 5 1 3 2 2 3 1 4 22 5 20 6 19 7 17 8 16 9 15 10 14 11 6 12
REMARK SMILES IDX 7 13 8 14 9 15 13 16 11 17 10 18 12 20 4 22 21 24 18 26
REMARK H PARENT 10 19 12 21 4 23 21 25 18 27
REMARK Flexibility Score: inf
ROOT
ATOM      1  C   UNL     1      16.021  -1.797  12.859  1.00  0.00     0.180 A 
ATOM      2  C   UNL     1      16.395  -1.643  11.512  1.00  0.00     0.208 A 
ATOM      3  C   UNL     1      17.758  -1.555  11.189  1.00  0.00     0.238 A 
ATOM      4  O   UNL     1      18.084  -1.364   9.989  1.00  0.00    -0.285 OA
ATOM      5  C   UNL     1      18.731  -1.640  12.214  1.00  0.00     0.111 A 
ATOM      6  C   UNL     1      20.141  -1.604  11.998  1.00  0.00     0.134 A 
ATOM      7  C   UNL     1      21.008  -1.564  13.097  1.00  0.00     0.093 A 
ATOM      8  C   UNL     1      20.518  -1.625  14.404  1.00  0.00     0.123 A 
ATOM      9  C   UNL     1      19.146  -1.720  14.624  1.00  0.00     0.094 A 
ATOM     10  C   UNL     1      18.254  -1.725  13.548  1.00  0.00     0.146 A 
ATOM     11  O   UNL     1      16.953  -1.806  13.803  1.00  0.00    -0.452 OA
ENDROOT
BRANCH   1  12
ATOM     12  C   UNL     1      14.605  -1.922  13.273  1.00  0.00     0.025 A 
ATOM     13  C   UNL     1      13.839  -2.998  12.800  1.00  0.00     0.016 A 
ATOM     14  C   UNL     1      12.495  -3.123  13.161  1.00  0.00     0.051 A 
ATOM     15  C   UNL     1      11.892  -2.169  13.986  1.00  0.00     0.157 A 
ATOM     16  C   UNL     1      13.992  -0.951  14.086  1.00  0.00     0.062 A 
ATOM     17  C   UNL     1      12.642  -1.075  14.448  1.00  0.00     0.158 A 
BRANCH  15  18
ATOM     18  O   UNL     1      10.550  -2.322  14.332  1.00  0.00    -0.504 OA
ATOM     19  H   UNL     1      10.223  -3.100  14.892  1.00  0.00     0.293 HD
ENDBRANCH  15  18
BRANCH  17  20
ATOM     20  O   UNL     1      12.044  -0.112  15.260  1.00  0.00    -0.504 OA
ATOM     21  H   UNL     1      11.261  -0.336  15.862  1.00  0.00     0.293 HD
ENDBRANCH  17  20
ENDBRANCH   1  12
BRANCH   2  22
ATOM     22  O   UNL     1      15.417  -1.541  10.519  1.00  0.00    -0.502 OA
ATOM     23  H   UNL     1      15.519  -0.932   9.716  1.00  0.00     0.293 HD
ENDBRANCH   2  22
BRANCH   6  24
ATOM     24  O   UNL     1      20.737  -1.634  10.734  1.00  0.00    -0.507 OA
ATOM     25  H   UNL     1      20.523  -0.996   9.982  1.00  0.00     0.293 HD
ENDBRANCH   6  24
BRANCH   8  26
ATOM     26  O   UNL     1      21.388  -1.600  15.491  1.00  0.00    -0.508 OA
ATOM     27  H   UNL     1      22.393  -1.631  15.366  1.00  0.00     0.293 HD
ENDBRANCH   8  26
TORSDOF 6
ENDMDL
MODEL 9
REMARK VINA RESULT:    -6.015      4.339      7.738
REMARK INTER + INTRA:          -7.465
REMARK INTER:                  -7.131
REMARK INTRA:                  -0.334
REMARK UNBOUND:                -0.220
REMARK SMILES O=c1c(O)c(-c2ccc(O)c(O)c2)oc2cc(O)cc(O)c12
REMARK SMILES IDX 5 1 3 2 2 3 1 4 22 5 20 6 19 7 17 8 16 9 15 10 14 11 6 12
REMARK SMILES IDX 7 13 8 14 9 15 13 16 11 17 10 18 12 20 4 22 21 24 18 26
REMARK H PARENT 10 19 12 21 4 23 21 25 18 27
REMARK Flexibility Score: inf
ROOT
ATOM      1  C   UNL     1      18.529  -0.712  13.849  1.00  0.00     0.180 A 
ATOM      2  C   UNL     1      19.322  -0.833  15.003  1.00  0.00     0.208 A 
ATOM      3  C   UNL     1      20.595  -0.241  15.021  1.00  0.00     0.238 A 
ATOM      4  O   UNL     1      21.321  -0.398  16.037  1.00  0.00    -0.285 OA
ATOM      5  C   UNL     1      21.053   0.479  13.891  1.00  0.00     0.111 A 
ATOM      6  C   UNL     1      22.308   1.153  13.814  1.00  0.00     0.134 A 
ATOM      7  C   UNL     1      22.712   1.722  12.600  1.00  0.00     0.093 A 
ATOM      8  C   UNL     1      21.878   1.699  11.479  1.00  0.00     0.123 A 
ATOM      9  C   UNL     1      20.626   1.094  11.562  1.00  0.00     0.094 A 
ATOM     10  C   UNL     1      20.210   0.485  12.749  1.00  0.00     0.146 A 
ATOM     11  O   UNL     1      19.013  -0.088  12.781  1.00  0.00    -0.452 OA
ENDROOT
BRANCH   1  12
ATOM     12  C   UNL     1      17.168  -1.289  13.764  1.00  0.00     0.025 A 
ATOM     13  C   UNL     1      16.993  -2.569  13.216  1.00  0.00     0.016 A 
ATOM     14  C   UNL     1      15.715  -3.123  13.107  1.00  0.00     0.051 A 
ATOM     15  C   UNL     1      14.593  -2.403  13.529  1.00  0.00     0.157 A 
ATOM     16  C   UNL     1      16.037  -0.558  14.169  1.00  0.00     0.062 A 
ATOM     17  C   UNL     1      14.753  -1.112  14.059  1.00  0.00     0.158 A 
BRANCH  15  18
ATOM     18  O   UNL     1      13.330  -2.984  13.410  1.00  0.00    -0.504 OA
ATOM     19  H   UNL     1      13.110  -3.647  12.676  1.00  0.00     0.293 HD
ENDBRANCH  15  18
BRANCH  17  20
ATOM     20  O   UNL     1      13.638  -0.383  14.469  1.00  0.00    -0.504 OA
ATOM     21  H   UNL     1      13.463   0.556  14.132  1.00  0.00     0.293 HD
ENDBRANCH  17  20
ENDBRANCH   1  12
BRANCH   2  22
ATOM     22  O   UNL     1      18.859  -1.566  16.100  1.00  0.00    -0.502 OA
ATOM     23  H   UNL     1      18.490  -2.505  16.010  1.00  0.00     0.293 HD
ENDBRANCH   2  22
BRANCH   6  24
ATOM     24  O   UNL     1      23.175   1.314  14.898  1.00  0.00    -0.507 OA
ATOM     25  H   UNL     1      23.675   2.163  15.112  1.00  0.00     0.293 HD
ENDBRANCH   6  24
BRANCH   8  26
ATOM     26  O   UNL     1      22.282   2.281  10.280  1.00  0.00    -0.508 OA
ATOM     27  H   UNL     1      23.262   2.383  10.044  1.00  0.00     0.293 HD
ENDBRANCH   8  26
TORSDOF 6
ENDMDL
