MODEL 1
REMARK VINA RESULT:    -6.537      0.000      0.000
REMARK INTER + INTRA:          -8.168
REMARK INTER:                  -7.874
REMARK INTRA:                  -0.294
REMARK UNBOUND:                -0.294
REMARK SMILES O=c1c(O)c(-c2ccc(O)c(O)c2)oc2cc(O)cc(O)c12
REMARK SMILES IDX 5 1 3 2 2 3 1 4 22 5 20 6 19 7 17 8 16 9 15 10 14 11 6 12
REMARK SMILES IDX 7 13 8 14 9 15 13 16 11 17 10 18 12 20 4 22 21 24 18 26
REMARK H PARENT 10 19 12 21 4 23 21 25 18 27
REMARK Flexibility Score: inf
ROOT
ATOM      1  C   UNL     1      12.433  23.343 -12.224  1.00  0.00     0.180 A 
ATOM      2  C   UNL     1      11.357  23.041 -13.080  1.00  0.00     0.208 A 
ATOM      3  C   UNL     1      10.114  23.651 -12.849  1.00  0.00     0.238 A 
ATOM      4  O   UNL     1       9.147  23.397 -13.616  1.00  0.00    -0.285 OA
ATOM      5  C   UNL     1       9.961  24.531 -11.758  1.00  0.00     0.111 A 
ATOM      6  C   UNL     1       8.742  25.182 -11.454  1.00  0.00     0.134 A 
ATOM      7  C   UNL     1       8.668  26.038 -10.344  1.00  0.00     0.093 A 
ATOM      8  C   UNL     1       9.789  26.253  -9.534  1.00  0.00     0.123 A 
ATOM      9  C   UNL     1      10.994  25.613  -9.832  1.00  0.00     0.094 A 
ATOM     10  C   UNL     1      11.088  24.758 -10.933  1.00  0.00     0.146 A 
ATOM     11  O   UNL     1      12.248  24.167 -11.196  1.00  0.00    -0.452 OA
ENDROOT
BRANCH   1  12
ATOM     12  C   UNL     1      13.779  22.756 -12.413  1.00  0.00     0.025 A 
ATOM     13  C   UNL     1      14.769  23.497 -13.072  1.00  0.00     0.016 A 
ATOM     14  C   UNL     1      16.039  22.954 -13.279  1.00  0.00     0.051 A 
ATOM     15  C   UNL     1      16.340  21.657 -12.847  1.00  0.00     0.157 A 
ATOM     16  C   UNL     1      14.070  21.445 -11.999  1.00  0.00     0.062 A 
ATOM     17  C   UNL     1      15.340  20.889 -12.204  1.00  0.00     0.158 A 
BRANCH  15  18
ATOM     18  O   UNL     1      17.630  21.176 -13.078  1.00  0.00    -0.504 OA
ATOM     19  H   UNL     1      17.920  20.227 -12.891  1.00  0.00     0.293 HD
ENDBRANCH  15  18
BRANCH  17  20
ATOM     20  O   UNL     1      15.559  19.583 -11.765  1.00  0.00    -0.504 OA
ATOM     21  H   UNL     1      14.839  18.876 -11.715  1.00  0.00     0.293 HD
ENDBRANCH  17  20
ENDBRANCH   1  12
BRANCH   2  22
ATOM     22  O   UNL     1      11.522  22.128 -14.124  1.00  0.00    -0.502 OA
ATOM     23  H   UNL     1      12.415  21.980 -14.580  1.00  0.00     0.293 HD
ENDBRANCH   2  22
BRANCH   6  24
ATOM     24  O   UNL     1       7.606  24.987 -12.242  1.00  0.00    -0.507 OA
ATOM     25  H   UNL     1       7.565  25.301 -13.205  1.00  0.00     0.293 HD
ENDBRANCH   6  24
BRANCH   8  26
ATOM     26  O   UNL     1       9.715  27.101  -8.432  1.00  0.00    -0.508 OA
ATOM     27  H   UNL     1       9.075  27.885  -8.409  1.00  0.00     0.293 HD
ENDBRANCH   8  26
TORSDOF 6
ENDMDL
MODEL 2
REMARK VINA RESULT:    -6.389      9.914     12.383
REMARK INTER + INTRA:          -7.990
REMARK INTER:                  -7.669
REMARK INTRA:                  -0.321
REMARK UNBOUND:                -0.294
REMARK SMILES O=c1c(O)c(-c2ccc(O)c(O)c2)oc2cc(O)cc(O)c12
REMARK SMILES IDX 5 1 3 2 2 3 1 4 22 5 20 6 19 7 17 8 16 9 15 10 14 11 6 12
REMARK SMILES IDX 7 13 8 14 9 15 13 16 11 17 10 18 12 20 4 22 21 24 18 26
REMARK H PARENT 10 19 12 21 4 23 21 25 18 27
REMARK Flexibility Score: inf
ROOT
ATOM      1  C   UNL     1       7.795  14.639  -9.314  1.00  0.00     0.180 A 
ATOM      2  C   UNL     1       7.511  14.583 -10.692  1.00  0.00     0.208 A 
ATOM      3  C   UNL     1       8.258  13.713 -11.503  1.00  0.00     0.238 A 
ATOM      4  O   UNL     1       8.005  13.646 -12.737  1.00  0.00    -0.285 OA
ATOM      5  C   UNL     1       9.284  12.935 -10.931  1.00  0.00     0.111 A 
ATOM      6  C   UNL     1      10.084  12.039 -11.680  1.00  0.00     0.134 A 
ATOM      7  C   UNL     1      11.094  11.305 -11.037  1.00  0.00     0.093 A 
ATOM      8  C   UNL     1      11.318  11.452  -9.663  1.00  0.00     0.123 A 
ATOM      9  C   UNL     1      10.530  12.335  -8.922  1.00  0.00     0.094 A 
ATOM     10  C   UNL     1       9.519  13.073  -9.542  1.00  0.00     0.146 A 
ATOM     11  O   UNL     1       8.781  13.901  -8.812  1.00  0.00    -0.452 OA
ENDROOT
BRANCH   1  12
ATOM     12  C   UNL     1       7.040  15.517  -8.390  1.00  0.00     0.025 A 
ATOM     13  C   UNL     1       7.599  16.737  -7.987  1.00  0.00     0.016 A 
ATOM     14  C   UNL     1       6.913  17.570  -7.101  1.00  0.00     0.051 A 
ATOM     15  C   UNL     1       5.666  17.194  -6.588  1.00  0.00     0.157 A 
ATOM     16  C   UNL     1       5.799  15.125  -7.860  1.00  0.00     0.062 A 
ATOM     17  C   UNL     1       5.104  15.952  -6.967  1.00  0.00     0.158 A 
BRANCH  15  18
ATOM     18  O   UNL     1       5.029  18.075  -5.712  1.00  0.00    -0.504 OA
ATOM     19  H   UNL     1       4.948  19.069  -5.871  1.00  0.00     0.293 HD
ENDBRANCH  15  18
BRANCH  17  20
ATOM     20  O   UNL     1       3.876  15.501  -6.482  1.00  0.00    -0.504 OA
ATOM     21  H   UNL     1       3.437  15.853  -5.644  1.00  0.00     0.293 HD
ENDBRANCH  17  20
ENDBRANCH   1  12
BRANCH   2  22
ATOM     22  O   UNL     1       6.522  15.401 -11.243  1.00  0.00    -0.502 OA
ATOM     23  H   UNL     1       6.733  16.295 -11.669  1.00  0.00     0.293 HD
ENDBRANCH   2  22
BRANCH   6  24
ATOM     24  O   UNL     1       9.886  11.871 -13.051  1.00  0.00    -0.507 OA
ATOM     25  H   UNL     1      10.578  11.420 -13.638  1.00  0.00     0.293 HD
ENDBRANCH   6  24
BRANCH   8  26
ATOM     26  O   UNL     1      12.320  10.725  -9.026  1.00  0.00    -0.508 OA
ATOM     27  H   UNL     1      13.289  10.793  -9.314  1.00  0.00     0.293 HD
ENDBRANCH   8  26
TORSDOF 6
ENDMDL
MODEL 3
REMARK VINA RESULT:    -6.212      9.969     10.736
REMARK INTER + INTRA:          -7.777
REMARK INTER:                  -7.444
REMARK INTRA:                  -0.332
REMARK UNBOUND:                -0.294
REMARK SMILES O=c1c(O)c(-c2ccc(O)c(O)c2)oc2cc(O)cc(O)c12
REMARK SMILES IDX 5 1 3 2 2 3 1 4 22 5 20 6 19 7 17 8 16 9 15 10 14 11 6 12
REMARK SMILES IDX 7 13 8 14 9 15 13 16 11 17 10 18 12 20 4 22 21 24 18 26
REMARK H PARENT 10 19 12 21 4 23 21 25 18 27
REMARK Flexibility Score: inf
ROOT
ATOM      1  C   UNL     1       8.730  13.535  -9.235  1.00  0.00     0.180 A 
ATOM      2  C   UNL     1       7.526  12.902  -9.599  1.00  0.00     0.208 A 
ATOM      3  C   UNL     1       6.309  13.530  -9.289  1.00  0.00     0.238 A 
ATOM      4  O   UNL     1       5.225  12.978  -9.620  1.00  0.00    -0.285 OA
ATOM      5  C   UNL     1       6.315  14.762  -8.603  1.00  0.00     0.111 A 
ATOM      6  C   UNL     1       5.133  15.455  -8.249  1.00  0.00     0.134 A 
ATOM      7  C   UNL     1       5.222  16.674  -7.558  1.00  0.00     0.093 A 
ATOM      8  C   UNL     1       6.470  17.209  -7.215  1.00  0.00     0.123 A 
ATOM      9  C   UNL     1       7.638  16.527  -7.563  1.00  0.00     0.094 A 
ATOM     10  C   UNL     1       7.570  15.313  -8.252  1.00  0.00     0.146 A 
ATOM     11  O   UNL     1       8.696  14.689  -8.575  1.00  0.00    -0.452 OA
ENDROOT
BRANCH   1  12
ATOM     12  C   UNL     1      10.054  12.946  -9.543  1.00  0.00     0.025 A 
ATOM     13  C   UNL     1      10.709  12.176  -8.573  1.00  0.00     0.016 A 
ATOM     14  C   UNL     1      11.967  11.629  -8.837  1.00  0.00     0.051 A 
ATOM     15  C   UNL     1      12.600  11.852 -10.065  1.00  0.00     0.157 A 
ATOM     16  C   UNL     1      10.696  13.192 -10.769  1.00  0.00     0.062 A 
ATOM     17  C   UNL     1      11.959  12.650 -11.042  1.00  0.00     0.158 A 
BRANCH  15  18
ATOM     18  O   UNL     1      13.852  11.271 -10.268  1.00  0.00    -0.504 OA
ATOM     19  H   UNL     1      14.450  11.478 -11.055  1.00  0.00     0.293 HD
ENDBRANCH  15  18
BRANCH  17  20
ATOM     20  O   UNL     1      12.536  12.934 -12.280  1.00  0.00    -0.504 OA
ATOM     21  H   UNL     1      13.532  12.975 -12.443  1.00  0.00     0.293 HD
ENDBRANCH  17  20
ENDBRANCH   1  12
BRANCH   2  22
ATOM     22  O   UNL     1       7.547  11.658 -10.234  1.00  0.00    -0.502 OA
ATOM     23  H   UNL     1       6.732  11.270 -10.694  1.00  0.00     0.293 HD
ENDBRANCH   2  22
BRANCH   6  24
ATOM     24  O   UNL     1       3.875  14.947  -8.576  1.00  0.00    -0.507 OA
ATOM     25  H   UNL     1       3.537  14.072  -8.193  1.00  0.00     0.293 HD
ENDBRANCH   6  24
BRANCH   8  26
ATOM     26  O   UNL     1       6.558  18.417  -6.528  1.00  0.00    -0.508 OA
ATOM     27  H   UNL     1       7.145  19.173  -6.860  1.00  0.00     0.293 HD
ENDBRANCH   8  26
TORSDOF 6
ENDMDL
MODEL 4
REMARK VINA RESULT:    -6.186     14.292     17.298
REMARK INTER + INTRA:          -7.746
REMARK INTER:                  -7.803
REMARK INTRA:                   0.058
REMARK UNBOUND:                -0.294
REMARK SMILES O=c1c(O)c(-c2ccc(O)c(O)c2)oc2cc(O)cc(O)c12
REMARK SMILES IDX 5 1 3 2 2 3 1 4 22 5 20 6 19 7 17 8 16 9 15 10 14 11 6 12
REMARK SMILES IDX 7 13 8 14 9 15 13 16 11 17 10 18 12 20 4 22 21 24 18 26
REMARK H PARENT 10 19 12 21 4 23 21 25 18 27
REMARK Flexibility Score: inf
ROOT
ATOM      1  C   UNL     1      18.530  13.190  -0.256  1.00  0.00     0.180 A 
ATOM      2  C   UNL     1      19.663  13.056  -1.081  1.00  0.00     0.208 A 
ATOM      3  C   UNL     1      19.499  13.120  -2.474  1.00  0.00     0.238 A 
ATOM      4  O   UNL     1      20.508  13.014  -3.222  1.00  0.00    -0.285 OA
ATOM      5  C   UNL     1      18.210  13.294  -3.017  1.00  0.00     0.111 A 
ATOM      6  C   UNL     1      17.960  13.364  -4.409  1.00  0.00     0.134 A 
ATOM      7  C   UNL     1      16.644  13.530  -4.871  1.00  0.00     0.093 A 
ATOM      8  C   UNL     1      15.578  13.625  -3.969  1.00  0.00     0.123 A 
ATOM      9  C   UNL     1      15.822  13.556  -2.596  1.00  0.00     0.094 A 
ATOM     10  C   UNL     1      17.124  13.394  -2.115  1.00  0.00     0.146 A 
ATOM     11  O   UNL     1      17.328  13.337  -0.804  1.00  0.00    -0.452 OA
ENDROOT
BRANCH   1  12
ATOM     12  C   UNL     1      18.623  13.152   1.222  1.00  0.00     0.025 A 
ATOM     13  C   UNL     1      17.655  12.454   1.956  1.00  0.00     0.016 A 
ATOM     14  C   UNL     1      17.714  12.422   3.351  1.00  0.00     0.051 A 
ATOM     15  C   UNL     1      18.727  13.098   4.039  1.00  0.00     0.157 A 
ATOM     16  C   UNL     1      19.630  13.851   1.909  1.00  0.00     0.062 A 
ATOM     17  C   UNL     1      19.695  13.829   3.308  1.00  0.00     0.158 A 
BRANCH  15  18
ATOM     18  O   UNL     1      18.733  13.021   5.433  1.00  0.00    -0.504 OA
ATOM     19  H   UNL     1      17.899  12.972   5.999  1.00  0.00     0.293 HD
ENDBRANCH  15  18
BRANCH  17  20
ATOM     20  O   UNL     1      20.723  14.544   3.925  1.00  0.00    -0.504 OA
ATOM     21  H   UNL     1      21.669  14.587   3.575  1.00  0.00     0.293 HD
ENDBRANCH  17  20
ENDBRANCH   1  12
BRANCH   2  22
ATOM     22  O   UNL     1      20.923  12.835  -0.519  1.00  0.00    -0.502 OA
ATOM     23  H   UNL     1      21.294  13.415   0.225  1.00  0.00     0.293 HD
ENDBRANCH   2  22
BRANCH   6  24
ATOM     24  O   UNL     1      19.001  13.272  -5.332  1.00  0.00    -0.507 OA
ATOM     25  H   UNL     1      19.007  13.817  -6.187  1.00  0.00     0.293 HD
ENDBRANCH   6  24
BRANCH   8  26
ATOM     26  O   UNL     1      14.273  13.788  -4.428  1.00  0.00    -0.508 OA
ATOM     27  H   UNL     1      13.764  14.651  -4.281  1.00  0.00     0.293 HD
ENDBRANCH   8  26
TORSDOF 6
ENDMDL
MODEL 5
REMARK VINA RESULT:    -6.134     12.652     14.532
REMARK INTER + INTRA:          -7.683
REMARK INTER:                  -7.369
REMARK INTRA:                  -0.313
REMARK UNBOUND:                -0.294
REMARK SMILES O=c1c(O)c(-c2ccc(O)c(O)c2)oc2cc(O)cc(O)c12
REMARK SMILES IDX 5 1 3 2 2 3 1 4 22 5 20 6 19 7 17 8 16 9 15 10 14 11 6 12
REMARK SMILES IDX 7 13 8 14 9 15 13 16 11 17 10 18 12 20 4 22 21 24 18 26
REMARK H PARENT 10 19 12 21 4 23 21 25 18 27
REMARK Flexibility Score: inf
ROOT
ATOM      1  C   UNL     1      11.496  11.679  -5.881  1.00  0.00     0.180 A 
ATOM      2  C   UNL     1      12.514  12.108  -6.753  1.00  0.00     0.208 A 
ATOM      3  C   UNL     1      13.691  12.645  -6.210  1.00  0.00     0.238 A 
ATOM      4  O   UNL     1      14.615  13.022  -6.981  1.00  0.00    -0.285 OA
ATOM      5  C   UNL     1      13.822  12.765  -4.811  1.00  0.00     0.111 A 
ATOM      6  C   UNL     1      14.973  13.300  -4.185  1.00  0.00     0.134 A 
ATOM      7  C   UNL     1      15.023  13.394  -2.785  1.00  0.00     0.093 A 
ATOM      8  C   UNL     1      13.945  12.965  -2.003  1.00  0.00     0.123 A 
ATOM      9  C   UNL     1      12.808  12.436  -2.618  1.00  0.00     0.094 A 
ATOM     10  C   UNL     1      12.739  12.333  -4.009  1.00  0.00     0.146 A 
ATOM     11  O   UNL     1      11.648  11.821  -4.567  1.00  0.00    -0.452 OA
ENDROOT
BRANCH   1  12
ATOM     12  C   UNL     1      10.233  11.084  -6.376  1.00  0.00     0.025 A 
ATOM     13  C   UNL     1      10.126   9.692  -6.495  1.00  0.00     0.016 A 
ATOM     14  C   UNL     1       8.952   9.112  -6.979  1.00  0.00     0.051 A 
ATOM     15  C   UNL     1       7.870   9.909  -7.369  1.00  0.00     0.157 A 
ATOM     16  C   UNL     1       9.158  11.890  -6.788  1.00  0.00     0.062 A 
ATOM     17  C   UNL     1       7.976  11.318  -7.278  1.00  0.00     0.158 A 
BRANCH  15  18
ATOM     18  O   UNL     1       6.722   9.267  -7.837  1.00  0.00    -0.504 OA
ATOM     19  H   UNL     1       6.601   8.948  -8.787  1.00  0.00     0.293 HD
ENDBRANCH  15  18
BRANCH  17  20
ATOM     20  O   UNL     1       6.948  12.178  -7.667  1.00  0.00    -0.504 OA
ATOM     21  H   UNL     1       6.503  12.152  -8.573  1.00  0.00     0.293 HD
ENDBRANCH  17  20
ENDBRANCH   1  12
BRANCH   2  22
ATOM     22  O   UNL     1      12.339  12.024  -8.137  1.00  0.00    -0.502 OA
ATOM     23  H   UNL     1      12.792  12.662  -8.780  1.00  0.00     0.293 HD
ENDBRANCH   2  22
BRANCH   6  24
ATOM     24  O   UNL     1      16.064  13.737  -4.937  1.00  0.00    -0.507 OA
ATOM     25  H   UNL     1      17.006  13.413  -4.750  1.00  0.00     0.293 HD
ENDBRANCH   6  24
BRANCH   8  26
ATOM     26  O   UNL     1      13.994  13.059  -0.614  1.00  0.00    -0.508 OA
ATOM     27  H   UNL     1      13.200  13.387  -0.077  1.00  0.00     0.293 HD
ENDBRANCH   8  26
TORSDOF 6
ENDMDL
MODEL 6
REMARK VINA RESULT:    -6.117     11.351     13.281
REMARK INTER + INTRA:          -7.662
REMARK INTER:                  -7.559
REMARK INTRA:                  -0.103
REMARK UNBOUND:                -0.294
REMARK SMILES O=c1c(O)c(-c2ccc(O)c(O)c2)oc2cc(O)cc(O)c12
REMARK SMILES IDX 5 1 3 2 2 3 1 4 22 5 20 6 19 7 17 8 16 9 15 10 14 11 6 12
REMARK SMILES IDX 7 13 8 14 9 15 13 16 11 17 10 18 12 20 4 22 21 24 18 26
REMARK H PARENT 10 19 12 21 4 23 21 25 18 27
REMARK Flexibility Score: inf
ROOT
ATOM      1  C   UNL     1      12.799  12.260  -6.805  1.00  0.00     0.180 A 
ATOM      2  C   UNL     1      11.725  11.796  -6.021  1.00  0.00     0.208 A 
ATOM      3  C   UNL     1      11.801  11.922  -4.624  1.00  0.00     0.238 A 
ATOM      4  O   UNL     1      10.841  11.521  -3.913  1.00  0.00    -0.285 OA
ATOM      5  C   UNL     1      12.952  12.485  -4.036  1.00  0.00     0.111 A 
ATOM      6  C   UNL     1      13.109  12.643  -2.638  1.00  0.00     0.134 A 
ATOM      7  C   UNL     1      14.290  13.205  -2.130  1.00  0.00     0.093 A 
ATOM      8  C   UNL     1      15.315  13.611  -2.992  1.00  0.00     0.123 A 
ATOM      9  C   UNL     1      15.163  13.458  -4.372  1.00  0.00     0.094 A 
ATOM     10  C   UNL     1      13.995  12.902  -4.898  1.00  0.00     0.146 A 
ATOM     11  O   UNL     1      13.875  12.772  -6.214  1.00  0.00    -0.452 OA
ENDROOT
BRANCH   1  12
ATOM     12  C   UNL     1      12.786  12.180  -8.283  1.00  0.00     0.025 A 
ATOM     13  C   UNL     1      13.850  11.557  -8.950  1.00  0.00     0.016 A 
ATOM     14  C   UNL     1      13.866  11.489 -10.345  1.00  0.00     0.051 A 
ATOM     15  C   UNL     1      12.833  12.054 -11.100  1.00  0.00     0.157 A 
ATOM     16  C   UNL     1      11.758  12.770  -9.038  1.00  0.00     0.062 A 
ATOM     17  C   UNL     1      11.767  12.710 -10.438  1.00  0.00     0.158 A 
BRANCH  15  18
ATOM     18  O   UNL     1      12.906  11.945 -12.490  1.00  0.00    -0.504 OA
ATOM     19  H   UNL     1      12.100  11.936 -13.099  1.00  0.00     0.293 HD
ENDBRANCH  15  18
BRANCH  17  20
ATOM     20  O   UNL     1      10.713  13.315 -11.124  1.00  0.00    -0.504 OA
ATOM     21  H   UNL     1      10.649  14.307 -11.299  1.00  0.00     0.293 HD
ENDBRANCH  17  20
ENDBRANCH   1  12
BRANCH   2  22
ATOM     22  O   UNL     1      10.618  11.197  -6.625  1.00  0.00    -0.502 OA
ATOM     23  H   UNL     1      10.522  10.191  -6.705  1.00  0.00     0.293 HD
ENDBRANCH   2  22
BRANCH   6  24
ATOM     24  O   UNL     1      12.105  12.247  -1.753  1.00  0.00    -0.507 OA
ATOM     25  H   UNL     1      12.236  11.475  -1.110  1.00  0.00     0.293 HD
ENDBRANCH   6  24
BRANCH   8  26
ATOM     26  O   UNL     1      16.488  14.169  -2.488  1.00  0.00    -0.508 OA
ATOM     27  H   UNL     1      16.888  15.009  -2.885  1.00  0.00     0.293 HD
ENDBRANCH   8  26
TORSDOF 6
ENDMDL
MODEL 7
REMARK VINA RESULT:    -6.091     12.307     14.496
REMARK INTER + INTRA:          -7.631
REMARK INTER:                  -8.067
REMARK INTRA:                   0.436
REMARK UNBOUND:                -0.294
REMARK SMILES O=c1c(O)c(-c2ccc(O)c(O)c2)oc2cc(O)cc(O)c12
REMARK SMILES IDX 5 1 3 2 2 3 1 4 22 5 20 6 19 7 17 8 16 9 15 10 14 11 6 12
REMARK SMILES IDX 7 13 8 14 9 15 13 16 11 17 10 18 12 20 4 22 21 24 18 26
REMARK H PARENT 10 19 12 21 4 23 21 25 18 27
REMARK Flexibility Score: inf
ROOT
ATOM      1  C   UNL     1      16.394  13.003  -4.115  1.00  0.00     0.180 A 
ATOM      2  C   UNL     1      14.994  13.126  -4.030  1.00  0.00     0.208 A 
ATOM      3  C   UNL     1      14.227  12.965  -5.194  1.00  0.00     0.238 A 
ATOM      4  O   UNL     1      12.971  13.062  -5.127  1.00  0.00    -0.285 OA
ATOM      5  C   UNL     1      14.868  12.705  -6.422  1.00  0.00     0.111 A 
ATOM      6  C   UNL     1      14.168  12.535  -7.640  1.00  0.00     0.134 A 
ATOM      7  C   UNL     1      14.881  12.288  -8.824  1.00  0.00     0.093 A 
ATOM      8  C   UNL     1      16.279  12.210  -8.811  1.00  0.00     0.123 A 
ATOM      9  C   UNL     1      16.973  12.378  -7.611  1.00  0.00     0.094 A 
ATOM     10  C   UNL     1      16.281  12.623  -6.421  1.00  0.00     0.146 A 
ATOM     11  O   UNL     1      16.966  12.773  -5.294  1.00  0.00    -0.452 OA
ENDROOT
BRANCH   1  12
ATOM     12  C   UNL     1      17.271  13.141  -2.930  1.00  0.00     0.025 A 
ATOM     13  C   UNL     1      18.662  13.155  -3.098  1.00  0.00     0.016 A 
ATOM     14  C   UNL     1      19.507  13.265  -1.991  1.00  0.00     0.051 A 
ATOM     15  C   UNL     1      18.981  13.345  -0.697  1.00  0.00     0.157 A 
ATOM     16  C   UNL     1      16.739  13.198  -1.630  1.00  0.00     0.062 A 
ATOM     17  C   UNL     1      17.579  13.305  -0.513  1.00  0.00     0.158 A 
BRANCH  15  18
ATOM     18  O   UNL     1      19.879  13.460   0.366  1.00  0.00    -0.504 OA
ATOM     19  H   UNL     1      20.228  12.676   0.898  1.00  0.00     0.293 HD
ENDBRANCH  15  18
BRANCH  17  20
ATOM     20  O   UNL     1      16.982  13.359   0.748  1.00  0.00    -0.504 OA
ATOM     21  H   UNL     1      17.495  13.328   1.617  1.00  0.00     0.293 HD
ENDBRANCH  17  20
ENDBRANCH   1  12
BRANCH   2  22
ATOM     22  O   UNL     1      14.387  13.433  -2.809  1.00  0.00    -0.502 OA
ATOM     23  H   UNL     1      14.299  12.754  -2.062  1.00  0.00     0.293 HD
ENDBRANCH   2  22
BRANCH   6  24
ATOM     24  O   UNL     1      12.775  12.607  -7.685  1.00  0.00    -0.507 OA
ATOM     25  H   UNL     1      12.190  11.939  -7.197  1.00  0.00     0.293 HD
ENDBRANCH   6  24
BRANCH   8  26
ATOM     26  O   UNL     1      16.986  11.966  -9.985  1.00  0.00    -0.508 OA
ATOM     27  H   UNL     1      17.804  12.510 -10.234  1.00  0.00     0.293 HD
ENDBRANCH   8  26
TORSDOF 6
ENDMDL
MODEL 8
REMARK VINA RESULT:    -6.030      1.275      2.813
REMARK INTER + INTRA:          -7.557
REMARK INTER:                  -7.416
REMARK INTRA:                  -0.142
REMARK UNBOUND:                -0.294
REMARK SMILES O=c1c(O)c(-c2ccc(O)c(O)c2)oc2cc(O)cc(O)c12
REMARK SMILES IDX 5 1 3 2 2 3 1 4 22 5 20 6 19 7 17 8 16 9 15 10 14 11 6 12
REMARK SMILES IDX 7 13 8 14 9 15 13 16 11 17 10 18 12 20 4 22 21 24 18 26
REMARK H PARENT 10 19 12 21 4 23 21 25 18 27
REMARK Flexibility Score: inf
ROOT
ATOM      1  C   UNL     1      12.880  23.541 -11.886  1.00  0.00     0.180 A 
ATOM      2  C   UNL     1      12.865  24.710 -11.102  1.00  0.00     0.208 A 
ATOM      3  C   UNL     1      11.631  25.308 -10.800  1.00  0.00     0.238 A 
ATOM      4  O   UNL     1      11.604  26.349 -10.089  1.00  0.00    -0.285 OA
ATOM      5  C   UNL     1      10.441  24.744 -11.302  1.00  0.00     0.111 A 
ATOM      6  C   UNL     1       9.159  25.287 -11.048  1.00  0.00     0.134 A 
ATOM      7  C   UNL     1       8.021  24.670 -11.592  1.00  0.00     0.093 A 
ATOM      8  C   UNL     1       8.143  23.523 -12.384  1.00  0.00     0.123 A 
ATOM      9  C   UNL     1       9.406  22.984 -12.637  1.00  0.00     0.094 A 
ATOM     10  C   UNL     1      10.550  23.582 -12.103  1.00  0.00     0.146 A 
ATOM     11  O   UNL     1      11.739  23.045 -12.355  1.00  0.00    -0.452 OA
ENDROOT
BRANCH   1  12
ATOM     12  C   UNL     1      14.139  22.841 -12.232  1.00  0.00     0.025 A 
ATOM     13  C   UNL     1      15.086  23.485 -13.040  1.00  0.00     0.016 A 
ATOM     14  C   UNL     1      16.271  22.835 -13.394  1.00  0.00     0.051 A 
ATOM     15  C   UNL     1      16.525  21.528 -12.963  1.00  0.00     0.157 A 
ATOM     16  C   UNL     1      14.379  21.520 -11.816  1.00  0.00     0.062 A 
ATOM     17  C   UNL     1      15.563  20.859 -12.169  1.00  0.00     0.158 A 
BRANCH  15  18
ATOM     18  O   UNL     1      17.730  20.938 -13.346  1.00  0.00    -0.504 OA
ATOM     19  H   UNL     1      17.799  20.051 -13.823  1.00  0.00     0.293 HD
ENDBRANCH  15  18
BRANCH  17  20
ATOM     20  O   UNL     1      15.736  19.549 -11.720  1.00  0.00    -0.504 OA
ATOM     21  H   UNL     1      16.625  19.069 -11.709  1.00  0.00     0.293 HD
ENDBRANCH  17  20
ENDBRANCH   1  12
BRANCH   2  22
ATOM     22  O   UNL     1      14.062  25.278 -10.658  1.00  0.00    -0.502 OA
ATOM     23  H   UNL     1      14.876  25.363 -11.256  1.00  0.00     0.293 HD
ENDBRANCH   2  22
BRANCH   6  24
ATOM     24  O   UNL     1       9.006  26.431 -10.262  1.00  0.00    -0.507 OA
ATOM     25  H   UNL     1       8.678  26.379  -9.304  1.00  0.00     0.293 HD
ENDBRANCH   6  24
BRANCH   8  26
ATOM     26  O   UNL     1       7.014  22.911 -12.925  1.00  0.00    -0.508 OA
ATOM     27  H   UNL     1       7.041  22.452 -13.827  1.00  0.00     0.293 HD
ENDBRANCH   8  26
TORSDOF 6
ENDMDL
MODEL 9
REMARK VINA RESULT:    -5.997     13.031     15.811
REMARK INTER + INTRA:          -7.518
REMARK INTER:                  -7.972
REMARK INTRA:                   0.454
REMARK UNBOUND:                -0.294
REMARK SMILES O=c1c(O)c(-c2ccc(O)c(O)c2)oc2cc(O)cc(O)c12
REMARK SMILES IDX 5 1 3 2 2 3 1 4 22 5 20 6 19 7 17 8 16 9 15 10 14 11 6 12
REMARK SMILES IDX 7 13 8 14 9 15 13 16 11 17 10 18 12 20 4 22 21 24 18 26
REMARK H PARENT 10 19 12 21 4 23 21 25 18 27
REMARK Flexibility Score: inf
ROOT
ATOM      1  C   UNL     1      14.873  12.764  -2.713  1.00  0.00     0.180 A 
ATOM      2  C   UNL     1      16.182  13.262  -2.865  1.00  0.00     0.208 A 
ATOM      3  C   UNL     1      17.011  13.349  -1.736  1.00  0.00     0.238 A 
ATOM      4  O   UNL     1      18.188  13.782  -1.862  1.00  0.00    -0.285 OA
ATOM      5  C   UNL     1      16.514  12.961  -0.475  1.00  0.00     0.111 A 
ATOM      6  C   UNL     1      17.283  13.022   0.712  1.00  0.00     0.134 A 
ATOM      7  C   UNL     1      16.712  12.626   1.932  1.00  0.00     0.093 A 
ATOM      8  C   UNL     1      15.389  12.170   1.985  1.00  0.00     0.123 A 
ATOM      9  C   UNL     1      14.628  12.108   0.816  1.00  0.00     0.094 A 
ATOM     10  C   UNL     1      15.178  12.497  -0.408  1.00  0.00     0.146 A 
ATOM     11  O   UNL     1      14.434  12.422  -1.505  1.00  0.00    -0.452 OA
ENDROOT
BRANCH   1  12
ATOM     12  C   UNL     1      13.946  12.625  -3.858  1.00  0.00     0.025 A 
ATOM     13  C   UNL     1      12.633  12.187  -3.634  1.00  0.00     0.016 A 
ATOM     14  C   UNL     1      11.748  12.029  -4.703  1.00  0.00     0.051 A 
ATOM     15  C   UNL     1      12.160  12.288  -6.015  1.00  0.00     0.157 A 
ATOM     16  C   UNL     1      14.370  12.863  -5.176  1.00  0.00     0.062 A 
ATOM     17  C   UNL     1      13.491  12.705  -6.256  1.00  0.00     0.158 A 
BRANCH  15  18
ATOM     18  O   UNL     1      11.225  12.118  -7.037  1.00  0.00    -0.504 OA
ATOM     19  H   UNL     1      10.876  11.220  -7.340  1.00  0.00     0.293 HD
ENDBRANCH  15  18
BRANCH  17  20
ATOM     20  O   UNL     1      13.980  12.962  -7.538  1.00  0.00    -0.504 OA
ATOM     21  H   UNL     1      14.786  12.504  -7.937  1.00  0.00     0.293 HD
ENDBRANCH  17  20
ENDBRANCH   1  12
BRANCH   2  22
ATOM     22  O   UNL     1      16.633  13.686  -4.118  1.00  0.00    -0.502 OA
ATOM     23  H   UNL     1      17.164  14.541  -4.242  1.00  0.00     0.293 HD
ENDBRANCH   2  22
BRANCH   6  24
ATOM     24  O   UNL     1      18.603  13.473   0.691  1.00  0.00    -0.507 OA
ATOM     25  H   UNL     1      19.037  13.891   1.506  1.00  0.00     0.293 HD
ENDBRANCH   6  24
BRANCH   8  26
ATOM     26  O   UNL     1      14.823  11.777   3.196  1.00  0.00    -0.508 OA
ATOM     27  H   UNL     1      14.568  10.813   3.373  1.00  0.00     0.293 HD
ENDBRANCH   8  26
TORSDOF 6
ENDMDL
