MODEL 1
REMARK VINA RESULT:    -4.857      0.000      0.000
REMARK INTER + INTRA:         -11.690
REMARK INTER:                  -9.115
REMARK INTRA:                  -2.575
REMARK UNBOUND:                -2.575
REMARK SMILES CCCCCCCCC=CCCCCCCCC(=O)[O-]
REMARK SMILES IDX 10 1 9 2 11 3 12 4 13 5 14 6 15 7 16 8 17 9 18 10 19 11
REMARK SMILES IDX 20 12 8 13 7 14 6 15 5 16 4 17 3 18 2 19 1 20
REMARK H PARENT
REMARK Flexibility Score: inf
ROOT
ATOM      1  C   UNL     1      -5.547 -22.022 -11.560  1.00  0.00    -0.031 C 
ATOM      2  C   UNL     1      -4.861 -22.642 -12.538  1.00  0.00    -0.031 C 
ENDROOT
BRANCH   1   3
ATOM      3  C   UNL     1      -4.989 -21.699 -10.197  1.00  0.00     0.027 C 
BRANCH   3   4
ATOM      4  C   UNL     1      -6.118 -21.356  -9.217  1.00  0.00     0.004 C 
BRANCH   4   5
ATOM      5  C   UNL     1      -7.318 -20.743  -9.956  1.00  0.00     0.000 C 
BRANCH   5   6
ATOM      6  C   UNL     1      -7.341 -19.209  -9.876  1.00  0.00     0.000 C 
BRANCH   6   7
ATOM      7  C   UNL     1      -6.428 -18.660  -8.770  1.00  0.00     0.000 C 
BRANCH   7   8
ATOM      8  C   UNL     1      -6.215 -17.147  -8.934  1.00  0.00     0.006 C 
BRANCH   8   9
ATOM      9  C   UNL     1      -7.342 -16.485  -9.737  1.00  0.00     0.053 C 
BRANCH   9  10
ATOM     10  C   UNL     1      -6.809 -15.696 -10.894  1.00  0.00     0.041 C 
ATOM     11  O   UNL     1      -7.224 -15.921 -12.062  1.00  0.00    -0.550 OA
ATOM     12  O   UNL     1      -5.878 -14.688 -10.678  1.00  0.00    -0.550 OA
ENDBRANCH   9  10
ENDBRANCH   8   9
ENDBRANCH   7   8
ENDBRANCH   6   7
ENDBRANCH   5   6
ENDBRANCH   4   5
ENDBRANCH   3   4
ENDBRANCH   1   3
BRANCH   2  13
ATOM     13  C   UNL     1      -3.401 -23.018 -12.460  1.00  0.00     0.027 C 
BRANCH  13  14
ATOM     14  C   UNL     1      -2.774 -23.169 -13.854  1.00  0.00     0.004 C 
BRANCH  14  15
ATOM     15  C   UNL     1      -3.374 -22.180 -14.867  1.00  0.00     0.000 C 
BRANCH  15  16
ATOM     16  C   UNL     1      -2.588 -20.859 -14.949  1.00  0.00     0.000 C 
BRANCH  16  17
ATOM     17  C   UNL     1      -3.167 -19.701 -14.111  1.00  0.00    -0.000 C 
BRANCH  17  18
ATOM     18  C   UNL     1      -2.330 -19.302 -12.881  1.00  0.00    -0.000 C 
BRANCH  18  19
ATOM     19  C   UNL     1      -3.195 -18.918 -11.672  1.00  0.00    -0.003 C 
ATOM     20  C   UNL     1      -4.543 -18.358 -12.118  1.00  0.00     0.004 C 
ENDBRANCH  18  19
ENDBRANCH  17  18
ENDBRANCH  16  17
ENDBRANCH  15  16
ENDBRANCH  14  15
ENDBRANCH  13  14
ENDBRANCH   2  13
TORSDOF 15
ENDMDL
MODEL 2
REMARK VINA RESULT:    -4.777      3.131      6.267
REMARK INTER + INTRA:         -11.540
REMARK INTER:                  -9.340
REMARK INTRA:                  -2.200
REMARK UNBOUND:                -2.575
REMARK SMILES CCCCCCCCC=CCCCCCCCC(=O)[O-]
REMARK SMILES IDX 10 1 9 2 11 3 12 4 13 5 14 6 15 7 16 8 17 9 18 10 19 11
REMARK SMILES IDX 20 12 8 13 7 14 6 15 5 16 4 17 3 18 2 19 1 20
REMARK H PARENT
REMARK Flexibility Score: inf
ROOT
ATOM      1  C   UNL     1      -6.220 -19.167  -9.004  1.00  0.00    -0.031 C 
ATOM      2  C   UNL     1      -6.516 -18.041  -8.329  1.00  0.00    -0.031 C 
ENDROOT
BRANCH   1   3
ATOM      3  C   UNL     1      -7.232 -20.023  -9.724  1.00  0.00     0.027 C 
BRANCH   3   4
ATOM      4  C   UNL     1      -7.635 -21.225  -8.863  1.00  0.00     0.004 C 
BRANCH   4   5
ATOM      5  C   UNL     1      -7.726 -22.503  -9.713  1.00  0.00     0.000 C 
BRANCH   5   6
ATOM      6  C   UNL     1      -7.791 -22.208 -11.219  1.00  0.00     0.000 C 
BRANCH   6   7
ATOM      7  C   UNL     1      -6.724 -22.972 -12.019  1.00  0.00     0.000 C 
BRANCH   7   8
ATOM      8  C   UNL     1      -5.357 -22.278 -11.914  1.00  0.00     0.006 C 
BRANCH   8   9
ATOM      9  C   UNL     1      -4.438 -22.625 -13.092  1.00  0.00     0.053 C 
BRANCH   9  10
ATOM     10  C   UNL     1      -3.021 -22.827 -12.649  1.00  0.00     0.041 C 
ATOM     11  O   UNL     1      -2.071 -22.644 -13.455  1.00  0.00    -0.550 OA
ATOM     12  O   UNL     1      -2.748 -23.188 -11.335  1.00  0.00    -0.550 OA
ENDBRANCH   9  10
ENDBRANCH   8   9
ENDBRANCH   7   8
ENDBRANCH   6   7
ENDBRANCH   5   6
ENDBRANCH   4   5
ENDBRANCH   3   4
ENDBRANCH   1   3
BRANCH   2  13
ATOM     13  C   UNL     1      -7.884 -17.405  -8.274  1.00  0.00     0.027 C 
BRANCH  13  14
ATOM     14  C   UNL     1      -7.968 -16.151  -9.157  1.00  0.00     0.004 C 
BRANCH  14  15
ATOM     15  C   UNL     1      -8.754 -16.411 -10.454  1.00  0.00     0.000 C 
BRANCH  15  16
ATOM     16  C   UNL     1      -7.875 -16.987 -11.579  1.00  0.00     0.000 C 
BRANCH  16  17
ATOM     17  C   UNL     1      -6.710 -16.082 -12.028  1.00  0.00    -0.000 C 
BRANCH  17  18
ATOM     18  C   UNL     1      -5.310 -16.556 -11.596  1.00  0.00    -0.000 C 
BRANCH  18  19
ATOM     19  C   UNL     1      -4.826 -17.779 -12.386  1.00  0.00    -0.003 C 
ATOM     20  C   UNL     1      -3.713 -18.509 -11.640  1.00  0.00     0.004 C 
ENDBRANCH  18  19
ENDBRANCH  17  18
ENDBRANCH  16  17
ENDBRANCH  15  16
ENDBRANCH  14  15
ENDBRANCH  13  14
ENDBRANCH   2  13
TORSDOF 15
ENDMDL
MODEL 3
REMARK VINA RESULT:    -4.711      2.862      6.594
REMARK INTER + INTRA:         -11.417
REMARK INTER:                  -8.714
REMARK INTRA:                  -2.703
REMARK UNBOUND:                -2.575
REMARK SMILES CCCCCCCCC=CCCCCCCCC(=O)[O-]
REMARK SMILES IDX 10 1 9 2 11 3 12 4 13 5 14 6 15 7 16 8 17 9 18 10 19 11
REMARK SMILES IDX 20 12 8 13 7 14 6 15 5 16 4 17 3 18 2 19 1 20
REMARK H PARENT
REMARK Flexibility Score: inf
ROOT
ATOM      1  C   UNL     1      -4.561 -18.651 -11.663  1.00  0.00    -0.031 C 
ATOM      2  C   UNL     1      -5.221 -17.616 -11.112  1.00  0.00    -0.031 C 
ENDROOT
BRANCH   1   3
ATOM      3  C   UNL     1      -4.943 -20.099 -11.487  1.00  0.00     0.027 C 
BRANCH   3   4
ATOM      4  C   UNL     1      -4.024 -20.782 -10.467  1.00  0.00     0.004 C 
BRANCH   4   5
ATOM      5  C   UNL     1      -3.634 -22.191 -10.937  1.00  0.00     0.000 C 
BRANCH   5   6
ATOM      6  C   UNL     1      -4.126 -22.498 -12.360  1.00  0.00     0.000 C 
BRANCH   6   7
ATOM      7  C   UNL     1      -2.973 -22.701 -13.355  1.00  0.00     0.000 C 
BRANCH   7   8
ATOM      8  C   UNL     1      -2.861 -21.508 -14.316  1.00  0.00     0.006 C 
BRANCH   8   9
ATOM      9  C   UNL     1      -1.978 -20.388 -13.751  1.00  0.00     0.053 C 
BRANCH   9  10
ATOM     10  C   UNL     1      -1.192 -19.704 -14.828  1.00  0.00     0.041 C 
ATOM     11  O   UNL     1      -0.243 -18.933 -14.529  1.00  0.00    -0.550 OA
ATOM     12  O   UNL     1      -1.490 -19.943 -16.163  1.00  0.00    -0.550 OA
ENDBRANCH   9  10
ENDBRANCH   8   9
ENDBRANCH   7   8
ENDBRANCH   6   7
ENDBRANCH   5   6
ENDBRANCH   4   5
ENDBRANCH   3   4
ENDBRANCH   1   3
BRANCH   2  13
ATOM     13  C   UNL     1      -6.501 -17.734 -10.321  1.00  0.00     0.027 C 
BRANCH  13  14
ATOM     14  C   UNL     1      -6.273 -17.484  -8.823  1.00  0.00     0.004 C 
BRANCH  14  15
ATOM     15  C   UNL     1      -6.541 -18.743  -7.981  1.00  0.00     0.000 C 
BRANCH  15  16
ATOM     16  C   UNL     1      -7.314 -19.826  -8.755  1.00  0.00     0.000 C 
BRANCH  16  17
ATOM     17  C   UNL     1      -7.066 -21.272  -8.280  1.00  0.00    -0.000 C 
BRANCH  17  18
ATOM     18  C   UNL     1      -7.137 -22.344  -9.384  1.00  0.00    -0.000 C 
BRANCH  18  19
ATOM     19  C   UNL     1      -7.987 -21.906 -10.585  1.00  0.00    -0.003 C 
ATOM     20  C   UNL     1      -7.758 -22.825 -11.782  1.00  0.00     0.004 C 
ENDBRANCH  18  19
ENDBRANCH  17  18
ENDBRANCH  16  17
ENDBRANCH  15  16
ENDBRANCH  14  15
ENDBRANCH  13  14
ENDBRANCH   2  13
TORSDOF 15
ENDMDL
MODEL 4
REMARK VINA RESULT:    -4.703      3.016      7.203
REMARK INTER + INTRA:         -11.403
REMARK INTER:                  -9.017
REMARK INTRA:                  -2.385
REMARK UNBOUND:                -2.575
REMARK SMILES CCCCCCCCC=CCCCCCCCC(=O)[O-]
REMARK SMILES IDX 10 1 9 2 11 3 12 4 13 5 14 6 15 7 16 8 17 9 18 10 19 11
REMARK SMILES IDX 20 12 8 13 7 14 6 15 5 16 4 17 3 18 2 19 1 20
REMARK H PARENT
REMARK Flexibility Score: inf
ROOT
ATOM      1  C   UNL     1      -7.825 -16.625 -12.041  1.00  0.00    -0.031 C 
ATOM      2  C   UNL     1      -8.725 -16.218 -11.126  1.00  0.00    -0.031 C 
ENDROOT
BRANCH   1   3
ATOM      3  C   UNL     1      -6.519 -15.927 -12.325  1.00  0.00     0.027 C 
BRANCH   3   4
ATOM      4  C   UNL     1      -5.386 -16.538 -11.493  1.00  0.00     0.004 C 
BRANCH   4   5
ATOM      5  C   UNL     1      -5.019 -17.937 -12.009  1.00  0.00     0.000 C 
BRANCH   5   6
ATOM      6  C   UNL     1      -3.534 -18.275 -11.801  1.00  0.00     0.000 C 
BRANCH   6   7
ATOM      7  C   UNL     1      -3.258 -19.786 -11.845  1.00  0.00     0.000 C 
BRANCH   7   8
ATOM      8  C   UNL     1      -3.920 -20.430 -13.072  1.00  0.00     0.006 C 
BRANCH   8   9
ATOM      9  C   UNL     1      -4.159 -21.933 -12.882  1.00  0.00     0.053 C 
BRANCH   9  10
ATOM     10  C   UNL     1      -3.350 -22.749 -13.844  1.00  0.00     0.041 C 
ATOM     11  O   UNL     1      -3.487 -22.588 -15.085  1.00  0.00    -0.550 OA
ATOM     12  O   UNL     1      -2.423 -23.667 -13.368  1.00  0.00    -0.550 OA
ENDBRANCH   9  10
ENDBRANCH   8   9
ENDBRANCH   7   8
ENDBRANCH   6   7
ENDBRANCH   5   6
ENDBRANCH   4   5
ENDBRANCH   3   4
ENDBRANCH   1   3
BRANCH   2  13
ATOM     13  C   UNL     1      -8.522 -15.065 -10.174  1.00  0.00     0.027 C 
BRANCH  13  14
ATOM     14  C   UNL     1      -8.553 -15.521  -8.708  1.00  0.00     0.004 C 
BRANCH  14  15
ATOM     15  C   UNL     1      -8.331 -17.036  -8.570  1.00  0.00     0.000 C 
BRANCH  15  16
ATOM     16  C   UNL     1      -6.901 -17.393  -8.126  1.00  0.00     0.000 C 
BRANCH  16  17
ATOM     17  C   UNL     1      -6.381 -18.756  -8.627  1.00  0.00    -0.000 C 
BRANCH  17  18
ATOM     18  C   UNL     1      -7.253 -19.434  -9.700  1.00  0.00    -0.000 C 
BRANCH  18  19
ATOM     19  C   UNL     1      -7.168 -20.966  -9.655  1.00  0.00    -0.003 C 
ATOM     20  C   UNL     1      -5.717 -21.433  -9.584  1.00  0.00     0.004 C 
ENDBRANCH  18  19
ENDBRANCH  17  18
ENDBRANCH  16  17
ENDBRANCH  15  16
ENDBRANCH  14  15
ENDBRANCH  13  14
ENDBRANCH   2  13
TORSDOF 15
ENDMDL
MODEL 5
REMARK VINA RESULT:    -4.701      4.824      7.954
REMARK INTER + INTRA:         -11.399
REMARK INTER:                  -8.868
REMARK INTRA:                  -2.531
REMARK UNBOUND:                -2.575
REMARK SMILES CCCCCCCCC=CCCCCCCCC(=O)[O-]
REMARK SMILES IDX 10 1 9 2 11 3 12 4 13 5 14 6 15 7 16 8 17 9 18 10 19 11
REMARK SMILES IDX 20 12 8 13 7 14 6 15 5 16 4 17 3 18 2 19 1 20
REMARK H PARENT
REMARK Flexibility Score: inf
ROOT
ATOM      1  C   UNL     1      -2.046 -20.039 -15.131  1.00  0.00    -0.031 C 
ATOM      2  C   UNL     1      -2.189 -21.351 -14.866  1.00  0.00    -0.031 C 
ENDROOT
BRANCH   1   3
ATOM      3  C   UNL     1      -3.189 -19.083 -15.361  1.00  0.00     0.027 C 
BRANCH   3   4
ATOM      4  C   UNL     1      -3.087 -18.443 -16.750  1.00  0.00     0.004 C 
BRANCH   4   5
ATOM      5  C   UNL     1      -2.078 -17.285 -16.748  1.00  0.00     0.000 C 
BRANCH   5   6
ATOM      6  C   UNL     1      -1.007 -17.431 -17.840  1.00  0.00     0.000 C 
BRANCH   6   7
ATOM      7  C   UNL     1      -1.434 -18.387 -18.964  1.00  0.00     0.000 C 
BRANCH   7   8
ATOM      8  C   UNL     1      -0.416 -19.524 -19.135  1.00  0.00     0.006 C 
BRANCH   8   9
ATOM      9  C   UNL     1       0.439 -19.732 -17.879  1.00  0.00     0.053 C 
BRANCH   9  10
ATOM     10  C   UNL     1       1.599 -20.643 -18.142  1.00  0.00     0.041 C 
ATOM     11  O   UNL     1       1.403 -21.842 -18.474  1.00  0.00    -0.550 OA
ATOM     12  O   UNL     1       2.898 -20.159 -18.049  1.00  0.00    -0.550 OA
ENDBRANCH   9  10
ENDBRANCH   8   9
ENDBRANCH   7   8
ENDBRANCH   6   7
ENDBRANCH   5   6
ENDBRANCH   4   5
ENDBRANCH   3   4
ENDBRANCH   1   3
BRANCH   2  13
ATOM     13  C   UNL     1      -3.512 -22.047 -14.657  1.00  0.00     0.027 C 
BRANCH  13  14
ATOM     14  C   UNL     1      -3.468 -23.015 -13.465  1.00  0.00     0.004 C 
BRANCH  14  15
ATOM     15  C   UNL     1      -2.057 -23.124 -12.863  1.00  0.00     0.000 C 
BRANCH  15  16
ATOM     16  C   UNL     1      -2.029 -22.836 -11.351  1.00  0.00     0.000 C 
BRANCH  16  17
ATOM     17  C   UNL     1      -2.701 -21.515 -10.925  1.00  0.00    -0.000 C 
BRANCH  17  18
ATOM     18  C   UNL     1      -1.898 -20.240 -11.242  1.00  0.00    -0.000 C 
BRANCH  18  19
ATOM     19  C   UNL     1      -2.790 -19.067 -11.672  1.00  0.00    -0.003 C 
ATOM     20  C   UNL     1      -4.239 -19.514 -11.843  1.00  0.00     0.004 C 
ENDBRANCH  18  19
ENDBRANCH  17  18
ENDBRANCH  16  17
ENDBRANCH  15  16
ENDBRANCH  14  15
ENDBRANCH  13  14
ENDBRANCH   2  13
TORSDOF 15
ENDMDL
MODEL 6
REMARK VINA RESULT:    -4.693      2.721      4.981
REMARK INTER + INTRA:         -11.384
REMARK INTER:                  -8.932
REMARK INTRA:                  -2.452
REMARK UNBOUND:                -2.575
REMARK SMILES CCCCCCCCC=CCCCCCCCC(=O)[O-]
REMARK SMILES IDX 10 1 9 2 11 3 12 4 13 5 14 6 15 7 16 8 17 9 18 10 19 11
REMARK SMILES IDX 20 12 8 13 7 14 6 15 5 16 4 17 3 18 2 19 1 20
REMARK H PARENT
REMARK Flexibility Score: inf
ROOT
ATOM      1  C   UNL     1      -5.117 -16.517 -12.240  1.00  0.00    -0.031 C 
ATOM      2  C   UNL     1      -4.188 -17.353 -12.738  1.00  0.00    -0.031 C 
ENDROOT
BRANCH   1   3
ATOM      3  C   UNL     1      -6.390 -16.958 -11.564  1.00  0.00     0.027 C 
BRANCH   3   4
ATOM      4  C   UNL     1      -6.418 -16.491 -10.104  1.00  0.00     0.004 C 
BRANCH   4   5
ATOM      5  C   UNL     1      -6.512 -17.690  -9.147  1.00  0.00     0.000 C 
BRANCH   5   6
ATOM      6  C   UNL     1      -6.623 -19.031  -9.887  1.00  0.00     0.000 C 
BRANCH   6   7
ATOM      7  C   UNL     1      -6.451 -20.239  -8.953  1.00  0.00     0.000 C 
BRANCH   7   8
ATOM      8  C   UNL     1      -7.628 -21.217  -9.098  1.00  0.00     0.006 C 
BRANCH   8   9
ATOM      9  C   UNL     1      -8.084 -21.366 -10.555  1.00  0.00     0.053 C 
BRANCH   9  10
ATOM     10  C   UNL     1      -7.976 -22.784 -11.028  1.00  0.00     0.041 C 
ATOM     11  O   UNL     1      -7.963 -23.043 -12.260  1.00  0.00    -0.550 OA
ATOM     12  O   UNL     1      -7.857 -23.816 -10.107  1.00  0.00    -0.550 OA
ENDBRANCH   9  10
ENDBRANCH   8   9
ENDBRANCH   7   8
ENDBRANCH   6   7
ENDBRANCH   5   6
ENDBRANCH   4   5
ENDBRANCH   3   4
ENDBRANCH   1   3
BRANCH   2  13
ATOM     13  C   UNL     1      -4.224 -18.856 -12.608  1.00  0.00     0.027 C 
BRANCH  13  14
ATOM     14  C   UNL     1      -3.211 -19.365 -11.572  1.00  0.00     0.004 C 
BRANCH  14  15
ATOM     15  C   UNL     1      -3.313 -20.886 -11.364  1.00  0.00     0.000 C 
BRANCH  15  16
ATOM     16  C   UNL     1      -4.668 -21.461 -11.818  1.00  0.00     0.000 C 
BRANCH  16  17
ATOM     17  C   UNL     1      -4.580 -22.621 -12.829  1.00  0.00    -0.000 C 
BRANCH  17  18
ATOM     18  C   UNL     1      -3.151 -23.036 -13.226  1.00  0.00    -0.000 C 
BRANCH  18  19
ATOM     19  C   UNL     1      -2.858 -22.811 -14.716  1.00  0.00    -0.003 C 
ATOM     20  C   UNL     1      -2.795 -21.323 -15.045  1.00  0.00     0.004 C 
ENDBRANCH  18  19
ENDBRANCH  17  18
ENDBRANCH  16  17
ENDBRANCH  15  16
ENDBRANCH  14  15
ENDBRANCH  13  14
ENDBRANCH   2  13
TORSDOF 15
ENDMDL
MODEL 7
REMARK VINA RESULT:    -4.673      1.496      4.585
REMARK INTER + INTRA:         -11.346
REMARK INTER:                  -8.990
REMARK INTRA:                  -2.356
REMARK UNBOUND:                -2.575
REMARK SMILES CCCCCCCCC=CCCCCCCCC(=O)[O-]
REMARK SMILES IDX 10 1 9 2 11 3 12 4 13 5 14 6 15 7 16 8 17 9 18 10 19 11
REMARK SMILES IDX 20 12 8 13 7 14 6 15 5 16 4 17 3 18 2 19 1 20
REMARK H PARENT
REMARK Flexibility Score: inf
ROOT
ATOM      1  C   UNL     1      -3.491 -22.328 -13.621  1.00  0.00    -0.031 C 
ATOM      2  C   UNL     1      -4.450 -22.777 -12.790  1.00  0.00    -0.031 C 
ENDROOT
BRANCH   1   3
ATOM      3  C   UNL     1      -3.175 -20.872 -13.854  1.00  0.00     0.027 C 
BRANCH   3   4
ATOM      4  C   UNL     1      -2.086 -20.393 -12.887  1.00  0.00     0.004 C 
BRANCH   4   5
ATOM      5  C   UNL     1      -2.531 -19.124 -12.144  1.00  0.00     0.000 C 
BRANCH   5   6
ATOM      6  C   UNL     1      -3.857 -18.560 -12.678  1.00  0.00     0.000 C 
BRANCH   6   7
ATOM      7  C   UNL     1      -4.787 -18.071 -11.557  1.00  0.00     0.000 C 
BRANCH   7   8
ATOM      8  C   UNL     1      -5.708 -16.948 -12.059  1.00  0.00     0.006 C 
BRANCH   8   9
ATOM      9  C   UNL     1      -5.377 -15.594 -11.418  1.00  0.00     0.053 C 
BRANCH   9  10
ATOM     10  C   UNL     1      -4.473 -14.775 -12.289  1.00  0.00     0.041 C 
ATOM     11  O   UNL     1      -3.861 -13.783 -11.813  1.00  0.00    -0.550 OA
ATOM     12  O   UNL     1      -4.282 -15.128 -13.618  1.00  0.00    -0.550 OA
ENDBRANCH   9  10
ENDBRANCH   8   9
ENDBRANCH   7   8
ENDBRANCH   6   7
ENDBRANCH   5   6
ENDBRANCH   4   5
ENDBRANCH   3   4
ENDBRANCH   1   3
BRANCH   2  13
ATOM     13  C   UNL     1      -5.285 -21.902 -11.887  1.00  0.00     0.027 C 
BRANCH  13  14
ATOM     14  C   UNL     1      -4.682 -21.792 -10.479  1.00  0.00     0.004 C 
BRANCH  14  15
ATOM     15  C   UNL     1      -5.767 -21.660  -9.396  1.00  0.00     0.000 C 
BRANCH  15  16
ATOM     16  C   UNL     1      -6.641 -20.405  -9.576  1.00  0.00     0.000 C 
BRANCH  16  17
ATOM     17  C   UNL     1      -6.944 -19.628  -8.279  1.00  0.00    -0.000 C 
BRANCH  17  18
ATOM     18  C   UNL     1      -6.471 -18.163  -8.270  1.00  0.00    -0.000 C 
BRANCH  18  19
ATOM     19  C   UNL     1      -7.634 -17.162  -8.197  1.00  0.00    -0.003 C 
ATOM     20  C   UNL     1      -8.333 -17.036  -9.548  1.00  0.00     0.004 C 
ENDBRANCH  18  19
ENDBRANCH  17  18
ENDBRANCH  16  17
ENDBRANCH  15  16
ENDBRANCH  14  15
ENDBRANCH  13  14
ENDBRANCH   2  13
TORSDOF 15
ENDMDL
MODEL 8
REMARK VINA RESULT:    -4.634      3.058      6.548
REMARK INTER + INTRA:         -11.272
REMARK INTER:                  -8.822
REMARK INTRA:                  -2.450
REMARK UNBOUND:                -2.575
REMARK SMILES CCCCCCCCC=CCCCCCCCC(=O)[O-]
REMARK SMILES IDX 10 1 9 2 11 3 12 4 13 5 14 6 15 7 16 8 17 9 18 10 19 11
REMARK SMILES IDX 20 12 8 13 7 14 6 15 5 16 4 17 3 18 2 19 1 20
REMARK H PARENT
REMARK Flexibility Score: inf
ROOT
ATOM      1  C   UNL     1      -2.108 -19.803 -11.422  1.00  0.00    -0.031 C 
ATOM      2  C   UNL     1      -3.045 -18.879 -11.700  1.00  0.00    -0.031 C 
ENDROOT
BRANCH   1   3
ATOM      3  C   UNL     1      -2.397 -21.175 -10.867  1.00  0.00     0.027 C 
BRANCH   3   4
ATOM      4  C   UNL     1      -2.036 -22.259 -11.889  1.00  0.00     0.004 C 
BRANCH   4   5
ATOM      5  C   UNL     1      -3.296 -22.978 -12.396  1.00  0.00     0.000 C 
BRANCH   5   6
ATOM      6  C   UNL     1      -3.932 -22.274 -13.605  1.00  0.00     0.000 C 
BRANCH   6   7
ATOM      7  C   UNL     1      -2.914 -21.967 -14.714  1.00  0.00     0.000 C 
BRANCH   7   8
ATOM      8  C   UNL     1      -2.891 -20.466 -15.038  1.00  0.00     0.006 C 
BRANCH   8   9
ATOM      9  C   UNL     1      -1.467 -19.896 -15.055  1.00  0.00     0.053 C 
BRANCH   9  10
ATOM     10  C   UNL     1      -1.061 -19.459 -16.430  1.00  0.00     0.041 C 
ATOM     11  O   UNL     1      -1.889 -18.884 -17.184  1.00  0.00    -0.550 OA
ATOM     12  O   UNL     1       0.243 -19.659 -16.866  1.00  0.00    -0.550 OA
ENDBRANCH   9  10
ENDBRANCH   8   9
ENDBRANCH   7   8
ENDBRANCH   6   7
ENDBRANCH   5   6
ENDBRANCH   4   5
ENDBRANCH   3   4
ENDBRANCH   1   3
BRANCH   2  13
ATOM     13  C   UNL     1      -4.534 -19.106 -11.599  1.00  0.00     0.027 C 
BRANCH  13  14
ATOM     14  C   UNL     1      -5.313 -17.783 -11.554  1.00  0.00     0.004 C 
BRANCH  14  15
ATOM     15  C   UNL     1      -5.882 -17.495 -10.155  1.00  0.00     0.000 C 
BRANCH  15  16
ATOM     16  C   UNL     1      -7.101 -18.372  -9.813  1.00  0.00     0.000 C 
BRANCH  16  17
ATOM     17  C   UNL     1      -6.965 -19.206  -8.523  1.00  0.00    -0.000 C 
BRANCH  17  18
ATOM     18  C   UNL     1      -7.012 -20.732  -8.723  1.00  0.00    -0.000 C 
BRANCH  18  19
ATOM     19  C   UNL     1      -7.566 -21.136 -10.096  1.00  0.00    -0.003 C 
ATOM     20  C   UNL     1      -6.582 -22.030 -10.844  1.00  0.00     0.004 C 
ENDBRANCH  18  19
ENDBRANCH  17  18
ENDBRANCH  16  17
ENDBRANCH  15  16
ENDBRANCH  14  15
ENDBRANCH  13  14
ENDBRANCH   2  13
TORSDOF 15
ENDMDL
MODEL 9
REMARK VINA RESULT:    -4.634      2.102      6.176
REMARK INTER + INTRA:         -11.272
REMARK INTER:                  -9.103
REMARK INTRA:                  -2.169
REMARK UNBOUND:                -2.575
REMARK SMILES CCCCCCCCC=CCCCCCCCC(=O)[O-]
REMARK SMILES IDX 10 1 9 2 11 3 12 4 13 5 14 6 15 7 16 8 17 9 18 10 19 11
REMARK SMILES IDX 20 12 8 13 7 14 6 15 5 16 4 17 3 18 2 19 1 20
REMARK H PARENT
REMARK Flexibility Score: inf
ROOT
ATOM      1  C   UNL     1      -5.088 -20.501 -11.148  1.00  0.00    -0.031 C 
ATOM      2  C   UNL     1      -5.644 -19.511 -10.426  1.00  0.00    -0.031 C 
ENDROOT
BRANCH   1   3
ATOM      3  C   UNL     1      -5.662 -21.889 -11.281  1.00  0.00     0.027 C 
BRANCH   3   4
ATOM      4  C   UNL     1      -4.988 -22.646 -12.432  1.00  0.00     0.004 C 
BRANCH   4   5
ATOM      5  C   UNL     1      -3.477 -22.783 -12.188  1.00  0.00     0.000 C 
BRANCH   5   6
ATOM      6  C   UNL     1      -2.642 -22.407 -13.421  1.00  0.00     0.000 C 
BRANCH   6   7
ATOM      7  C   UNL     1      -3.425 -21.550 -14.428  1.00  0.00     0.000 C 
BRANCH   7   8
ATOM      8  C   UNL     1      -2.955 -20.089 -14.389  1.00  0.00     0.006 C 
BRANCH   8   9
ATOM      9  C   UNL     1      -1.668 -19.914 -13.572  1.00  0.00     0.053 C 
BRANCH   9  10
ATOM     10  C   UNL     1      -1.914 -19.148 -12.307  1.00  0.00     0.041 C 
ATOM     11  O   UNL     1      -1.638 -19.661 -11.191  1.00  0.00    -0.550 OA
ATOM     12  O   UNL     1      -2.418 -17.855 -12.365  1.00  0.00    -0.550 OA
ENDBRANCH   9  10
ENDBRANCH   8   9
ENDBRANCH   7   8
ENDBRANCH   6   7
ENDBRANCH   5   6
ENDBRANCH   4   5
ENDBRANCH   3   4
ENDBRANCH   1   3
BRANCH   2  13
ATOM     13  C   UNL     1      -6.977 -19.603  -9.724  1.00  0.00     0.027 C 
BRANCH  13  14
ATOM     14  C   UNL     1      -6.858 -19.285  -8.226  1.00  0.00     0.004 C 
BRANCH  14  15
ATOM     15  C   UNL     1      -6.767 -17.773  -7.962  1.00  0.00     0.000 C 
BRANCH  15  16
ATOM     16  C   UNL     1      -8.073 -17.029  -8.297  1.00  0.00     0.000 C 
BRANCH  16  17
ATOM     17  C   UNL     1      -7.932 -15.896  -9.334  1.00  0.00    -0.000 C 
BRANCH  17  18
ATOM     18  C   UNL     1      -6.550 -15.794 -10.008  1.00  0.00    -0.000 C 
BRANCH  18  19
ATOM     19  C   UNL     1      -6.579 -16.198 -11.489  1.00  0.00    -0.003 C 
ATOM     20  C   UNL     1      -8.005 -16.479 -11.953  1.00  0.00     0.004 C 
ENDBRANCH  18  19
ENDBRANCH  17  18
ENDBRANCH  16  17
ENDBRANCH  15  16
ENDBRANCH  14  15
ENDBRANCH  13  14
ENDBRANCH   2  13
TORSDOF 15
ENDMDL
