MODEL 1
REMARK VINA RESULT:    -3.538      0.000      0.000
REMARK INTER + INTRA:          -6.588
REMARK INTER:                  -6.019
REMARK INTRA:                  -0.569
REMARK UNBOUND:                -0.569
REMARK SMILES CCCCCCCCCCCCCC(=O)[O-]
REMARK SMILES IDX 8 1 9 2 10 3 11 4 12 5 13 6 14 7 15 8 16 9 7 10 6 11 5 12
REMARK SMILES IDX 4 13 3 14 2 15 1 16
REMARK H PARENT
REMARK Flexibility Score: inf
ROOT
ATOM      1  C   UNL     1       7.412   2.007  -4.527  1.00  0.00     0.000 C 
ENDROOT
BRANCH   1   2
ATOM      2  C   UNL     1       6.291   1.158  -5.157  1.00  0.00     0.000 C 
BRANCH   2   3
ATOM      3  C   UNL     1       5.542   0.240  -4.175  1.00  0.00     0.000 C 
BRANCH   3   4
ATOM      4  C   UNL     1       5.775  -1.254  -4.459  1.00  0.00     0.000 C 
BRANCH   4   5
ATOM      5  C   UNL     1       5.102  -2.165  -3.411  1.00  0.00     0.006 C 
BRANCH   5   6
ATOM      6  C   UNL     1       3.589  -1.932  -3.277  1.00  0.00     0.053 C 
BRANCH   6   7
ATOM      7  C   UNL     1       2.806  -2.653  -4.329  1.00  0.00     0.041 C 
ATOM      8  O   UNL     1       1.991  -2.025  -5.055  1.00  0.00    -0.550 OA
ATOM      9  O   UNL     1       2.995  -4.016  -4.525  1.00  0.00    -0.550 OA
ENDBRANCH   6   7
ENDBRANCH   5   6
ENDBRANCH   4   5
ENDBRANCH   3   4
ENDBRANCH   2   3
ENDBRANCH   1   2
BRANCH   1  10
ATOM     10  C   UNL     1       6.941   3.287  -3.809  1.00  0.00     0.000 C 
BRANCH  10  11
ATOM     11  C   UNL     1       7.066   4.583  -4.631  1.00  0.00    -0.000 C 
BRANCH  11  12
ATOM     12  C   UNL     1       6.506   5.812  -3.895  1.00  0.00    -0.000 C 
BRANCH  12  13
ATOM     13  C   UNL     1       5.569   5.430  -2.738  1.00  0.00    -0.000 C 
BRANCH  13  14
ATOM     14  C   UNL     1       4.379   6.395  -2.600  1.00  0.00    -0.000 C 
BRANCH  14  15
ATOM     15  C   UNL     1       4.472   7.267  -1.337  1.00  0.00    -0.003 C 
ATOM     16  C   UNL     1       5.501   6.750  -0.333  1.00  0.00     0.004 C 
ENDBRANCH  14  15
ENDBRANCH  13  14
ENDBRANCH  12  13
ENDBRANCH  11  12
ENDBRANCH  10  11
ENDBRANCH   1  10
TORSDOF 12
ENDMDL
MODEL 2
REMARK VINA RESULT:    -3.508      4.543      6.586
REMARK INTER + INTRA:          -6.537
REMARK INTER:                  -5.902
REMARK INTRA:                  -0.635
REMARK UNBOUND:                -0.569
REMARK SMILES CCCCCCCCCCCCCC(=O)[O-]
REMARK SMILES IDX 8 1 9 2 10 3 11 4 12 5 13 6 14 7 15 8 16 9 7 10 6 11 5 12
REMARK SMILES IDX 4 13 3 14 2 15 1 16
REMARK H PARENT
REMARK Flexibility Score: inf
ROOT
ATOM      1  C   UNL     1       4.090   2.529  -9.302  1.00  0.00     0.000 C 
ENDROOT
BRANCH   1   2
ATOM      2  C   UNL     1       2.572   2.778  -9.394  1.00  0.00     0.000 C 
BRANCH   2   3
ATOM      3  C   UNL     1       1.700   1.513  -9.313  1.00  0.00     0.000 C 
BRANCH   3   4
ATOM      4  C   UNL     1       0.245   1.816  -8.917  1.00  0.00     0.000 C 
BRANCH   4   5
ATOM      5  C   UNL     1      -0.613   0.539  -8.802  1.00  0.00     0.006 C 
BRANCH   5   6
ATOM      6  C   UNL     1       0.198  -0.714  -8.433  1.00  0.00     0.053 C 
BRANCH   6   7
ATOM      7  C   UNL     1      -0.020  -1.135  -7.013  1.00  0.00     0.041 C 
ATOM      8  O   UNL     1      -0.798  -0.480  -6.270  1.00  0.00    -0.550 OA
ATOM      9  O   UNL     1       0.616  -2.266  -6.517  1.00  0.00    -0.550 OA
ENDBRANCH   6   7
ENDBRANCH   5   6
ENDBRANCH   4   5
ENDBRANCH   3   4
ENDBRANCH   2   3
ENDBRANCH   1   2
BRANCH   1  10
ATOM     10  C   UNL     1       4.498   1.187  -8.663  1.00  0.00     0.000 C 
BRANCH  10  11
ATOM     11  C   UNL     1       5.465   1.298  -7.470  1.00  0.00    -0.000 C 
BRANCH  11  12
ATOM     12  C   UNL     1       5.747  -0.060  -6.804  1.00  0.00    -0.000 C 
BRANCH  12  13
ATOM     13  C   UNL     1       5.458  -0.048  -5.294  1.00  0.00    -0.000 C 
BRANCH  13  14
ATOM     14  C   UNL     1       5.391  -1.463  -4.694  1.00  0.00    -0.000 C 
BRANCH  14  15
ATOM     15  C   UNL     1       4.775  -1.477  -3.286  1.00  0.00    -0.003 C 
ATOM     16  C   UNL     1       3.328  -1.968  -3.276  1.00  0.00     0.004 C 
ENDBRANCH  14  15
ENDBRANCH  13  14
ENDBRANCH  12  13
ENDBRANCH  11  12
ENDBRANCH  10  11
ENDBRANCH   1  10
TORSDOF 12
ENDMDL
MODEL 3
REMARK VINA RESULT:    -3.506      9.146     12.521
REMARK INTER + INTRA:          -6.535
REMARK INTER:                  -4.351
REMARK INTRA:                  -2.184
REMARK UNBOUND:                -0.569
REMARK SMILES CCCCCCCCCCCCCC(=O)[O-]
REMARK SMILES IDX 8 1 9 2 10 3 11 4 12 5 13 6 14 7 15 8 16 9 7 10 6 11 5 12
REMARK SMILES IDX 4 13 3 14 2 15 1 16
REMARK H PARENT
REMARK Flexibility Score: inf
ROOT
ATOM      1  C   UNL     1      -7.122  -3.749  -6.036  1.00  0.00     0.000 C 
ENDROOT
BRANCH   1   2
ATOM      2  C   UNL     1      -5.855  -4.589  -6.289  1.00  0.00     0.000 C 
BRANCH   2   3
ATOM      3  C   UNL     1      -4.634  -3.792  -6.782  1.00  0.00     0.000 C 
BRANCH   3   4
ATOM      4  C   UNL     1      -5.024  -2.546  -7.595  1.00  0.00     0.000 C 
BRANCH   4   5
ATOM      5  C   UNL     1      -4.243  -1.290  -7.159  1.00  0.00     0.006 C 
BRANCH   5   6
ATOM      6  C   UNL     1      -2.977  -1.606  -6.345  1.00  0.00     0.053 C 
BRANCH   6   7
ATOM      7  C   UNL     1      -1.740  -1.054  -6.980  1.00  0.00     0.041 C 
ATOM      8  O   UNL     1      -0.813  -0.590  -6.264  1.00  0.00    -0.550 OA
ATOM      9  O   UNL     1      -1.598  -1.073  -8.362  1.00  0.00    -0.550 OA
ENDBRANCH   6   7
ENDBRANCH   5   6
ENDBRANCH   4   5
ENDBRANCH   3   4
ENDBRANCH   2   3
ENDBRANCH   1   2
BRANCH   1  10
ATOM     10  C   UNL     1      -7.327  -3.292  -4.578  1.00  0.00     0.000 C 
BRANCH  10  11
ATOM     11  C   UNL     1      -6.754  -1.903  -4.241  1.00  0.00    -0.000 C 
BRANCH  11  12
ATOM     12  C   UNL     1      -5.367  -1.976  -3.578  1.00  0.00    -0.000 C 
BRANCH  12  13
ATOM     13  C   UNL     1      -5.210  -3.211  -2.675  1.00  0.00    -0.000 C 
BRANCH  13  14
ATOM     14  C   UNL     1      -3.969  -4.048  -3.031  1.00  0.00    -0.000 C 
BRANCH  14  15
ATOM     15  C   UNL     1      -4.226  -5.559  -2.916  1.00  0.00    -0.003 C 
ATOM     16  C   UNL     1      -5.672  -5.889  -2.549  1.00  0.00     0.004 C 
ENDBRANCH  14  15
ENDBRANCH  13  14
ENDBRANCH  12  13
ENDBRANCH  11  12
ENDBRANCH  10  11
ENDBRANCH   1  10
TORSDOF 12
ENDMDL
MODEL 4
REMARK VINA RESULT:    -3.480      3.588      5.471
REMARK INTER + INTRA:          -6.491
REMARK INTER:                  -5.481
REMARK INTRA:                  -1.010
REMARK UNBOUND:                -0.569
REMARK SMILES CCCCCCCCCCCCCC(=O)[O-]
REMARK SMILES IDX 8 1 9 2 10 3 11 4 12 5 13 6 14 7 15 8 16 9 7 10 6 11 5 12
REMARK SMILES IDX 4 13 3 14 2 15 1 16
REMARK H PARENT
REMARK Flexibility Score: inf
ROOT
ATOM      1  C   UNL     1       6.522   1.726  -6.445  1.00  0.00     0.000 C 
ENDROOT
BRANCH   1   2
ATOM      2  C   UNL     1       6.392   1.443  -4.936  1.00  0.00     0.000 C 
BRANCH   2   3
ATOM      3  C   UNL     1       6.449  -0.045  -4.546  1.00  0.00     0.000 C 
BRANCH   3   4
ATOM      4  C   UNL     1       5.075  -0.610  -4.144  1.00  0.00     0.000 C 
BRANCH   4   5
ATOM      5  C   UNL     1       4.759  -1.945  -4.848  1.00  0.00     0.006 C 
BRANCH   5   6
ATOM      6  C   UNL     1       3.660  -1.831  -5.917  1.00  0.00     0.053 C 
BRANCH   6   7
ATOM      7  C   UNL     1       2.321  -2.258  -5.404  1.00  0.00     0.041 C 
ATOM      8  O   UNL     1       2.238  -3.060  -4.437  1.00  0.00    -0.550 OA
ATOM      9  O   UNL     1       1.162  -1.750  -5.979  1.00  0.00    -0.550 OA
ENDBRANCH   6   7
ENDBRANCH   5   6
ENDBRANCH   4   5
ENDBRANCH   3   4
ENDBRANCH   2   3
ENDBRANCH   1   2
BRANCH   1  10
ATOM     10  C   UNL     1       6.230   0.525  -7.366  1.00  0.00     0.000 C 
BRANCH  10  11
ATOM     11  C   UNL     1       5.204   0.791  -8.482  1.00  0.00    -0.000 C 
BRANCH  11  12
ATOM     12  C   UNL     1       4.901   2.288  -8.668  1.00  0.00    -0.000 C 
BRANCH  12  13
ATOM     13  C   UNL     1       3.734   2.537  -9.638  1.00  0.00    -0.000 C 
BRANCH  13  14
ATOM     14  C   UNL     1       2.521   1.638  -9.344  1.00  0.00    -0.000 C 
BRANCH  14  15
ATOM     15  C   UNL     1       1.192   2.409  -9.390  1.00  0.00    -0.003 C 
ATOM     16  C   UNL     1       0.026   1.618  -8.798  1.00  0.00     0.004 C 
ENDBRANCH  14  15
ENDBRANCH  13  14
ENDBRANCH  12  13
ENDBRANCH  11  12
ENDBRANCH  10  11
ENDBRANCH   1  10
TORSDOF 12
ENDMDL
MODEL 5
REMARK VINA RESULT:    -3.476      9.324     12.838
REMARK INTER + INTRA:          -6.483
REMARK INTER:                  -4.505
REMARK INTRA:                  -1.978
REMARK UNBOUND:                -0.569
REMARK SMILES CCCCCCCCCCCCCC(=O)[O-]
REMARK SMILES IDX 8 1 9 2 10 3 11 4 12 5 13 6 14 7 15 8 16 9 7 10 6 11 5 12
REMARK SMILES IDX 4 13 3 14 2 15 1 16
REMARK H PARENT
REMARK Flexibility Score: inf
ROOT
ATOM      1  C   UNL     1      -7.532  -2.431  -4.020  1.00  0.00     0.000 C 
ENDROOT
BRANCH   1   2
ATOM      2  C   UNL     1      -6.935  -1.804  -5.295  1.00  0.00     0.000 C 
BRANCH   2   3
ATOM      3  C   UNL     1      -6.619  -2.803  -6.423  1.00  0.00     0.000 C 
BRANCH   3   4
ATOM      4  C   UNL     1      -5.184  -2.662  -6.960  1.00  0.00     0.000 C 
BRANCH   4   5
ATOM      5  C   UNL     1      -4.430  -1.478  -6.320  1.00  0.00     0.006 C 
BRANCH   5   6
ATOM      6  C   UNL     1      -3.250  -0.974  -7.166  1.00  0.00     0.053 C 
BRANCH   6   7
ATOM      7  C   UNL     1      -1.932  -1.470  -6.657  1.00  0.00     0.041 C 
ATOM      8  O   UNL     1      -1.720  -2.706  -6.548  1.00  0.00    -0.550 OA
ATOM      9  O   UNL     1      -0.929  -0.567  -6.328  1.00  0.00    -0.550 OA
ENDBRANCH   6   7
ENDBRANCH   5   6
ENDBRANCH   4   5
ENDBRANCH   3   4
ENDBRANCH   2   3
ENDBRANCH   1   2
BRANCH   1  10
ATOM     10  C   UNL     1      -6.747  -2.154  -2.722  1.00  0.00     0.000 C 
BRANCH  10  11
ATOM     11  C   UNL     1      -5.215  -2.147  -2.874  1.00  0.00    -0.000 C 
BRANCH  11  12
ATOM     12  C   UNL     1      -4.577  -3.505  -2.532  1.00  0.00    -0.000 C 
BRANCH  12  13
ATOM     13  C   UNL     1      -4.190  -4.307  -3.785  1.00  0.00    -0.000 C 
BRANCH  13  14
ATOM     14  C   UNL     1      -4.713  -5.754  -3.744  1.00  0.00    -0.000 C 
BRANCH  14  15
ATOM     15  C   UNL     1      -6.107  -5.894  -4.376  1.00  0.00    -0.003 C 
ATOM     16  C   UNL     1      -7.217  -6.046  -3.337  1.00  0.00     0.004 C 
ENDBRANCH  14  15
ENDBRANCH  13  14
ENDBRANCH  12  13
ENDBRANCH  11  12
ENDBRANCH  10  11
ENDBRANCH   1  10
TORSDOF 12
ENDMDL
MODEL 6
REMARK VINA RESULT:    -3.466      4.548      6.063
REMARK INTER + INTRA:          -6.466
REMARK INTER:                  -5.907
REMARK INTRA:                  -0.559
REMARK UNBOUND:                -0.569
REMARK SMILES CCCCCCCCCCCCCC(=O)[O-]
REMARK SMILES IDX 8 1 9 2 10 3 11 4 12 5 13 6 14 7 15 8 16 9 7 10 6 11 5 12
REMARK SMILES IDX 4 13 3 14 2 15 1 16
REMARK H PARENT
REMARK Flexibility Score: inf
ROOT
ATOM      1  C   UNL     1       3.707   3.052  -9.396  1.00  0.00     0.000 C 
ENDROOT
BRANCH   1   2
ATOM      2  C   UNL     1       2.435   2.254  -9.740  1.00  0.00     0.000 C 
BRANCH   2   3
ATOM      3  C   UNL     1       1.111   2.981  -9.441  1.00  0.00     0.000 C 
BRANCH   3   4
ATOM      4  C   UNL     1      -0.090   2.023  -9.358  1.00  0.00     0.000 C 
BRANCH   4   5
ATOM      5  C   UNL     1       0.130   0.892  -8.332  1.00  0.00     0.006 C 
BRANCH   5   6
ATOM      6  C   UNL     1      -1.102  -0.007  -8.136  1.00  0.00     0.053 C 
BRANCH   6   7
ATOM      7  C   UNL     1      -1.029  -0.804  -6.871  1.00  0.00     0.041 C 
ATOM      8  O   UNL     1      -2.078  -1.064  -6.224  1.00  0.00    -0.550 OA
ATOM      9  O   UNL     1       0.195  -1.282  -6.420  1.00  0.00    -0.550 OA
ENDBRANCH   6   7
ENDBRANCH   5   6
ENDBRANCH   4   5
ENDBRANCH   3   4
ENDBRANCH   2   3
ENDBRANCH   1   2
BRANCH   1  10
ATOM     10  C   UNL     1       5.020   2.245  -9.441  1.00  0.00     0.000 C 
BRANCH  10  11
ATOM     11  C   UNL     1       5.771   2.143  -8.101  1.00  0.00    -0.000 C 
BRANCH  11  12
ATOM     12  C   UNL     1       5.532   0.802  -7.385  1.00  0.00    -0.000 C 
BRANCH  12  13
ATOM     13  C   UNL     1       5.949   0.842  -5.905  1.00  0.00    -0.000 C 
BRANCH  13  14
ATOM     14  C   UNL     1       6.866   2.034  -5.583  1.00  0.00    -0.000 C 
BRANCH  14  15
ATOM     15  C   UNL     1       6.809   2.438  -4.101  1.00  0.00    -0.003 C 
ATOM     16  C   UNL     1       6.886   3.950  -3.894  1.00  0.00     0.004 C 
ENDBRANCH  14  15
ENDBRANCH  13  14
ENDBRANCH  12  13
ENDBRANCH  11  12
ENDBRANCH  10  11
ENDBRANCH   1  10
TORSDOF 12
ENDMDL
MODEL 7
REMARK VINA RESULT:    -3.419      2.995      4.204
REMARK INTER + INTRA:          -6.387
REMARK INTER:                  -4.324
REMARK INTRA:                  -2.062
REMARK UNBOUND:                -0.569
REMARK SMILES CCCCCCCCCCCCCC(=O)[O-]
REMARK SMILES IDX 8 1 9 2 10 3 11 4 12 5 13 6 14 7 15 8 16 9 7 10 6 11 5 12
REMARK SMILES IDX 4 13 3 14 2 15 1 16
REMARK H PARENT
REMARK Flexibility Score: inf
ROOT
ATOM      1  C   UNL     1       9.102  -1.400  -5.364  1.00  0.00     0.000 C 
ENDROOT
BRANCH   1   2
ATOM      2  C   UNL     1       8.106  -2.375  -4.708  1.00  0.00     0.000 C 
BRANCH   2   3
ATOM      3  C   UNL     1       7.596  -1.948  -3.320  1.00  0.00     0.000 C 
BRANCH   3   4
ATOM      4  C   UNL     1       6.079  -2.140  -3.157  1.00  0.00     0.000 C 
BRANCH   4   5
ATOM      5  C   UNL     1       5.456  -2.924  -4.330  1.00  0.00     0.006 C 
BRANCH   5   6
ATOM      6  C   UNL     1       4.211  -2.248  -4.928  1.00  0.00     0.053 C 
BRANCH   6   7
ATOM      7  C   UNL     1       2.938  -2.831  -4.400  1.00  0.00     0.041 C 
ATOM      8  O   UNL     1       2.205  -2.159  -3.627  1.00  0.00    -0.550 OA
ATOM      9  O   UNL     1       2.547  -4.109  -4.781  1.00  0.00    -0.550 OA
ENDBRANCH   6   7
ENDBRANCH   5   6
ENDBRANCH   4   5
ENDBRANCH   3   4
ENDBRANCH   2   3
ENDBRANCH   1   2
BRANCH   1  10
ATOM     10  C   UNL     1       8.566  -0.645  -6.597  1.00  0.00     0.000 C 
BRANCH  10  11
ATOM     11  C   UNL     1       7.032  -0.570  -6.701  1.00  0.00    -0.000 C 
BRANCH  11  12
ATOM     12  C   UNL     1       6.484   0.841  -6.425  1.00  0.00    -0.000 C 
BRANCH  12  13
ATOM     13  C   UNL     1       6.108   1.049  -4.948  1.00  0.00    -0.000 C 
BRANCH  13  14
ATOM     14  C   UNL     1       6.701   2.343  -4.365  1.00  0.00    -0.000 C 
BRANCH  14  15
ATOM     15  C   UNL     1       8.222   2.438  -4.568  1.00  0.00    -0.003 C 
ATOM     16  C   UNL     1       9.012   1.739  -3.463  1.00  0.00     0.004 C 
ENDBRANCH  14  15
ENDBRANCH  13  14
ENDBRANCH  12  13
ENDBRANCH  11  12
ENDBRANCH  10  11
ENDBRANCH   1  10
TORSDOF 12
ENDMDL
MODEL 8
REMARK VINA RESULT:    -3.390      5.234      7.302
REMARK INTER + INTRA:          -6.338
REMARK INTER:                  -5.604
REMARK INTRA:                  -0.733
REMARK UNBOUND:                -0.569
REMARK SMILES CCCCCCCCCCCCCC(=O)[O-]
REMARK SMILES IDX 8 1 9 2 10 3 11 4 12 5 13 6 14 7 15 8 16 9 7 10 6 11 5 12
REMARK SMILES IDX 4 13 3 14 2 15 1 16
REMARK H PARENT
REMARK Flexibility Score: inf
ROOT
ATOM      1  C   UNL     1       2.130   2.347  -9.571  1.00  0.00     0.000 C 
ENDROOT
BRANCH   1   2
ATOM      2  C   UNL     1       0.874   1.716  -8.941  1.00  0.00     0.000 C 
BRANCH   2   3
ATOM      3  C   UNL     1      -0.463   2.300  -9.432  1.00  0.00     0.000 C 
BRANCH   3   4
ATOM      4  C   UNL     1      -1.535   1.222  -9.665  1.00  0.00     0.000 C 
BRANCH   4   5
ATOM      5  C   UNL     1      -1.145  -0.139  -9.051  1.00  0.00     0.006 C 
BRANCH   5   6
ATOM      6  C   UNL     1      -2.250  -0.759  -8.181  1.00  0.00     0.053 C 
BRANCH   6   7
ATOM      7  C   UNL     1      -1.814  -0.959  -6.763  1.00  0.00     0.041 C 
ATOM      8  O   UNL     1      -2.562  -1.560  -5.948  1.00  0.00    -0.550 OA
ATOM      9  O   UNL     1      -0.569  -0.502  -6.347  1.00  0.00    -0.550 OA
ENDBRANCH   6   7
ENDBRANCH   5   6
ENDBRANCH   4   5
ENDBRANCH   3   4
ENDBRANCH   2   3
ENDBRANCH   1   2
BRANCH   1  10
ATOM     10  C   UNL     1       3.433   1.546  -9.382  1.00  0.00     0.000 C 
BRANCH  10  11
ATOM     11  C   UNL     1       3.241   0.058  -9.033  1.00  0.00    -0.000 C 
BRANCH  11  12
ATOM     12  C   UNL     1       4.537  -0.612  -8.547  1.00  0.00    -0.000 C 
BRANCH  12  13
ATOM     13  C   UNL     1       4.628  -0.675  -7.013  1.00  0.00    -0.000 C 
BRANCH  13  14
ATOM     14  C   UNL     1       5.814   0.134  -6.459  1.00  0.00    -0.000 C 
BRANCH  14  15
ATOM     15  C   UNL     1       5.708   0.373  -4.945  1.00  0.00    -0.003 C 
ATOM     16  C   UNL     1       6.374   1.674  -4.501  1.00  0.00     0.004 C 
ENDBRANCH  14  15
ENDBRANCH  13  14
ENDBRANCH  12  13
ENDBRANCH  11  12
ENDBRANCH  10  11
ENDBRANCH   1  10
TORSDOF 12
ENDMDL
MODEL 9
REMARK VINA RESULT:    -3.353      3.904      5.406
REMARK INTER + INTRA:          -6.275
REMARK INTER:                  -4.378
REMARK INTRA:                  -1.896
REMARK UNBOUND:                -0.569
REMARK SMILES CCCCCCCCCCCCCC(=O)[O-]
REMARK SMILES IDX 8 1 9 2 10 3 11 4 12 5 13 6 14 7 15 8 16 9 7 10 6 11 5 12
REMARK SMILES IDX 4 13 3 14 2 15 1 16
REMARK H PARENT
REMARK Flexibility Score: inf
ROOT
ATOM      1  C   UNL     1       6.699  -1.003  -7.847  1.00  0.00     0.000 C 
ENDROOT
BRANCH   1   2
ATOM      2  C   UNL     1       7.418  -2.260  -7.318  1.00  0.00     0.000 C 
BRANCH   2   3
ATOM      3  C   UNL     1       6.529  -3.510  -7.184  1.00  0.00     0.000 C 
BRANCH   3   4
ATOM      4  C   UNL     1       5.409  -3.336  -6.144  1.00  0.00     0.000 C 
BRANCH   4   5
ATOM      5  C   UNL     1       4.020  -3.178  -6.796  1.00  0.00     0.006 C 
BRANCH   5   6
ATOM      6  C   UNL     1       3.134  -2.128  -6.107  1.00  0.00     0.053 C 
BRANCH   6   7
ATOM      7  C   UNL     1       2.290  -2.719  -5.021  1.00  0.00     0.041 C 
ATOM      8  O   UNL     1       2.314  -2.228  -3.862  1.00  0.00    -0.550 OA
ATOM      9  O   UNL     1       1.458  -3.798  -5.296  1.00  0.00    -0.550 OA
ENDBRANCH   6   7
ENDBRANCH   5   6
ENDBRANCH   4   5
ENDBRANCH   3   4
ENDBRANCH   2   3
ENDBRANCH   1   2
BRANCH   1  10
ATOM     10  C   UNL     1       6.838   0.252  -6.963  1.00  0.00     0.000 C 
BRANCH  10  11
ATOM     11  C   UNL     1       5.597   0.597  -6.119  1.00  0.00    -0.000 C 
BRANCH  11  12
ATOM     12  C   UNL     1       5.915   0.728  -4.619  1.00  0.00    -0.000 C 
BRANCH  12  13
ATOM     13  C   UNL     1       5.693  -0.586  -3.852  1.00  0.00    -0.000 C 
BRANCH  13  14
ATOM     14  C   UNL     1       6.999  -1.365  -3.625  1.00  0.00    -0.000 C 
BRANCH  14  15
ATOM     15  C   UNL     1       6.842  -2.490  -2.590  1.00  0.00    -0.003 C 
ATOM     16  C   UNL     1       5.382  -2.868  -2.342  1.00  0.00     0.004 C 
ENDBRANCH  14  15
ENDBRANCH  13  14
ENDBRANCH  12  13
ENDBRANCH  11  12
ENDBRANCH  10  11
ENDBRANCH   1  10
TORSDOF 12
ENDMDL
