MODEL 1
REMARK VINA RESULT:    -6.682      0.000      0.000
REMARK INTER + INTRA:          -8.158
REMARK INTER:                  -7.853
REMARK INTRA:                  -0.304
REMARK UNBOUND:                -0.304
REMARK SMILES O=c1cc(-c2ccc(O)c(O)c2)oc2cc(O)cc(O)c12
REMARK SMILES IDX 4 1 3 2 2 3 1 4 21 5 19 6 18 7 16 8 15 9 14 10 13 11 5 12
REMARK SMILES IDX 6 13 7 14 8 15 12 16 10 17 9 18 11 20 20 22 17 24
REMARK H PARENT 9 19 11 21 20 23 17 25
REMARK Flexibility Score: inf
ROOT
ATOM      1  C   UNL     1      -6.567  53.214  30.813  1.00  0.00     0.138 A 
ATOM      2  C   UNL     1      -7.851  53.210  30.252  1.00  0.00     0.100 A 
ATOM      3  C   UNL     1      -8.831  54.062  30.763  1.00  0.00     0.197 A 
ATOM      4  O   UNL     1      -9.991  53.990  30.280  1.00  0.00    -0.289 OA
ATOM      5  C   UNL     1      -8.512  54.946  31.821  1.00  0.00     0.107 A 
ATOM      6  C   UNL     1      -9.419  55.887  32.394  1.00  0.00     0.134 A 
ATOM      7  C   UNL     1      -9.026  56.629  33.515  1.00  0.00     0.093 A 
ATOM      8  C   UNL     1      -7.738  56.506  34.046  1.00  0.00     0.123 A 
ATOM      9  C   UNL     1      -6.829  55.629  33.460  1.00  0.00     0.094 A 
ATOM     10  C   UNL     1      -7.202  54.850  32.363  1.00  0.00     0.146 A 
ATOM     11  O   UNL     1      -6.309  54.015  31.842  1.00  0.00    -0.456 OA
ENDROOT
BRANCH   1  12
ATOM     12  C   UNL     1      -5.487  52.330  30.308  1.00  0.00     0.021 A 
ATOM     13  C   UNL     1      -5.460  51.977  28.949  1.00  0.00     0.016 A 
ATOM     14  C   UNL     1      -4.459  51.139  28.451  1.00  0.00     0.051 A 
ATOM     15  C   UNL     1      -3.473  50.632  29.301  1.00  0.00     0.157 A 
ATOM     16  C   UNL     1      -4.498  51.805  31.166  1.00  0.00     0.062 A 
ATOM     17  C   UNL     1      -3.494  50.963  30.667  1.00  0.00     0.158 A 
BRANCH  15  18
ATOM     18  O   UNL     1      -2.486  49.800  28.775  1.00  0.00    -0.504 OA
ATOM     19  H   UNL     1      -2.427  48.817  29.013  1.00  0.00     0.293 HD
ENDBRANCH  15  18
BRANCH  17  20
ATOM     20  O   UNL     1      -2.520  50.451  31.523  1.00  0.00    -0.504 OA
ATOM     21  H   UNL     1      -2.577  49.509  31.891  1.00  0.00     0.293 HD
ENDBRANCH  17  20
ENDBRANCH   1  12
BRANCH   6  22
ATOM     22  O   UNL     1     -10.696  56.149  31.890  1.00  0.00    -0.507 OA
ATOM     23  H   UNL     1     -11.557  55.990  32.393  1.00  0.00     0.293 HD
ENDBRANCH   6  22
BRANCH   8  24
ATOM     24  O   UNL     1      -7.352  57.259  35.153  1.00  0.00    -0.508 OA
ATOM     25  H   UNL     1      -6.751  56.875  35.872  1.00  0.00     0.293 HD
ENDBRANCH   8  24
TORSDOF 5
ENDMDL
MODEL 2
REMARK VINA RESULT:    -6.488      3.367      4.827
REMARK INTER + INTRA:          -7.931
REMARK INTER:                  -7.650
REMARK INTRA:                  -0.280
REMARK UNBOUND:                -0.304
REMARK SMILES O=c1cc(-c2ccc(O)c(O)c2)oc2cc(O)cc(O)c12
REMARK SMILES IDX 4 1 3 2 2 3 1 4 21 5 19 6 18 7 16 8 15 9 14 10 13 11 5 12
REMARK SMILES IDX 6 13 7 14 8 15 12 16 10 17 9 18 11 20 20 22 17 24
REMARK H PARENT 9 19 11 21 20 23 17 25
REMARK Flexibility Score: inf
ROOT
ATOM      1  C   UNL     1      -6.664  52.793  28.771  1.00  0.00     0.138 A 
ATOM      2  C   UNL     1      -7.481  52.542  29.882  1.00  0.00     0.100 A 
ATOM      3  C   UNL     1      -7.162  53.109  31.116  1.00  0.00     0.197 A 
ATOM      4  O   UNL     1      -7.878  52.815  32.108  1.00  0.00    -0.289 OA
ATOM      5  C   UNL     1      -6.035  53.958  31.230  1.00  0.00     0.107 A 
ATOM      6  C   UNL     1      -5.637  54.623  32.427  1.00  0.00     0.134 A 
ATOM      7  C   UNL     1      -4.438  55.346  32.449  1.00  0.00     0.093 A 
ATOM      8  C   UNL     1      -3.653  55.476  31.299  1.00  0.00     0.123 A 
ATOM      9  C   UNL     1      -4.062  54.874  30.111  1.00  0.00     0.094 A 
ATOM     10  C   UNL     1      -5.235  54.119  30.067  1.00  0.00     0.146 A 
ATOM     11  O   UNL     1      -5.582  53.549  28.917  1.00  0.00    -0.456 OA
ENDROOT
BRANCH   1  12
ATOM     12  C   UNL     1      -6.958  52.216  27.435  1.00  0.00     0.021 A 
ATOM     13  C   UNL     1      -5.907  51.702  26.657  1.00  0.00     0.016 A 
ATOM     14  C   UNL     1      -6.156  51.161  25.393  1.00  0.00     0.051 A 
ATOM     15  C   UNL     1      -7.455  51.131  24.880  1.00  0.00     0.157 A 
ATOM     16  C   UNL     1      -8.265  52.196  26.908  1.00  0.00     0.062 A 
ATOM     17  C   UNL     1      -8.516  51.655  25.639  1.00  0.00     0.158 A 
BRANCH  15  18
ATOM     18  O   UNL     1      -7.673  50.584  23.617  1.00  0.00    -0.504 OA
ATOM     19  H   UNL     1      -7.045  50.753  22.840  1.00  0.00     0.293 HD
ENDBRANCH  15  18
BRANCH  17  20
ATOM     20  O   UNL     1      -9.813  51.639  25.128  1.00  0.00    -0.504 OA
ATOM     21  H   UNL     1     -10.378  52.478  25.086  1.00  0.00     0.293 HD
ENDBRANCH  17  20
ENDBRANCH   1  12
BRANCH   6  22
ATOM     22  O   UNL     1      -6.389  54.629  33.606  1.00  0.00    -0.507 OA
ATOM     23  H   UNL     1      -6.168  55.173  34.427  1.00  0.00     0.293 HD
ENDBRANCH   6  22
BRANCH   8  24
ATOM     24  O   UNL     1      -2.469  56.210  31.327  1.00  0.00    -0.508 OA
ATOM     25  H   UNL     1      -2.385  57.099  30.849  1.00  0.00     0.293 HD
ENDBRANCH   8  24
TORSDOF 5
ENDMDL
MODEL 3
REMARK VINA RESULT:    -6.360      1.679      7.047
REMARK INTER + INTRA:          -7.779
REMARK INTER:                  -7.508
REMARK INTRA:                  -0.271
REMARK UNBOUND:                -0.304
REMARK SMILES O=c1cc(-c2ccc(O)c(O)c2)oc2cc(O)cc(O)c12
REMARK SMILES IDX 4 1 3 2 2 3 1 4 21 5 19 6 18 7 16 8 15 9 14 10 13 11 5 12
REMARK SMILES IDX 6 13 7 14 8 15 12 16 10 17 9 18 11 20 20 22 17 24
REMARK H PARENT 9 19 11 21 20 23 17 25
REMARK Flexibility Score: inf
ROOT
ATOM      1  C   UNL     1      -6.385  53.627  31.963  1.00  0.00     0.138 A 
ATOM      2  C   UNL     1      -5.827  53.590  30.678  1.00  0.00     0.100 A 
ATOM      3  C   UNL     1      -4.858  52.634  30.372  1.00  0.00     0.197 A 
ATOM      4  O   UNL     1      -4.331  52.667  29.230  1.00  0.00    -0.289 OA
ATOM      5  C   UNL     1      -4.471  51.687  31.350  1.00  0.00     0.107 A 
ATOM      6  C   UNL     1      -3.524  50.641  31.138  1.00  0.00     0.134 A 
ATOM      7  C   UNL     1      -3.133  49.836  32.215  1.00  0.00     0.093 A 
ATOM      8  C   UNL     1      -3.700  50.002  33.482  1.00  0.00     0.123 A 
ATOM      9  C   UNL     1      -4.665  50.985  33.685  1.00  0.00     0.094 A 
ATOM     10  C   UNL     1      -5.050  51.826  32.640  1.00  0.00     0.146 A 
ATOM     11  O   UNL     1      -5.964  52.762  32.879  1.00  0.00    -0.456 OA
ENDROOT
BRANCH   1  12
ATOM     12  C   UNL     1      -7.419  54.622  32.342  1.00  0.00     0.021 A 
ATOM     13  C   UNL     1      -7.212  55.441  33.465  1.00  0.00     0.016 A 
ATOM     14  C   UNL     1      -8.173  56.380  33.847  1.00  0.00     0.051 A 
ATOM     15  C   UNL     1      -9.360  56.513  33.121  1.00  0.00     0.157 A 
ATOM     16  C   UNL     1      -8.623  54.751  31.620  1.00  0.00     0.062 A 
ATOM     17  C   UNL     1      -9.589  55.692  32.004  1.00  0.00     0.158 A 
BRANCH  15  18
ATOM     18  O   UNL     1     -10.299  57.460  33.525  1.00  0.00    -0.504 OA
ATOM     19  H   UNL     1     -11.111  57.212  34.079  1.00  0.00     0.293 HD
ENDBRANCH  15  18
BRANCH  17  20
ATOM     20  O   UNL     1     -10.776  55.812  31.283  1.00  0.00    -0.504 OA
ATOM     21  H   UNL     1     -11.520  55.131  31.367  1.00  0.00     0.293 HD
ENDBRANCH  17  20
ENDBRANCH   1  12
BRANCH   6  22
ATOM     22  O   UNL     1      -2.961  50.336  29.896  1.00  0.00    -0.507 OA
ATOM     23  H   UNL     1      -2.496  51.001  29.295  1.00  0.00     0.293 HD
ENDBRANCH   6  22
BRANCH   8  24
ATOM     24  O   UNL     1      -3.316  49.185  34.544  1.00  0.00    -0.508 OA
ATOM     25  H   UNL     1      -3.976  48.893  35.254  1.00  0.00     0.293 HD
ENDBRANCH   8  24
TORSDOF 5
ENDMDL
MODEL 4
REMARK VINA RESULT:    -6.308      3.143      4.839
REMARK INTER + INTRA:          -7.718
REMARK INTER:                  -7.435
REMARK INTRA:                  -0.283
REMARK UNBOUND:                -0.304
REMARK SMILES O=c1cc(-c2ccc(O)c(O)c2)oc2cc(O)cc(O)c12
REMARK SMILES IDX 4 1 3 2 2 3 1 4 21 5 19 6 18 7 16 8 15 9 14 10 13 11 5 12
REMARK SMILES IDX 6 13 7 14 8 15 12 16 10 17 9 18 11 20 20 22 17 24
REMARK H PARENT 9 19 11 21 20 23 17 25
REMARK Flexibility Score: inf
ROOT
ATOM      1  C   UNL     1      -8.151  52.978  29.211  1.00  0.00     0.138 A 
ATOM      2  C   UNL     1      -6.791  52.854  29.526  1.00  0.00     0.100 A 
ATOM      3  C   UNL     1      -6.276  53.520  30.639  1.00  0.00     0.197 A 
ATOM      4  O   UNL     1      -5.039  53.440  30.859  1.00  0.00    -0.289 OA
ATOM      5  C   UNL     1      -7.136  54.289  31.459  1.00  0.00     0.107 A 
ATOM      6  C   UNL     1      -6.730  54.977  32.641  1.00  0.00     0.134 A 
ATOM      7  C   UNL     1      -7.645  55.802  33.307  1.00  0.00     0.093 A 
ATOM      8  C   UNL     1      -8.967  55.915  32.867  1.00  0.00     0.123 A 
ATOM      9  C   UNL     1      -9.386  55.204  31.746  1.00  0.00     0.094 A 
ATOM     10  C   UNL     1      -8.488  54.401  31.039  1.00  0.00     0.146 A 
ATOM     11  O   UNL     1      -8.926  53.750  29.965  1.00  0.00    -0.456 OA
ENDROOT
BRANCH   1  12
ATOM     12  C   UNL     1      -8.751  52.292  28.039  1.00  0.00     0.021 A 
ATOM     13  C   UNL     1     -10.053  51.773  28.134  1.00  0.00     0.016 A 
ATOM     14  C   UNL     1     -10.637  51.116  27.048  1.00  0.00     0.051 A 
ATOM     15  C   UNL     1      -9.930  50.957  25.854  1.00  0.00     0.157 A 
ATOM     16  C   UNL     1      -8.036  52.117  26.837  1.00  0.00     0.062 A 
ATOM     17  C   UNL     1      -8.621  51.456  25.748  1.00  0.00     0.158 A 
BRANCH  15  18
ATOM     18  O   UNL     1     -10.539  50.298  24.787  1.00  0.00    -0.504 OA
ATOM     19  H   UNL     1     -10.637  50.726  23.874  1.00  0.00     0.293 HD
ENDBRANCH  15  18
BRANCH  17  20
ATOM     20  O   UNL     1      -7.906  51.290  24.562  1.00  0.00    -0.504 OA
ATOM     21  H   UNL     1      -7.123  51.888  24.327  1.00  0.00     0.293 HD
ENDBRANCH  17  20
ENDBRANCH   1  12
BRANCH   6  22
ATOM     22  O   UNL     1      -5.459  54.866  33.213  1.00  0.00    -0.507 OA
ATOM     23  H   UNL     1      -5.113  55.447  33.962  1.00  0.00     0.293 HD
ENDBRANCH   6  22
BRANCH   8  24
ATOM     24  O   UNL     1      -9.874  56.726  33.546  1.00  0.00    -0.508 OA
ATOM     25  H   UNL     1     -10.140  56.537  34.505  1.00  0.00     0.293 HD
ENDBRANCH   8  24
TORSDOF 5
ENDMDL
MODEL 5
REMARK VINA RESULT:    -6.245      1.312      7.348
REMARK INTER + INTRA:          -7.644
REMARK INTER:                  -7.343
REMARK INTRA:                  -0.301
REMARK UNBOUND:                -0.304
REMARK SMILES O=c1cc(-c2ccc(O)c(O)c2)oc2cc(O)cc(O)c12
REMARK SMILES IDX 4 1 3 2 2 3 1 4 21 5 19 6 18 7 16 8 15 9 14 10 13 11 5 12
REMARK SMILES IDX 6 13 7 14 8 15 12 16 10 17 9 18 11 20 20 22 17 24
REMARK H PARENT 9 19 11 21 20 23 17 25
REMARK Flexibility Score: inf
ROOT
ATOM      1  C   UNL     1      -6.470  53.557  32.239  1.00  0.00     0.138 A 
ATOM      2  C   UNL     1      -5.769  52.903  33.262  1.00  0.00     0.100 A 
ATOM      3  C   UNL     1      -4.818  51.935  32.938  1.00  0.00     0.197 A 
ATOM      4  O   UNL     1      -4.251  51.321  33.879  1.00  0.00    -0.289 OA
ATOM      5  C   UNL     1      -4.545  51.644  31.580  1.00  0.00     0.107 A 
ATOM      6  C   UNL     1      -3.568  50.706  31.132  1.00  0.00     0.134 A 
ATOM      7  C   UNL     1      -3.466  50.415  29.765  1.00  0.00     0.093 A 
ATOM      8  C   UNL     1      -4.267  51.074  28.827  1.00  0.00     0.123 A 
ATOM      9  C   UNL     1      -5.186  52.030  29.251  1.00  0.00     0.094 A 
ATOM     10  C   UNL     1      -5.334  52.316  30.610  1.00  0.00     0.146 A 
ATOM     11  O   UNL     1      -6.234  53.226  30.974  1.00  0.00    -0.456 OA
ENDROOT
BRANCH   1  12
ATOM     12  C   UNL     1      -7.492  54.594  32.526  1.00  0.00     0.021 A 
ATOM     13  C   UNL     1      -7.303  55.470  33.609  1.00  0.00     0.016 A 
ATOM     14  C   UNL     1      -8.254  56.450  33.905  1.00  0.00     0.051 A 
ATOM     15  C   UNL     1      -9.412  56.568  33.133  1.00  0.00     0.157 A 
ATOM     16  C   UNL     1      -8.668  54.708  31.758  1.00  0.00     0.062 A 
ATOM     17  C   UNL     1      -9.623  55.691  32.056  1.00  0.00     0.158 A 
BRANCH  15  18
ATOM     18  O   UNL     1     -10.342  57.556  33.451  1.00  0.00    -0.504 OA
ATOM     19  H   UNL     1     -10.662  57.710  34.400  1.00  0.00     0.293 HD
ENDBRANCH  15  18
BRANCH  17  20
ATOM     20  O   UNL     1     -10.783  55.796  31.289  1.00  0.00    -0.504 OA
ATOM     21  H   UNL     1     -11.017  55.108  30.582  1.00  0.00     0.293 HD
ENDBRANCH  17  20
ENDBRANCH   1  12
BRANCH   6  22
ATOM     22  O   UNL     1      -2.662  50.056  31.975  1.00  0.00    -0.507 OA
ATOM     23  H   UNL     1      -1.662  50.040  31.843  1.00  0.00     0.293 HD
ENDBRANCH   6  22
BRANCH   8  24
ATOM     24  O   UNL     1      -4.148  50.789  27.468  1.00  0.00    -0.508 OA
ATOM     25  H   UNL     1      -4.914  50.945  26.825  1.00  0.00     0.293 HD
ENDBRANCH   8  24
TORSDOF 5
ENDMDL
MODEL 6
REMARK VINA RESULT:    -6.220      2.890      6.921
REMARK INTER + INTRA:          -7.615
REMARK INTER:                  -7.334
REMARK INTRA:                  -0.280
REMARK UNBOUND:                -0.304
REMARK SMILES O=c1cc(-c2ccc(O)c(O)c2)oc2cc(O)cc(O)c12
REMARK SMILES IDX 4 1 3 2 2 3 1 4 21 5 19 6 18 7 16 8 15 9 14 10 13 11 5 12
REMARK SMILES IDX 6 13 7 14 8 15 12 16 10 17 9 18 11 20 20 22 17 24
REMARK H PARENT 9 19 11 21 20 23 17 25
REMARK Flexibility Score: inf
ROOT
ATOM      1  C   UNL     1      -8.541  53.408  30.252  1.00  0.00     0.138 A 
ATOM      2  C   UNL     1      -9.729  52.667  30.187  1.00  0.00     0.100 A 
ATOM      3  C   UNL     1      -9.949  51.806  29.111  1.00  0.00     0.197 A 
ATOM      4  O   UNL     1     -11.051  51.202  29.049  1.00  0.00    -0.289 OA
ATOM      5  C   UNL     1      -8.957  51.663  28.111  1.00  0.00     0.107 A 
ATOM      6  C   UNL     1      -9.055  50.785  26.991  1.00  0.00     0.134 A 
ATOM      7  C   UNL     1      -8.062  50.814  26.003  1.00  0.00     0.093 A 
ATOM      8  C   UNL     1      -6.946  51.647  26.127  1.00  0.00     0.123 A 
ATOM      9  C   UNL     1      -6.817  52.468  27.244  1.00  0.00     0.094 A 
ATOM     10  C   UNL     1      -7.807  52.487  28.229  1.00  0.00     0.146 A 
ATOM     11  O   UNL     1      -7.651  53.297  29.272  1.00  0.00    -0.456 OA
ENDROOT
BRANCH   1  12
ATOM     12  C   UNL     1      -8.256  54.337  31.374  1.00  0.00     0.021 A 
ATOM     13  C   UNL     1      -6.959  54.395  31.912  1.00  0.00     0.016 A 
ATOM     14  C   UNL     1      -6.668  55.256  32.973  1.00  0.00     0.051 A 
ATOM     15  C   UNL     1      -7.665  56.066  33.521  1.00  0.00     0.157 A 
ATOM     16  C   UNL     1      -9.262  55.147  31.938  1.00  0.00     0.062 A 
ATOM     17  C   UNL     1      -8.970  56.010  33.004  1.00  0.00     0.158 A 
BRANCH  15  18
ATOM     18  O   UNL     1      -7.344  56.917  34.578  1.00  0.00    -0.504 OA
ATOM     19  H   UNL     1      -8.052  57.316  35.183  1.00  0.00     0.293 HD
ENDBRANCH  15  18
BRANCH  17  20
ATOM     20  O   UNL     1      -9.973  56.808  33.554  1.00  0.00    -0.504 OA
ATOM     21  H   UNL     1     -10.147  57.748  33.220  1.00  0.00     0.293 HD
ENDBRANCH  17  20
ENDBRANCH   1  12
BRANCH   6  22
ATOM     22  O   UNL     1     -10.083  49.854  26.814  1.00  0.00    -0.507 OA
ATOM     23  H   UNL     1     -10.396  49.506  25.920  1.00  0.00     0.293 HD
ENDBRANCH   6  22
BRANCH   8  24
ATOM     24  O   UNL     1      -5.956  51.658  25.146  1.00  0.00    -0.508 OA
ATOM     25  H   UNL     1      -5.459  50.815  24.887  1.00  0.00     0.293 HD
ENDBRANCH   8  24
TORSDOF 5
ENDMDL
MODEL 7
REMARK VINA RESULT:    -6.114      3.053      4.878
REMARK INTER + INTRA:          -7.490
REMARK INTER:                  -7.181
REMARK INTRA:                  -0.309
REMARK UNBOUND:                -0.304
REMARK SMILES O=c1cc(-c2ccc(O)c(O)c2)oc2cc(O)cc(O)c12
REMARK SMILES IDX 4 1 3 2 2 3 1 4 21 5 19 6 18 7 16 8 15 9 14 10 13 11 5 12
REMARK SMILES IDX 6 13 7 14 8 15 12 16 10 17 9 18 11 20 20 22 17 24
REMARK H PARENT 9 19 11 21 20 23 17 25
REMARK Flexibility Score: inf
ROOT
ATOM      1  C   UNL     1      -7.255  52.873  28.953  1.00  0.00     0.138 A 
ATOM      2  C   UNL     1      -5.863  52.900  29.116  1.00  0.00     0.100 A 
ATOM      3  C   UNL     1      -5.311  53.507  30.245  1.00  0.00     0.197 A 
ATOM      4  O   UNL     1      -4.057  53.571  30.332  1.00  0.00    -0.289 OA
ATOM      5  C   UNL     1      -6.161  54.061  31.232  1.00  0.00     0.107 A 
ATOM      6  C   UNL     1      -5.711  54.667  32.442  1.00  0.00     0.134 A 
ATOM      7  C   UNL     1      -6.639  55.286  33.290  1.00  0.00     0.093 A 
ATOM      8  C   UNL     1      -8.007  55.266  32.999  1.00  0.00     0.123 A 
ATOM      9  C   UNL     1      -8.459  54.629  31.846  1.00  0.00     0.094 A 
ATOM     10  C   UNL     1      -7.555  54.034  30.964  1.00  0.00     0.146 A 
ATOM     11  O   UNL     1      -8.028  53.448  29.868  1.00  0.00    -0.456 OA
ENDROOT
BRANCH   1  12
ATOM     12  C   UNL     1      -7.894  52.240  27.772  1.00  0.00     0.021 A 
ATOM     13  C   UNL     1      -7.173  52.128  26.572  1.00  0.00     0.016 A 
ATOM     14  C   UNL     1      -7.756  51.544  25.444  1.00  0.00     0.051 A 
ATOM     15  C   UNL     1      -9.069  51.071  25.492  1.00  0.00     0.157 A 
ATOM     16  C   UNL     1      -9.224  51.774  27.812  1.00  0.00     0.062 A 
ATOM     17  C   UNL     1      -9.810  51.189  26.680  1.00  0.00     0.158 A 
BRANCH  15  18
ATOM     18  O   UNL     1      -9.623  50.491  24.351  1.00  0.00    -0.504 OA
ATOM     19  H   UNL     1      -9.350  50.773  23.417  1.00  0.00     0.293 HD
ENDBRANCH  15  18
BRANCH  17  20
ATOM     20  O   UNL     1     -11.125  50.729  26.731  1.00  0.00    -0.504 OA
ATOM     21  H   UNL     1     -11.532  50.199  25.970  1.00  0.00     0.293 HD
ENDBRANCH  17  20
ENDBRANCH   1  12
BRANCH   6  22
ATOM     22  O   UNL     1      -4.380  54.669  32.870  1.00  0.00    -0.507 OA
ATOM     23  H   UNL     1      -3.890  55.477  33.224  1.00  0.00     0.293 HD
ENDBRANCH   6  22
BRANCH   8  24
ATOM     24  O   UNL     1      -8.924  55.871  33.856  1.00  0.00    -0.508 OA
ATOM     25  H   UNL     1      -9.393  55.347  34.585  1.00  0.00     0.293 HD
ENDBRANCH   8  24
TORSDOF 5
ENDMDL
MODEL 8
REMARK VINA RESULT:    -6.101      3.159      4.147
REMARK INTER + INTRA:          -7.475
REMARK INTER:                  -7.181
REMARK INTRA:                  -0.294
REMARK UNBOUND:                -0.304
REMARK SMILES O=c1cc(-c2ccc(O)c(O)c2)oc2cc(O)cc(O)c12
REMARK SMILES IDX 4 1 3 2 2 3 1 4 21 5 19 6 18 7 16 8 15 9 14 10 13 11 5 12
REMARK SMILES IDX 6 13 7 14 8 15 12 16 10 17 9 18 11 20 20 22 17 24
REMARK H PARENT 9 19 11 21 20 23 17 25
REMARK Flexibility Score: inf
ROOT
ATOM      1  C   UNL     1      -8.228  52.869  28.944  1.00  0.00     0.138 A 
ATOM      2  C   UNL     1      -9.385  53.498  29.425  1.00  0.00     0.100 A 
ATOM      3  C   UNL     1      -9.327  54.243  30.603  1.00  0.00     0.197 A 
ATOM      4  O   UNL     1     -10.395  54.743  31.043  1.00  0.00    -0.289 OA
ATOM      5  C   UNL     1      -8.095  54.386  31.285  1.00  0.00     0.107 A 
ATOM      6  C   UNL     1      -7.909  55.156  32.472  1.00  0.00     0.134 A 
ATOM      7  C   UNL     1      -6.670  55.129  33.124  1.00  0.00     0.093 A 
ATOM      8  C   UNL     1      -5.594  54.408  32.598  1.00  0.00     0.123 A 
ATOM      9  C   UNL     1      -5.752  53.697  31.411  1.00  0.00     0.094 A 
ATOM     10  C   UNL     1      -6.985  53.676  30.756  1.00  0.00     0.146 A 
ATOM     11  O   UNL     1      -7.097  52.973  29.633  1.00  0.00    -0.456 OA
ENDROOT
BRANCH   1  12
ATOM     12  C   UNL     1      -8.233  52.064  27.697  1.00  0.00     0.021 A 
ATOM     13  C   UNL     1      -9.291  51.172  27.454  1.00  0.00     0.016 A 
ATOM     14  C   UNL     1      -9.315  50.398  26.291  1.00  0.00     0.051 A 
ATOM     15  C   UNL     1      -8.280  50.493  25.356  1.00  0.00     0.157 A 
ATOM     16  C   UNL     1      -7.185  52.147  26.758  1.00  0.00     0.062 A 
ATOM     17  C   UNL     1      -7.208  51.369  25.592  1.00  0.00     0.158 A 
BRANCH  15  18
ATOM     18  O   UNL     1      -8.332  49.709  24.205  1.00  0.00    -0.504 OA
ATOM     19  H   UNL     1      -9.184  49.596  23.668  1.00  0.00     0.293 HD
ENDBRANCH  15  18
BRANCH  17  20
ATOM     20  O   UNL     1      -6.167  51.460  24.669  1.00  0.00    -0.504 OA
ATOM     21  H   UNL     1      -5.333  50.890  24.750  1.00  0.00     0.293 HD
ENDBRANCH  17  20
ENDBRANCH   1  12
BRANCH   6  22
ATOM     22  O   UNL     1      -8.891  55.978  33.034  1.00  0.00    -0.507 OA
ATOM     23  H   UNL     1      -9.883  55.876  32.881  1.00  0.00     0.293 HD
ENDBRANCH   6  22
BRANCH   8  24
ATOM     24  O   UNL     1      -4.360  54.400  33.246  1.00  0.00    -0.508 OA
ATOM     25  H   UNL     1      -3.797  53.560  33.304  1.00  0.00     0.293 HD
ENDBRANCH   8  24
TORSDOF 5
ENDMDL
MODEL 9
REMARK VINA RESULT:    -5.977      2.592      7.204
REMARK INTER + INTRA:          -7.329
REMARK INTER:                  -7.037
REMARK INTRA:                  -0.292
REMARK UNBOUND:                -0.304
REMARK SMILES O=c1cc(-c2ccc(O)c(O)c2)oc2cc(O)cc(O)c12
REMARK SMILES IDX 4 1 3 2 2 3 1 4 21 5 19 6 18 7 16 8 15 9 14 10 13 11 5 12
REMARK SMILES IDX 6 13 7 14 8 15 12 16 10 17 9 18 11 20 20 22 17 24
REMARK H PARENT 9 19 11 21 20 23 17 25
REMARK Flexibility Score: inf
ROOT
ATOM      1  C   UNL     1      -5.860  52.616  29.122  1.00  0.00     0.138 A 
ATOM      2  C   UNL     1      -6.666  52.857  28.002  1.00  0.00     0.100 A 
ATOM      3  C   UNL     1      -6.466  52.118  26.835  1.00  0.00     0.197 A 
ATOM      4  O   UNL     1      -7.164  52.401  25.826  1.00  0.00    -0.289 OA
ATOM      5  C   UNL     1      -5.474  51.110  26.802  1.00  0.00     0.107 A 
ATOM      6  C   UNL     1      -5.209  50.268  25.682  1.00  0.00     0.134 A 
ATOM      7  C   UNL     1      -4.124  49.383  25.724  1.00  0.00     0.093 A 
ATOM      8  C   UNL     1      -3.331  49.270  26.871  1.00  0.00     0.123 A 
ATOM      9  C   UNL     1      -3.616  50.050  27.988  1.00  0.00     0.094 A 
ATOM     10  C   UNL     1      -4.670  50.966  27.964  1.00  0.00     0.146 A 
ATOM     11  O   UNL     1      -4.898  51.701  29.048  1.00  0.00    -0.456 OA
ENDROOT
BRANCH   1  12
ATOM     12  C   UNL     1      -6.029  53.371  30.389  1.00  0.00     0.021 A 
ATOM     13  C   UNL     1      -7.320  53.570  30.908  1.00  0.00     0.016 A 
ATOM     14  C   UNL     1      -7.506  54.284  32.094  1.00  0.00     0.051 A 
ATOM     15  C   UNL     1      -6.411  54.821  32.777  1.00  0.00     0.157 A 
ATOM     16  C   UNL     1      -4.929  53.925  31.074  1.00  0.00     0.062 A 
ATOM     17  C   UNL     1      -5.116  54.644  32.263  1.00  0.00     0.158 A 
BRANCH  15  18
ATOM     18  O   UNL     1      -6.629  55.527  33.959  1.00  0.00    -0.504 OA
ATOM     19  H   UNL     1      -5.955  56.192  34.321  1.00  0.00     0.293 HD
ENDBRANCH  15  18
BRANCH  17  20
ATOM     20  O   UNL     1      -4.020  55.186  32.934  1.00  0.00    -0.504 OA
ATOM     21  H   UNL     1      -3.387  54.607  33.472  1.00  0.00     0.293 HD
ENDBRANCH  17  20
ENDBRANCH   1  12
BRANCH   6  22
ATOM     22  O   UNL     1      -5.989  50.240  24.522  1.00  0.00    -0.507 OA
ATOM     23  H   UNL     1      -5.967  49.506  23.830  1.00  0.00     0.293 HD
ENDBRANCH   6  22
BRANCH   8  24
ATOM     24  O   UNL     1      -2.263  48.376  26.909  1.00  0.00    -0.508 OA
ATOM     25  H   UNL     1      -2.385  47.394  26.691  1.00  0.00     0.293 HD
ENDBRANCH   8  24
TORSDOF 5
ENDMDL
