MODEL 1
REMARK VINA RESULT:    -5.879      0.000      0.000
REMARK INTER + INTRA:         -16.349
REMARK INTER:                 -13.439
REMARK INTRA:                  -2.910
REMARK UNBOUND:                -2.910
REMARK SMILES CCCCCCCCCCCCCCCCCCCCCCCC(=O)[O-]
REMARK SMILES IDX 13 1 14 2 15 3 16 4 17 5 18 6 19 7 20 8 21 9 22 10 23 11
REMARK SMILES IDX 24 12 25 13 26 14 12 15 11 16 10 17 9 18 8 19 7 20 6 21 5 22
REMARK SMILES IDX 4 23 3 24 2 25 1 26
REMARK H PARENT
REMARK Flexibility Score: inf
ROOT
ATOM      1  C   UNL     1      -8.309 -13.659  -5.709  1.00  0.00     0.000 C 
ENDROOT
BRANCH   1   2
ATOM      2  C   UNL     1      -8.718 -15.105  -6.024  1.00  0.00     0.000 C 
BRANCH   2   3
ATOM      3  C   UNL     1      -7.649 -15.869  -6.827  1.00  0.00     0.000 C 
BRANCH   3   4
ATOM      4  C   UNL     1      -7.201 -17.205  -6.206  1.00  0.00     0.000 C 
BRANCH   4   5
ATOM      5  C   UNL     1      -8.340 -18.090  -5.665  1.00  0.00     0.000 C 
BRANCH   5   6
ATOM      6  C   UNL     1      -9.096 -18.874  -6.760  1.00  0.00     0.000 C 
BRANCH   6   7
ATOM      7  C   UNL     1     -10.452 -18.236  -7.111  1.00  0.00     0.000 C 
BRANCH   7   8
ATOM      8  C   UNL     1     -10.609 -17.950  -8.616  1.00  0.00     0.000 C 
BRANCH   8   9
ATOM      9  C   UNL     1      -9.372 -18.279  -9.472  1.00  0.00     0.000 C 
BRANCH   9  10
ATOM     10  C   UNL     1      -8.740 -17.033 -10.118  1.00  0.00     0.006 C 
BRANCH  10  11
ATOM     11  C   UNL     1      -9.676 -15.818 -10.071  1.00  0.00     0.053 C 
BRANCH  11  12
ATOM     12  C   UNL     1     -10.239 -15.495 -11.422  1.00  0.00     0.041 C 
ATOM     13  O   UNL     1      -9.487 -15.465 -12.431  1.00  0.00    -0.550 OA
ATOM     14  O   UNL     1     -11.592 -15.212 -11.562  1.00  0.00    -0.550 OA
ENDBRANCH  11  12
ENDBRANCH  10  11
ENDBRANCH   9  10
ENDBRANCH   8   9
ENDBRANCH   7   8
ENDBRANCH   6   7
ENDBRANCH   5   6
ENDBRANCH   4   5
ENDBRANCH   3   4
ENDBRANCH   2   3
ENDBRANCH   1   2
BRANCH   1  15
ATOM     15  C   UNL     1      -6.899 -13.608  -5.099  1.00  0.00     0.000 C 
BRANCH  15  16
ATOM     16  C   UNL     1      -6.885 -13.003  -3.687  1.00  0.00     0.000 C 
BRANCH  16  17
ATOM     17  C   UNL     1      -6.365 -13.986  -2.624  1.00  0.00     0.000 C 
BRANCH  17  18
ATOM     18  C   UNL     1      -6.852 -15.423  -2.861  1.00  0.00    -0.000 C 
BRANCH  18  19
ATOM     19  C   UNL     1      -5.704 -16.448  -2.842  1.00  0.00    -0.000 C 
BRANCH  19  20
ATOM     20  C   UNL     1      -4.566 -16.048  -1.890  1.00  0.00    -0.000 C 
BRANCH  20  21
ATOM     21  C   UNL     1      -4.268 -17.131  -0.838  1.00  0.00    -0.000 C 
BRANCH  21  22
ATOM     22  C   UNL     1      -2.815 -17.085  -0.334  1.00  0.00    -0.000 C 
BRANCH  22  23
ATOM     23  C   UNL     1      -1.882 -18.140  -0.958  1.00  0.00    -0.000 C 
BRANCH  23  24
ATOM     24  C   UNL     1      -0.922 -17.569  -2.026  1.00  0.00    -0.000 C 
BRANCH  24  25
ATOM     25  C   UNL     1      -0.889 -16.030  -2.059  1.00  0.00    -0.003 C 
ATOM     26  C   UNL     1       0.531 -15.479  -2.196  1.00  0.00     0.004 C 
ENDBRANCH  24  25
ENDBRANCH  23  24
ENDBRANCH  22  23
ENDBRANCH  21  22
ENDBRANCH  20  21
ENDBRANCH  19  20
ENDBRANCH  18  19
ENDBRANCH  17  18
ENDBRANCH  16  17
ENDBRANCH  15  16
ENDBRANCH   1  15
TORSDOF 22
ENDMDL
MODEL 2
REMARK VINA RESULT:    -5.772      0.893      1.409
REMARK INTER + INTRA:         -16.105
REMARK INTER:                 -13.273
REMARK INTRA:                  -2.831
REMARK UNBOUND:                -2.910
REMARK SMILES CCCCCCCCCCCCCCCCCCCCCCCC(=O)[O-]
REMARK SMILES IDX 13 1 14 2 15 3 16 4 17 5 18 6 19 7 20 8 21 9 22 10 23 11
REMARK SMILES IDX 24 12 25 13 26 14 12 15 11 16 10 17 9 18 8 19 7 20 6 21 5 22
REMARK SMILES IDX 4 23 3 24 2 25 1 26
REMARK H PARENT
REMARK Flexibility Score: inf
ROOT
ATOM      1  C   UNL     1      -8.355 -13.587  -5.709  1.00  0.00     0.000 C 
ENDROOT
BRANCH   1   2
ATOM      2  C   UNL     1      -8.722 -15.031  -6.083  1.00  0.00     0.000 C 
BRANCH   2   3
ATOM      3  C   UNL     1      -7.590 -15.762  -6.827  1.00  0.00     0.000 C 
BRANCH   3   4
ATOM      4  C   UNL     1      -7.169 -17.108  -6.208  1.00  0.00     0.000 C 
BRANCH   4   5
ATOM      5  C   UNL     1      -8.311 -17.918  -5.564  1.00  0.00     0.000 C 
BRANCH   5   6
ATOM      6  C   UNL     1      -9.039 -18.862  -6.546  1.00  0.00     0.000 C 
BRANCH   6   7
ATOM      7  C   UNL     1     -10.383 -18.286  -7.028  1.00  0.00     0.000 C 
BRANCH   7   8
ATOM      8  C   UNL     1     -10.420 -18.040  -8.547  1.00  0.00     0.000 C 
BRANCH   8   9
ATOM      9  C   UNL     1      -9.063 -18.176  -9.261  1.00  0.00     0.000 C 
BRANCH   9  10
ATOM     10  C   UNL     1      -8.784 -17.027 -10.246  1.00  0.00     0.006 C 
BRANCH  10  11
ATOM     11  C   UNL     1      -9.730 -15.838 -10.033  1.00  0.00     0.053 C 
BRANCH  11  12
ATOM     12  C   UNL     1     -10.263 -15.309 -11.329  1.00  0.00     0.041 C 
ATOM     13  O   UNL     1     -11.387 -14.741 -11.368  1.00  0.00    -0.550 OA
ATOM     14  O   UNL     1      -9.526 -15.457 -12.497  1.00  0.00    -0.550 OA
ENDBRANCH  11  12
ENDBRANCH  10  11
ENDBRANCH   9  10
ENDBRANCH   8   9
ENDBRANCH   7   8
ENDBRANCH   6   7
ENDBRANCH   5   6
ENDBRANCH   4   5
ENDBRANCH   3   4
ENDBRANCH   2   3
ENDBRANCH   1   2
BRANCH   1  15
ATOM     15  C   UNL     1      -6.934 -13.515  -5.128  1.00  0.00     0.000 C 
BRANCH  15  16
ATOM     16  C   UNL     1      -6.901 -12.915  -3.714  1.00  0.00     0.000 C 
BRANCH  16  17
ATOM     17  C   UNL     1      -6.364 -13.901  -2.662  1.00  0.00     0.000 C 
BRANCH  17  18
ATOM     18  C   UNL     1      -6.814 -15.346  -2.924  1.00  0.00    -0.000 C 
BRANCH  18  19
ATOM     19  C   UNL     1      -5.687 -16.368  -2.691  1.00  0.00    -0.000 C 
BRANCH  19  20
ATOM     20  C   UNL     1      -4.568 -15.824  -1.790  1.00  0.00    -0.000 C 
BRANCH  20  21
ATOM     21  C   UNL     1      -3.746 -16.944  -1.128  1.00  0.00    -0.000 C 
BRANCH  21  22
ATOM     22  C   UNL     1      -2.295 -16.995  -1.638  1.00  0.00    -0.000 C 
BRANCH  22  23
ATOM     23  C   UNL     1      -1.498 -18.237  -1.195  1.00  0.00    -0.000 C 
BRANCH  23  24
ATOM     24  C   UNL     1      -1.166 -18.257   0.314  1.00  0.00    -0.000 C 
BRANCH  24  25
ATOM     25  C   UNL     1      -0.582 -16.930   0.831  1.00  0.00    -0.003 C 
ATOM     26  C   UNL     1      -1.260 -16.455   2.117  1.00  0.00     0.004 C 
ENDBRANCH  24  25
ENDBRANCH  23  24
ENDBRANCH  22  23
ENDBRANCH  21  22
ENDBRANCH  20  21
ENDBRANCH  19  20
ENDBRANCH  18  19
ENDBRANCH  17  18
ENDBRANCH  16  17
ENDBRANCH  15  16
ENDBRANCH   1  15
TORSDOF 22
ENDMDL
MODEL 3
REMARK VINA RESULT:    -5.657      4.626      9.823
REMARK INTER + INTRA:         -15.843
REMARK INTER:                 -13.140
REMARK INTRA:                  -2.703
REMARK UNBOUND:                -2.910
REMARK SMILES CCCCCCCCCCCCCCCCCCCCCCCC(=O)[O-]
REMARK SMILES IDX 13 1 14 2 15 3 16 4 17 5 18 6 19 7 20 8 21 9 22 10 23 11
REMARK SMILES IDX 24 12 25 13 26 14 12 15 11 16 10 17 9 18 8 19 7 20 6 21 5 22
REMARK SMILES IDX 4 23 3 24 2 25 1 26
REMARK H PARENT
REMARK Flexibility Score: inf
ROOT
ATOM      1  C   UNL     1      -8.452 -13.947  -5.630  1.00  0.00     0.000 C 
ENDROOT
BRANCH   1   2
ATOM      2  C   UNL     1      -6.999 -13.673  -5.216  1.00  0.00     0.000 C 
BRANCH   2   3
ATOM      3  C   UNL     1      -6.889 -12.962  -3.854  1.00  0.00     0.000 C 
BRANCH   3   4
ATOM      4  C   UNL     1      -6.359 -13.840  -2.703  1.00  0.00     0.000 C 
BRANCH   4   5
ATOM      5  C   UNL     1      -6.698 -15.339  -2.815  1.00  0.00     0.000 C 
BRANCH   5   6
ATOM      6  C   UNL     1      -5.460 -16.262  -2.793  1.00  0.00     0.000 C 
BRANCH   6   7
ATOM      7  C   UNL     1      -4.591 -16.052  -1.539  1.00  0.00     0.000 C 
BRANCH   7   8
ATOM      8  C   UNL     1      -3.404 -17.028  -1.461  1.00  0.00     0.000 C 
BRANCH   8   9
ATOM      9  C   UNL     1      -2.029 -16.406  -1.767  1.00  0.00     0.000 C 
BRANCH   9  10
ATOM     10  C   UNL     1      -0.886 -17.436  -1.753  1.00  0.00     0.006 C 
BRANCH  10  11
ATOM     11  C   UNL     1       0.091 -17.202  -0.594  1.00  0.00     0.053 C 
BRANCH  11  12
ATOM     12  C   UNL     1      -0.570 -17.380   0.739  1.00  0.00     0.041 C 
ATOM     13  O   UNL     1      -0.575 -16.437   1.574  1.00  0.00    -0.550 OA
ATOM     14  O   UNL     1      -1.167 -18.591   1.064  1.00  0.00    -0.550 OA
ENDBRANCH  11  12
ENDBRANCH  10  11
ENDBRANCH   9  10
ENDBRANCH   8   9
ENDBRANCH   7   8
ENDBRANCH   6   7
ENDBRANCH   5   6
ENDBRANCH   4   5
ENDBRANCH   3   4
ENDBRANCH   2   3
ENDBRANCH   1   2
BRANCH   1  15
ATOM     15  C   UNL     1      -8.596 -15.356  -6.228  1.00  0.00     0.000 C 
BRANCH  15  16
ATOM     16  C   UNL     1      -7.246 -15.971  -6.629  1.00  0.00     0.000 C 
BRANCH  16  17
ATOM     17  C   UNL     1      -7.184 -17.486  -6.375  1.00  0.00     0.000 C 
BRANCH  17  18
ATOM     18  C   UNL     1      -7.950 -17.905  -5.110  1.00  0.00    -0.000 C 
BRANCH  18  19
ATOM     19  C   UNL     1      -8.989 -19.006  -5.384  1.00  0.00    -0.000 C 
BRANCH  19  20
ATOM     20  C   UNL     1      -9.412 -19.070  -6.860  1.00  0.00    -0.000 C 
BRANCH  20  21
ATOM     21  C   UNL     1     -10.641 -18.194  -7.160  1.00  0.00    -0.000 C 
BRANCH  21  22
ATOM     22  C   UNL     1     -10.930 -18.074  -8.666  1.00  0.00    -0.000 C 
BRANCH  22  23
ATOM     23  C   UNL     1      -9.678 -17.977  -9.558  1.00  0.00    -0.000 C 
BRANCH  23  24
ATOM     24  C   UNL     1      -9.194 -16.528  -9.795  1.00  0.00    -0.000 C 
BRANCH  24  25
ATOM     25  C   UNL     1      -9.476 -16.012 -11.217  1.00  0.00    -0.003 C 
ATOM     26  C   UNL     1     -10.769 -15.200 -11.299  1.00  0.00     0.004 C 
ENDBRANCH  24  25
ENDBRANCH  23  24
ENDBRANCH  22  23
ENDBRANCH  21  22
ENDBRANCH  20  21
ENDBRANCH  19  20
ENDBRANCH  18  19
ENDBRANCH  17  18
ENDBRANCH  16  17
ENDBRANCH  15  16
ENDBRANCH   1  15
TORSDOF 22
ENDMDL
MODEL 4
REMARK VINA RESULT:    -5.577      4.791     10.033
REMARK INTER + INTRA:         -15.659
REMARK INTER:                 -13.064
REMARK INTRA:                  -2.595
REMARK UNBOUND:                -2.910
REMARK SMILES CCCCCCCCCCCCCCCCCCCCCCCC(=O)[O-]
REMARK SMILES IDX 13 1 14 2 15 3 16 4 17 5 18 6 19 7 20 8 21 9 22 10 23 11
REMARK SMILES IDX 24 12 25 13 26 14 12 15 11 16 10 17 9 18 8 19 7 20 6 21 5 22
REMARK SMILES IDX 4 23 3 24 2 25 1 26
REMARK H PARENT
REMARK Flexibility Score: inf
ROOT
ATOM      1  C   UNL     1      -6.870 -12.977  -3.681  1.00  0.00     0.000 C 
ENDROOT
BRANCH   1   2
ATOM      2  C   UNL     1      -6.460 -14.045  -2.657  1.00  0.00     0.000 C 
BRANCH   2   3
ATOM      3  C   UNL     1      -6.680 -15.481  -3.169  1.00  0.00     0.000 C 
BRANCH   3   4
ATOM      4  C   UNL     1      -5.558 -16.476  -2.818  1.00  0.00     0.000 C 
BRANCH   4   5
ATOM      5  C   UNL     1      -4.660 -16.059  -1.637  1.00  0.00     0.000 C 
BRANCH   5   6
ATOM      6  C   UNL     1      -3.393 -16.928  -1.478  1.00  0.00     0.000 C 
BRANCH   6   7
ATOM      7  C   UNL     1      -2.117 -16.194  -1.928  1.00  0.00     0.000 C 
BRANCH   7   8
ATOM      8  C   UNL     1      -0.873 -17.102  -1.931  1.00  0.00     0.000 C 
BRANCH   8   9
ATOM      9  C   UNL     1      -1.091 -18.504  -1.335  1.00  0.00     0.000 C 
BRANCH   9  10
ATOM     10  C   UNL     1      -0.311 -18.729  -0.028  1.00  0.00     0.006 C 
BRANCH  10  11
ATOM     11  C   UNL     1      -0.053 -17.418   0.726  1.00  0.00     0.053 C 
BRANCH  11  12
ATOM     12  C   UNL     1      -1.013 -17.229   1.861  1.00  0.00     0.041 C 
ATOM     13  O   UNL     1      -0.756 -17.710   2.996  1.00  0.00    -0.550 OA
ATOM     14  O   UNL     1      -2.200 -16.535   1.661  1.00  0.00    -0.550 OA
ENDBRANCH  11  12
ENDBRANCH  10  11
ENDBRANCH   9  10
ENDBRANCH   8   9
ENDBRANCH   7   8
ENDBRANCH   6   7
ENDBRANCH   5   6
ENDBRANCH   4   5
ENDBRANCH   3   4
ENDBRANCH   2   3
ENDBRANCH   1   2
BRANCH   1  15
ATOM     15  C   UNL     1      -6.895 -13.561  -5.103  1.00  0.00     0.000 C 
BRANCH  15  16
ATOM     16  C   UNL     1      -8.318 -13.685  -5.668  1.00  0.00     0.000 C 
BRANCH  16  17
ATOM     17  C   UNL     1      -8.597 -15.070  -6.276  1.00  0.00     0.000 C 
BRANCH  17  18
ATOM     18  C   UNL     1      -7.317 -15.777  -6.747  1.00  0.00    -0.000 C 
BRANCH  18  19
ATOM     19  C   UNL     1      -7.331 -17.287  -6.452  1.00  0.00    -0.000 C 
BRANCH  19  20
ATOM     20  C   UNL     1      -8.676 -17.769  -5.886  1.00  0.00    -0.000 C 
BRANCH  20  21
ATOM     21  C   UNL     1      -9.366 -18.799  -6.799  1.00  0.00    -0.000 C 
BRANCH  21  22
ATOM     22  C   UNL     1     -10.765 -18.347  -7.251  1.00  0.00    -0.000 C 
BRANCH  22  23
ATOM     23  C   UNL     1     -10.848 -17.864  -8.712  1.00  0.00    -0.000 C 
BRANCH  23  24
ATOM     24  C   UNL     1      -9.482 -17.829  -9.433  1.00  0.00    -0.000 C 
BRANCH  24  25
ATOM     25  C   UNL     1      -9.057 -16.416  -9.873  1.00  0.00    -0.003 C 
ATOM     26  C   UNL     1     -10.028 -15.802 -10.882  1.00  0.00     0.004 C 
ENDBRANCH  24  25
ENDBRANCH  23  24
ENDBRANCH  22  23
ENDBRANCH  21  22
ENDBRANCH  20  21
ENDBRANCH  19  20
ENDBRANCH  18  19
ENDBRANCH  17  18
ENDBRANCH  16  17
ENDBRANCH  15  16
ENDBRANCH   1  15
TORSDOF 22
ENDMDL
MODEL 5
REMARK VINA RESULT:    -5.558      3.995      9.369
REMARK INTER + INTRA:         -15.617
REMARK INTER:                 -13.009
REMARK INTRA:                  -2.607
REMARK UNBOUND:                -2.910
REMARK SMILES CCCCCCCCCCCCCCCCCCCCCCCC(=O)[O-]
REMARK SMILES IDX 13 1 14 2 15 3 16 4 17 5 18 6 19 7 20 8 21 9 22 10 23 11
REMARK SMILES IDX 24 12 25 13 26 14 12 15 11 16 10 17 9 18 8 19 7 20 6 21 5 22
REMARK SMILES IDX 4 23 3 24 2 25 1 26
REMARK H PARENT
REMARK Flexibility Score: inf
ROOT
ATOM      1  C   UNL     1      -6.912 -13.397  -5.167  1.00  0.00     0.000 C 
ENDROOT
BRANCH   1   2
ATOM      2  C   UNL     1      -6.889 -12.922  -3.707  1.00  0.00     0.000 C 
BRANCH   2   3
ATOM      3  C   UNL     1      -6.146 -13.896  -2.773  1.00  0.00     0.000 C 
BRANCH   3   4
ATOM      4  C   UNL     1      -6.762 -15.305  -2.680  1.00  0.00     0.000 C 
BRANCH   4   5
ATOM      5  C   UNL     1      -5.746 -16.462  -2.626  1.00  0.00     0.000 C 
BRANCH   5   6
ATOM      6  C   UNL     1      -4.439 -16.110  -1.882  1.00  0.00     0.000 C 
BRANCH   6   7
ATOM      7  C   UNL     1      -4.200 -17.009  -0.655  1.00  0.00     0.000 C 
BRANCH   7   8
ATOM      8  C   UNL     1      -2.709 -17.168  -0.309  1.00  0.00     0.000 C 
BRANCH   8   9
ATOM      9  C   UNL     1      -1.825 -17.680  -1.462  1.00  0.00     0.000 C 
BRANCH   9  10
ATOM     10  C   UNL     1      -0.692 -16.705  -1.828  1.00  0.00     0.006 C 
BRANCH  10  11
ATOM     11  C   UNL     1       0.268 -17.297  -2.868  1.00  0.00     0.053 C 
BRANCH  11  12
ATOM     12  C   UNL     1       1.193 -16.259  -3.428  1.00  0.00     0.041 C 
ATOM     13  O   UNL     1       1.522 -16.293  -4.643  1.00  0.00    -0.550 OA
ATOM     14  O   UNL     1       1.704 -15.265  -2.603  1.00  0.00    -0.550 OA
ENDBRANCH  11  12
ENDBRANCH  10  11
ENDBRANCH   9  10
ENDBRANCH   8   9
ENDBRANCH   7   8
ENDBRANCH   6   7
ENDBRANCH   5   6
ENDBRANCH   4   5
ENDBRANCH   3   4
ENDBRANCH   2   3
ENDBRANCH   1   2
BRANCH   1  15
ATOM     15  C   UNL     1      -8.350 -13.688  -5.627  1.00  0.00     0.000 C 
BRANCH  15  16
ATOM     16  C   UNL     1      -8.576 -15.170  -5.964  1.00  0.00     0.000 C 
BRANCH  16  17
ATOM     17  C   UNL     1      -7.370 -15.810  -6.672  1.00  0.00     0.000 C 
BRANCH  17  18
ATOM     18  C   UNL     1      -6.875 -17.079  -5.963  1.00  0.00    -0.000 C 
BRANCH  18  19
ATOM     19  C   UNL     1      -8.022 -17.904  -5.354  1.00  0.00    -0.000 C 
BRANCH  19  20
ATOM     20  C   UNL     1      -8.534 -19.000  -6.302  1.00  0.00    -0.000 C 
BRANCH  20  21
ATOM     21  C   UNL     1     -10.029 -18.847  -6.630  1.00  0.00    -0.000 C 
BRANCH  21  22
ATOM     22  C   UNL     1     -10.278 -17.953  -7.858  1.00  0.00    -0.000 C 
BRANCH  22  23
ATOM     23  C   UNL     1      -9.181 -18.019  -8.938  1.00  0.00    -0.000 C 
BRANCH  23  24
ATOM     24  C   UNL     1      -9.082 -16.742  -9.803  1.00  0.00    -0.000 C 
BRANCH  24  25
ATOM     25  C   UNL     1     -10.390 -16.399 -10.540  1.00  0.00    -0.003 C 
ATOM     26  C   UNL     1     -10.199 -15.300 -11.586  1.00  0.00     0.004 C 
ENDBRANCH  24  25
ENDBRANCH  23  24
ENDBRANCH  22  23
ENDBRANCH  21  22
ENDBRANCH  20  21
ENDBRANCH  19  20
ENDBRANCH  18  19
ENDBRANCH  17  18
ENDBRANCH  16  17
ENDBRANCH  15  16
ENDBRANCH   1  15
TORSDOF 22
ENDMDL
MODEL 6
REMARK VINA RESULT:    -5.481      1.187      2.001
REMARK INTER + INTRA:         -15.440
REMARK INTER:                 -12.740
REMARK INTRA:                  -2.700
REMARK UNBOUND:                -2.910
REMARK SMILES CCCCCCCCCCCCCCCCCCCCCCCC(=O)[O-]
REMARK SMILES IDX 13 1 14 2 15 3 16 4 17 5 18 6 19 7 20 8 21 9 22 10 23 11
REMARK SMILES IDX 24 12 25 13 26 14 12 15 11 16 10 17 9 18 8 19 7 20 6 21 5 22
REMARK SMILES IDX 4 23 3 24 2 25 1 26
REMARK H PARENT
REMARK Flexibility Score: inf
ROOT
ATOM      1  C   UNL     1      -6.899 -13.230  -5.079  1.00  0.00     0.000 C 
ENDROOT
BRANCH   1   2
ATOM      2  C   UNL     1      -8.303 -13.477  -5.651  1.00  0.00     0.000 C 
BRANCH   2   3
ATOM      3  C   UNL     1      -8.576 -14.963  -5.946  1.00  0.00     0.000 C 
BRANCH   3   4
ATOM      4  C   UNL     1      -7.468 -15.682  -6.740  1.00  0.00     0.000 C 
BRANCH   4   5
ATOM      5  C   UNL     1      -6.845 -16.901  -6.035  1.00  0.00     0.000 C 
BRANCH   5   6
ATOM      6  C   UNL     1      -7.869 -17.991  -5.648  1.00  0.00     0.000 C 
BRANCH   6   7
ATOM      7  C   UNL     1      -8.526 -18.643  -6.878  1.00  0.00     0.000 C 
BRANCH   7   8
ATOM      8  C   UNL     1     -10.039 -18.370  -6.967  1.00  0.00     0.000 C 
BRANCH   8   9
ATOM      9  C   UNL     1     -10.524 -17.836  -8.327  1.00  0.00     0.000 C 
BRANCH   9  10
ATOM     10  C   UNL     1      -9.391 -17.712  -9.362  1.00  0.00     0.006 C 
BRANCH  10  11
ATOM     11  C   UNL     1      -9.231 -16.276  -9.877  1.00  0.00     0.053 C 
BRANCH  11  12
ATOM     12  C   UNL     1     -10.020 -16.040 -11.129  1.00  0.00     0.041 C 
ATOM     13  O   UNL     1      -9.486 -16.213 -12.257  1.00  0.00    -0.550 OA
ATOM     14  O   UNL     1     -11.340 -15.615 -11.050  1.00  0.00    -0.550 OA
ENDBRANCH  11  12
ENDBRANCH  10  11
ENDBRANCH   9  10
ENDBRANCH   8   9
ENDBRANCH   7   8
ENDBRANCH   6   7
ENDBRANCH   5   6
ENDBRANCH   4   5
ENDBRANCH   3   4
ENDBRANCH   2   3
ENDBRANCH   1   2
BRANCH   1  15
ATOM     15  C   UNL     1      -6.965 -12.932  -3.573  1.00  0.00     0.000 C 
BRANCH  15  16
ATOM     16  C   UNL     1      -6.152 -13.930  -2.734  1.00  0.00     0.000 C 
BRANCH  16  17
ATOM     17  C   UNL     1      -6.809 -15.319  -2.661  1.00  0.00     0.000 C 
BRANCH  17  18
ATOM     18  C   UNL     1      -5.790 -16.443  -2.420  1.00  0.00    -0.000 C 
BRANCH  18  19
ATOM     19  C   UNL     1      -4.441 -15.917  -1.898  1.00  0.00    -0.000 C 
BRANCH  19  20
ATOM     20  C   UNL     1      -3.700 -16.944  -1.027  1.00  0.00    -0.000 C 
BRANCH  20  21
ATOM     21  C   UNL     1      -2.234 -17.131  -1.453  1.00  0.00    -0.000 C 
BRANCH  21  22
ATOM     22  C   UNL     1      -1.630 -18.449  -0.939  1.00  0.00    -0.000 C 
BRANCH  22  23
ATOM     23  C   UNL     1      -0.306 -18.294  -0.165  1.00  0.00    -0.000 C 
BRANCH  23  24
ATOM     24  C   UNL     1      -0.012 -16.844   0.280  1.00  0.00    -0.000 C 
BRANCH  24  25
ATOM     25  C   UNL     1      -0.137 -16.632   1.800  1.00  0.00    -0.003 C 
ATOM     26  C   UNL     1      -1.554 -16.236   2.220  1.00  0.00     0.004 C 
ENDBRANCH  24  25
ENDBRANCH  23  24
ENDBRANCH  22  23
ENDBRANCH  21  22
ENDBRANCH  20  21
ENDBRANCH  19  20
ENDBRANCH  18  19
ENDBRANCH  17  18
ENDBRANCH  16  17
ENDBRANCH  15  16
ENDBRANCH   1  15
TORSDOF 22
ENDMDL
MODEL 7
REMARK VINA RESULT:    -5.405      1.256      2.785
REMARK INTER + INTRA:         -15.267
REMARK INTER:                 -13.422
REMARK INTRA:                  -1.845
REMARK UNBOUND:                -2.910
REMARK SMILES CCCCCCCCCCCCCCCCCCCCCCCC(=O)[O-]
REMARK SMILES IDX 13 1 14 2 15 3 16 4 17 5 18 6 19 7 20 8 21 9 22 10 23 11
REMARK SMILES IDX 24 12 25 13 26 14 12 15 11 16 10 17 9 18 8 19 7 20 6 21 5 22
REMARK SMILES IDX 4 23 3 24 2 25 1 26
REMARK H PARENT
REMARK Flexibility Score: inf
ROOT
ATOM      1  C   UNL     1      -6.392 -13.876  -2.927  1.00  0.00     0.000 C 
ENDROOT
BRANCH   1   2
ATOM      2  C   UNL     1      -6.987 -13.108  -4.117  1.00  0.00     0.000 C 
BRANCH   2   3
ATOM      3  C   UNL     1      -7.159 -13.986  -5.370  1.00  0.00     0.000 C 
BRANCH   3   4
ATOM      4  C   UNL     1      -8.611 -14.139  -5.862  1.00  0.00     0.000 C 
BRANCH   4   5
ATOM      5  C   UNL     1      -9.183 -15.567  -5.778  1.00  0.00     0.000 C 
BRANCH   5   6
ATOM      6  C   UNL     1      -8.170 -16.669  -6.161  1.00  0.00     0.000 C 
BRANCH   6   7
ATOM      7  C   UNL     1      -7.862 -16.685  -7.670  1.00  0.00     0.000 C 
BRANCH   7   8
ATOM      8  C   UNL     1      -9.098 -16.391  -8.538  1.00  0.00     0.000 C 
BRANCH   8   9
ATOM      9  C   UNL     1      -8.891 -16.589 -10.051  1.00  0.00     0.000 C 
BRANCH   9  10
ATOM     10  C   UNL     1      -9.807 -15.694 -10.905  1.00  0.00     0.006 C 
BRANCH  10  11
ATOM     11  C   UNL     1     -11.170 -16.346 -11.172  1.00  0.00     0.053 C 
BRANCH  11  12
ATOM     12  C   UNL     1     -12.059 -15.464 -11.994  1.00  0.00     0.041 C 
ATOM     13  O   UNL     1     -11.721 -15.134 -13.162  1.00  0.00    -0.550 OA
ATOM     14  O   UNL     1     -13.254 -14.992 -11.465  1.00  0.00    -0.550 OA
ENDBRANCH  11  12
ENDBRANCH  10  11
ENDBRANCH   9  10
ENDBRANCH   8   9
ENDBRANCH   7   8
ENDBRANCH   6   7
ENDBRANCH   5   6
ENDBRANCH   4   5
ENDBRANCH   3   4
ENDBRANCH   2   3
ENDBRANCH   1   2
BRANCH   1  15
ATOM     15  C   UNL     1      -6.850 -15.343  -2.937  1.00  0.00     0.000 C 
BRANCH  15  16
ATOM     16  C   UNL     1      -5.683 -16.330  -2.784  1.00  0.00     0.000 C 
BRANCH  16  17
ATOM     17  C   UNL     1      -4.639 -15.861  -1.755  1.00  0.00     0.000 C 
BRANCH  17  18
ATOM     18  C   UNL     1      -3.955 -17.032  -1.033  1.00  0.00    -0.000 C 
BRANCH  18  19
ATOM     19  C   UNL     1      -3.123 -16.575   0.179  1.00  0.00    -0.000 C 
BRANCH  19  20
ATOM     20  C   UNL     1      -1.846 -17.407   0.370  1.00  0.00    -0.000 C 
BRANCH  20  21
ATOM     21  C   UNL     1      -1.543 -18.311  -0.838  1.00  0.00    -0.000 C 
BRANCH  21  22
ATOM     22  C   UNL     1      -0.164 -18.027  -1.459  1.00  0.00    -0.000 C 
BRANCH  22  23
ATOM     23  C   UNL     1      -0.194 -17.159  -2.732  1.00  0.00    -0.000 C 
BRANCH  23  24
ATOM     24  C   UNL     1      -0.050 -15.646  -2.455  1.00  0.00    -0.000 C 
BRANCH  24  25
ATOM     25  C   UNL     1       1.335 -15.252  -1.909  1.00  0.00    -0.003 C 
ATOM     26  C   UNL     1       1.264 -14.688  -0.490  1.00  0.00     0.004 C 
ENDBRANCH  24  25
ENDBRANCH  23  24
ENDBRANCH  22  23
ENDBRANCH  21  22
ENDBRANCH  20  21
ENDBRANCH  19  20
ENDBRANCH  18  19
ENDBRANCH  17  18
ENDBRANCH  16  17
ENDBRANCH  15  16
ENDBRANCH   1  15
TORSDOF 22
ENDMDL
MODEL 8
REMARK VINA RESULT:    -5.298      1.551      2.781
REMARK INTER + INTRA:         -15.021
REMARK INTER:                 -13.188
REMARK INTRA:                  -1.833
REMARK UNBOUND:                -2.910
REMARK SMILES CCCCCCCCCCCCCCCCCCCCCCCC(=O)[O-]
REMARK SMILES IDX 13 1 14 2 15 3 16 4 17 5 18 6 19 7 20 8 21 9 22 10 23 11
REMARK SMILES IDX 24 12 25 13 26 14 12 15 11 16 10 17 9 18 8 19 7 20 6 21 5 22
REMARK SMILES IDX 4 23 3 24 2 25 1 26
REMARK H PARENT
REMARK Flexibility Score: inf
ROOT
ATOM      1  C   UNL     1      -6.874 -12.910  -3.565  1.00  0.00     0.000 C 
ENDROOT
BRANCH   1   2
ATOM      2  C   UNL     1      -6.947 -13.436  -5.006  1.00  0.00     0.000 C 
BRANCH   2   3
ATOM      3  C   UNL     1      -8.370 -13.381  -5.592  1.00  0.00     0.000 C 
BRANCH   3   4
ATOM      4  C   UNL     1      -9.095 -14.738  -5.670  1.00  0.00     0.000 C 
BRANCH   4   5
ATOM      5  C   UNL     1      -8.179 -15.956  -5.897  1.00  0.00     0.000 C 
BRANCH   5   6
ATOM      6  C   UNL     1      -7.743 -16.145  -7.366  1.00  0.00     0.000 C 
BRANCH   6   7
ATOM      7  C   UNL     1      -8.688 -17.079  -8.145  1.00  0.00     0.000 C 
BRANCH   7   8
ATOM      8  C   UNL     1      -8.626 -16.861  -9.668  1.00  0.00     0.000 C 
BRANCH   8   9
ATOM      9  C   UNL     1      -9.672 -17.648 -10.479  1.00  0.00     0.000 C 
BRANCH   9  10
ATOM     10  C   UNL     1     -11.009 -16.900 -10.619  1.00  0.00     0.006 C 
BRANCH  10  11
ATOM     11  C   UNL     1     -10.828 -15.490 -11.196  1.00  0.00     0.053 C 
BRANCH  11  12
ATOM     12  C   UNL     1     -12.035 -15.040 -11.961  1.00  0.00     0.041 C 
ATOM     13  O   UNL     1     -12.505 -13.886 -11.782  1.00  0.00    -0.550 OA
ATOM     14  O   UNL     1     -12.650 -15.902 -12.861  1.00  0.00    -0.550 OA
ENDBRANCH  11  12
ENDBRANCH  10  11
ENDBRANCH   9  10
ENDBRANCH   8   9
ENDBRANCH   7   8
ENDBRANCH   6   7
ENDBRANCH   5   6
ENDBRANCH   4   5
ENDBRANCH   3   4
ENDBRANCH   2   3
ENDBRANCH   1   2
BRANCH   1  15
ATOM     15  C   UNL     1      -6.147 -13.910  -2.652  1.00  0.00     0.000 C 
BRANCH  15  16
ATOM     16  C   UNL     1      -6.818 -15.292  -2.633  1.00  0.00     0.000 C 
BRANCH  16  17
ATOM     17  C   UNL     1      -5.804 -16.447  -2.707  1.00  0.00     0.000 C 
BRANCH  17  18
ATOM     18  C   UNL     1      -4.443 -16.076  -2.098  1.00  0.00    -0.000 C 
BRANCH  18  19
ATOM     19  C   UNL     1      -4.144 -16.850  -0.802  1.00  0.00    -0.000 C 
BRANCH  19  20
ATOM     20  C   UNL     1      -2.779 -17.557  -0.833  1.00  0.00    -0.000 C 
BRANCH  20  21
ATOM     21  C   UNL     1      -1.733 -16.785  -1.657  1.00  0.00    -0.000 C 
BRANCH  21  22
ATOM     22  C   UNL     1      -0.428 -16.542  -0.879  1.00  0.00    -0.000 C 
BRANCH  22  23
ATOM     23  C   UNL     1       0.139 -17.784  -0.165  1.00  0.00    -0.000 C 
BRANCH  23  24
ATOM     24  C   UNL     1       0.036 -17.717   1.375  1.00  0.00    -0.000 C 
BRANCH  24  25
ATOM     25  C   UNL     1      -0.143 -16.286   1.916  1.00  0.00    -0.003 C 
ATOM     26  C   UNL     1      -1.508 -16.077   2.573  1.00  0.00     0.004 C 
ENDBRANCH  24  25
ENDBRANCH  23  24
ENDBRANCH  22  23
ENDBRANCH  21  22
ENDBRANCH  20  21
ENDBRANCH  19  20
ENDBRANCH  18  19
ENDBRANCH  17  18
ENDBRANCH  16  17
ENDBRANCH  15  16
ENDBRANCH   1  15
TORSDOF 22
ENDMDL
MODEL 9
REMARK VINA RESULT:    -3.920      5.218     10.409
REMARK INTER + INTRA:         -11.872
REMARK INTER:                  -9.290
REMARK INTRA:                  -2.582
REMARK UNBOUND:                -2.910
REMARK SMILES CCCCCCCCCCCCCCCCCCCCCCCC(=O)[O-]
REMARK SMILES IDX 13 1 14 2 15 3 16 4 17 5 18 6 19 7 20 8 21 9 22 10 23 11
REMARK SMILES IDX 24 12 25 13 26 14 12 15 11 16 10 17 9 18 8 19 7 20 6 21 5 22
REMARK SMILES IDX 4 23 3 24 2 25 1 26
REMARK H PARENT
REMARK Flexibility Score: inf
ROOT
ATOM      1  C   UNL     1      -5.375 -16.140  -3.761  1.00  0.00     0.000 C 
ENDROOT
BRANCH   1   2
ATOM      2  C   UNL     1      -5.707 -16.076  -2.262  1.00  0.00     0.000 C 
BRANCH   2   3
ATOM      3  C   UNL     1      -4.454 -15.934  -1.378  1.00  0.00     0.000 C 
BRANCH   3   4
ATOM      4  C   UNL     1      -3.979 -17.239  -0.711  1.00  0.00     0.000 C 
BRANCH   4   5
ATOM      5  C   UNL     1      -2.525 -17.642  -1.024  1.00  0.00     0.000 C 
BRANCH   5   6
ATOM      6  C   UNL     1      -1.664 -16.487  -1.581  1.00  0.00     0.000 C 
BRANCH   6   7
ATOM      7  C   UNL     1      -0.156 -16.791  -1.511  1.00  0.00     0.000 C 
BRANCH   7   8
ATOM      8  C   UNL     1       0.148 -18.195  -0.956  1.00  0.00     0.000 C 
BRANCH   8   9
ATOM      9  C   UNL     1       0.783 -18.215   0.446  1.00  0.00     0.000 C 
BRANCH   9  10
ATOM     10  C   UNL     1      -0.153 -18.796   1.521  1.00  0.00     0.006 C 
BRANCH  10  11
ATOM     11  C   UNL     1       0.044 -18.124   2.886  1.00  0.00     0.053 C 
BRANCH  11  12
ATOM     12  C   UNL     1      -0.914 -16.990   3.093  1.00  0.00     0.041 C 
ATOM     13  O   UNL     1      -1.902 -16.847   2.326  1.00  0.00    -0.550 OA
ATOM     14  O   UNL     1      -0.706 -16.083   4.125  1.00  0.00    -0.550 OA
ENDBRANCH  11  12
ENDBRANCH  10  11
ENDBRANCH   9  10
ENDBRANCH   8   9
ENDBRANCH   7   8
ENDBRANCH   6   7
ENDBRANCH   5   6
ENDBRANCH   4   5
ENDBRANCH   3   4
ENDBRANCH   2   3
ENDBRANCH   1   2
BRANCH   1  15
ATOM     15  C   UNL     1      -6.463 -16.905  -4.532  1.00  0.00     0.000 C 
BRANCH  15  16
ATOM     16  C   UNL     1      -7.646 -17.312  -3.640  1.00  0.00     0.000 C 
BRANCH  16  17
ATOM     17  C   UNL     1      -8.369 -18.570  -4.151  1.00  0.00     0.000 C 
BRANCH  17  18
ATOM     18  C   UNL     1      -7.931 -18.969  -5.568  1.00  0.00    -0.000 C 
BRANCH  18  19
ATOM     19  C   UNL     1      -8.990 -18.632  -6.632  1.00  0.00    -0.000 C 
BRANCH  19  20
ATOM     20  C   UNL     1      -8.382 -18.014  -7.901  1.00  0.00    -0.000 C 
BRANCH  20  21
ATOM     21  C   UNL     1      -8.806 -16.549  -8.106  1.00  0.00    -0.000 C 
BRANCH  21  22
ATOM     22  C   UNL     1      -8.110 -15.587  -7.127  1.00  0.00    -0.000 C 
BRANCH  22  23
ATOM     23  C   UNL     1      -9.038 -14.962  -6.067  1.00  0.00    -0.000 C 
BRANCH  23  24
ATOM     24  C   UNL     1      -8.661 -13.511  -5.691  1.00  0.00    -0.000 C 
BRANCH  24  25
ATOM     25  C   UNL     1      -7.153 -13.309  -5.459  1.00  0.00    -0.003 C 
ATOM     26  C   UNL     1      -6.829 -12.930  -4.013  1.00  0.00     0.004 C 
ENDBRANCH  24  25
ENDBRANCH  23  24
ENDBRANCH  22  23
ENDBRANCH  21  22
ENDBRANCH  20  21
ENDBRANCH  19  20
ENDBRANCH  18  19
ENDBRANCH  17  18
ENDBRANCH  16  17
ENDBRANCH  15  16
ENDBRANCH   1  15
TORSDOF 22
ENDMDL
