MODEL 1
REMARK VINA RESULT:    -7.830      0.000      0.000
REMARK INTER + INTRA:         -11.649
REMARK INTER:                 -10.805
REMARK INTRA:                  -0.843
REMARK UNBOUND:                -0.843
REMARK SMILES CC[C@H](CC[C@H](C)[C@@H]1CC[C@H]2[C@@H]3CC=C4C[C@H](O)CC[C@@]4(C)[C@H]3CC[C@]21C)C(C)C
REMARK SMILES IDX 5 1 4 2 3 3 2 4 1 5 28 6 29 7 30 8 6 9 7 10 8 11 9 12 26 13
REMARK SMILES IDX 10 14 11 15 25 16 27 17 12 18 24 19 23 20 13 21 21 22 14 23
REMARK SMILES IDX 15 24 20 25 22 26 16 27 19 28 17 29 18 30
REMARK H PARENT 18 31
REMARK Flexibility Score: inf
ROOT
ATOM      1  C   UNL     1       0.535  18.831  46.993  1.00  0.00     0.004 C 
ENDROOT
BRANCH   1   2
ATOM      2  C   UNL     1       1.252  17.924  45.963  1.00  0.00     0.004 C 
BRANCH   2   3
ATOM      3  C   UNL     1       2.787  18.188  45.846  1.00  0.00    -0.009 C 
BRANCH   3   4
ATOM      4  C   UNL     1       3.563  16.895  46.229  1.00  0.00     0.000 C 
ATOM      5  C   UNL     1       4.472  17.042  47.449  1.00  0.00     0.004 C 
ENDBRANCH   3   4
BRANCH   3   6
ATOM      6  C   UNL     1       3.236  18.775  44.460  1.00  0.00    -0.014 C 
ATOM      7  C   UNL     1       3.286  20.311  44.398  1.00  0.00     0.007 C 
ATOM      8  C   UNL     1       4.566  18.189  43.966  1.00  0.00     0.007 C 
ENDBRANCH   3   6
ENDBRANCH   2   3
ENDBRANCH   1   2
BRANCH   1   9
ATOM      9  C   UNL     1      -1.017  18.695  46.984  1.00  0.00    -0.011 C 
ATOM     10  C   UNL     1      -1.433  17.607  45.965  1.00  0.00     0.008 C 
BRANCH   9  11
ATOM     11  C   UNL     1      -1.797  20.036  46.668  1.00  0.00    -0.002 C 
ATOM     12  C   UNL     1      -0.914  21.220  46.242  1.00  0.00     0.005 C 
ATOM     13  C   UNL     1      -2.666  20.647  47.843  1.00  0.00    -0.026 C 
ATOM     14  C   UNL     1      -0.560  21.935  47.520  1.00  0.00     0.005 C 
ATOM     15  C   UNL     1      -1.791  21.808  48.432  1.00  0.00    -0.001 C 
ATOM     16  C   UNL     1      -3.969  21.214  47.225  1.00  0.00     0.007 C 
ATOM     17  C   UNL     1      -3.066  19.647  48.971  1.00  0.00     0.012 C 
ATOM     18  C   UNL     1      -2.524  23.186  48.592  1.00  0.00     0.000 C 
ATOM     19  C   UNL     1      -4.808  22.070  48.187  1.00  0.00     0.005 C 
ATOM     20  C   UNL     1      -3.972  23.012  49.117  1.00  0.00     0.003 C 
ATOM     21  C   UNL     1      -1.737  24.040  49.596  1.00  0.00     0.031 C 
ATOM     22  C   UNL     1      -4.695  24.383  49.547  1.00  0.00    -0.008 C 
ATOM     23  C   UNL     1      -2.370  25.376  49.764  1.00  0.00    -0.027 C 
ATOM     24  C   UNL     1      -3.706  25.540  49.792  1.00  0.00    -0.065 C 
ATOM     25  C   UNL     1      -5.722  24.882  48.473  1.00  0.00     0.014 C 
ATOM     26  C   UNL     1      -5.456  24.107  50.870  1.00  0.00     0.016 C 
ATOM     27  C   UNL     1      -4.250  26.937  50.026  1.00  0.00     0.063 C 
ATOM     28  C   UNL     1      -6.302  26.283  48.734  1.00  0.00     0.033 C 
ATOM     29  C   UNL     1      -5.196  27.333  48.893  1.00  0.00     0.118 C 
BRANCH  29  30
ATOM     30  O   UNL     1      -5.763  28.585  49.184  1.00  0.00    -0.393 OA
ATOM     31  H   UNL     1      -6.124  28.529  50.110  1.00  0.00     0.210 HD
ENDBRANCH  29  30
ENDBRANCH   9  11
ENDBRANCH   1   9
TORSDOF 7
ENDMDL
MODEL 2
REMARK VINA RESULT:    -7.557      3.562      8.938
REMARK INTER + INTRA:         -11.272
REMARK INTER:                  -8.946
REMARK INTRA:                  -2.326
REMARK UNBOUND:                -0.843
REMARK SMILES CC[C@H](CC[C@H](C)[C@@H]1CC[C@H]2[C@@H]3CC=C4C[C@H](O)CC[C@@]4(C)[C@H]3CC[C@]21C)C(C)C
REMARK SMILES IDX 5 1 4 2 3 3 2 4 1 5 28 6 29 7 30 8 6 9 7 10 8 11 9 12 26 13
REMARK SMILES IDX 10 14 11 15 25 16 27 17 12 18 24 19 23 20 13 21 21 22 14 23
REMARK SMILES IDX 15 24 20 25 22 26 16 27 19 28 17 29 18 30
REMARK H PARENT 18 31
REMARK Flexibility Score: inf
ROOT
ATOM      1  C   UNL     1      -4.753  27.821  51.165  1.00  0.00     0.004 C 
ENDROOT
BRANCH   1   2
ATOM      2  C   UNL     1      -3.820  28.936  50.631  1.00  0.00     0.004 C 
BRANCH   2   3
ATOM      3  C   UNL     1      -3.607  28.898  49.084  1.00  0.00    -0.009 C 
BRANCH   3   4
ATOM      4  C   UNL     1      -4.046  30.258  48.470  1.00  0.00     0.000 C 
ATOM      5  C   UNL     1      -5.392  30.775  48.979  1.00  0.00     0.004 C 
ENDBRANCH   3   4
BRANCH   3   6
ATOM      6  C   UNL     1      -2.159  28.475  48.644  1.00  0.00    -0.014 C 
ATOM      7  C   UNL     1      -1.216  28.110  49.804  1.00  0.00     0.007 C 
ATOM      8  C   UNL     1      -2.158  27.351  47.598  1.00  0.00     0.007 C 
ENDBRANCH   3   6
ENDBRANCH   2   3
ENDBRANCH   1   2
BRANCH   1   9
ATOM      9  C   UNL     1      -5.472  27.008  50.048  1.00  0.00    -0.011 C 
ATOM     10  C   UNL     1      -6.977  27.368  50.035  1.00  0.00     0.008 C 
BRANCH   9  11
ATOM     11  C   UNL     1      -5.310  25.437  50.164  1.00  0.00    -0.002 C 
ATOM     12  C   UNL     1      -4.251  24.964  51.173  1.00  0.00     0.005 C 
ATOM     13  C   UNL     1      -4.907  24.664  48.841  1.00  0.00    -0.026 C 
ATOM     14  C   UNL     1      -2.969  24.861  50.390  1.00  0.00     0.005 C 
ATOM     15  C   UNL     1      -3.369  24.396  48.981  1.00  0.00    -0.001 C 
ATOM     16  C   UNL     1      -5.689  23.326  48.816  1.00  0.00     0.007 C 
ATOM     17  C   UNL     1      -5.206  25.417  47.508  1.00  0.00     0.012 C 
ATOM     18  C   UNL     1      -2.920  22.915  48.722  1.00  0.00     0.000 C 
ATOM     19  C   UNL     1      -5.226  22.340  47.733  1.00  0.00     0.005 C 
ATOM     20  C   UNL     1      -3.675  22.283  47.525  1.00  0.00     0.003 C 
ATOM     21  C   UNL     1      -1.416  22.911  48.411  1.00  0.00     0.031 C 
ATOM     22  C   UNL     1      -3.091  20.865  47.040  1.00  0.00    -0.008 C 
ATOM     23  C   UNL     1      -0.926  21.524  48.188  1.00  0.00    -0.027 C 
ATOM     24  C   UNL     1      -1.652  20.602  47.528  1.00  0.00    -0.065 C 
ATOM     25  C   UNL     1      -3.965  19.658  47.529  1.00  0.00     0.014 C 
ATOM     26  C   UNL     1      -3.084  20.875  45.490  1.00  0.00     0.016 C 
ATOM     27  C   UNL     1      -1.037  19.234  47.305  1.00  0.00     0.063 C 
ATOM     28  C   UNL     1      -3.356  18.270  47.265  1.00  0.00     0.033 C 
ATOM     29  C   UNL     1      -1.951  18.145  47.865  1.00  0.00     0.118 C 
BRANCH  29  30
ATOM     30  O   UNL     1      -1.409  16.886  47.556  1.00  0.00    -0.393 OA
ATOM     31  H   UNL     1      -1.105  16.928  46.609  1.00  0.00     0.210 HD
ENDBRANCH  29  30
ENDBRANCH   9  11
ENDBRANCH   1   9
TORSDOF 7
ENDMDL
MODEL 3
REMARK VINA RESULT:    -7.411      2.011      3.410
REMARK INTER + INTRA:         -11.070
REMARK INTER:                  -9.708
REMARK INTRA:                  -1.362
REMARK UNBOUND:                -0.843
REMARK SMILES CC[C@H](CC[C@H](C)[C@@H]1CC[C@H]2[C@@H]3CC=C4C[C@H](O)CC[C@@]4(C)[C@H]3CC[C@]21C)C(C)C
REMARK SMILES IDX 5 1 4 2 3 3 2 4 1 5 28 6 29 7 30 8 6 9 7 10 8 11 9 12 26 13
REMARK SMILES IDX 10 14 11 15 25 16 27 17 12 18 24 19 23 20 13 21 21 22 14 23
REMARK SMILES IDX 15 24 20 25 22 26 16 27 19 28 17 29 18 30
REMARK H PARENT 18 31
REMARK Flexibility Score: inf
ROOT
ATOM      1  C   UNL     1      -2.314  19.456  47.871  1.00  0.00     0.004 C 
ENDROOT
BRANCH   1   2
ATOM      2  C   UNL     1      -2.093  18.116  47.128  1.00  0.00     0.004 C 
BRANCH   2   3
ATOM      3  C   UNL     1      -0.590  17.764  46.887  1.00  0.00    -0.009 C 
BRANCH   3   4
ATOM      4  C   UNL     1      -0.394  17.330  45.406  1.00  0.00     0.000 C 
ATOM      5  C   UNL     1      -1.676  16.875  44.707  1.00  0.00     0.004 C 
ENDBRANCH   3   4
BRANCH   3   6
ATOM      6  C   UNL     1       0.413  18.889  47.326  1.00  0.00    -0.014 C 
ATOM      7  C   UNL     1       1.798  18.381  47.763  1.00  0.00     0.007 C 
ATOM      8  C   UNL     1       0.572  19.992  46.269  1.00  0.00     0.007 C 
ENDBRANCH   3   6
ENDBRANCH   2   3
ENDBRANCH   1   2
BRANCH   1   9
ATOM      9  C   UNL     1      -3.192  20.477  47.087  1.00  0.00    -0.011 C 
ATOM     10  C   UNL     1      -3.135  20.153  45.575  1.00  0.00     0.008 C 
BRANCH   9  11
ATOM     11  C   UNL     1      -2.803  21.995  47.313  1.00  0.00    -0.002 C 
ATOM     12  C   UNL     1      -1.608  22.230  48.252  1.00  0.00     0.005 C 
ATOM     13  C   UNL     1      -3.923  22.933  47.925  1.00  0.00    -0.026 C 
ATOM     14  C   UNL     1      -2.202  22.361  49.630  1.00  0.00     0.005 C 
ATOM     15  C   UNL     1      -3.555  23.066  49.443  1.00  0.00    -0.001 C 
ATOM     16  C   UNL     1      -3.824  24.312  47.224  1.00  0.00     0.007 C 
ATOM     17  C   UNL     1      -5.387  22.420  47.767  1.00  0.00     0.012 C 
ATOM     18  C   UNL     1      -3.512  24.534  49.998  1.00  0.00     0.000 C 
ATOM     19  C   UNL     1      -4.668  25.418  47.875  1.00  0.00     0.005 C 
ATOM     20  C   UNL     1      -4.673  25.396  49.440  1.00  0.00     0.003 C 
ATOM     21  C   UNL     1      -3.632  24.478  51.528  1.00  0.00     0.031 C 
ATOM     22  C   UNL     1      -4.845  26.827  50.155  1.00  0.00    -0.008 C 
ATOM     23  C   UNL     1      -3.564  25.844  52.113  1.00  0.00    -0.027 C 
ATOM     24  C   UNL     1      -4.149  26.907  51.529  1.00  0.00    -0.065 C 
ATOM     25  C   UNL     1      -4.277  28.002  49.287  1.00  0.00     0.014 C 
ATOM     26  C   UNL     1      -6.364  27.056  50.366  1.00  0.00     0.016 C 
ATOM     27  C   UNL     1      -4.070  28.246  52.237  1.00  0.00     0.063 C 
ATOM     28  C   UNL     1      -4.234  29.367  49.995  1.00  0.00     0.033 C 
ATOM     29  C   UNL     1      -3.455  29.297  51.314  1.00  0.00     0.118 C 
BRANCH  29  30
ATOM     30  O   UNL     1      -3.486  30.547  51.955  1.00  0.00    -0.393 OA
ATOM     31  H   UNL     1      -3.762  30.380  52.897  1.00  0.00     0.210 HD
ENDBRANCH  29  30
ENDBRANCH   9  11
ENDBRANCH   1   9
TORSDOF 7
ENDMDL
MODEL 4
REMARK VINA RESULT:    -7.361      3.691     10.082
REMARK INTER + INTRA:         -11.001
REMARK INTER:                  -9.174
REMARK INTRA:                  -1.827
REMARK UNBOUND:                -0.843
REMARK SMILES CC[C@H](CC[C@H](C)[C@@H]1CC[C@H]2[C@@H]3CC=C4C[C@H](O)CC[C@@]4(C)[C@H]3CC[C@]21C)C(C)C
REMARK SMILES IDX 5 1 4 2 3 3 2 4 1 5 28 6 29 7 30 8 6 9 7 10 8 11 9 12 26 13
REMARK SMILES IDX 10 14 11 15 25 16 27 17 12 18 24 19 23 20 13 21 21 22 14 23
REMARK SMILES IDX 15 24 20 25 22 26 16 27 19 28 17 29 18 30
REMARK H PARENT 18 31
REMARK Flexibility Score: inf
ROOT
ATOM      1  C   UNL     1      -6.128  29.491  46.467  1.00  0.00     0.004 C 
ENDROOT
BRANCH   1   2
ATOM      2  C   UNL     1      -7.352  29.454  47.415  1.00  0.00     0.004 C 
BRANCH   2   3
ATOM      3  C   UNL     1      -8.282  28.217  47.205  1.00  0.00    -0.009 C 
BRANCH   3   4
ATOM      4  C   UNL     1      -8.482  27.487  48.564  1.00  0.00     0.000 C 
ATOM      5  C   UNL     1      -7.254  27.501  49.475  1.00  0.00     0.004 C 
ENDBRANCH   3   4
BRANCH   3   6
ATOM      6  C   UNL     1      -9.640  28.547  46.489  1.00  0.00    -0.014 C 
ATOM      7  C   UNL     1     -10.897  28.253  47.328  1.00  0.00     0.007 C 
ATOM      8  C   UNL     1      -9.697  29.984  45.951  1.00  0.00     0.007 C 
ENDBRANCH   3   6
ENDBRANCH   2   3
ENDBRANCH   1   2
BRANCH   1   9
ATOM      9  C   UNL     1      -4.793  29.052  47.140  1.00  0.00    -0.011 C 
ATOM     10  C   UNL     1      -3.773  30.214  47.068  1.00  0.00     0.008 C 
BRANCH   9  11
ATOM     11  C   UNL     1      -4.142  27.745  46.528  1.00  0.00    -0.002 C 
ATOM     12  C   UNL     1      -5.031  26.975  45.537  1.00  0.00     0.005 C 
ATOM     13  C   UNL     1      -3.704  26.621  47.555  1.00  0.00    -0.026 C 
ATOM     14  C   UNL     1      -5.801  25.988  46.373  1.00  0.00     0.005 C 
ATOM     15  C   UNL     1      -4.849  25.552  47.498  1.00  0.00    -0.001 C 
ATOM     16  C   UNL     1      -2.371  26.011  47.052  1.00  0.00     0.007 C 
ATOM     17  C   UNL     1      -3.486  27.102  49.023  1.00  0.00     0.012 C 
ATOM     18  C   UNL     1      -4.374  24.069  47.298  1.00  0.00     0.000 C 
ATOM     19  C   UNL     1      -1.937  24.736  47.791  1.00  0.00     0.005 C 
ATOM     20  C   UNL     1      -3.106  23.751  48.131  1.00  0.00     0.003 C 
ATOM     21  C   UNL     1      -5.505  23.133  47.748  1.00  0.00     0.031 C 
ATOM     22  C   UNL     1      -2.711  22.193  48.178  1.00  0.00    -0.008 C 
ATOM     23  C   UNL     1      -5.121  21.709  47.548  1.00  0.00    -0.027 C 
ATOM     24  C   UNL     1      -3.875  21.260  47.785  1.00  0.00    -0.065 C 
ATOM     25  C   UNL     1      -1.512  21.850  47.227  1.00  0.00     0.014 C 
ATOM     26  C   UNL     1      -2.297  21.867  49.635  1.00  0.00     0.016 C 
ATOM     27  C   UNL     1      -3.602  19.779  47.607  1.00  0.00     0.063 C 
ATOM     28  C   UNL     1      -1.213  20.348  47.079  1.00  0.00     0.033 C 
ATOM     29  C   UNL     1      -2.451  19.566  46.624  1.00  0.00     0.118 C 
BRANCH  29  30
ATOM     30  O   UNL     1      -2.153  18.196  46.555  1.00  0.00    -0.393 OA
ATOM     31  H   UNL     1      -2.988  17.733  46.273  1.00  0.00     0.210 HD
ENDBRANCH  29  30
ENDBRANCH   9  11
ENDBRANCH   1   9
TORSDOF 7
ENDMDL
MODEL 5
REMARK VINA RESULT:    -7.333      1.923      3.611
REMARK INTER + INTRA:         -10.963
REMARK INTER:                  -9.752
REMARK INTRA:                  -1.211
REMARK UNBOUND:                -0.843
REMARK SMILES CC[C@H](CC[C@H](C)[C@@H]1CC[C@H]2[C@@H]3CC=C4C[C@H](O)CC[C@@]4(C)[C@H]3CC[C@]21C)C(C)C
REMARK SMILES IDX 5 1 4 2 3 3 2 4 1 5 28 6 29 7 30 8 6 9 7 10 8 11 9 12 26 13
REMARK SMILES IDX 10 14 11 15 25 16 27 17 12 18 24 19 23 20 13 21 21 22 14 23
REMARK SMILES IDX 15 24 20 25 22 26 16 27 19 28 17 29 18 30
REMARK H PARENT 18 31
REMARK Flexibility Score: inf
ROOT
ATOM      1  C   UNL     1      -3.042  19.000  47.113  1.00  0.00     0.004 C 
ENDROOT
BRANCH   1   2
ATOM      2  C   UNL     1      -1.830  19.223  46.176  1.00  0.00     0.004 C 
BRANCH   2   3
ATOM      3  C   UNL     1      -0.595  18.328  46.511  1.00  0.00    -0.009 C 
BRANCH   3   4
ATOM      4  C   UNL     1      -0.483  17.189  45.458  1.00  0.00     0.000 C 
ATOM      5  C   UNL     1      -1.786  16.887  44.715  1.00  0.00     0.004 C 
ENDBRANCH   3   4
BRANCH   3   6
ATOM      6  C   UNL     1       0.748  19.124  46.686  1.00  0.00    -0.014 C 
ATOM      7  C   UNL     1       0.573  20.600  47.086  1.00  0.00     0.007 C 
ATOM      8  C   UNL     1       1.728  18.437  47.647  1.00  0.00     0.007 C 
ENDBRANCH   3   6
ENDBRANCH   2   3
ENDBRANCH   1   2
BRANCH   1   9
ATOM      9  C   UNL     1      -2.912  19.705  48.496  1.00  0.00    -0.011 C 
ATOM     10  C   UNL     1      -3.054  18.656  49.626  1.00  0.00     0.008 C 
BRANCH   9  11
ATOM     11  C   UNL     1      -3.944  20.881  48.740  1.00  0.00    -0.002 C 
ATOM     12  C   UNL     1      -5.061  20.997  47.689  1.00  0.00     0.005 C 
ATOM     13  C   UNL     1      -3.351  22.349  48.788  1.00  0.00    -0.026 C 
ATOM     14  C   UNL     1      -4.522  21.925  46.633  1.00  0.00     0.005 C 
ATOM     15  C   UNL     1      -3.658  22.956  47.376  1.00  0.00    -0.001 C 
ATOM     16  C   UNL     1      -4.110  23.132  49.889  1.00  0.00     0.007 C 
ATOM     17  C   UNL     1      -1.825  22.445  49.098  1.00  0.00     0.012 C 
ATOM     18  C   UNL     1      -4.342  24.369  47.387  1.00  0.00     0.000 C 
ATOM     19  C   UNL     1      -3.837  24.644  49.896  1.00  0.00     0.005 C 
ATOM     20  C   UNL     1      -3.740  25.294  48.476  1.00  0.00     0.003 C 
ATOM     21  C   UNL     1      -4.128  25.022  46.014  1.00  0.00     0.031 C 
ATOM     22  C   UNL     1      -4.208  26.830  48.380  1.00  0.00    -0.008 C 
ATOM     23  C   UNL     1      -4.787  26.355  45.956  1.00  0.00    -0.027 C 
ATOM     24  C   UNL     1      -4.789  27.203  47.001  1.00  0.00    -0.065 C 
ATOM     25  C   UNL     1      -5.299  27.191  49.447  1.00  0.00     0.014 C 
ATOM     26  C   UNL     1      -2.957  27.709  48.634  1.00  0.00     0.016 C 
ATOM     27  C   UNL     1      -5.438  28.561  46.819  1.00  0.00     0.063 C 
ATOM     28  C   UNL     1      -5.928  28.585  49.283  1.00  0.00     0.033 C 
ATOM     29  C   UNL     1      -6.516  28.780  47.880  1.00  0.00     0.118 C 
BRANCH  29  30
ATOM     30  O   UNL     1      -7.030  30.081  47.753  1.00  0.00    -0.393 OA
ATOM     31  H   UNL     1      -8.011  29.991  47.614  1.00  0.00     0.210 HD
ENDBRANCH  29  30
ENDBRANCH   9  11
ENDBRANCH   1   9
TORSDOF 7
ENDMDL
MODEL 6
REMARK VINA RESULT:    -7.288      4.936      9.138
REMARK INTER + INTRA:         -10.900
REMARK INTER:                  -8.976
REMARK INTRA:                  -1.924
REMARK UNBOUND:                -0.843
REMARK SMILES CC[C@H](CC[C@H](C)[C@@H]1CC[C@H]2[C@@H]3CC=C4C[C@H](O)CC[C@@]4(C)[C@H]3CC[C@]21C)C(C)C
REMARK SMILES IDX 5 1 4 2 3 3 2 4 1 5 28 6 29 7 30 8 6 9 7 10 8 11 9 12 26 13
REMARK SMILES IDX 10 14 11 15 25 16 27 17 12 18 24 19 23 20 13 21 21 22 14 23
REMARK SMILES IDX 15 24 20 25 22 26 16 27 19 28 17 29 18 30
REMARK H PARENT 18 31
REMARK Flexibility Score: inf
ROOT
ATOM      1  C   UNL     1      -5.706  24.816  50.031  1.00  0.00     0.004 C 
ENDROOT
BRANCH   1   2
ATOM      2  C   UNL     1      -6.114  24.064  48.740  1.00  0.00     0.004 C 
BRANCH   2   3
ATOM      3  C   UNL     1      -4.928  23.346  48.021  1.00  0.00    -0.009 C 
BRANCH   3   4
ATOM      4  C   UNL     1      -5.318  21.867  47.737  1.00  0.00     0.000 C 
ATOM      5  C   UNL     1      -4.218  20.852  48.056  1.00  0.00     0.004 C 
ENDBRANCH   3   4
BRANCH   3   6
ATOM      6  C   UNL     1      -4.406  24.091  46.741  1.00  0.00    -0.014 C 
ATOM      7  C   UNL     1      -5.330  25.208  46.225  1.00  0.00     0.007 C 
ATOM      8  C   UNL     1      -2.978  24.630  46.905  1.00  0.00     0.007 C 
ENDBRANCH   3   6
ENDBRANCH   2   3
ENDBRANCH   1   2
BRANCH   1   9
ATOM      9  C   UNL     1      -4.812  26.067  49.779  1.00  0.00    -0.011 C 
ATOM     10  C   UNL     1      -3.621  26.058  50.767  1.00  0.00     0.008 C 
BRANCH   9  11
ATOM     11  C   UNL     1      -5.570  27.453  49.884  1.00  0.00    -0.002 C 
ATOM     12  C   UNL     1      -7.100  27.354  50.004  1.00  0.00     0.005 C 
ATOM     13  C   UNL     1      -5.375  28.463  48.679  1.00  0.00    -0.026 C 
ATOM     14  C   UNL     1      -7.614  27.381  48.589  1.00  0.00     0.005 C 
ATOM     15  C   UNL     1      -6.673  28.315  47.813  1.00  0.00    -0.001 C 
ATOM     16  C   UNL     1      -5.280  29.893  49.269  1.00  0.00     0.007 C 
ATOM     17  C   UNL     1      -4.109  28.223  47.801  1.00  0.00     0.012 C 
ATOM     18  C   UNL     1      -7.389  29.662  47.441  1.00  0.00     0.000 C 
ATOM     19  C   UNL     1      -5.346  31.018  48.223  1.00  0.00     0.005 C 
ATOM     20  C   UNL     1      -6.374  30.773  47.069  1.00  0.00     0.003 C 
ATOM     21  C   UNL     1      -8.304  29.407  46.234  1.00  0.00     0.031 C 
ATOM     22  C   UNL     1      -7.034  32.094  46.434  1.00  0.00    -0.008 C 
ATOM     23  C   UNL     1      -9.037  30.646  45.857  1.00  0.00    -0.027 C 
ATOM     24  C   UNL     1      -8.461  31.862  45.896  1.00  0.00    -0.065 C 
ATOM     25  C   UNL     1      -7.122  33.274  47.463  1.00  0.00     0.014 C 
ATOM     26  C   UNL     1      -6.135  32.535  45.250  1.00  0.00     0.016 C 
ATOM     27  C   UNL     1      -9.277  33.055  45.435  1.00  0.00     0.063 C 
ATOM     28  C   UNL     1      -7.917  34.498  46.977  1.00  0.00     0.033 C 
ATOM     29  C   UNL     1      -9.335  34.114  46.535  1.00  0.00     0.118 C 
BRANCH  29  30
ATOM     30  O   UNL     1     -10.007  35.247  46.048  1.00  0.00    -0.393 OA
ATOM     31  H   UNL     1     -10.884  35.286  46.520  1.00  0.00     0.210 HD
ENDBRANCH  29  30
ENDBRANCH   9  11
ENDBRANCH   1   9
TORSDOF 7
ENDMDL
MODEL 7
REMARK VINA RESULT:    -7.264      2.056      4.537
REMARK INTER + INTRA:         -10.868
REMARK INTER:                 -10.181
REMARK INTRA:                  -0.687
REMARK UNBOUND:                -0.843
REMARK SMILES CC[C@H](CC[C@H](C)[C@@H]1CC[C@H]2[C@@H]3CC=C4C[C@H](O)CC[C@@]4(C)[C@H]3CC[C@]21C)C(C)C
REMARK SMILES IDX 5 1 4 2 3 3 2 4 1 5 28 6 29 7 30 8 6 9 7 10 8 11 9 12 26 13
REMARK SMILES IDX 10 14 11 15 25 16 27 17 12 18 24 19 23 20 13 21 21 22 14 23
REMARK SMILES IDX 15 24 20 25 22 26 16 27 19 28 17 29 18 30
REMARK H PARENT 18 31
REMARK Flexibility Score: inf
ROOT
ATOM      1  C   UNL     1      -2.376  20.986  47.552  1.00  0.00     0.004 C 
ENDROOT
BRANCH   1   2
ATOM      2  C   UNL     1      -2.599  20.009  46.371  1.00  0.00     0.004 C 
BRANCH   2   3
ATOM      3  C   UNL     1      -1.493  18.915  46.235  1.00  0.00    -0.009 C 
BRANCH   3   4
ATOM      4  C   UNL     1      -0.399  19.151  47.317  1.00  0.00     0.000 C 
ATOM      5  C   UNL     1       0.989  18.637  46.932  1.00  0.00     0.004 C 
ENDBRANCH   3   4
BRANCH   3   6
ATOM      6  C   UNL     1      -2.040  17.443  46.239  1.00  0.00    -0.014 C 
ATOM      7  C   UNL     1      -2.348  16.875  47.636  1.00  0.00     0.007 C 
ATOM      8  C   UNL     1      -3.255  17.255  45.320  1.00  0.00     0.007 C 
ENDBRANCH   3   6
ENDBRANCH   2   3
ENDBRANCH   1   2
BRANCH   1   9
ATOM      9  C   UNL     1      -3.414  20.835  48.704  1.00  0.00    -0.011 C 
ATOM     10  C   UNL     1      -4.222  19.530  48.503  1.00  0.00     0.008 C 
BRANCH   9  11
ATOM     11  C   UNL     1      -4.415  22.053  48.856  1.00  0.00    -0.002 C 
ATOM     12  C   UNL     1      -5.502  22.144  47.773  1.00  0.00     0.005 C 
ATOM     13  C   UNL     1      -3.778  23.503  48.841  1.00  0.00    -0.026 C 
ATOM     14  C   UNL     1      -4.908  22.997  46.683  1.00  0.00     0.005 C 
ATOM     15  C   UNL     1      -4.031  24.041  47.391  1.00  0.00    -0.001 C 
ATOM     16  C   UNL     1      -4.538  24.367  49.878  1.00  0.00     0.007 C 
ATOM     17  C   UNL     1      -2.257  23.571  49.185  1.00  0.00     0.012 C 
ATOM     18  C   UNL     1      -4.671  25.472  47.308  1.00  0.00     0.000 C 
ATOM     19  C   UNL     1      -4.219  25.869  49.811  1.00  0.00     0.005 C 
ATOM     20  C   UNL     1      -4.067  26.437  48.361  1.00  0.00     0.003 C 
ATOM     21  C   UNL     1      -4.404  26.043  45.908  1.00  0.00     0.031 C 
ATOM     22  C   UNL     1      -4.485  27.978  48.170  1.00  0.00    -0.008 C 
ATOM     23  C   UNL     1      -5.019  27.389  45.761  1.00  0.00    -0.027 C 
ATOM     24  C   UNL     1      -5.020  28.293  46.759  1.00  0.00    -0.065 C 
ATOM     25  C   UNL     1      -5.589  28.429  49.188  1.00  0.00     0.014 C 
ATOM     26  C   UNL     1      -3.213  28.832  48.409  1.00  0.00     0.016 C 
ATOM     27  C   UNL     1      -5.622  29.658  46.487  1.00  0.00     0.063 C 
ATOM     28  C   UNL     1      -6.170  29.831  48.932  1.00  0.00     0.033 C 
ATOM     29  C   UNL     1      -6.718  29.966  47.506  1.00  0.00     0.118 C 
BRANCH  29  30
ATOM     30  O   UNL     1      -7.187  31.273  47.296  1.00  0.00    -0.393 OA
ATOM     31  H   UNL     1      -8.180  31.217  47.239  1.00  0.00     0.210 HD
ENDBRANCH  29  30
ENDBRANCH   9  11
ENDBRANCH   1   9
TORSDOF 7
ENDMDL
MODEL 8
REMARK VINA RESULT:    -7.260      3.762      9.531
REMARK INTER + INTRA:         -10.862
REMARK INTER:                  -8.525
REMARK INTRA:                  -2.337
REMARK UNBOUND:                -0.843
REMARK SMILES CC[C@H](CC[C@H](C)[C@@H]1CC[C@H]2[C@@H]3CC=C4C[C@H](O)CC[C@@]4(C)[C@H]3CC[C@]21C)C(C)C
REMARK SMILES IDX 5 1 4 2 3 3 2 4 1 5 28 6 29 7 30 8 6 9 7 10 8 11 9 12 26 13
REMARK SMILES IDX 10 14 11 15 25 16 27 17 12 18 24 19 23 20 13 21 21 22 14 23
REMARK SMILES IDX 15 24 20 25 22 26 16 27 19 28 17 29 18 30
REMARK H PARENT 18 31
REMARK Flexibility Score: inf
ROOT
ATOM      1  C   UNL     1      -6.043  29.129  46.284  1.00  0.00     0.004 C 
ENDROOT
BRANCH   1   2
ATOM      2  C   UNL     1      -6.376  29.272  47.789  1.00  0.00     0.004 C 
BRANCH   2   3
ATOM      3  C   UNL     1      -5.143  29.098  48.732  1.00  0.00    -0.009 C 
BRANCH   3   4
ATOM      4  C   UNL     1      -4.570  30.498  49.094  1.00  0.00     0.000 C 
ATOM      5  C   UNL     1      -5.566  31.648  48.936  1.00  0.00     0.004 C 
ENDBRANCH   3   4
BRANCH   3   6
ATOM      6  C   UNL     1      -5.421  28.212  49.999  1.00  0.00    -0.014 C 
ATOM      7  C   UNL     1      -6.770  27.472  49.982  1.00  0.00     0.007 C 
ATOM      8  C   UNL     1      -4.287  27.221  50.294  1.00  0.00     0.007 C 
ENDBRANCH   3   6
ENDBRANCH   2   3
ENDBRANCH   1   2
BRANCH   1   9
ATOM      9  C   UNL     1      -4.612  28.581  46.001  1.00  0.00    -0.011 C 
ATOM     10  C   UNL     1      -3.928  29.456  44.923  1.00  0.00     0.008 C 
BRANCH   9  11
ATOM     11  C   UNL     1      -4.561  27.063  45.555  1.00  0.00    -0.002 C 
ATOM     12  C   UNL     1      -5.873  26.283  45.743  1.00  0.00     0.005 C 
ATOM     13  C   UNL     1      -3.496  26.143  46.283  1.00  0.00    -0.026 C 
ATOM     14  C   UNL     1      -5.794  25.695  47.127  1.00  0.00     0.005 C 
ATOM     15  C   UNL     1      -4.315  25.347  47.357  1.00  0.00    -0.001 C 
ATOM     16  C   UNL     1      -2.905  25.174  45.227  1.00  0.00     0.007 C 
ATOM     17  C   UNL     1      -2.309  26.897  46.957  1.00  0.00     0.012 C 
ATOM     18  C   UNL     1      -4.090  23.794  47.357  1.00  0.00     0.000 C 
ATOM     19  C   UNL     1      -2.045  24.044  45.814  1.00  0.00     0.005 C 
ATOM     20  C   UNL     1      -2.599  23.426  47.141  1.00  0.00     0.003 C 
ATOM     21  C   UNL     1      -4.541  23.239  48.716  1.00  0.00     0.031 C 
ATOM     22  C   UNL     1      -2.253  21.874  47.382  1.00  0.00    -0.008 C 
ATOM     23  C   UNL     1      -4.381  21.760  48.761  1.00  0.00    -0.027 C 
ATOM     24  C   UNL     1      -3.327  21.134  48.205  1.00  0.00    -0.065 C 
ATOM     25  C   UNL     1      -2.081  21.082  46.040  1.00  0.00     0.014 C 
ATOM     26  C   UNL     1      -0.917  21.817  48.166  1.00  0.00     0.016 C 
ATOM     27  C   UNL     1      -3.228  19.628  48.358  1.00  0.00     0.063 C 
ATOM     28  C   UNL     1      -1.942  19.559  46.201  1.00  0.00     0.033 C 
ATOM     29  C   UNL     1      -3.117  18.962  46.987  1.00  0.00     0.118 C 
BRANCH  29  30
ATOM     30  O   UNL     1      -2.925  17.582  47.159  1.00  0.00    -0.393 OA
ATOM     31  H   UNL     1      -1.975  17.454  47.429  1.00  0.00     0.210 HD
ENDBRANCH  29  30
ENDBRANCH   9  11
ENDBRANCH   1   9
TORSDOF 7
ENDMDL
MODEL 9
REMARK VINA RESULT:    -7.060      5.761      8.142
REMARK INTER + INTRA:         -10.586
REMARK INTER:                  -8.858
REMARK INTRA:                  -1.729
REMARK UNBOUND:                -0.843
REMARK SMILES CC[C@H](CC[C@H](C)[C@@H]1CC[C@H]2[C@@H]3CC=C4C[C@H](O)CC[C@@]4(C)[C@H]3CC[C@]21C)C(C)C
REMARK SMILES IDX 5 1 4 2 3 3 2 4 1 5 28 6 29 7 30 8 6 9 7 10 8 11 9 12 26 13
REMARK SMILES IDX 10 14 11 15 25 16 27 17 12 18 24 19 23 20 13 21 21 22 14 23
REMARK SMILES IDX 15 24 20 25 22 26 16 27 19 28 17 29 18 30
REMARK H PARENT 18 31
REMARK Flexibility Score: inf
ROOT
ATOM      1  C   UNL     1      -4.379  23.664  50.007  1.00  0.00     0.004 C 
ENDROOT
BRANCH   1   2
ATOM      2  C   UNL     1      -4.908  24.315  51.309  1.00  0.00     0.004 C 
BRANCH   2   3
ATOM      3  C   UNL     1      -3.784  24.814  52.272  1.00  0.00    -0.009 C 
BRANCH   3   4
ATOM      4  C   UNL     1      -2.423  24.197  51.838  1.00  0.00     0.000 C 
ATOM      5  C   UNL     1      -1.633  23.548  52.975  1.00  0.00     0.004 C 
ENDBRANCH   3   4
BRANCH   3   6
ATOM      6  C   UNL     1      -3.718  26.375  52.429  1.00  0.00    -0.014 C 
ATOM      7  C   UNL     1      -3.900  26.884  53.870  1.00  0.00     0.007 C 
ATOM      8  C   UNL     1      -2.447  26.983  51.818  1.00  0.00     0.007 C 
ENDBRANCH   3   6
ENDBRANCH   2   3
ENDBRANCH   1   2
BRANCH   1   9
ATOM      9  C   UNL     1      -5.382  23.722  48.817  1.00  0.00    -0.011 C 
ATOM     10  C   UNL     1      -5.354  22.377  48.052  1.00  0.00     0.008 C 
BRANCH   9  11
ATOM     11  C   UNL     1      -5.133  24.910  47.800  1.00  0.00    -0.002 C 
ATOM     12  C   UNL     1      -3.658  25.281  47.577  1.00  0.00     0.005 C 
ATOM     13  C   UNL     1      -5.798  26.303  48.157  1.00  0.00    -0.026 C 
ATOM     14  C   UNL     1      -3.351  26.334  48.609  1.00  0.00     0.005 C 
ATOM     15  C   UNL     1      -4.636  27.161  48.767  1.00  0.00    -0.001 C 
ATOM     16  C   UNL     1      -6.304  26.940  46.838  1.00  0.00     0.007 C 
ATOM     17  C   UNL     1      -7.000  26.238  49.149  1.00  0.00     0.012 C 
ATOM     18  C   UNL     1      -4.468  28.596  48.154  1.00  0.00     0.000 C 
ATOM     19  C   UNL     1      -6.746  28.406  46.969  1.00  0.00     0.005 C 
ATOM     20  C   UNL     1      -5.836  29.279  47.897  1.00  0.00     0.003 C 
ATOM     21  C   UNL     1      -3.668  29.456  49.143  1.00  0.00     0.031 C 
ATOM     22  C   UNL     1      -5.743  30.837  47.512  1.00  0.00    -0.008 C 
ATOM     23  C   UNL     1      -3.449  30.822  48.597  1.00  0.00    -0.027 C 
ATOM     24  C   UNL     1      -4.395  31.479  47.900  1.00  0.00    -0.065 C 
ATOM     25  C   UNL     1      -5.942  31.088  45.978  1.00  0.00     0.014 C 
ATOM     26  C   UNL     1      -6.869  31.570  48.285  1.00  0.00     0.016 C 
ATOM     27  C   UNL     1      -4.092  32.891  47.437  1.00  0.00     0.063 C 
ATOM     28  C   UNL     1      -5.672  32.532  45.518  1.00  0.00     0.033 C 
ATOM     29  C   UNL     1      -4.270  33.002  45.923  1.00  0.00     0.118 C 
BRANCH  29  30
ATOM     30  O   UNL     1      -4.083  34.339  45.535  1.00  0.00    -0.393 OA
ATOM     31  H   UNL     1      -3.707  34.322  44.613  1.00  0.00     0.210 HD
ENDBRANCH  29  30
ENDBRANCH   9  11
ENDBRANCH   1   9
TORSDOF 7
ENDMDL
