MODEL 1
REMARK VINA RESULT:    -3.794      0.000      0.000
REMARK INTER + INTRA:          -6.870
REMARK INTER:                  -6.013
REMARK INTRA:                  -0.857
REMARK UNBOUND:                -0.857
REMARK SMILES CCCCCCCCCCCC(=O)[O-]
REMARK SMILES IDX 7 1 8 2 9 3 10 4 11 5 12 6 13 7 14 8 6 9 5 10 4 11 3 12 2 13
REMARK SMILES IDX 1 14
REMARK H PARENT
REMARK Flexibility Score: inf
ROOT
ATOM      1  C   UNL     1     -19.806   3.560 -25.617  1.00  0.00     0.000 C 
ENDROOT
BRANCH   1   2
ATOM      2  C   UNL     1     -21.228   3.719 -26.182  1.00  0.00     0.000 C 
BRANCH   2   3
ATOM      3  C   UNL     1     -21.828   2.450 -26.821  1.00  0.00     0.000 C 
BRANCH   3   4
ATOM      4  C   UNL     1     -21.537   1.139 -26.068  1.00  0.00     0.006 C 
BRANCH   4   5
ATOM      5  C   UNL     1     -20.638   0.184 -26.861  1.00  0.00     0.053 C 
BRANCH   5   6
ATOM      6  C   UNL     1     -19.518  -0.313 -26.003  1.00  0.00     0.041 C 
ATOM      7  O   UNL     1     -19.424   0.062 -24.803  1.00  0.00    -0.550 OA
ATOM      8  O   UNL     1     -18.606  -1.229 -26.510  1.00  0.00    -0.550 OA
ENDBRANCH   5   6
ENDBRANCH   4   5
ENDBRANCH   3   4
ENDBRANCH   2   3
ENDBRANCH   1   2
BRANCH   1   9
ATOM      9  C   UNL     1     -19.741   3.767 -24.095  1.00  0.00     0.000 C 
BRANCH   9  10
ATOM     10  C   UNL     1     -21.131   3.965 -23.467  1.00  0.00    -0.000 C 
BRANCH  10  11
ATOM     11  C   UNL     1     -21.239   3.356 -22.060  1.00  0.00    -0.000 C 
BRANCH  11  12
ATOM     12  C   UNL     1     -21.387   4.456 -20.998  1.00  0.00    -0.000 C 
BRANCH  12  13
ATOM     13  C   UNL     1     -20.402   4.286 -19.830  1.00  0.00    -0.003 C 
ATOM     14  C   UNL     1     -19.742   2.908 -19.808  1.00  0.00     0.004 C 
ENDBRANCH  12  13
ENDBRANCH  11  12
ENDBRANCH  10  11
ENDBRANCH   9  10
ENDBRANCH   1   9
TORSDOF 10
ENDMDL
MODEL 2
REMARK VINA RESULT:    -3.707      1.477      2.746
REMARK INTER + INTRA:          -6.731
REMARK INTER:                  -5.275
REMARK INTRA:                  -1.457
REMARK UNBOUND:                -0.857
REMARK SMILES CCCCCCCCCCCC(=O)[O-]
REMARK SMILES IDX 7 1 8 2 9 3 10 4 11 5 12 6 13 7 14 8 6 9 5 10 4 11 3 12 2 13
REMARK SMILES IDX 1 14
REMARK H PARENT
REMARK Flexibility Score: inf
ROOT
ATOM      1  C   UNL     1     -23.940   3.222 -25.134  1.00  0.00     0.000 C 
ENDROOT
BRANCH   1   2
ATOM      2  C   UNL     1     -22.735   3.536 -26.038  1.00  0.00     0.000 C 
BRANCH   2   3
ATOM      3  C   UNL     1     -22.202   2.344 -26.860  1.00  0.00     0.000 C 
BRANCH   3   4
ATOM      4  C   UNL     1     -21.559   1.216 -26.034  1.00  0.00     0.006 C 
BRANCH   4   5
ATOM      5  C   UNL     1     -20.532   0.405 -26.833  1.00  0.00     0.053 C 
BRANCH   5   6
ATOM      6  C   UNL     1     -19.537  -0.229 -25.913  1.00  0.00     0.041 C 
ATOM      7  O   UNL     1     -18.541  -0.841 -26.381  1.00  0.00    -0.550 OA
ATOM      8  O   UNL     1     -19.681  -0.101 -24.537  1.00  0.00    -0.550 OA
ENDBRANCH   5   6
ENDBRANCH   4   5
ENDBRANCH   3   4
ENDBRANCH   2   3
ENDBRANCH   1   2
BRANCH   1   9
ATOM      9  C   UNL     1     -23.835   3.882 -23.749  1.00  0.00     0.000 C 
BRANCH   9  10
ATOM     10  C   UNL     1     -22.406   4.350 -23.424  1.00  0.00    -0.000 C 
BRANCH  10  11
ATOM     11  C   UNL     1     -21.645   3.359 -22.531  1.00  0.00    -0.000 C 
BRANCH  11  12
ATOM     12  C   UNL     1     -20.267   3.032 -23.127  1.00  0.00    -0.000 C 
BRANCH  12  13
ATOM     13  C   UNL     1     -19.728   4.159 -24.023  1.00  0.00    -0.003 C 
ATOM     14  C   UNL     1     -18.888   3.638 -25.188  1.00  0.00     0.004 C 
ENDBRANCH  12  13
ENDBRANCH  11  12
ENDBRANCH  10  11
ENDBRANCH   9  10
ENDBRANCH   1   9
TORSDOF 10
ENDMDL
MODEL 3
REMARK VINA RESULT:    -3.575     12.467     14.465
REMARK INTER + INTRA:          -6.523
REMARK INTER:                  -5.211
REMARK INTRA:                  -1.312
REMARK UNBOUND:                -0.857
REMARK SMILES CCCCCCCCCCCC(=O)[O-]
REMARK SMILES IDX 7 1 8 2 9 3 10 4 11 5 12 6 13 7 14 8 6 9 5 10 4 11 3 12 2 13
REMARK SMILES IDX 1 14
REMARK H PARENT
REMARK Flexibility Score: inf
ROOT
ATOM      1  C   UNL     1      -7.733  -3.004 -24.188  1.00  0.00     0.000 C 
ENDROOT
BRANCH   1   2
ATOM      2  C   UNL     1      -6.203  -2.973 -24.019  1.00  0.00     0.000 C 
BRANCH   2   3
ATOM      3  C   UNL     1      -5.647  -1.726 -23.301  1.00  0.00     0.000 C 
BRANCH   3   4
ATOM      4  C   UNL     1      -6.703  -0.692 -22.873  1.00  0.00     0.006 C 
BRANCH   4   5
ATOM      5  C   UNL     1      -6.404   0.717 -23.397  1.00  0.00     0.053 C 
BRANCH   5   6
ATOM      6  C   UNL     1      -6.020   1.623 -22.270  1.00  0.00     0.041 C 
ATOM      7  O   UNL     1      -5.226   1.223 -21.377  1.00  0.00    -0.550 OA
ATOM      8  O   UNL     1      -6.499   2.926 -22.231  1.00  0.00    -0.550 OA
ENDBRANCH   5   6
ENDBRANCH   4   5
ENDBRANCH   3   4
ENDBRANCH   2   3
ENDBRANCH   1   2
BRANCH   1   9
ATOM      9  C   UNL     1      -8.167  -3.193 -25.651  1.00  0.00     0.000 C 
BRANCH   9  10
ATOM     10  C   UNL     1      -7.409  -2.266 -26.617  1.00  0.00    -0.000 C 
BRANCH  10  11
ATOM     11  C   UNL     1      -8.123  -0.924 -26.834  1.00  0.00    -0.000 C 
BRANCH  11  12
ATOM     12  C   UNL     1      -9.639  -1.127 -26.982  1.00  0.00    -0.000 C 
BRANCH  12  13
ATOM     13  C   UNL     1     -10.453  -0.112 -26.163  1.00  0.00    -0.003 C 
ATOM     14  C   UNL     1      -9.977  -0.003 -24.714  1.00  0.00     0.004 C 
ENDBRANCH  12  13
ENDBRANCH  11  12
ENDBRANCH  10  11
ENDBRANCH   9  10
ENDBRANCH   1   9
TORSDOF 10
ENDMDL
MODEL 4
REMARK VINA RESULT:    -3.545     14.448     16.001
REMARK INTER + INTRA:          -6.475
REMARK INTER:                  -6.114
REMARK INTRA:                  -0.361
REMARK UNBOUND:                -0.857
REMARK SMILES CCCCCCCCCCCC(=O)[O-]
REMARK SMILES IDX 7 1 8 2 9 3 10 4 11 5 12 6 13 7 14 8 6 9 5 10 4 11 3 12 2 13
REMARK SMILES IDX 1 14
REMARK H PARENT
REMARK Flexibility Score: inf
ROOT
ATOM      1  C   UNL     1      -7.851  -6.486 -25.833  1.00  0.00     0.000 C 
ENDROOT
BRANCH   1   2
ATOM      2  C   UNL     1      -8.039  -5.018 -26.256  1.00  0.00     0.000 C 
BRANCH   2   3
ATOM      3  C   UNL     1      -7.920  -3.985 -25.117  1.00  0.00     0.000 C 
BRANCH   3   4
ATOM      4  C   UNL     1      -6.641  -3.129 -25.141  1.00  0.00     0.006 C 
BRANCH   4   5
ATOM      5  C   UNL     1      -6.843  -1.739 -24.526  1.00  0.00     0.053 C 
BRANCH   5   6
ATOM      6  C   UNL     1      -6.447  -1.744 -23.084  1.00  0.00     0.041 C 
ATOM      7  O   UNL     1      -6.894  -0.864 -22.301  1.00  0.00    -0.550 OA
ATOM      8  O   UNL     1      -5.626  -2.750 -22.590  1.00  0.00    -0.550 OA
ENDBRANCH   5   6
ENDBRANCH   4   5
ENDBRANCH   3   4
ENDBRANCH   2   3
ENDBRANCH   1   2
BRANCH   1   9
ATOM      9  C   UNL     1      -8.754  -7.453 -26.616  1.00  0.00     0.000 C 
BRANCH   9  10
ATOM     10  C   UNL     1      -9.935  -7.968 -25.777  1.00  0.00    -0.000 C 
BRANCH  10  11
ATOM     11  C   UNL     1      -9.870  -9.482 -25.525  1.00  0.00    -0.000 C 
BRANCH  11  12
ATOM     12  C   UNL     1     -10.023 -10.263 -26.839  1.00  0.00    -0.000 C 
BRANCH  12  13
ATOM     13  C   UNL     1     -11.318 -11.089 -26.887  1.00  0.00    -0.003 C 
ATOM     14  C   UNL     1     -12.350 -10.515 -27.858  1.00  0.00     0.004 C 
ENDBRANCH  12  13
ENDBRANCH  11  12
ENDBRANCH  10  11
ENDBRANCH   9  10
ENDBRANCH   1   9
TORSDOF 10
ENDMDL
MODEL 5
REMARK VINA RESULT:    -3.526     12.338     14.091
REMARK INTER + INTRA:          -6.444
REMARK INTER:                  -5.065
REMARK INTRA:                  -1.379
REMARK UNBOUND:                -0.857
REMARK SMILES CCCCCCCCCCCC(=O)[O-]
REMARK SMILES IDX 7 1 8 2 9 3 10 4 11 5 12 6 13 7 14 8 6 9 5 10 4 11 3 12 2 13
REMARK SMILES IDX 1 14
REMARK H PARENT
REMARK Flexibility Score: inf
ROOT
ATOM      1  C   UNL     1      -6.999  -1.185 -22.759  1.00  0.00     0.000 C 
ENDROOT
BRANCH   1   2
ATOM      2  C   UNL     1      -6.040  -2.331 -23.126  1.00  0.00     0.000 C 
BRANCH   2   3
ATOM      3  C   UNL     1      -6.365  -3.065 -24.443  1.00  0.00     0.000 C 
BRANCH   3   4
ATOM      4  C   UNL     1      -7.858  -3.360 -24.676  1.00  0.00     0.006 C 
BRANCH   4   5
ATOM      5  C   UNL     1      -8.122  -4.082 -26.002  1.00  0.00     0.053 C 
BRANCH   5   6
ATOM      6  C   UNL     1      -8.052  -5.565 -25.813  1.00  0.00     0.041 C 
ATOM      7  O   UNL     1      -9.103  -6.228 -25.609  1.00  0.00    -0.550 OA
ATOM      8  O   UNL     1      -6.832  -6.222 -25.913  1.00  0.00    -0.550 OA
ENDBRANCH   5   6
ENDBRANCH   4   5
ENDBRANCH   3   4
ENDBRANCH   2   3
ENDBRANCH   1   2
BRANCH   1   9
ATOM      9  C   UNL     1      -6.324   0.196 -22.803  1.00  0.00     0.000 C 
BRANCH   9  10
ATOM     10  C   UNL     1      -6.145   0.720 -24.238  1.00  0.00    -0.000 C 
BRANCH  10  11
ATOM     11  C   UNL     1      -7.470   1.159 -24.880  1.00  0.00    -0.000 C 
BRANCH  11  12
ATOM     12  C   UNL     1      -7.769   0.331 -26.139  1.00  0.00    -0.000 C 
BRANCH  12  13
ATOM     13  C   UNL     1      -9.155  -0.333 -26.095  1.00  0.00    -0.003 C 
ATOM     14  C   UNL     1      -9.908  -0.044 -24.796  1.00  0.00     0.004 C 
ENDBRANCH  12  13
ENDBRANCH  11  12
ENDBRANCH  10  11
ENDBRANCH   9  10
ENDBRANCH   1   9
TORSDOF 10
ENDMDL
MODEL 6
REMARK VINA RESULT:    -3.491     11.654     13.582
REMARK INTER + INTRA:          -6.389
REMARK INTER:                  -5.367
REMARK INTRA:                  -1.022
REMARK UNBOUND:                -0.857
REMARK SMILES CCCCCCCCCCCC(=O)[O-]
REMARK SMILES IDX 7 1 8 2 9 3 10 4 11 5 12 6 13 7 14 8 6 9 5 10 4 11 3 12 2 13
REMARK SMILES IDX 1 14
REMARK H PARENT
REMARK Flexibility Score: inf
ROOT
ATOM      1  C   UNL     1      -6.307   0.144 -24.011  1.00  0.00     0.000 C 
ENDROOT
BRANCH   1   2
ATOM      2  C   UNL     1      -6.718  -0.782 -22.853  1.00  0.00     0.000 C 
BRANCH   2   3
ATOM      3  C   UNL     1      -6.421  -2.280 -23.072  1.00  0.00     0.000 C 
BRANCH   3   4
ATOM      4  C   UNL     1      -6.601  -2.778 -24.518  1.00  0.00     0.006 C 
BRANCH   4   5
ATOM      5  C   UNL     1      -7.989  -3.377 -24.773  1.00  0.00     0.053 C 
BRANCH   5   6
ATOM      6  C   UNL     1      -7.870  -4.678 -25.501  1.00  0.00     0.041 C 
ATOM      7  O   UNL     1      -6.771  -5.021 -26.012  1.00  0.00    -0.550 OA
ATOM      8  O   UNL     1      -8.959  -5.538 -25.572  1.00  0.00    -0.550 OA
ENDBRANCH   5   6
ENDBRANCH   4   5
ENDBRANCH   3   4
ENDBRANCH   2   3
ENDBRANCH   1   2
BRANCH   1   9
ATOM      9  C   UNL     1      -7.425   1.115 -24.425  1.00  0.00     0.000 C 
BRANCH   9  10
ATOM     10  C   UNL     1      -8.379   0.508 -25.468  1.00  0.00    -0.000 C 
BRANCH  10  11
ATOM     11  C   UNL     1      -9.685  -0.010 -24.847  1.00  0.00    -0.000 C 
BRANCH  11  12
ATOM     12  C   UNL     1     -10.802  -0.078 -25.900  1.00  0.00    -0.000 C 
BRANCH  12  13
ATOM     13  C   UNL     1     -10.266  -0.364 -27.312  1.00  0.00    -0.003 C 
ATOM     14  C   UNL     1     -10.515  -1.805 -27.758  1.00  0.00     0.004 C 
ENDBRANCH  12  13
ENDBRANCH  11  12
ENDBRANCH  10  11
ENDBRANCH   9  10
ENDBRANCH   1   9
TORSDOF 10
ENDMDL
MODEL 7
REMARK VINA RESULT:    -3.478      2.763      5.716
REMARK INTER + INTRA:          -6.369
REMARK INTER:                  -5.244
REMARK INTRA:                  -1.124
REMARK UNBOUND:                -0.857
REMARK SMILES CCCCCCCCCCCC(=O)[O-]
REMARK SMILES IDX 7 1 8 2 9 3 10 4 11 5 12 6 13 7 14 8 6 9 5 10 4 11 3 12 2 13
REMARK SMILES IDX 1 14
REMARK H PARENT
REMARK Flexibility Score: inf
ROOT
ATOM      1  C   UNL     1     -22.067   3.124 -24.932  1.00  0.00     0.000 C 
ENDROOT
BRANCH   1   2
ATOM      2  C   UNL     1     -20.979   4.211 -24.873  1.00  0.00     0.000 C 
BRANCH   2   3
ATOM      3  C   UNL     1     -19.846   3.953 -23.859  1.00  0.00     0.000 C 
BRANCH   3   4
ATOM      4  C   UNL     1     -20.290   3.317 -22.529  1.00  0.00     0.006 C 
BRANCH   4   5
ATOM      5  C   UNL     1     -20.720   4.356 -21.488  1.00  0.00     0.053 C 
BRANCH   5   6
ATOM      6  C   UNL     1     -20.617   3.786 -20.108  1.00  0.00     0.041 C 
ATOM      7  O   UNL     1     -21.410   4.165 -19.205  1.00  0.00    -0.550 OA
ATOM      8  O   UNL     1     -19.680   2.799 -19.831  1.00  0.00    -0.550 OA
ENDBRANCH   5   6
ENDBRANCH   4   5
ENDBRANCH   3   4
ENDBRANCH   2   3
ENDBRANCH   1   2
BRANCH   1   9
ATOM      9  C   UNL     1     -22.235   2.524 -26.338  1.00  0.00     0.000 C 
BRANCH   9  10
ATOM     10  C   UNL     1     -21.077   2.896 -27.281  1.00  0.00    -0.000 C 
BRANCH  10  11
ATOM     11  C   UNL     1     -20.085   1.742 -27.487  1.00  0.00    -0.000 C 
BRANCH  11  12
ATOM     12  C   UNL     1     -20.664   0.421 -26.960  1.00  0.00    -0.000 C 
BRANCH  12  13
ATOM     13  C   UNL     1     -19.728  -0.278 -25.962  1.00  0.00    -0.003 C 
ATOM     14  C   UNL     1     -19.939   0.194 -24.523  1.00  0.00     0.004 C 
ENDBRANCH  12  13
ENDBRANCH  11  12
ENDBRANCH  10  11
ENDBRANCH   9  10
ENDBRANCH   1   9
TORSDOF 10
ENDMDL
MODEL 8
REMARK VINA RESULT:    -3.454     11.929     13.943
REMARK INTER + INTRA:          -6.330
REMARK INTER:                  -5.080
REMARK INTRA:                  -1.249
REMARK UNBOUND:                -0.857
REMARK SMILES CCCCCCCCCCCC(=O)[O-]
REMARK SMILES IDX 7 1 8 2 9 3 10 4 11 5 12 6 13 7 14 8 6 9 5 10 4 11 3 12 2 13
REMARK SMILES IDX 1 14
REMARK H PARENT
REMARK Flexibility Score: inf
ROOT
ATOM      1  C   UNL     1      -9.072  -0.161 -24.934  1.00  0.00     0.000 C 
ENDROOT
BRANCH   1   2
ATOM      2  C   UNL     1      -8.261   1.136 -25.104  1.00  0.00     0.000 C 
BRANCH   2   3
ATOM      3  C   UNL     1      -6.749   0.940 -25.337  1.00  0.00     0.000 C 
BRANCH   3   4
ATOM      4  C   UNL     1      -6.269  -0.522 -25.323  1.00  0.00     0.006 C 
BRANCH   4   5
ATOM      5  C   UNL     1      -5.256  -0.805 -24.209  1.00  0.00     0.053 C 
BRANCH   5   6
ATOM      6  C   UNL     1      -5.943  -1.384 -23.013  1.00  0.00     0.041 C 
ATOM      7  O   UNL     1      -5.732  -2.580 -22.677  1.00  0.00    -0.550 OA
ATOM      8  O   UNL     1      -6.778  -0.589 -22.237  1.00  0.00    -0.550 OA
ENDBRANCH   5   6
ENDBRANCH   4   5
ENDBRANCH   3   4
ENDBRANCH   2   3
ENDBRANCH   1   2
BRANCH   1   9
ATOM      9  C   UNL     1     -10.455  -0.091 -25.604  1.00  0.00     0.000 C 
BRANCH   9  10
ATOM     10  C   UNL     1     -10.405  -0.444 -27.100  1.00  0.00    -0.000 C 
BRANCH  10  11
ATOM     11  C   UNL     1      -9.132  -1.212 -27.487  1.00  0.00    -0.000 C 
BRANCH  11  12
ATOM     12  C   UNL     1      -9.344  -2.727 -27.354  1.00  0.00    -0.000 C 
BRANCH  12  13
ATOM     13  C   UNL     1      -8.109  -3.450 -26.793  1.00  0.00    -0.003 C 
ATOM     14  C   UNL     1      -8.229  -3.755 -25.300  1.00  0.00     0.004 C 
ENDBRANCH  12  13
ENDBRANCH  11  12
ENDBRANCH  10  11
ENDBRANCH   9  10
ENDBRANCH   1   9
TORSDOF 10
ENDMDL
MODEL 9
REMARK VINA RESULT:    -3.446     13.087     14.843
REMARK INTER + INTRA:          -6.317
REMARK INTER:                  -4.892
REMARK INTRA:                  -1.425
REMARK UNBOUND:                -0.857
REMARK SMILES CCCCCCCCCCCC(=O)[O-]
REMARK SMILES IDX 7 1 8 2 9 3 10 4 11 5 12 6 13 7 14 8 6 9 5 10 4 11 3 12 2 13
REMARK SMILES IDX 1 14
REMARK H PARENT
REMARK Flexibility Score: inf
ROOT
ATOM      1  C   UNL     1      -7.555  -2.414 -23.820  1.00  0.00     0.000 C 
ENDROOT
BRANCH   1   2
ATOM      2  C   UNL     1      -6.178  -2.330 -23.138  1.00  0.00     0.000 C 
BRANCH   2   3
ATOM      3  C   UNL     1      -5.437  -0.989 -23.316  1.00  0.00     0.000 C 
BRANCH   3   4
ATOM      4  C   UNL     1      -6.108   0.223 -22.646  1.00  0.00     0.006 C 
BRANCH   4   5
ATOM      5  C   UNL     1      -5.107   1.312 -22.244  1.00  0.00     0.053 C 
BRANCH   5   6
ATOM      6  C   UNL     1      -5.815   2.606 -21.993  1.00  0.00     0.041 C 
ATOM      7  O   UNL     1      -6.848   2.901 -22.651  1.00  0.00    -0.550 OA
ATOM      8  O   UNL     1      -5.364   3.464 -20.998  1.00  0.00    -0.550 OA
ENDBRANCH   5   6
ENDBRANCH   4   5
ENDBRANCH   3   4
ENDBRANCH   2   3
ENDBRANCH   1   2
BRANCH   1   9
ATOM      9  C   UNL     1      -7.458  -2.510 -25.351  1.00  0.00     0.000 C 
BRANCH   9  10
ATOM     10  C   UNL     1      -8.267  -1.412 -26.064  1.00  0.00    -0.000 C 
BRANCH  10  11
ATOM     11  C   UNL     1      -8.997  -0.481 -25.084  1.00  0.00    -0.000 C 
BRANCH  11  12
ATOM     12  C   UNL     1      -8.477   0.959 -25.207  1.00  0.00    -0.000 C 
BRANCH  12  13
ATOM     13  C   UNL     1      -7.509   1.139 -26.387  1.00  0.00    -0.003 C 
ATOM     14  C   UNL     1      -6.211   1.840 -25.986  1.00  0.00     0.004 C 
ENDBRANCH  12  13
ENDBRANCH  11  12
ENDBRANCH  10  11
ENDBRANCH   9  10
ENDBRANCH   1   9
TORSDOF 10
ENDMDL
