MODEL 1
REMARK VINA RESULT:    -5.928      0.000      0.000
REMARK INTER + INTRA:         -16.196
REMARK INTER:                 -13.552
REMARK INTRA:                  -2.644
REMARK UNBOUND:                -2.644
REMARK SMILES CCCCCCCCCCCCCCCCCCCCCCCC(=O)[O-]
REMARK SMILES IDX 13 1 14 2 15 3 16 4 17 5 18 6 19 7 20 8 21 9 22 10 23 11
REMARK SMILES IDX 24 12 25 13 26 14 12 15 11 16 10 17 9 18 8 19 7 20 6 21 5 22
REMARK SMILES IDX 4 23 3 24 2 25 1 26
REMARK H PARENT
REMARK Flexibility Score: inf
ROOT
ATOM      1  C   UNL     1      14.166  22.145  17.461  1.00  0.00     0.000 C 
ENDROOT
BRANCH   1   2
ATOM      2  C   UNL     1      15.431  22.668  16.759  1.00  0.00     0.000 C 
BRANCH   2   3
ATOM      3  C   UNL     1      15.327  22.611  15.227  1.00  0.00     0.000 C 
BRANCH   3   4
ATOM      4  C   UNL     1      14.427  21.463  14.737  1.00  0.00     0.000 C 
BRANCH   4   5
ATOM      5  C   UNL     1      14.695  21.076  13.270  1.00  0.00     0.000 C 
BRANCH   5   6
ATOM      6  C   UNL     1      15.689  21.985  12.522  1.00  0.00     0.000 C 
BRANCH   6   7
ATOM      7  C   UNL     1      16.048  21.460  11.124  1.00  0.00     0.000 C 
BRANCH   7   8
ATOM      8  C   UNL     1      17.537  21.105  11.035  1.00  0.00     0.000 C 
BRANCH   8   9
ATOM      9  C   UNL     1      17.794  20.103   9.901  1.00  0.00     0.000 C 
BRANCH   9  10
ATOM     10  C   UNL     1      18.265  20.780   8.600  1.00  0.00     0.006 C 
BRANCH  10  11
ATOM     11  C   UNL     1      19.011  19.845   7.634  1.00  0.00     0.053 C 
BRANCH  11  12
ATOM     12  C   UNL     1      20.205  20.509   7.018  1.00  0.00     0.041 C 
ATOM     13  O   UNL     1      20.212  21.755   6.837  1.00  0.00    -0.550 OA
ATOM     14  O   UNL     1      21.299  19.749   6.628  1.00  0.00    -0.550 OA
ENDBRANCH  11  12
ENDBRANCH  10  11
ENDBRANCH   9  10
ENDBRANCH   8   9
ENDBRANCH   7   8
ENDBRANCH   6   7
ENDBRANCH   5   6
ENDBRANCH   4   5
ENDBRANCH   3   4
ENDBRANCH   2   3
ENDBRANCH   1   2
BRANCH   1  15
ATOM     15  C   UNL     1      14.254  22.260  18.991  1.00  0.00     0.000 C 
BRANCH  15  16
ATOM     16  C   UNL     1      14.816  20.991  19.649  1.00  0.00     0.000 C 
BRANCH  16  17
ATOM     17  C   UNL     1      14.741  19.796  18.691  1.00  0.00     0.000 C 
BRANCH  17  18
ATOM     18  C   UNL     1      15.611  18.635  19.193  1.00  0.00    -0.000 C 
BRANCH  18  19
ATOM     19  C   UNL     1      16.645  18.167  18.154  1.00  0.00    -0.000 C 
BRANCH  19  20
ATOM     20  C   UNL     1      17.170  19.266  17.205  1.00  0.00    -0.000 C 
BRANCH  20  21
ATOM     21  C   UNL     1      16.945  18.999  15.704  1.00  0.00    -0.000 C 
BRANCH  21  22
ATOM     22  C   UNL     1      17.800  19.869  14.764  1.00  0.00    -0.000 C 
BRANCH  22  23
ATOM     23  C   UNL     1      19.293  19.469  14.741  1.00  0.00    -0.000 C 
BRANCH  23  24
ATOM     24  C   UNL     1      19.526  17.948  14.634  1.00  0.00    -0.000 C 
BRANCH  24  25
ATOM     25  C   UNL     1      20.201  17.337  15.874  1.00  0.00    -0.003 C 
ATOM     26  C   UNL     1      21.656  17.769  16.038  1.00  0.00     0.004 C 
ENDBRANCH  24  25
ENDBRANCH  23  24
ENDBRANCH  22  23
ENDBRANCH  21  22
ENDBRANCH  20  21
ENDBRANCH  19  20
ENDBRANCH  18  19
ENDBRANCH  17  18
ENDBRANCH  16  17
ENDBRANCH  15  16
ENDBRANCH   1  15
TORSDOF 22
ENDMDL
MODEL 2
REMARK VINA RESULT:    -5.790      3.037      7.169
REMARK INTER + INTRA:         -15.881
REMARK INTER:                 -13.560
REMARK INTRA:                  -2.320
REMARK UNBOUND:                -2.644
REMARK SMILES CCCCCCCCCCCCCCCCCCCCCCCC(=O)[O-]
REMARK SMILES IDX 13 1 14 2 15 3 16 4 17 5 18 6 19 7 20 8 21 9 22 10 23 11
REMARK SMILES IDX 24 12 25 13 26 14 12 15 11 16 10 17 9 18 8 19 7 20 6 21 5 22
REMARK SMILES IDX 4 23 3 24 2 25 1 26
REMARK H PARENT
REMARK Flexibility Score: inf
ROOT
ATOM      1  C   UNL     1      14.739  21.543  16.053  1.00  0.00     0.000 C 
ENDROOT
BRANCH   1   2
ATOM      2  C   UNL     1      14.569  22.699  17.053  1.00  0.00     0.000 C 
BRANCH   2   3
ATOM      3  C   UNL     1      14.081  22.226  18.432  1.00  0.00     0.000 C 
BRANCH   3   4
ATOM      4  C   UNL     1      14.147  20.696  18.590  1.00  0.00     0.000 C 
BRANCH   4   5
ATOM      5  C   UNL     1      14.809  20.259  19.910  1.00  0.00     0.000 C 
BRANCH   5   6
ATOM      6  C   UNL     1      16.342  20.116  19.859  1.00  0.00     0.000 C 
BRANCH   6   7
ATOM      7  C   UNL     1      16.861  19.691  18.477  1.00  0.00     0.000 C 
BRANCH   7   8
ATOM      8  C   UNL     1      17.833  20.732  17.909  1.00  0.00     0.000 C 
BRANCH   8   9
ATOM      9  C   UNL     1      18.106  20.471  16.421  1.00  0.00     0.000 C 
BRANCH   9  10
ATOM     10  C   UNL     1      19.450  19.760  16.176  1.00  0.00     0.006 C 
BRANCH  10  11
ATOM     11  C   UNL     1      19.371  18.577  15.196  1.00  0.00     0.053 C 
BRANCH  11  12
ATOM     12  C   UNL     1      19.866  17.304  15.811  1.00  0.00     0.041 C 
ATOM     13  O   UNL     1      19.118  16.636  16.573  1.00  0.00    -0.550 OA
ATOM     14  O   UNL     1      21.158  16.865  15.558  1.00  0.00    -0.550 OA
ENDBRANCH  11  12
ENDBRANCH  10  11
ENDBRANCH   9  10
ENDBRANCH   8   9
ENDBRANCH   7   8
ENDBRANCH   6   7
ENDBRANCH   5   6
ENDBRANCH   4   5
ENDBRANCH   3   4
ENDBRANCH   2   3
ENDBRANCH   1   2
BRANCH   1  15
ATOM     15  C   UNL     1      15.157  22.031  14.657  1.00  0.00     0.000 C 
BRANCH  15  16
ATOM     16  C   UNL     1      14.517  21.212  13.527  1.00  0.00     0.000 C 
BRANCH  16  17
ATOM     17  C   UNL     1      15.518  20.963  12.392  1.00  0.00     0.000 C 
BRANCH  17  18
ATOM     18  C   UNL     1      16.962  21.055  12.905  1.00  0.00    -0.000 C 
BRANCH  18  19
ATOM     19  C   UNL     1      17.946  20.204  12.082  1.00  0.00    -0.000 C 
BRANCH  19  20
ATOM     20  C   UNL     1      17.458  19.813  10.670  1.00  0.00    -0.000 C 
BRANCH  20  21
ATOM     21  C   UNL     1      17.840  20.798   9.548  1.00  0.00    -0.000 C 
BRANCH  21  22
ATOM     22  C   UNL     1      18.308  20.130   8.242  1.00  0.00    -0.000 C 
BRANCH  22  23
ATOM     23  C   UNL     1      19.103  21.079   7.315  1.00  0.00    -0.000 C 
BRANCH  23  24
ATOM     24  C   UNL     1      19.998  20.345   6.295  1.00  0.00    -0.000 C 
BRANCH  24  25
ATOM     25  C   UNL     1      21.314  19.820   6.893  1.00  0.00    -0.003 C 
ATOM     26  C   UNL     1      21.919  18.670   6.093  1.00  0.00     0.004 C 
ENDBRANCH  24  25
ENDBRANCH  23  24
ENDBRANCH  22  23
ENDBRANCH  21  22
ENDBRANCH  20  21
ENDBRANCH  19  20
ENDBRANCH  18  19
ENDBRANCH  17  18
ENDBRANCH  16  17
ENDBRANCH  15  16
ENDBRANCH   1  15
TORSDOF 22
ENDMDL
MODEL 3
REMARK VINA RESULT:    -5.757      6.998     12.243
REMARK INTER + INTRA:         -15.805
REMARK INTER:                 -14.705
REMARK INTRA:                  -1.099
REMARK UNBOUND:                -2.644
REMARK SMILES CCCCCCCCCCCCCCCCCCCCCCCC(=O)[O-]
REMARK SMILES IDX 13 1 14 2 15 3 16 4 17 5 18 6 19 7 20 8 21 9 22 10 23 11
REMARK SMILES IDX 24 12 25 13 26 14 12 15 11 16 10 17 9 18 8 19 7 20 6 21 5 22
REMARK SMILES IDX 4 23 3 24 2 25 1 26
REMARK H PARENT
REMARK Flexibility Score: inf
ROOT
ATOM      1  C   UNL     1      22.423  17.774   5.997  1.00  0.00     0.000 C 
ENDROOT
BRANCH   1   2
ATOM      2  C   UNL     1      21.890  19.211   6.126  1.00  0.00     0.000 C 
BRANCH   2   3
ATOM      3  C   UNL     1      20.531  19.279   6.840  1.00  0.00     0.000 C 
BRANCH   3   4
ATOM      4  C   UNL     1      20.131  20.716   7.218  1.00  0.00     0.000 C 
BRANCH   4   5
ATOM      5  C   UNL     1      18.631  20.855   7.542  1.00  0.00     0.000 C 
BRANCH   5   6
ATOM      6  C   UNL     1      18.151  20.068   8.776  1.00  0.00     0.000 C 
BRANCH   6   7
ATOM      7  C   UNL     1      17.976  20.952  10.021  1.00  0.00     0.000 C 
BRANCH   7   8
ATOM      8  C   UNL     1      16.855  20.420  10.921  1.00  0.00     0.000 C 
BRANCH   8   9
ATOM      9  C   UNL     1      15.871  21.540  11.290  1.00  0.00     0.000 C 
BRANCH   9  10
ATOM     10  C   UNL     1      15.926  21.916  12.783  1.00  0.00     0.006 C 
BRANCH  10  11
ATOM     11  C   UNL     1      15.529  20.777  13.736  1.00  0.00     0.053 C 
BRANCH  11  12
ATOM     12  C   UNL     1      16.328  20.801  15.004  1.00  0.00     0.041 C 
ATOM     13  O   UNL     1      16.023  21.597  15.930  1.00  0.00    -0.550 OA
ATOM     14  O   UNL     1      17.421  19.957  15.153  1.00  0.00    -0.550 OA
ENDBRANCH  11  12
ENDBRANCH  10  11
ENDBRANCH   9  10
ENDBRANCH   8   9
ENDBRANCH   7   8
ENDBRANCH   6   7
ENDBRANCH   5   6
ENDBRANCH   4   5
ENDBRANCH   3   4
ENDBRANCH   2   3
ENDBRANCH   1   2
BRANCH   1  15
ATOM     15  C   UNL     1      23.646  17.683   5.070  1.00  0.00     0.000 C 
BRANCH  15  16
ATOM     16  C   UNL     1      24.709  18.745   5.387  1.00  0.00     0.000 C 
BRANCH  16  17
ATOM     17  C   UNL     1      25.978  18.100   5.957  1.00  0.00     0.000 C 
BRANCH  17  18
ATOM     18  C   UNL     1      27.054  19.159   6.235  1.00  0.00    -0.000 C 
BRANCH  18  19
ATOM     19  C   UNL     1      27.924  18.823   7.460  1.00  0.00    -0.000 C 
BRANCH  19  20
ATOM     20  C   UNL     1      28.349  20.035   8.319  1.00  0.00    -0.000 C 
BRANCH  20  21
ATOM     21  C   UNL     1      29.762  19.943   8.927  1.00  0.00    -0.000 C 
BRANCH  21  22
ATOM     22  C   UNL     1      30.908  20.088   7.909  1.00  0.00    -0.000 C 
BRANCH  22  23
ATOM     23  C   UNL     1      32.205  19.362   8.333  1.00  0.00    -0.000 C 
BRANCH  23  24
ATOM     24  C   UNL     1      32.631  18.237   7.367  1.00  0.00    -0.000 C 
BRANCH  24  25
ATOM     25  C   UNL     1      31.913  16.901   7.619  1.00  0.00    -0.003 C 
ATOM     26  C   UNL     1      30.755  16.652   6.656  1.00  0.00     0.004 C 
ENDBRANCH  24  25
ENDBRANCH  23  24
ENDBRANCH  22  23
ENDBRANCH  21  22
ENDBRANCH  20  21
ENDBRANCH  19  20
ENDBRANCH  18  19
ENDBRANCH  17  18
ENDBRANCH  16  17
ENDBRANCH  15  16
ENDBRANCH   1  15
TORSDOF 22
ENDMDL
MODEL 4
REMARK VINA RESULT:    -5.709      2.478      6.576
REMARK INTER + INTRA:         -15.696
REMARK INTER:                 -13.467
REMARK INTRA:                  -2.229
REMARK UNBOUND:                -2.644
REMARK SMILES CCCCCCCCCCCCCCCCCCCCCCCC(=O)[O-]
REMARK SMILES IDX 13 1 14 2 15 3 16 4 17 5 18 6 19 7 20 8 21 9 22 10 23 11
REMARK SMILES IDX 24 12 25 13 26 14 12 15 11 16 10 17 9 18 8 19 7 20 6 21 5 22
REMARK SMILES IDX 4 23 3 24 2 25 1 26
REMARK H PARENT
REMARK Flexibility Score: inf
ROOT
ATOM      1  C   UNL     1      14.144  23.375  17.485  1.00  0.00     0.000 C 
ENDROOT
BRANCH   1   2
ATOM      2  C   UNL     1      13.908  22.816  18.898  1.00  0.00     0.000 C 
BRANCH   2   3
ATOM      3  C   UNL     1      14.005  21.283  18.955  1.00  0.00     0.000 C 
BRANCH   3   4
ATOM      4  C   UNL     1      15.120  20.794  19.897  1.00  0.00     0.000 C 
BRANCH   4   5
ATOM      5  C   UNL     1      15.797  19.502  19.403  1.00  0.00     0.000 C 
BRANCH   5   6
ATOM      6  C   UNL     1      15.170  18.870  18.147  1.00  0.00     0.000 C 
BRANCH   6   7
ATOM      7  C   UNL     1      15.845  17.553  17.736  1.00  0.00     0.000 C 
BRANCH   7   8
ATOM      8  C   UNL     1      17.119  17.817  16.924  1.00  0.00     0.000 C 
BRANCH   8   9
ATOM      9  C   UNL     1      16.830  18.750  15.739  1.00  0.00     0.000 C 
BRANCH   9  10
ATOM     10  C   UNL     1      17.958  19.769  15.492  1.00  0.00     0.006 C 
BRANCH  10  11
ATOM     11  C   UNL     1      19.369  19.233  15.787  1.00  0.00     0.053 C 
BRANCH  11  12
ATOM     12  C   UNL     1      19.694  18.023  14.965  1.00  0.00     0.041 C 
ATOM     13  O   UNL     1      20.239  17.023  15.501  1.00  0.00    -0.550 OA
ATOM     14  O   UNL     1      19.410  18.008  13.606  1.00  0.00    -0.550 OA
ENDBRANCH  11  12
ENDBRANCH  10  11
ENDBRANCH   9  10
ENDBRANCH   8   9
ENDBRANCH   7   8
ENDBRANCH   6   7
ENDBRANCH   5   6
ENDBRANCH   4   5
ENDBRANCH   3   4
ENDBRANCH   2   3
ENDBRANCH   1   2
BRANCH   1  15
ATOM     15  C   UNL     1      15.199  22.574  16.705  1.00  0.00     0.000 C 
BRANCH  15  16
ATOM     16  C   UNL     1      14.603  21.818  15.509  1.00  0.00     0.000 C 
BRANCH  16  17
ATOM     17  C   UNL     1      15.368  22.137  14.219  1.00  0.00     0.000 C 
BRANCH  17  18
ATOM     18  C   UNL     1      14.965  21.178  13.090  1.00  0.00    -0.000 C 
BRANCH  18  19
ATOM     19  C   UNL     1      15.649  21.507  11.751  1.00  0.00    -0.000 C 
BRANCH  19  20
ATOM     20  C   UNL     1      17.193  21.526  11.787  1.00  0.00    -0.000 C 
BRANCH  20  21
ATOM     21  C   UNL     1      17.875  20.202  11.393  1.00  0.00    -0.000 C 
BRANCH  21  22
ATOM     22  C   UNL     1      17.611  19.752   9.944  1.00  0.00    -0.000 C 
BRANCH  22  23
ATOM     23  C   UNL     1      18.329  20.622   8.888  1.00  0.00    -0.000 C 
BRANCH  23  24
ATOM     24  C   UNL     1      18.614  19.884   7.564  1.00  0.00    -0.000 C 
BRANCH  24  25
ATOM     25  C   UNL     1      19.968  20.249   6.932  1.00  0.00    -0.003 C 
ATOM     26  C   UNL     1      20.191  21.755   6.820  1.00  0.00     0.004 C 
ENDBRANCH  24  25
ENDBRANCH  23  24
ENDBRANCH  22  23
ENDBRANCH  21  22
ENDBRANCH  20  21
ENDBRANCH  19  20
ENDBRANCH  18  19
ENDBRANCH  17  18
ENDBRANCH  16  17
ENDBRANCH  15  16
ENDBRANCH   1  15
TORSDOF 22
ENDMDL
MODEL 5
REMARK VINA RESULT:    -5.641      6.209     10.799
REMARK INTER + INTRA:         -15.540
REMARK INTER:                 -14.235
REMARK INTRA:                  -1.304
REMARK UNBOUND:                -2.644
REMARK SMILES CCCCCCCCCCCCCCCCCCCCCCCC(=O)[O-]
REMARK SMILES IDX 13 1 14 2 15 3 16 4 17 5 18 6 19 7 20 8 21 9 22 10 23 11
REMARK SMILES IDX 24 12 25 13 26 14 12 15 11 16 10 17 9 18 8 19 7 20 6 21 5 22
REMARK SMILES IDX 4 23 3 24 2 25 1 26
REMARK H PARENT
REMARK Flexibility Score: inf
ROOT
ATOM      1  C   UNL     1      20.929  19.269   6.859  1.00  0.00     0.000 C 
ENDROOT
BRANCH   1   2
ATOM      2  C   UNL     1      22.262  19.115   6.106  1.00  0.00     0.000 C 
BRANCH   2   3
ATOM      3  C   UNL     1      22.533  17.667   5.667  1.00  0.00     0.000 C 
BRANCH   3   4
ATOM      4  C   UNL     1      24.028  17.391   5.429  1.00  0.00     0.000 C 
BRANCH   4   5
ATOM      5  C   UNL     1      24.870  18.678   5.349  1.00  0.00     0.000 C 
BRANCH   5   6
ATOM      6  C   UNL     1      26.122  18.700   6.246  1.00  0.00     0.000 C 
BRANCH   6   7
ATOM      7  C   UNL     1      26.984  17.437   6.105  1.00  0.00     0.000 C 
BRANCH   7   8
ATOM      8  C   UNL     1      28.197  17.694   5.202  1.00  0.00     0.000 C 
BRANCH   8   9
ATOM      9  C   UNL     1      29.507  17.421   5.954  1.00  0.00     0.000 C 
BRANCH   9  10
ATOM     10  C   UNL     1      30.058  18.670   6.667  1.00  0.00     0.006 C 
BRANCH  10  11
ATOM     11  C   UNL     1      30.830  18.369   7.963  1.00  0.00     0.053 C 
BRANCH  11  12
ATOM     12  C   UNL     1      32.120  17.655   7.696  1.00  0.00     0.041 C 
ATOM     13  O   UNL     1      32.448  16.660   8.393  1.00  0.00    -0.550 OA
ATOM     14  O   UNL     1      32.966  18.101   6.689  1.00  0.00    -0.550 OA
ENDBRANCH  11  12
ENDBRANCH  10  11
ENDBRANCH   9  10
ENDBRANCH   8   9
ENDBRANCH   7   8
ENDBRANCH   6   7
ENDBRANCH   5   6
ENDBRANCH   4   5
ENDBRANCH   3   4
ENDBRANCH   2   3
ENDBRANCH   1   2
BRANCH   1  15
ATOM     15  C   UNL     1      20.466  20.732   6.939  1.00  0.00     0.000 C 
BRANCH  15  16
ATOM     16  C   UNL     1      18.945  20.863   7.106  1.00  0.00     0.000 C 
BRANCH  16  17
ATOM     17  C   UNL     1      18.455  20.064   8.319  1.00  0.00     0.000 C 
BRANCH  17  18
ATOM     18  C   UNL     1      18.211  20.986   9.522  1.00  0.00    -0.000 C 
BRANCH  18  19
ATOM     19  C   UNL     1      17.329  20.339  10.605  1.00  0.00    -0.000 C 
BRANCH  19  20
ATOM     20  C   UNL     1      16.058  21.132  10.981  1.00  0.00    -0.000 C 
BRANCH  20  21
ATOM     21  C   UNL     1      16.068  21.759  12.388  1.00  0.00    -0.000 C 
BRANCH  21  22
ATOM     22  C   UNL     1      15.231  20.997  13.434  1.00  0.00    -0.000 C 
BRANCH  22  23
ATOM     23  C   UNL     1      16.071  20.432  14.602  1.00  0.00    -0.000 C 
BRANCH  23  24
ATOM     24  C   UNL     1      16.913  19.197  14.221  1.00  0.00    -0.000 C 
BRANCH  24  25
ATOM     25  C   UNL     1      18.413  19.497  14.061  1.00  0.00    -0.003 C 
ATOM     26  C   UNL     1      19.308  18.369  14.567  1.00  0.00     0.004 C 
ENDBRANCH  24  25
ENDBRANCH  23  24
ENDBRANCH  22  23
ENDBRANCH  21  22
ENDBRANCH  20  21
ENDBRANCH  19  20
ENDBRANCH  18  19
ENDBRANCH  17  18
ENDBRANCH  16  17
ENDBRANCH  15  16
ENDBRANCH   1  15
TORSDOF 22
ENDMDL
MODEL 6
REMARK VINA RESULT:    -5.608     10.041     15.372
REMARK INTER + INTRA:         -15.464
REMARK INTER:                 -12.641
REMARK INTRA:                  -2.822
REMARK UNBOUND:                -2.644
REMARK SMILES CCCCCCCCCCCCCCCCCCCCCCCC(=O)[O-]
REMARK SMILES IDX 13 1 14 2 15 3 16 4 17 5 18 6 19 7 20 8 21 9 22 10 23 11
REMARK SMILES IDX 24 12 25 13 26 14 12 15 11 16 10 17 9 18 8 19 7 20 6 21 5 22
REMARK SMILES IDX 4 23 3 24 2 25 1 26
REMARK H PARENT
REMARK Flexibility Score: inf
ROOT
ATOM      1  C   UNL     1      27.333  18.687   6.299  1.00  0.00     0.000 C 
ENDROOT
BRANCH   1   2
ATOM      2  C   UNL     1      27.923  19.035   7.677  1.00  0.00     0.000 C 
BRANCH   2   3
ATOM      3  C   UNL     1      28.870  20.244   7.629  1.00  0.00     0.000 C 
BRANCH   3   4
ATOM      4  C   UNL     1      29.609  20.471   8.960  1.00  0.00     0.000 C 
BRANCH   4   5
ATOM      5  C   UNL     1      28.805  19.987  10.181  1.00  0.00     0.000 C 
BRANCH   5   6
ATOM      6  C   UNL     1      29.399  20.368  11.551  1.00  0.00     0.000 C 
BRANCH   6   7
ATOM      7  C   UNL     1      29.239  19.261  12.603  1.00  0.00     0.000 C 
BRANCH   7   8
ATOM      8  C   UNL     1      28.148  19.619  13.619  1.00  0.00     0.000 C 
BRANCH   8   9
ATOM      9  C   UNL     1      27.538  18.352  14.237  1.00  0.00     0.000 C 
BRANCH   9  10
ATOM     10  C   UNL     1      26.843  18.620  15.585  1.00  0.00     0.006 C 
BRANCH  10  11
ATOM     11  C   UNL     1      25.321  18.404  15.566  1.00  0.00     0.053 C 
BRANCH  11  12
ATOM     12  C   UNL     1      24.590  19.483  16.305  1.00  0.00     0.041 C 
ATOM     13  O   UNL     1      25.222  20.282  17.045  1.00  0.00    -0.550 OA
ATOM     14  O   UNL     1      23.211  19.594  16.190  1.00  0.00    -0.550 OA
ENDBRANCH  11  12
ENDBRANCH  10  11
ENDBRANCH   9  10
ENDBRANCH   8   9
ENDBRANCH   7   8
ENDBRANCH   6   7
ENDBRANCH   5   6
ENDBRANCH   4   5
ENDBRANCH   3   4
ENDBRANCH   2   3
ENDBRANCH   1   2
BRANCH   1  15
ATOM     15  C   UNL     1      27.951  17.413   5.702  1.00  0.00     0.000 C 
BRANCH  15  16
ATOM     16  C   UNL     1      29.461  17.545   5.458  1.00  0.00     0.000 C 
BRANCH  16  17
ATOM     17  C   UNL     1      30.230  16.407   6.140  1.00  0.00     0.000 C 
BRANCH  17  18
ATOM     18  C   UNL     1      31.119  16.945   7.270  1.00  0.00    -0.000 C 
BRANCH  18  19
ATOM     19  C   UNL     1      31.852  18.245   6.889  1.00  0.00    -0.000 C 
BRANCH  19  20
ATOM     20  C   UNL     1      33.078  18.590   7.763  1.00  0.00    -0.000 C 
BRANCH  20  21
ATOM     21  C   UNL     1      33.137  17.870   9.124  1.00  0.00    -0.000 C 
BRANCH  21  22
ATOM     22  C   UNL     1      32.491  18.647  10.287  1.00  0.00    -0.000 C 
BRANCH  22  23
ATOM     23  C   UNL     1      33.407  19.741  10.881  1.00  0.00    -0.000 C 
BRANCH  23  24
ATOM     24  C   UNL     1      32.687  21.081  11.138  1.00  0.00    -0.000 C 
BRANCH  24  25
ATOM     25  C   UNL     1      33.191  22.233  10.253  1.00  0.00    -0.003 C 
ATOM     26  C   UNL     1      32.873  22.035   8.773  1.00  0.00     0.004 C 
ENDBRANCH  24  25
ENDBRANCH  23  24
ENDBRANCH  22  23
ENDBRANCH  21  22
ENDBRANCH  20  21
ENDBRANCH  19  20
ENDBRANCH  18  19
ENDBRANCH  17  18
ENDBRANCH  16  17
ENDBRANCH  15  16
ENDBRANCH   1  15
TORSDOF 22
ENDMDL
MODEL 7
REMARK VINA RESULT:    -5.591      7.427     12.968
REMARK INTER + INTRA:         -15.426
REMARK INTER:                 -14.085
REMARK INTRA:                  -1.340
REMARK UNBOUND:                -2.644
REMARK SMILES CCCCCCCCCCCCCCCCCCCCCCCC(=O)[O-]
REMARK SMILES IDX 13 1 14 2 15 3 16 4 17 5 18 6 19 7 20 8 21 9 22 10 23 11
REMARK SMILES IDX 24 12 25 13 26 14 12 15 11 16 10 17 9 18 8 19 7 20 6 21 5 22
REMARK SMILES IDX 4 23 3 24 2 25 1 26
REMARK H PARENT
REMARK Flexibility Score: inf
ROOT
ATOM      1  C   UNL     1      24.609  18.500   5.660  1.00  0.00     0.000 C 
ENDROOT
BRANCH   1   2
ATOM      2  C   UNL     1      26.046  17.959   5.755  1.00  0.00     0.000 C 
BRANCH   2   3
ATOM      3  C   UNL     1      27.006  18.938   6.448  1.00  0.00     0.000 C 
BRANCH   3   4
ATOM      4  C   UNL     1      28.330  18.275   6.866  1.00  0.00     0.000 C 
BRANCH   4   5
ATOM      5  C   UNL     1      28.926  17.381   5.763  1.00  0.00     0.000 C 
BRANCH   5   6
ATOM      6  C   UNL     1      30.226  16.648   6.143  1.00  0.00     0.000 C 
BRANCH   6   7
ATOM      7  C   UNL     1      31.453  17.572   6.164  1.00  0.00     0.000 C 
BRANCH   7   8
ATOM      8  C   UNL     1      32.515  17.057   7.142  1.00  0.00     0.000 C 
BRANCH   8   9
ATOM      9  C   UNL     1      32.514  17.881   8.437  1.00  0.00     0.000 C 
BRANCH   9  10
ATOM     10  C   UNL     1      31.616  19.130   8.349  1.00  0.00     0.006 C 
BRANCH  10  11
ATOM     11  C   UNL     1      30.717  19.349   9.578  1.00  0.00     0.053 C 
BRANCH  11  12
ATOM     12  C   UNL     1      30.116  20.722   9.596  1.00  0.00     0.041 C 
ATOM     13  O   UNL     1      29.009  20.935   9.038  1.00  0.00    -0.550 OA
ATOM     14  O   UNL     1      30.790  21.768  10.213  1.00  0.00    -0.550 OA
ENDBRANCH  11  12
ENDBRANCH  10  11
ENDBRANCH   9  10
ENDBRANCH   8   9
ENDBRANCH   7   8
ENDBRANCH   6   7
ENDBRANCH   5   6
ENDBRANCH   4   5
ENDBRANCH   3   4
ENDBRANCH   2   3
ENDBRANCH   1   2
BRANCH   1  15
ATOM     15  C   UNL     1      23.591  17.404   5.307  1.00  0.00     0.000 C 
BRANCH  15  16
ATOM     16  C   UNL     1      22.202  17.671   5.905  1.00  0.00     0.000 C 
BRANCH  16  17
ATOM     17  C   UNL     1      21.977  19.172   6.126  1.00  0.00     0.000 C 
BRANCH  17  18
ATOM     18  C   UNL     1      20.671  19.424   6.891  1.00  0.00    -0.000 C 
BRANCH  18  19
ATOM     19  C   UNL     1      19.924  20.679   6.405  1.00  0.00    -0.000 C 
BRANCH  19  20
ATOM     20  C   UNL     1      18.783  21.166   7.327  1.00  0.00    -0.000 C 
BRANCH  20  21
ATOM     21  C   UNL     1      18.334  20.158   8.402  1.00  0.00    -0.000 C 
BRANCH  21  22
ATOM     22  C   UNL     1      18.001  20.786   9.769  1.00  0.00    -0.000 C 
BRANCH  22  23
ATOM     23  C   UNL     1      17.262  19.823  10.726  1.00  0.00    -0.000 C 
BRANCH  23  24
ATOM     24  C   UNL     1      17.078  20.384  12.151  1.00  0.00    -0.000 C 
BRANCH  24  25
ATOM     25  C   UNL     1      15.649  20.874  12.442  1.00  0.00    -0.003 C 
ATOM     26  C   UNL     1      15.549  22.393  12.559  1.00  0.00     0.004 C 
ENDBRANCH  24  25
ENDBRANCH  23  24
ENDBRANCH  22  23
ENDBRANCH  21  22
ENDBRANCH  20  21
ENDBRANCH  19  20
ENDBRANCH  18  19
ENDBRANCH  17  18
ENDBRANCH  16  17
ENDBRANCH  15  16
ENDBRANCH   1  15
TORSDOF 22
ENDMDL
MODEL 8
REMARK VINA RESULT:    -5.579      6.243     11.573
REMARK INTER + INTRA:         -15.399
REMARK INTER:                 -14.458
REMARK INTRA:                  -0.941
REMARK UNBOUND:                -2.644
REMARK SMILES CCCCCCCCCCCCCCCCCCCCCCCC(=O)[O-]
REMARK SMILES IDX 13 1 14 2 15 3 16 4 17 5 18 6 19 7 20 8 21 9 22 10 23 11
REMARK SMILES IDX 24 12 25 13 26 14 12 15 11 16 10 17 9 18 8 19 7 20 6 21 5 22
REMARK SMILES IDX 4 23 3 24 2 25 1 26
REMARK H PARENT
REMARK Flexibility Score: inf
ROOT
ATOM      1  C   UNL     1      20.448  20.601   7.220  1.00  0.00     0.000 C 
ENDROOT
BRANCH   1   2
ATOM      2  C   UNL     1      18.918  20.770   7.230  1.00  0.00     0.000 C 
BRANCH   2   3
ATOM      3  C   UNL     1      18.243  20.000   8.376  1.00  0.00     0.000 C 
BRANCH   3   4
ATOM      4  C   UNL     1      18.316  20.751   9.718  1.00  0.00     0.000 C 
BRANCH   4   5
ATOM      5  C   UNL     1      17.181  20.363  10.683  1.00  0.00     0.000 C 
BRANCH   5   6
ATOM      6  C   UNL     1      16.387  21.545  11.271  1.00  0.00     0.000 C 
BRANCH   6   7
ATOM      7  C   UNL     1      15.442  21.128  12.408  1.00  0.00     0.000 C 
BRANCH   7   8
ATOM      8  C   UNL     1      15.250  22.270  13.413  1.00  0.00     0.000 C 
BRANCH   8   9
ATOM      9  C   UNL     1      14.463  21.792  14.641  1.00  0.00     0.000 C 
BRANCH   9  10
ATOM     10  C   UNL     1      15.092  22.250  15.970  1.00  0.00     0.006 C 
BRANCH  10  11
ATOM     11  C   UNL     1      16.271  21.384  16.444  1.00  0.00     0.053 C 
BRANCH  11  12
ATOM     12  C   UNL     1      15.904  20.531  17.620  1.00  0.00     0.041 C 
ATOM     13  O   UNL     1      16.423  20.749  18.746  1.00  0.00    -0.550 OA
ATOM     14  O   UNL     1      15.004  19.484  17.467  1.00  0.00    -0.550 OA
ENDBRANCH  11  12
ENDBRANCH  10  11
ENDBRANCH   9  10
ENDBRANCH   8   9
ENDBRANCH   7   8
ENDBRANCH   6   7
ENDBRANCH   5   6
ENDBRANCH   4   5
ENDBRANCH   3   4
ENDBRANCH   2   3
ENDBRANCH   1   2
BRANCH   1  15
ATOM     15  C   UNL     1      20.878  19.172   6.852  1.00  0.00     0.000 C 
BRANCH  15  16
ATOM     16  C   UNL     1      22.230  19.129   6.125  1.00  0.00     0.000 C 
BRANCH  16  17
ATOM     17  C   UNL     1      22.607  17.691   5.750  1.00  0.00     0.000 C 
BRANCH  17  18
ATOM     18  C   UNL     1      24.123  17.556   5.551  1.00  0.00    -0.000 C 
BRANCH  18  19
ATOM     19  C   UNL     1      24.829  18.913   5.375  1.00  0.00    -0.000 C 
BRANCH  19  20
ATOM     20  C   UNL     1      26.281  18.974   5.898  1.00  0.00    -0.000 C 
BRANCH  20  21
ATOM     21  C   UNL     1      26.944  17.606   6.152  1.00  0.00    -0.000 C 
BRANCH  21  22
ATOM     22  C   UNL     1      28.253  17.375   5.374  1.00  0.00    -0.000 C 
BRANCH  22  23
ATOM     23  C   UNL     1      29.516  17.423   6.264  1.00  0.00    -0.000 C 
BRANCH  23  24
ATOM     24  C   UNL     1      29.740  18.785   6.952  1.00  0.00    -0.000 C 
BRANCH  24  25
ATOM     25  C   UNL     1      30.735  18.729   8.123  1.00  0.00    -0.003 C 
ATOM     26  C   UNL     1      31.807  17.656   7.948  1.00  0.00     0.004 C 
ENDBRANCH  24  25
ENDBRANCH  23  24
ENDBRANCH  22  23
ENDBRANCH  21  22
ENDBRANCH  20  21
ENDBRANCH  19  20
ENDBRANCH  18  19
ENDBRANCH  17  18
ENDBRANCH  16  17
ENDBRANCH  15  16
ENDBRANCH   1  15
TORSDOF 22
ENDMDL
MODEL 9
REMARK VINA RESULT:    -5.552      3.070      6.413
REMARK INTER + INTRA:         -15.337
REMARK INTER:                 -12.687
REMARK INTRA:                  -2.649
REMARK UNBOUND:                -2.644
REMARK SMILES CCCCCCCCCCCCCCCCCCCCCCCC(=O)[O-]
REMARK SMILES IDX 13 1 14 2 15 3 16 4 17 5 18 6 19 7 20 8 21 9 22 10 23 11
REMARK SMILES IDX 24 12 25 13 26 14 12 15 11 16 10 17 9 18 8 19 7 20 6 21 5 22
REMARK SMILES IDX 4 23 3 24 2 25 1 26
REMARK H PARENT
REMARK Flexibility Score: inf
ROOT
ATOM      1  C   UNL     1      17.243  18.967  18.175  1.00  0.00     0.000 C 
ENDROOT
BRANCH   1   2
ATOM      2  C   UNL     1      18.052  20.264  18.007  1.00  0.00     0.000 C 
BRANCH   2   3
ATOM      3  C   UNL     1      18.647  20.416  16.598  1.00  0.00     0.000 C 
BRANCH   3   4
ATOM      4  C   UNL     1      18.060  19.407  15.596  1.00  0.00     0.000 C 
BRANCH   4   5
ATOM      5  C   UNL     1      19.099  18.385  15.097  1.00  0.00     0.000 C 
BRANCH   5   6
ATOM      6  C   UNL     1      20.373  18.271  15.956  1.00  0.00     0.000 C 
BRANCH   6   7
ATOM      7  C   UNL     1      21.107  16.935  15.766  1.00  0.00     0.000 C 
BRANCH   7   8
ATOM      8  C   UNL     1      22.579  17.052  16.178  1.00  0.00     0.000 C 
BRANCH   8   9
ATOM      9  C   UNL     1      23.018  18.522  16.232  1.00  0.00     0.000 C 
BRANCH   9  10
ATOM     10  C   UNL     1      24.546  18.686  16.336  1.00  0.00     0.006 C 
BRANCH  10  11
ATOM     11  C   UNL     1      25.012  20.134  16.562  1.00  0.00     0.053 C 
BRANCH  11  12
ATOM     12  C   UNL     1      25.317  20.835  15.274  1.00  0.00     0.041 C 
ATOM     13  O   UNL     1      24.951  22.027  15.100  1.00  0.00    -0.550 OA
ATOM     14  O   UNL     1      25.987  20.165  14.259  1.00  0.00    -0.550 OA
ENDBRANCH  11  12
ENDBRANCH  10  11
ENDBRANCH   9  10
ENDBRANCH   8   9
ENDBRANCH   7   8
ENDBRANCH   6   7
ENDBRANCH   5   6
ENDBRANCH   4   5
ENDBRANCH   3   4
ENDBRANCH   2   3
ENDBRANCH   1   2
BRANCH   1  15
ATOM     15  C   UNL     1      15.803  19.230  18.644  1.00  0.00     0.000 C 
BRANCH  15  16
ATOM     16  C   UNL     1      15.744  19.915  20.018  1.00  0.00     0.000 C 
BRANCH  16  17
ATOM     17  C   UNL     1      14.984  21.244  19.937  1.00  0.00     0.000 C 
BRANCH  17  18
ATOM     18  C   UNL     1      14.120  21.306  18.670  1.00  0.00    -0.000 C 
BRANCH  18  19
ATOM     19  C   UNL     1      14.241  22.648  17.926  1.00  0.00    -0.000 C 
BRANCH  19  20
ATOM     20  C   UNL     1      15.390  22.732  16.898  1.00  0.00    -0.000 C 
BRANCH  20  21
ATOM     21  C   UNL     1      15.309  21.718  15.740  1.00  0.00    -0.000 C 
BRANCH  21  22
ATOM     22  C   UNL     1      15.546  22.323  14.343  1.00  0.00    -0.000 C 
BRANCH  22  23
ATOM     23  C   UNL     1      15.478  21.282  13.202  1.00  0.00    -0.000 C 
BRANCH  23  24
ATOM     24  C   UNL     1      15.844  21.854  11.817  1.00  0.00    -0.000 C 
BRANCH  24  25
ATOM     25  C   UNL     1      16.995  21.106  11.124  1.00  0.00    -0.003 C 
ATOM     26  C   UNL     1      17.728  20.141  12.053  1.00  0.00     0.004 C 
ENDBRANCH  24  25
ENDBRANCH  23  24
ENDBRANCH  22  23
ENDBRANCH  21  22
ENDBRANCH  20  21
ENDBRANCH  19  20
ENDBRANCH  18  19
ENDBRANCH  17  18
ENDBRANCH  16  17
ENDBRANCH  15  16
ENDBRANCH   1  15
TORSDOF 22
ENDMDL
