MODEL 1
REMARK VINA RESULT:    -3.481      0.000      0.000
REMARK INTER + INTRA:         -11.040
REMARK INTER:                  -7.958
REMARK INTRA:                  -3.082
REMARK UNBOUND:                -3.082
REMARK SMILES CCCCCCCCCCCCCCCCCCCCCCCC(=O)[O-]
REMARK SMILES IDX 13 1 14 2 15 3 16 4 17 5 18 6 19 7 20 8 21 9 22 10 23 11
REMARK SMILES IDX 24 12 25 13 26 14 12 15 11 16 10 17 9 18 8 19 7 20 6 21 5 22
REMARK SMILES IDX 4 23 3 24 2 25 1 26
REMARK H PARENT
REMARK Flexibility Score: inf
ROOT
ATOM      1  C   UNL     1      50.444  47.357  15.575  1.00  0.00     0.000 C 
ENDROOT
BRANCH   1   2
ATOM      2  C   UNL     1      50.059  48.794  15.185  1.00  0.00     0.000 C 
BRANCH   2   3
ATOM      3  C   UNL     1      49.061  48.850  14.013  1.00  0.00     0.000 C 
BRANCH   3   4
ATOM      4  C   UNL     1      49.358  49.931  12.956  1.00  0.00     0.000 C 
BRANCH   4   5
ATOM      5  C   UNL     1      50.389  49.476  11.909  1.00  0.00     0.000 C 
BRANCH   5   6
ATOM      6  C   UNL     1      51.768  50.125  12.111  1.00  0.00     0.000 C 
BRANCH   6   7
ATOM      7  C   UNL     1      52.811  49.134  12.656  1.00  0.00     0.000 C 
BRANCH   7   8
ATOM      8  C   UNL     1      53.447  49.610  13.971  1.00  0.00     0.000 C 
BRANCH   8   9
ATOM      9  C   UNL     1      54.602  48.708  14.433  1.00  0.00     0.000 C 
BRANCH   9  10
ATOM     10  C   UNL     1      54.776  47.513  13.485  1.00  0.00     0.006 C 
BRANCH  10  11
ATOM     11  C   UNL     1      56.190  46.921  13.549  1.00  0.00     0.053 C 
BRANCH  11  12
ATOM     12  C   UNL     1      56.427  46.186  14.833  1.00  0.00     0.041 C 
ATOM     13  O   UNL     1      55.893  45.063  15.028  1.00  0.00    -0.550 OA
ATOM     14  O   UNL     1      57.216  46.756  15.826  1.00  0.00    -0.550 OA
ENDBRANCH  11  12
ENDBRANCH  10  11
ENDBRANCH   9  10
ENDBRANCH   8   9
ENDBRANCH   7   8
ENDBRANCH   6   7
ENDBRANCH   5   6
ENDBRANCH   4   5
ENDBRANCH   3   4
ENDBRANCH   2   3
ENDBRANCH   1   2
BRANCH   1  15
ATOM     15  C   UNL     1      50.806  46.491  14.358  1.00  0.00     0.000 C 
BRANCH  15  16
ATOM     16  C   UNL     1      50.161  45.097  14.402  1.00  0.00     0.000 C 
BRANCH  16  17
ATOM     17  C   UNL     1      50.158  44.543  15.834  1.00  0.00     0.000 C 
BRANCH  17  18
ATOM     18  C   UNL     1      48.845  43.824  16.190  1.00  0.00    -0.000 C 
BRANCH  18  19
ATOM     19  C   UNL     1      47.602  44.675  15.867  1.00  0.00    -0.000 C 
BRANCH  19  20
ATOM     20  C   UNL     1      46.558  43.902  15.046  1.00  0.00    -0.000 C 
BRANCH  20  21
ATOM     21  C   UNL     1      47.187  42.802  14.171  1.00  0.00    -0.000 C 
BRANCH  21  22
ATOM     22  C   UNL     1      46.515  41.432  14.364  1.00  0.00    -0.000 C 
BRANCH  22  23
ATOM     23  C   UNL     1      45.299  41.497  15.304  1.00  0.00    -0.000 C 
BRANCH  23  24
ATOM     24  C   UNL     1      45.401  40.513  16.484  1.00  0.00    -0.000 C 
BRANCH  24  25
ATOM     25  C   UNL     1      45.665  41.166  17.852  1.00  0.00    -0.003 C 
ATOM     26  C   UNL     1      47.153  41.309  18.171  1.00  0.00     0.004 C 
ENDBRANCH  24  25
ENDBRANCH  23  24
ENDBRANCH  22  23
ENDBRANCH  21  22
ENDBRANCH  20  21
ENDBRANCH  19  20
ENDBRANCH  18  19
ENDBRANCH  17  18
ENDBRANCH  16  17
ENDBRANCH  15  16
ENDBRANCH   1  15
TORSDOF 22
ENDMDL
MODEL 2
REMARK VINA RESULT:    -3.445      7.216     11.827
REMARK INTER + INTRA:         -10.958
REMARK INTER:                  -7.227
REMARK INTRA:                  -3.730
REMARK UNBOUND:                -3.082
REMARK SMILES CCCCCCCCCCCCCCCCCCCCCCCC(=O)[O-]
REMARK SMILES IDX 13 1 14 2 15 3 16 4 17 5 18 6 19 7 20 8 21 9 22 10 23 11
REMARK SMILES IDX 24 12 25 13 26 14 12 15 11 16 10 17 9 18 8 19 7 20 6 21 5 22
REMARK SMILES IDX 4 23 3 24 2 25 1 26
REMARK H PARENT
REMARK Flexibility Score: inf
ROOT
ATOM      1  C   UNL     1      63.760  45.168  15.913  1.00  0.00     0.000 C 
ENDROOT
BRANCH   1   2
ATOM      2  C   UNL     1      62.475  45.610  16.636  1.00  0.00     0.000 C 
BRANCH   2   3
ATOM      3  C   UNL     1      62.749  46.569  17.811  1.00  0.00     0.000 C 
BRANCH   3   4
ATOM      4  C   UNL     1      61.889  46.324  19.065  1.00  0.00     0.000 C 
BRANCH   4   5
ATOM      5  C   UNL     1      60.434  46.796  18.894  1.00  0.00     0.000 C 
BRANCH   5   6
ATOM      6  C   UNL     1      59.412  45.766  19.400  1.00  0.00     0.000 C 
BRANCH   6   7
ATOM      7  C   UNL     1      58.215  45.606  18.446  1.00  0.00     0.000 C 
BRANCH   7   8
ATOM      8  C   UNL     1      58.598  45.841  16.976  1.00  0.00     0.000 C 
BRANCH   8   9
ATOM      9  C   UNL     1      58.189  44.676  16.062  1.00  0.00     0.000 C 
BRANCH   9  10
ATOM     10  C   UNL     1      56.835  44.952  15.395  1.00  0.00     0.006 C 
BRANCH  10  11
ATOM     11  C   UNL     1      56.530  46.453  15.296  1.00  0.00     0.053 C 
BRANCH  11  12
ATOM     12  C   UNL     1      56.274  46.876  13.882  1.00  0.00     0.041 C 
ATOM     13  O   UNL     1      57.233  47.012  13.078  1.00  0.00    -0.550 OA
ATOM     14  O   UNL     1      54.978  47.149  13.461  1.00  0.00    -0.550 OA
ENDBRANCH  11  12
ENDBRANCH  10  11
ENDBRANCH   9  10
ENDBRANCH   8   9
ENDBRANCH   7   8
ENDBRANCH   6   7
ENDBRANCH   5   6
ENDBRANCH   4   5
ENDBRANCH   3   4
ENDBRANCH   2   3
ENDBRANCH   1   2
BRANCH   1  15
ATOM     15  C   UNL     1      63.565  43.878  15.099  1.00  0.00     0.000 C 
BRANCH  15  16
ATOM     16  C   UNL     1      64.692  42.858  15.317  1.00  0.00     0.000 C 
BRANCH  16  17
ATOM     17  C   UNL     1      64.117  41.481  15.686  1.00  0.00     0.000 C 
BRANCH  17  18
ATOM     18  C   UNL     1      64.370  41.107  17.157  1.00  0.00    -0.000 C 
BRANCH  18  19
ATOM     19  C   UNL     1      63.077  41.095  17.992  1.00  0.00    -0.000 C 
BRANCH  19  20
ATOM     20  C   UNL     1      62.690  42.494  18.496  1.00  0.00    -0.000 C 
BRANCH  20  21
ATOM     21  C   UNL     1      61.170  42.737  18.461  1.00  0.00    -0.000 C 
BRANCH  21  22
ATOM     22  C   UNL     1      60.424  41.996  19.583  1.00  0.00    -0.000 C 
BRANCH  22  23
ATOM     23  C   UNL     1      58.895  42.082  19.434  1.00  0.00    -0.000 C 
BRANCH  23  24
ATOM     24  C   UNL     1      58.407  41.677  18.032  1.00  0.00    -0.000 C 
BRANCH  24  25
ATOM     25  C   UNL     1      56.879  41.551  17.888  1.00  0.00    -0.003 C 
ATOM     26  C   UNL     1      56.120  42.718  18.519  1.00  0.00     0.004 C 
ENDBRANCH  24  25
ENDBRANCH  23  24
ENDBRANCH  22  23
ENDBRANCH  21  22
ENDBRANCH  20  21
ENDBRANCH  19  20
ENDBRANCH  18  19
ENDBRANCH  17  18
ENDBRANCH  16  17
ENDBRANCH  15  16
ENDBRANCH   1  15
TORSDOF 22
ENDMDL
MODEL 3
REMARK VINA RESULT:    -3.387      1.317      2.179
REMARK INTER + INTRA:         -10.824
REMARK INTER:                  -7.522
REMARK INTRA:                  -3.302
REMARK UNBOUND:                -3.082
REMARK SMILES CCCCCCCCCCCCCCCCCCCCCCCC(=O)[O-]
REMARK SMILES IDX 13 1 14 2 15 3 16 4 17 5 18 6 19 7 20 8 21 9 22 10 23 11
REMARK SMILES IDX 24 12 25 13 26 14 12 15 11 16 10 17 9 18 8 19 7 20 6 21 5 22
REMARK SMILES IDX 4 23 3 24 2 25 1 26
REMARK H PARENT
REMARK Flexibility Score: inf
ROOT
ATOM      1  C   UNL     1      49.927  46.723  15.744  1.00  0.00     0.000 C 
ENDROOT
BRANCH   1   2
ATOM      2  C   UNL     1      49.735  48.180  15.287  1.00  0.00     0.000 C 
BRANCH   2   3
ATOM      3  C   UNL     1      49.631  48.318  13.756  1.00  0.00     0.000 C 
BRANCH   3   4
ATOM      4  C   UNL     1      50.736  49.170  13.104  1.00  0.00     0.000 C 
BRANCH   4   5
ATOM      5  C   UNL     1      51.708  48.337  12.249  1.00  0.00     0.000 C 
BRANCH   5   6
ATOM      6  C   UNL     1      52.918  47.830  13.050  1.00  0.00     0.000 C 
BRANCH   6   7
ATOM      7  C   UNL     1      53.356  48.819  14.145  1.00  0.00     0.000 C 
BRANCH   7   8
ATOM      8  C   UNL     1      53.488  48.151  15.523  1.00  0.00     0.000 C 
BRANCH   8   9
ATOM      9  C   UNL     1      54.647  48.726  16.353  1.00  0.00     0.000 C 
BRANCH   9  10
ATOM     10  C   UNL     1      55.696  47.644  16.650  1.00  0.00     0.006 C 
BRANCH  10  11
ATOM     11  C   UNL     1      56.904  47.731  15.708  1.00  0.00     0.053 C 
BRANCH  11  12
ATOM     12  C   UNL     1      56.848  46.687  14.635  1.00  0.00     0.041 C 
ATOM     13  O   UNL     1      57.004  45.472  14.924  1.00  0.00    -0.550 OA
ATOM     14  O   UNL     1      56.652  47.060  13.310  1.00  0.00    -0.550 OA
ENDBRANCH  11  12
ENDBRANCH  10  11
ENDBRANCH   9  10
ENDBRANCH   8   9
ENDBRANCH   7   8
ENDBRANCH   6   7
ENDBRANCH   5   6
ENDBRANCH   4   5
ENDBRANCH   3   4
ENDBRANCH   2   3
ENDBRANCH   1   2
BRANCH   1  15
ATOM     15  C   UNL     1      50.199  45.767  14.572  1.00  0.00     0.000 C 
BRANCH  15  16
ATOM     16  C   UNL     1      49.242  44.566  14.545  1.00  0.00     0.000 C 
BRANCH  16  17
ATOM     17  C   UNL     1      47.874  44.946  15.132  1.00  0.00     0.000 C 
BRANCH  17  18
ATOM     18  C   UNL     1      46.737  44.046  14.618  1.00  0.00    -0.000 C 
BRANCH  18  19
ATOM     19  C   UNL     1      47.248  42.687  14.105  1.00  0.00    -0.000 C 
BRANCH  19  20
ATOM     20  C   UNL     1      46.337  41.521  14.520  1.00  0.00    -0.000 C 
BRANCH  20  21
ATOM     21  C   UNL     1      45.195  41.964  15.454  1.00  0.00    -0.000 C 
BRANCH  21  22
ATOM     22  C   UNL     1      45.384  41.473  16.899  1.00  0.00    -0.000 C 
BRANCH  22  23
ATOM     23  C   UNL     1      45.910  42.575  17.834  1.00  0.00    -0.000 C 
BRANCH  23  24
ATOM     24  C   UNL     1      47.201  42.171  18.569  1.00  0.00    -0.000 C 
BRANCH  24  25
ATOM     25  C   UNL     1      48.105  41.190  17.800  1.00  0.00    -0.003 C 
ATOM     26  C   UNL     1      49.254  41.883  17.067  1.00  0.00     0.004 C 
ENDBRANCH  24  25
ENDBRANCH  23  24
ENDBRANCH  22  23
ENDBRANCH  21  22
ENDBRANCH  20  21
ENDBRANCH  19  20
ENDBRANCH  18  19
ENDBRANCH  17  18
ENDBRANCH  16  17
ENDBRANCH  15  16
ENDBRANCH   1  15
TORSDOF 22
ENDMDL
MODEL 4
REMARK VINA RESULT:    -3.385      3.296      8.638
REMARK INTER + INTRA:         -10.820
REMARK INTER:                  -6.804
REMARK INTRA:                  -4.016
REMARK UNBOUND:                -3.082
REMARK SMILES CCCCCCCCCCCCCCCCCCCCCCCC(=O)[O-]
REMARK SMILES IDX 13 1 14 2 15 3 16 4 17 5 18 6 19 7 20 8 21 9 22 10 23 11
REMARK SMILES IDX 24 12 25 13 26 14 12 15 11 16 10 17 9 18 8 19 7 20 6 21 5 22
REMARK SMILES IDX 4 23 3 24 2 25 1 26
REMARK H PARENT
REMARK Flexibility Score: inf
ROOT
ATOM      1  C   UNL     1      49.321  48.832  14.302  1.00  0.00     0.000 C 
ENDROOT
BRANCH   1   2
ATOM      2  C   UNL     1      49.342  47.293  14.292  1.00  0.00     0.000 C 
BRANCH   2   3
ATOM      3  C   UNL     1      50.311  46.701  15.334  1.00  0.00     0.000 C 
BRANCH   3   4
ATOM      4  C   UNL     1      50.818  45.282  15.016  1.00  0.00     0.000 C 
BRANCH   4   5
ATOM      5  C   UNL     1      51.002  44.417  16.276  1.00  0.00     0.000 C 
BRANCH   5   6
ATOM      6  C   UNL     1      50.556  45.134  17.560  1.00  0.00     0.000 C 
BRANCH   6   7
ATOM      7  C   UNL     1      49.543  44.310  18.374  1.00  0.00     0.000 C 
BRANCH   7   8
ATOM      8  C   UNL     1      48.237  44.056  17.606  1.00  0.00     0.000 C 
BRANCH   8   9
ATOM      9  C   UNL     1      47.494  45.354  17.252  1.00  0.00     0.000 C 
BRANCH   9  10
ATOM     10  C   UNL     1      46.587  45.150  16.030  1.00  0.00     0.006 C 
BRANCH  10  11
ATOM     11  C   UNL     1      47.272  44.333  14.927  1.00  0.00     0.053 C 
BRANCH  11  12
ATOM     12  C   UNL     1      46.490  43.103  14.581  1.00  0.00     0.041 C 
ATOM     13  O   UNL     1      46.957  42.263  13.768  1.00  0.00    -0.550 OA
ATOM     14  O   UNL     1      45.230  42.900  15.134  1.00  0.00    -0.550 OA
ENDBRANCH  11  12
ENDBRANCH  10  11
ENDBRANCH   9  10
ENDBRANCH   8   9
ENDBRANCH   7   8
ENDBRANCH   6   7
ENDBRANCH   5   6
ENDBRANCH   4   5
ENDBRANCH   3   4
ENDBRANCH   2   3
ENDBRANCH   1   2
BRANCH   1  15
ATOM     15  C   UNL     1      49.695  49.437  12.940  1.00  0.00     0.000 C 
BRANCH  15  16
ATOM     16  C   UNL     1      51.164  49.878  12.864  1.00  0.00     0.000 C 
BRANCH  16  17
ATOM     17  C   UNL     1      52.052  48.733  12.353  1.00  0.00     0.000 C 
BRANCH  17  18
ATOM     18  C   UNL     1      53.131  48.319  13.368  1.00  0.00    -0.000 C 
BRANCH  18  19
ATOM     19  C   UNL     1      53.004  49.076  14.703  1.00  0.00    -0.000 C 
BRANCH  19  20
ATOM     20  C   UNL     1      54.070  48.650  15.724  1.00  0.00    -0.000 C 
BRANCH  20  21
ATOM     21  C   UNL     1      53.741  47.307  16.401  1.00  0.00    -0.000 C 
BRANCH  21  22
ATOM     22  C   UNL     1      54.679  46.172  15.956  1.00  0.00    -0.000 C 
BRANCH  22  23
ATOM     23  C   UNL     1      56.162  46.579  15.996  1.00  0.00    -0.000 C 
BRANCH  23  24
ATOM     24  C   UNL     1      56.931  46.167  14.728  1.00  0.00    -0.000 C 
BRANCH  24  25
ATOM     25  C   UNL     1      56.633  47.021  13.482  1.00  0.00    -0.003 C 
ATOM     26  C   UNL     1      57.053  48.482  13.643  1.00  0.00     0.004 C 
ENDBRANCH  24  25
ENDBRANCH  23  24
ENDBRANCH  22  23
ENDBRANCH  21  22
ENDBRANCH  20  21
ENDBRANCH  19  20
ENDBRANCH  18  19
ENDBRANCH  17  18
ENDBRANCH  16  17
ENDBRANCH  15  16
ENDBRANCH   1  15
TORSDOF 22
ENDMDL
MODEL 5
REMARK VINA RESULT:    -3.354      6.877     12.379
REMARK INTER + INTRA:         -10.749
REMARK INTER:                  -7.677
REMARK INTRA:                  -3.072
REMARK UNBOUND:                -3.082
REMARK SMILES CCCCCCCCCCCCCCCCCCCCCCCC(=O)[O-]
REMARK SMILES IDX 13 1 14 2 15 3 16 4 17 5 18 6 19 7 20 8 21 9 22 10 23 11
REMARK SMILES IDX 24 12 25 13 26 14 12 15 11 16 10 17 9 18 8 19 7 20 6 21 5 22
REMARK SMILES IDX 4 23 3 24 2 25 1 26
REMARK H PARENT
REMARK Flexibility Score: inf
ROOT
ATOM      1  C   UNL     1      61.890  41.052  19.015  1.00  0.00     0.000 C 
ENDROOT
BRANCH   1   2
ATOM      2  C   UNL     1      60.748  42.067  19.189  1.00  0.00     0.000 C 
BRANCH   2   3
ATOM      3  C   UNL     1      59.538  41.484  19.945  1.00  0.00     0.000 C 
BRANCH   3   4
ATOM      4  C   UNL     1      58.205  41.533  19.174  1.00  0.00     0.000 C 
BRANCH   4   5
ATOM      5  C   UNL     1      58.229  42.527  18.000  1.00  0.00     0.000 C 
BRANCH   5   6
ATOM      6  C   UNL     1      57.262  42.136  16.871  1.00  0.00     0.000 C 
BRANCH   6   7
ATOM      7  C   UNL     1      57.306  43.122  15.690  1.00  0.00     0.000 C 
BRANCH   7   8
ATOM      8  C   UNL     1      55.979  43.873  15.499  1.00  0.00     0.000 C 
BRANCH   8   9
ATOM      9  C   UNL     1      55.675  44.843  16.651  1.00  0.00     0.000 C 
BRANCH   9  10
ATOM     10  C   UNL     1      55.625  46.293  16.147  1.00  0.00     0.006 C 
BRANCH  10  11
ATOM     11  C   UNL     1      56.830  46.644  15.264  1.00  0.00     0.053 C 
BRANCH  11  12
ATOM     12  C   UNL     1      56.406  47.234  13.954  1.00  0.00     0.041 C 
ATOM     13  O   UNL     1      55.297  46.920  13.447  1.00  0.00    -0.550 OA
ATOM     14  O   UNL     1      57.249  48.110  13.279  1.00  0.00    -0.550 OA
ENDBRANCH  11  12
ENDBRANCH  10  11
ENDBRANCH   9  10
ENDBRANCH   8   9
ENDBRANCH   7   8
ENDBRANCH   6   7
ENDBRANCH   5   6
ENDBRANCH   4   5
ENDBRANCH   3   4
ENDBRANCH   2   3
ENDBRANCH   1   2
BRANCH   1  15
ATOM     15  C   UNL     1      63.222  41.720  18.637  1.00  0.00     0.000 C 
BRANCH  15  16
ATOM     16  C   UNL     1      63.869  41.102  17.388  1.00  0.00     0.000 C 
BRANCH  16  17
ATOM     17  C   UNL     1      64.657  42.161  16.602  1.00  0.00     0.000 C 
BRANCH  17  18
ATOM     18  C   UNL     1      64.128  42.355  15.171  1.00  0.00    -0.000 C 
BRANCH  18  19
ATOM     19  C   UNL     1      63.883  43.837  14.831  1.00  0.00    -0.000 C 
BRANCH  19  20
ATOM     20  C   UNL     1      64.205  44.772  16.007  1.00  0.00    -0.000 C 
BRANCH  20  21
ATOM     21  C   UNL     1      62.996  45.625  16.435  1.00  0.00    -0.000 C 
BRANCH  21  22
ATOM     22  C   UNL     1      61.754  44.777  16.756  1.00  0.00    -0.000 C 
BRANCH  22  23
ATOM     23  C   UNL     1      60.919  45.363  17.907  1.00  0.00    -0.000 C 
BRANCH  23  24
ATOM     24  C   UNL     1      59.515  45.808  17.462  1.00  0.00    -0.000 C 
BRANCH  24  25
ATOM     25  C   UNL     1      58.562  46.193  18.608  1.00  0.00    -0.003 C 
ATOM     26  C   UNL     1      59.295  46.658  19.866  1.00  0.00     0.004 C 
ENDBRANCH  24  25
ENDBRANCH  23  24
ENDBRANCH  22  23
ENDBRANCH  21  22
ENDBRANCH  20  21
ENDBRANCH  19  20
ENDBRANCH  18  19
ENDBRANCH  17  18
ENDBRANCH  16  17
ENDBRANCH  15  16
ENDBRANCH   1  15
TORSDOF 22
ENDMDL
MODEL 6
REMARK VINA RESULT:    -3.321      5.881     11.866
REMARK INTER + INTRA:         -10.674
REMARK INTER:                  -8.488
REMARK INTRA:                  -2.186
REMARK UNBOUND:                -3.082
REMARK SMILES CCCCCCCCCCCCCCCCCCCCCCCC(=O)[O-]
REMARK SMILES IDX 13 1 14 2 15 3 16 4 17 5 18 6 19 7 20 8 21 9 22 10 23 11
REMARK SMILES IDX 24 12 25 13 26 14 12 15 11 16 10 17 9 18 8 19 7 20 6 21 5 22
REMARK SMILES IDX 4 23 3 24 2 25 1 26
REMARK H PARENT
REMARK Flexibility Score: inf
ROOT
ATOM      1  C   UNL     1      59.164  45.368  17.116  1.00  0.00     0.000 C 
ENDROOT
BRANCH   1   2
ATOM      2  C   UNL     1      58.033  44.529  16.497  1.00  0.00     0.000 C 
BRANCH   2   3
ATOM      3  C   UNL     1      57.214  45.307  15.450  1.00  0.00     0.000 C 
BRANCH   3   4
ATOM      4  C   UNL     1      57.238  46.839  15.614  1.00  0.00     0.000 C 
BRANCH   4   5
ATOM      5  C   UNL     1      56.194  47.551  14.736  1.00  0.00     0.000 C 
BRANCH   5   6
ATOM      6  C   UNL     1      54.909  46.727  14.554  1.00  0.00     0.000 C 
BRANCH   6   7
ATOM      7  C   UNL     1      53.918  46.916  15.716  1.00  0.00     0.000 C 
BRANCH   7   8
ATOM      8  C   UNL     1      52.648  47.669  15.291  1.00  0.00     0.000 C 
BRANCH   8   9
ATOM      9  C   UNL     1      51.609  46.753  14.626  1.00  0.00     0.000 C 
BRANCH   9  10
ATOM     10  C   UNL     1      51.291  47.229  13.201  1.00  0.00     0.006 C 
BRANCH  10  11
ATOM     11  C   UNL     1      50.689  48.640  13.179  1.00  0.00     0.053 C 
BRANCH  11  12
ATOM     12  C   UNL     1      51.155  49.424  11.991  1.00  0.00     0.041 C 
ATOM     13  O   UNL     1      52.370  49.731  11.871  1.00  0.00    -0.550 OA
ATOM     14  O   UNL     1      50.241  49.841  11.030  1.00  0.00    -0.550 OA
ENDBRANCH  11  12
ENDBRANCH  10  11
ENDBRANCH   9  10
ENDBRANCH   8   9
ENDBRANCH   7   8
ENDBRANCH   6   7
ENDBRANCH   5   6
ENDBRANCH   4   5
ENDBRANCH   3   4
ENDBRANCH   2   3
ENDBRANCH   1   2
BRANCH   1  15
ATOM     15  C   UNL     1      59.994  44.577  18.141  1.00  0.00     0.000 C 
BRANCH  15  16
ATOM     16  C   UNL     1      59.528  43.121  18.292  1.00  0.00     0.000 C 
BRANCH  16  17
ATOM     17  C   UNL     1      60.655  42.245  18.861  1.00  0.00     0.000 C 
BRANCH  17  18
ATOM     18  C   UNL     1      61.942  43.039  19.140  1.00  0.00    -0.000 C 
BRANCH  18  19
ATOM     19  C   UNL     1      63.209  42.174  19.004  1.00  0.00    -0.000 C 
BRANCH  19  20
ATOM     20  C   UNL     1      63.080  41.112  17.901  1.00  0.00    -0.000 C 
BRANCH  20  21
ATOM     21  C   UNL     1      64.358  40.980  17.052  1.00  0.00    -0.000 C 
BRANCH  21  22
ATOM     22  C   UNL     1      64.150  41.421  15.593  1.00  0.00    -0.000 C 
BRANCH  22  23
ATOM     23  C   UNL     1      64.766  42.799  15.298  1.00  0.00    -0.000 C 
BRANCH  23  24
ATOM     24  C   UNL     1      63.728  43.827  14.813  1.00  0.00    -0.000 C 
BRANCH  24  25
ATOM     25  C   UNL     1      62.870  44.457  15.925  1.00  0.00    -0.003 C 
ATOM     26  C   UNL     1      63.410  45.801  16.410  1.00  0.00     0.004 C 
ENDBRANCH  24  25
ENDBRANCH  23  24
ENDBRANCH  22  23
ENDBRANCH  21  22
ENDBRANCH  20  21
ENDBRANCH  19  20
ENDBRANCH  18  19
ENDBRANCH  17  18
ENDBRANCH  16  17
ENDBRANCH  15  16
ENDBRANCH   1  15
TORSDOF 22
ENDMDL
MODEL 7
REMARK VINA RESULT:    -3.320      3.457      5.725
REMARK INTER + INTRA:         -10.671
REMARK INTER:                  -5.877
REMARK INTRA:                  -4.794
REMARK UNBOUND:                -3.082
REMARK SMILES CCCCCCCCCCCCCCCCCCCCCCCC(=O)[O-]
REMARK SMILES IDX 13 1 14 2 15 3 16 4 17 5 18 6 19 7 20 8 21 9 22 10 23 11
REMARK SMILES IDX 24 12 25 13 26 14 12 15 11 16 10 17 9 18 8 19 7 20 6 21 5 22
REMARK SMILES IDX 4 23 3 24 2 25 1 26
REMARK H PARENT
REMARK Flexibility Score: inf
ROOT
ATOM      1  C   UNL     1      50.916  46.760  13.832  1.00  0.00     0.000 C 
ENDROOT
BRANCH   1   2
ATOM      2  C   UNL     1      50.710  48.089  13.084  1.00  0.00     0.000 C 
BRANCH   2   3
ATOM      3  C   UNL     1      51.993  48.596  12.399  1.00  0.00     0.000 C 
BRANCH   3   4
ATOM      4  C   UNL     1      53.306  48.051  12.993  1.00  0.00     0.000 C 
BRANCH   4   5
ATOM      5  C   UNL     1      54.302  49.164  13.363  1.00  0.00     0.000 C 
BRANCH   5   6
ATOM      6  C   UNL     1      55.667  48.616  13.809  1.00  0.00     0.000 C 
BRANCH   6   7
ATOM      7  C   UNL     1      55.894  47.162  13.356  1.00  0.00     0.000 C 
BRANCH   7   8
ATOM      8  C   UNL     1      56.635  46.326  14.411  1.00  0.00     0.000 C 
BRANCH   8   9
ATOM      9  C   UNL     1      57.051  47.151  15.638  1.00  0.00     0.000 C 
BRANCH   9  10
ATOM     10  C   UNL     1      57.261  46.246  16.861  1.00  0.00     0.006 C 
BRANCH  10  11
ATOM     11  C   UNL     1      58.281  45.132  16.592  1.00  0.00     0.053 C 
BRANCH  11  12
ATOM     12  C   UNL     1      57.675  43.772  16.758  1.00  0.00     0.041 C 
ATOM     13  O   UNL     1      57.530  43.280  17.907  1.00  0.00    -0.550 OA
ATOM     14  O   UNL     1      57.298  43.037  15.640  1.00  0.00    -0.550 OA
ENDBRANCH  11  12
ENDBRANCH  10  11
ENDBRANCH   9  10
ENDBRANCH   8   9
ENDBRANCH   7   8
ENDBRANCH   6   7
ENDBRANCH   5   6
ENDBRANCH   4   5
ENDBRANCH   3   4
ENDBRANCH   2   3
ENDBRANCH   1   2
BRANCH   1  15
ATOM     15  C   UNL     1      49.632  46.261  14.514  1.00  0.00     0.000 C 
BRANCH  15  16
ATOM     16  C   UNL     1      49.670  46.405  16.043  1.00  0.00     0.000 C 
BRANCH  16  17
ATOM     17  C   UNL     1      48.928  47.674  16.490  1.00  0.00     0.000 C 
BRANCH  17  18
ATOM     18  C   UNL     1      49.856  48.699  17.164  1.00  0.00    -0.000 C 
BRANCH  18  19
ATOM     19  C   UNL     1      50.283  49.826  16.206  1.00  0.00    -0.000 C 
BRANCH  19  20
ATOM     20  C   UNL     1      51.809  49.919  16.052  1.00  0.00    -0.000 C 
BRANCH  20  21
ATOM     21  C   UNL     1      52.565  49.315  17.249  1.00  0.00    -0.000 C 
BRANCH  21  22
ATOM     22  C   UNL     1      53.629  48.290  16.824  1.00  0.00    -0.000 C 
BRANCH  22  23
ATOM     23  C   UNL     1      53.257  46.851  17.221  1.00  0.00    -0.000 C 
BRANCH  23  24
ATOM     24  C   UNL     1      53.392  45.854  16.056  1.00  0.00    -0.000 C 
BRANCH  24  25
ATOM     25  C   UNL     1      54.057  44.515  16.421  1.00  0.00    -0.003 C 
ATOM     26  C   UNL     1      54.053  44.234  17.924  1.00  0.00     0.004 C 
ENDBRANCH  24  25
ENDBRANCH  23  24
ENDBRANCH  22  23
ENDBRANCH  21  22
ENDBRANCH  20  21
ENDBRANCH  19  20
ENDBRANCH  18  19
ENDBRANCH  17  18
ENDBRANCH  16  17
ENDBRANCH  15  16
ENDBRANCH   1  15
TORSDOF 22
ENDMDL
MODEL 8
REMARK VINA RESULT:    -3.317      2.423      5.546
REMARK INTER + INTRA:         -10.664
REMARK INTER:                  -7.255
REMARK INTRA:                  -3.409
REMARK UNBOUND:                -3.082
REMARK SMILES CCCCCCCCCCCCCCCCCCCCCCCC(=O)[O-]
REMARK SMILES IDX 13 1 14 2 15 3 16 4 17 5 18 6 19 7 20 8 21 9 22 10 23 11
REMARK SMILES IDX 24 12 25 13 26 14 12 15 11 16 10 17 9 18 8 19 7 20 6 21 5 22
REMARK SMILES IDX 4 23 3 24 2 25 1 26
REMARK H PARENT
REMARK Flexibility Score: inf
ROOT
ATOM      1  C   UNL     1      53.404  48.313  12.971  1.00  0.00     0.000 C 
ENDROOT
BRANCH   1   2
ATOM      2  C   UNL     1      53.598  48.128  14.486  1.00  0.00     0.000 C 
BRANCH   2   3
ATOM      3  C   UNL     1      54.611  47.018  14.828  1.00  0.00     0.000 C 
BRANCH   3   4
ATOM      4  C   UNL     1      55.695  46.776  13.761  1.00  0.00     0.000 C 
BRANCH   4   5
ATOM      5  C   UNL     1      57.098  46.589  14.365  1.00  0.00     0.000 C 
BRANCH   5   6
ATOM      6  C   UNL     1      57.058  46.142  15.835  1.00  0.00     0.000 C 
BRANCH   6   7
ATOM      7  C   UNL     1      57.664  44.742  16.042  1.00  0.00     0.000 C 
BRANCH   7   8
ATOM      8  C   UNL     1      56.645  43.735  16.596  1.00  0.00     0.000 C 
BRANCH   8   9
ATOM      9  C   UNL     1      55.461  43.503  15.644  1.00  0.00     0.000 C 
BRANCH   9  10
ATOM     10  C   UNL     1      54.126  43.746  16.362  1.00  0.00     0.006 C 
BRANCH  10  11
ATOM     11  C   UNL     1      53.069  42.696  15.995  1.00  0.00     0.053 C 
BRANCH  11  12
ATOM     12  C   UNL     1      51.945  42.670  16.986  1.00  0.00     0.041 C 
ATOM     13  O   UNL     1      51.825  43.594  17.832  1.00  0.00    -0.550 OA
ATOM     14  O   UNL     1      51.048  41.608  16.993  1.00  0.00    -0.550 OA
ENDBRANCH  11  12
ENDBRANCH  10  11
ENDBRANCH   9  10
ENDBRANCH   8   9
ENDBRANCH   7   8
ENDBRANCH   6   7
ENDBRANCH   5   6
ENDBRANCH   4   5
ENDBRANCH   3   4
ENDBRANCH   2   3
ENDBRANCH   1   2
BRANCH   1  15
ATOM     15  C   UNL     1      51.981  47.956  12.510  1.00  0.00     0.000 C 
BRANCH  15  16
ATOM     16  C   UNL     1      51.065  49.183  12.391  1.00  0.00     0.000 C 
BRANCH  16  17
ATOM     17  C   UNL     1      50.328  49.443  13.714  1.00  0.00     0.000 C 
BRANCH  17  18
ATOM     18  C   UNL     1      48.990  48.690  13.806  1.00  0.00    -0.000 C 
BRANCH  18  19
ATOM     19  C   UNL     1      48.898  47.804  15.062  1.00  0.00    -0.000 C 
BRANCH  19  20
ATOM     20  C   UNL     1      50.277  47.494  15.665  1.00  0.00    -0.000 C 
BRANCH  20  21
ATOM     21  C   UNL     1      50.639  46.000  15.581  1.00  0.00    -0.000 C 
BRANCH  21  22
ATOM     22  C   UNL     1      49.955  45.288  14.403  1.00  0.00    -0.000 C 
BRANCH  22  23
ATOM     23  C   UNL     1      49.138  44.063  14.846  1.00  0.00    -0.000 C 
BRANCH  23  24
ATOM     24  C   UNL     1      47.625  44.342  14.907  1.00  0.00    -0.000 C 
BRANCH  24  25
ATOM     25  C   UNL     1      47.115  44.859  16.264  1.00  0.00    -0.003 C 
ATOM     26  C   UNL     1      47.429  43.913  17.422  1.00  0.00     0.004 C 
ENDBRANCH  24  25
ENDBRANCH  23  24
ENDBRANCH  22  23
ENDBRANCH  21  22
ENDBRANCH  20  21
ENDBRANCH  19  20
ENDBRANCH  18  19
ENDBRANCH  17  18
ENDBRANCH  16  17
ENDBRANCH  15  16
ENDBRANCH   1  15
TORSDOF 22
ENDMDL
MODEL 9
REMARK VINA RESULT:    -3.313      1.809      3.405
REMARK INTER + INTRA:         -10.655
REMARK INTER:                  -6.763
REMARK INTRA:                  -3.892
REMARK UNBOUND:                -3.082
REMARK SMILES CCCCCCCCCCCCCCCCCCCCCCCC(=O)[O-]
REMARK SMILES IDX 13 1 14 2 15 3 16 4 17 5 18 6 19 7 20 8 21 9 22 10 23 11
REMARK SMILES IDX 24 12 25 13 26 14 12 15 11 16 10 17 9 18 8 19 7 20 6 21 5 22
REMARK SMILES IDX 4 23 3 24 2 25 1 26
REMARK H PARENT
REMARK Flexibility Score: inf
ROOT
ATOM      1  C   UNL     1      49.076  46.610  14.763  1.00  0.00     0.000 C 
ENDROOT
BRANCH   1   2
ATOM      2  C   UNL     1      50.145  45.584  14.349  1.00  0.00     0.000 C 
BRANCH   2   3
ATOM      3  C   UNL     1      50.407  44.522  15.433  1.00  0.00     0.000 C 
BRANCH   3   4
ATOM      4  C   UNL     1      51.838  44.511  16.002  1.00  0.00     0.000 C 
BRANCH   4   5
ATOM      5  C   UNL     1      52.022  45.486  17.178  1.00  0.00     0.000 C 
BRANCH   5   6
ATOM      6  C   UNL     1      52.947  46.665  16.834  1.00  0.00     0.000 C 
BRANCH   6   7
ATOM      7  C   UNL     1      52.167  47.949  16.501  1.00  0.00     0.000 C 
BRANCH   7   8
ATOM      8  C   UNL     1      52.576  48.553  15.149  1.00  0.00     0.000 C 
BRANCH   8   9
ATOM      9  C   UNL     1      53.176  47.512  14.190  1.00  0.00     0.000 C 
BRANCH   9  10
ATOM     10  C   UNL     1      54.362  48.102  13.414  1.00  0.00     0.006 C 
BRANCH  10  11
ATOM     11  C   UNL     1      55.514  48.516  14.338  1.00  0.00     0.053 C 
BRANCH  11  12
ATOM     12  C   UNL     1      56.634  47.521  14.310  1.00  0.00     0.041 C 
ATOM     13  O   UNL     1      57.056  47.074  13.212  1.00  0.00    -0.550 OA
ATOM     14  O   UNL     1      57.191  47.066  15.500  1.00  0.00    -0.550 OA
ENDBRANCH  11  12
ENDBRANCH  10  11
ENDBRANCH   9  10
ENDBRANCH   8   9
ENDBRANCH   7   8
ENDBRANCH   6   7
ENDBRANCH   5   6
ENDBRANCH   4   5
ENDBRANCH   3   4
ENDBRANCH   2   3
ENDBRANCH   1   2
BRANCH   1  15
ATOM     15  C   UNL     1      48.524  46.352  16.175  1.00  0.00     0.000 C 
BRANCH  15  16
ATOM     16  C   UNL     1      46.991  46.273  16.214  1.00  0.00     0.000 C 
BRANCH  16  17
ATOM     17  C   UNL     1      46.522  44.811  16.271  1.00  0.00     0.000 C 
BRANCH  17  18
ATOM     18  C   UNL     1      46.304  44.202  14.875  1.00  0.00    -0.000 C 
BRANCH  18  19
ATOM     19  C   UNL     1      47.302  43.072  14.564  1.00  0.00    -0.000 C 
BRANCH  19  20
ATOM     20  C   UNL     1      46.603  41.737  14.260  1.00  0.00    -0.000 C 
BRANCH  20  21
ATOM     21  C   UNL     1      45.461  41.427  15.246  1.00  0.00    -0.000 C 
BRANCH  21  22
ATOM     22  C   UNL     1      45.857  40.385  16.305  1.00  0.00    -0.000 C 
BRANCH  22  23
ATOM     23  C   UNL     1      46.720  40.983  17.429  1.00  0.00    -0.000 C 
BRANCH  23  24
ATOM     24  C   UNL     1      48.175  40.481  17.398  1.00  0.00    -0.000 C 
BRANCH  24  25
ATOM     25  C   UNL     1      49.244  41.587  17.453  1.00  0.00    -0.003 C 
ATOM     26  C   UNL     1      48.797  42.814  18.247  1.00  0.00     0.004 C 
ENDBRANCH  24  25
ENDBRANCH  23  24
ENDBRANCH  22  23
ENDBRANCH  21  22
ENDBRANCH  20  21
ENDBRANCH  19  20
ENDBRANCH  18  19
ENDBRANCH  17  18
ENDBRANCH  16  17
ENDBRANCH  15  16
ENDBRANCH   1  15
TORSDOF 22
ENDMDL
