MODEL 1
REMARK VINA RESULT:    -6.699      0.000      0.000
REMARK INTER + INTRA:          -7.432
REMARK INTER:                  -7.286
REMARK INTRA:                  -0.146
REMARK UNBOUND:                -0.146
REMARK SMILES CC1(C)CC[C@@]2(C(=O)[O-])CC[C@@]3(C)C(=CC[C@@H]4[C@@]5(C)CC[C@@H](O)C(C)(C)[C@H]5CC[C@@]43C)[C@H]2C1
REMARK SMILES IDX 6 1 5 2 10 3 32 4 4 5 11 6 14 7 33 8 2 9 12 10 15 11 1 12
REMARK SMILES IDX 3 13 13 14 30 15 16 16 17 17 29 18 31 19 18 20 28 21 27 22
REMARK SMILES IDX 20 23 19 24 24 25 21 26 22 27 25 28 26 29 7 30 8 31 9 32
REMARK SMILES IDX 23 33
REMARK H PARENT 23 34
REMARK Flexibility Score: inf
ROOT
ATOM      1  C   UNL     1      14.606 -12.164  19.675  1.00  0.00     0.017 C 
ATOM      2  C   UNL     1      15.301 -12.052  21.061  1.00  0.00     0.014 C 
ATOM      3  C   UNL     1      14.714 -10.816  18.909  1.00  0.00     0.014 C 
ATOM      4  C   UNL     1      15.234 -13.341  18.829  1.00  0.00     0.028 C 
ATOM      5  C   UNL     1      15.308 -13.365  21.877  1.00  0.00     0.007 C 
ATOM      6  C   UNL     1      16.114 -10.465  18.366  1.00  0.00     0.013 C 
ATOM      7  C   UNL     1      15.949 -12.833  17.555  1.00  0.00    -0.064 C 
ATOM      8  C   UNL     1      16.084 -14.349  19.640  1.00  0.00     0.015 C 
ATOM      9  C   UNL     1      15.486 -14.676  21.032  1.00  0.00    -0.035 C 
ATOM     10  C   UNL     1      16.906 -11.623  17.622  1.00  0.00    -0.006 C 
ATOM     11  C   UNL     1      15.417 -13.225  16.389  1.00  0.00    -0.027 C 
ATOM     12  C   UNL     1      14.126 -15.431  20.875  1.00  0.00     0.011 C 
ATOM     13  C   UNL     1      16.462 -15.624  21.766  1.00  0.00     0.011 C 
ATOM     14  C   UNL     1      18.133 -12.020  18.506  1.00  0.00     0.017 C 
ATOM     15  C   UNL     1      17.474 -11.144  16.166  1.00  0.00    -0.020 C 
ATOM     16  C   UNL     1      15.705 -12.627  15.065  1.00  0.00     0.032 C 
ATOM     17  C   UNL     1      16.346 -11.204  15.058  1.00  0.00     0.006 C 
ATOM     18  C   UNL     1      18.617 -12.075  15.653  1.00  0.00     0.008 C 
ATOM     19  C   UNL     1      18.066  -9.695  16.342  1.00  0.00     0.012 C 
ATOM     20  C   UNL     1      16.782 -10.834  13.547  1.00  0.00    -0.025 C 
ATOM     21  C   UNL     1      19.132 -11.740  14.240  1.00  0.00     0.005 C 
ATOM     22  C   UNL     1      18.064 -11.657  13.105  1.00  0.00     0.003 C 
ATOM     23  C   UNL     1      17.032  -9.306  13.354  1.00  0.00     0.010 C 
ATOM     24  C   UNL     1      15.556 -11.176  12.632  1.00  0.00     0.012 C 
ATOM     25  C   UNL     1      18.713 -11.199  11.714  1.00  0.00    -0.006 C 
ATOM     26  C   UNL     1      17.548  -8.913  11.961  1.00  0.00     0.033 C 
ATOM     27  C   UNL     1      18.845  -9.646  11.608  1.00  0.00     0.120 C 
ATOM     28  C   UNL     1      20.124 -11.823  11.517  1.00  0.00     0.014 C 
ATOM     29  C   UNL     1      17.895 -11.732  10.499  1.00  0.00     0.014 C 
ENDROOT
BRANCH   1  30
ATOM     30  C   UNL     1      13.103 -12.374  19.880  1.00  0.00     0.048 C 
ATOM     31  O   UNL     1      12.431 -11.614  20.624  1.00  0.00    -0.550 OA
ATOM     32  O   UNL     1      12.425 -13.349  19.153  1.00  0.00    -0.550 OA
ENDBRANCH   1  30
BRANCH  27  33
ATOM     33  O   UNL     1      19.867  -9.168  12.446  1.00  0.00    -0.393 OA
ATOM     34  H   UNL     1      19.461  -8.966  13.330  1.00  0.00     0.210 HD
ENDBRANCH  27  33
TORSDOF 2
ENDMDL
MODEL 2
REMARK VINA RESULT:    -6.405      2.210      7.945
REMARK INTER + INTRA:          -7.113
REMARK INTER:                  -6.988
REMARK INTRA:                  -0.125
REMARK UNBOUND:                -0.146
REMARK SMILES CC1(C)CC[C@@]2(C(=O)[O-])CC[C@@]3(C)C(=CC[C@@H]4[C@@]5(C)CC[C@@H](O)C(C)(C)[C@H]5CC[C@@]43C)[C@H]2C1
REMARK SMILES IDX 6 1 5 2 10 3 32 4 4 5 11 6 14 7 33 8 2 9 12 10 15 11 1 12
REMARK SMILES IDX 3 13 13 14 30 15 16 16 17 17 29 18 31 19 18 20 28 21 27 22
REMARK SMILES IDX 20 23 19 24 24 25 21 26 22 27 25 28 26 29 7 30 8 31 9 32
REMARK SMILES IDX 23 33
REMARK H PARENT 23 34
REMARK Flexibility Score: inf
ROOT
ATOM      1  C   UNL     1      18.253  -9.210  15.421  1.00  0.00     0.017 C 
ATOM      2  C   UNL     1      18.519  -7.822  16.068  1.00  0.00     0.014 C 
ATOM      3  C   UNL     1      18.748 -10.345  16.361  1.00  0.00     0.014 C 
ATOM      4  C   UNL     1      16.719  -9.387  15.089  1.00  0.00     0.028 C 
ATOM      5  C   UNL     1      17.999  -6.624  15.240  1.00  0.00     0.007 C 
ATOM      6  C   UNL     1      17.898 -10.585  17.625  1.00  0.00     0.013 C 
ATOM      7  C   UNL     1      16.066 -10.520  15.915  1.00  0.00    -0.064 C 
ATOM      8  C   UNL     1      15.893  -8.078  15.095  1.00  0.00     0.015 C 
ATOM      9  C   UNL     1      16.648  -6.872  14.481  1.00  0.00    -0.035 C 
ATOM     10  C   UNL     1      16.324 -10.634  17.433  1.00  0.00    -0.006 C 
ATOM     11  C   UNL     1      15.612 -11.569  15.213  1.00  0.00    -0.027 C 
ATOM     12  C   UNL     1      16.896  -7.107  12.956  1.00  0.00     0.011 C 
ATOM     13  C   UNL     1      15.751  -5.621  14.619  1.00  0.00     0.011 C 
ATOM     14  C   UNL     1      15.708  -9.375  18.128  1.00  0.00     0.017 C 
ATOM     15  C   UNL     1      15.659 -11.959  18.122  1.00  0.00    -0.020 C 
ATOM     16  C   UNL     1      15.254 -12.892  15.776  1.00  0.00     0.032 C 
ATOM     17  C   UNL     1      15.812 -13.231  17.193  1.00  0.00     0.006 C 
ATOM     18  C   UNL     1      14.125 -11.788  18.351  1.00  0.00     0.008 C 
ATOM     19  C   UNL     1      16.344 -12.155  19.527  1.00  0.00     0.012 C 
ATOM     20  C   UNL     1      15.131 -14.601  17.710  1.00  0.00    -0.025 C 
ATOM     21  C   UNL     1      13.416 -13.037  18.908  1.00  0.00     0.005 C 
ATOM     22  C   UNL     1      13.616 -14.368  18.117  1.00  0.00     0.003 C 
ATOM     23  C   UNL     1      15.912 -15.248  18.895  1.00  0.00     0.010 C 
ATOM     24  C   UNL     1      15.240 -15.627  16.529  1.00  0.00     0.012 C 
ATOM     25  C   UNL     1      12.918 -15.606  18.856  1.00  0.00    -0.006 C 
ATOM     26  C   UNL     1      15.251 -16.500  19.491  1.00  0.00     0.033 C 
ATOM     27  C   UNL     1      13.826 -16.215  19.972  1.00  0.00     0.120 C 
ATOM     28  C   UNL     1      11.565 -15.188  19.500  1.00  0.00     0.014 C 
ATOM     29  C   UNL     1      12.521 -16.724  17.846  1.00  0.00     0.014 C 
ENDROOT
BRANCH   1  30
ATOM     30  C   UNL     1      19.110  -9.350  14.159  1.00  0.00     0.048 C 
ATOM     31  O   UNL     1      20.125  -8.631  13.974  1.00  0.00    -0.550 OA
ATOM     32  O   UNL     1      18.843 -10.360  13.239  1.00  0.00    -0.550 OA
ENDBRANCH   1  30
BRANCH  27  33
ATOM     33  O   UNL     1      13.896 -15.361  21.087  1.00  0.00    -0.393 OA
ATOM     34  H   UNL     1      13.702 -14.438  20.771  1.00  0.00     0.210 HD
ENDBRANCH  27  33
TORSDOF 2
ENDMDL
MODEL 3
REMARK VINA RESULT:    -6.398      1.917      3.371
REMARK INTER + INTRA:          -7.105
REMARK INTER:                  -6.882
REMARK INTRA:                  -0.223
REMARK UNBOUND:                -0.146
REMARK SMILES CC1(C)CC[C@@]2(C(=O)[O-])CC[C@@]3(C)C(=CC[C@@H]4[C@@]5(C)CC[C@@H](O)C(C)(C)[C@H]5CC[C@@]43C)[C@H]2C1
REMARK SMILES IDX 6 1 5 2 10 3 32 4 4 5 11 6 14 7 33 8 2 9 12 10 15 11 1 12
REMARK SMILES IDX 3 13 13 14 30 15 16 16 17 17 29 18 31 19 18 20 28 21 27 22
REMARK SMILES IDX 20 23 19 24 24 25 21 26 22 27 25 28 26 29 7 30 8 31 9 32
REMARK SMILES IDX 23 33
REMARK H PARENT 23 34
REMARK Flexibility Score: inf
ROOT
ATOM      1  C   UNL     1      15.677 -13.572  19.780  1.00  0.00     0.017 C 
ATOM      2  C   UNL     1      15.991 -15.089  19.666  1.00  0.00     0.014 C 
ATOM      3  C   UNL     1      16.996 -12.749  19.801  1.00  0.00     0.014 C 
ATOM      4  C   UNL     1      14.744 -13.103  18.594  1.00  0.00     0.028 C 
ATOM      5  C   UNL     1      14.740 -15.993  19.568  1.00  0.00     0.007 C 
ATOM      6  C   UNL     1      17.752 -12.663  18.460  1.00  0.00     0.013 C 
ATOM      7  C   UNL     1      15.445 -12.090  17.659  1.00  0.00    -0.064 C 
ATOM      8  C   UNL     1      14.038 -14.248  17.826  1.00  0.00     0.015 C 
ATOM      9  C   UNL     1      13.544 -15.392  18.748  1.00  0.00    -0.035 C 
ATOM     10  C   UNL     1      16.887 -12.343  17.168  1.00  0.00    -0.006 C 
ATOM     11  C   UNL     1      14.912 -10.860  17.625  1.00  0.00    -0.027 C 
ATOM     12  C   UNL     1      12.415 -14.876  19.698  1.00  0.00     0.011 C 
ATOM     13  C   UNL     1      12.933 -16.498  17.857  1.00  0.00     0.011 C 
ATOM     14  C   UNL     1      16.877 -13.616  16.260  1.00  0.00     0.017 C 
ATOM     15  C   UNL     1      17.516 -11.112  16.295  1.00  0.00    -0.020 C 
ATOM     16  C   UNL     1      15.571  -9.650  17.080  1.00  0.00     0.032 C 
ATOM     17  C   UNL     1      17.120  -9.708  16.907  1.00  0.00     0.006 C 
ATOM     18  C   UNL     1      16.973 -11.101  14.831  1.00  0.00     0.008 C 
ATOM     19  C   UNL     1      19.076 -11.324  16.235  1.00  0.00     0.012 C 
ATOM     20  C   UNL     1      17.606  -8.394  16.102  1.00  0.00    -0.025 C 
ATOM     21  C   UNL     1      17.449  -9.909  13.979  1.00  0.00     0.005 C 
ATOM     22  C   UNL     1      17.208  -8.484  14.569  1.00  0.00     0.003 C 
ATOM     23  C   UNL     1      19.139  -8.139  16.244  1.00  0.00     0.010 C 
ATOM     24  C   UNL     1      16.912  -7.168  16.789  1.00  0.00     0.012 C 
ATOM     25  C   UNL     1      17.842  -7.343  13.640  1.00  0.00    -0.006 C 
ATOM     26  C   UNL     1      19.671  -6.959  15.415  1.00  0.00     0.033 C 
ATOM     27  C   UNL     1      19.362  -7.128  13.925  1.00  0.00     0.120 C 
ATOM     28  C   UNL     1      17.671  -7.685  12.132  1.00  0.00     0.014 C 
ATOM     29  C   UNL     1      17.088  -5.989  13.804  1.00  0.00     0.014 C 
ENDROOT
BRANCH   1  30
ATOM     30  C   UNL     1      15.024 -13.292  21.137  1.00  0.00     0.048 C 
ATOM     31  O   UNL     1      15.318 -13.969  22.156  1.00  0.00    -0.550 OA
ATOM     32  O   UNL     1      14.169 -12.205  21.294  1.00  0.00    -0.550 OA
ENDBRANCH   1  30
BRANCH  27  33
ATOM     33  O   UNL     1      20.125  -8.201  13.433  1.00  0.00    -0.393 OA
ATOM     34  H   UNL     1      20.412  -7.968  12.511  1.00  0.00     0.210 HD
ENDBRANCH  27  33
TORSDOF 2
ENDMDL
MODEL 4
REMARK VINA RESULT:    -6.171      1.512      8.330
REMARK INTER + INTRA:          -6.858
REMARK INTER:                  -6.623
REMARK INTRA:                  -0.235
REMARK UNBOUND:                -0.146
REMARK SMILES CC1(C)CC[C@@]2(C(=O)[O-])CC[C@@]3(C)C(=CC[C@@H]4[C@@]5(C)CC[C@@H](O)C(C)(C)[C@H]5CC[C@@]43C)[C@H]2C1
REMARK SMILES IDX 6 1 5 2 10 3 32 4 4 5 11 6 14 7 33 8 2 9 12 10 15 11 1 12
REMARK SMILES IDX 3 13 13 14 30 15 16 16 17 17 29 18 31 19 18 20 28 21 27 22
REMARK SMILES IDX 20 23 19 24 24 25 21 26 22 27 25 28 26 29 7 30 8 31 9 32
REMARK SMILES IDX 23 33
REMARK H PARENT 23 34
REMARK Flexibility Score: inf
ROOT
ATOM      1  C   UNL     1      19.007 -10.586  12.830  1.00  0.00     0.017 C 
ATOM      2  C   UNL     1      20.123  -9.505  12.873  1.00  0.00     0.014 C 
ATOM      3  C   UNL     1      19.310 -11.712  13.859  1.00  0.00     0.014 C 
ATOM      4  C   UNL     1      17.592  -9.940  13.107  1.00  0.00     0.028 C 
ATOM      5  C   UNL     1      19.880  -8.302  11.932  1.00  0.00     0.007 C 
ATOM      6  C   UNL     1      19.118 -11.333  15.341  1.00  0.00     0.013 C 
ATOM      7  C   UNL     1      16.957 -10.457  14.419  1.00  0.00    -0.064 C 
ATOM      8  C   UNL     1      17.539  -8.399  12.974  1.00  0.00     0.015 C 
ATOM      9  C   UNL     1      18.382  -7.855  11.792  1.00  0.00    -0.035 C 
ATOM     10  C   UNL     1      17.792 -10.545  15.714  1.00  0.00    -0.006 C 
ATOM     11  C   UNL     1      15.822 -11.159  14.283  1.00  0.00    -0.027 C 
ATOM     12  C   UNL     1      17.779  -8.333  10.430  1.00  0.00     0.011 C 
ATOM     13  C   UNL     1      18.308  -6.311  11.817  1.00  0.00     0.011 C 
ATOM     14  C   UNL     1      18.191  -9.092  16.137  1.00  0.00     0.017 C 
ATOM     15  C   UNL     1      17.001 -11.230  16.970  1.00  0.00    -0.020 C 
ATOM     16  C   UNL     1      15.211 -12.019  15.323  1.00  0.00     0.032 C 
ATOM     17  C   UNL     1      16.133 -12.466  16.500  1.00  0.00     0.006 C 
ATOM     18  C   UNL     1      15.995 -10.238  17.634  1.00  0.00     0.008 C 
ATOM     19  C   UNL     1      18.078 -11.627  18.048  1.00  0.00     0.012 C 
ATOM     20  C   UNL     1      15.230 -13.197  17.623  1.00  0.00    -0.025 C 
ATOM     21  C   UNL     1      15.143 -10.848  18.763  1.00  0.00     0.005 C 
ATOM     22  C   UNL     1      14.347 -12.145  18.418  1.00  0.00     0.003 C 
ATOM     23  C   UNL     1      16.082 -14.044  18.617  1.00  0.00     0.010 C 
ATOM     24  C   UNL     1      14.323 -14.228  16.865  1.00  0.00     0.012 C 
ATOM     25  C   UNL     1      13.591 -12.735  19.702  1.00  0.00    -0.006 C 
ATOM     26  C   UNL     1      15.283 -14.678  19.766  1.00  0.00     0.033 C 
ATOM     27  C   UNL     1      14.526 -13.626  20.580  1.00  0.00     0.120 C 
ATOM     28  C   UNL     1      13.022 -11.594  20.594  1.00  0.00     0.014 C 
ATOM     29  C   UNL     1      12.330 -13.555  19.295  1.00  0.00     0.014 C 
ENDROOT
BRANCH   1  30
ATOM     30  C   UNL     1      19.036 -11.287  11.468  1.00  0.00     0.048 C 
ATOM     31  O   UNL     1      20.122 -11.566  10.899  1.00  0.00    -0.550 OA
ATOM     32  O   UNL     1      17.854 -11.731  10.882  1.00  0.00    -0.550 OA
ENDBRANCH   1  30
BRANCH  27  33
ATOM     33  O   UNL     1      15.465 -12.841  21.273  1.00  0.00    -0.393 OA
ATOM     34  H   UNL     1      15.178 -12.799  22.224  1.00  0.00     0.210 HD
ENDBRANCH  27  33
TORSDOF 2
ENDMDL
MODEL 5
REMARK VINA RESULT:    -5.460      3.133      7.393
REMARK INTER + INTRA:          -6.085
REMARK INTER:                  -5.857
REMARK INTRA:                  -0.228
REMARK UNBOUND:                -0.146
REMARK SMILES CC1(C)CC[C@@]2(C(=O)[O-])CC[C@@]3(C)C(=CC[C@@H]4[C@@]5(C)CC[C@@H](O)C(C)(C)[C@H]5CC[C@@]43C)[C@H]2C1
REMARK SMILES IDX 6 1 5 2 10 3 32 4 4 5 11 6 14 7 33 8 2 9 12 10 15 11 1 12
REMARK SMILES IDX 3 13 13 14 30 15 16 16 17 17 29 18 31 19 18 20 28 21 27 22
REMARK SMILES IDX 20 23 19 24 24 25 21 26 22 27 25 28 26 29 7 30 8 31 9 32
REMARK SMILES IDX 23 33
REMARK H PARENT 23 34
REMARK Flexibility Score: inf
ROOT
ATOM      1  C   UNL     1      16.194  -7.420  16.204  1.00  0.00     0.017 C 
ATOM      2  C   UNL     1      17.535  -6.948  15.577  1.00  0.00     0.014 C 
ATOM      3  C   UNL     1      15.601  -8.599  15.382  1.00  0.00     0.014 C 
ATOM      4  C   UNL     1      16.400  -7.840  17.714  1.00  0.00     0.028 C 
ATOM      5  C   UNL     1      18.244  -5.821  16.363  1.00  0.00     0.007 C 
ATOM      6  C   UNL     1      16.334  -9.948  15.521  1.00  0.00     0.013 C 
ATOM      7  C   UNL     1      16.136  -9.345  17.947  1.00  0.00    -0.064 C 
ATOM      8  C   UNL     1      17.721  -7.349  18.354  1.00  0.00     0.015 C 
ATOM      9  C   UNL     1      18.116  -5.913  17.925  1.00  0.00    -0.035 C 
ATOM     10  C   UNL     1      16.726 -10.403  16.990  1.00  0.00    -0.006 C 
ATOM     11  C   UNL     1      15.100  -9.641  18.745  1.00  0.00    -0.027 C 
ATOM     12  C   UNL     1      17.075  -4.879  18.465  1.00  0.00     0.011 C 
ATOM     13  C   UNL     1      19.482  -5.577  18.566  1.00  0.00     0.011 C 
ATOM     14  C   UNL     1      18.285 -10.358  17.114  1.00  0.00     0.017 C 
ATOM     15  C   UNL     1      16.244 -11.932  17.311  1.00  0.00    -0.020 C 
ATOM     16  C   UNL     1      14.452 -10.969  18.861  1.00  0.00     0.032 C 
ATOM     17  C   UNL     1      14.712 -11.983  17.704  1.00  0.00     0.006 C 
ATOM     18  C   UNL     1      17.011 -12.541  18.527  1.00  0.00     0.008 C 
ATOM     19  C   UNL     1      16.568 -12.806  16.041  1.00  0.00     0.012 C 
ATOM     20  C   UNL     1      14.112 -13.423  18.126  1.00  0.00    -0.025 C 
ATOM     21  C   UNL     1      16.537 -13.945  18.946  1.00  0.00     0.005 C 
ATOM     22  C   UNL     1      15.012 -14.113  19.235  1.00  0.00     0.003 C 
ATOM     23  C   UNL     1      13.935 -14.378  16.906  1.00  0.00     0.010 C 
ATOM     24  C   UNL     1      12.663 -13.161  18.666  1.00  0.00     0.012 C 
ATOM     25  C   UNL     1      14.635 -15.638  19.556  1.00  0.00    -0.006 C 
ATOM     26  C   UNL     1      13.463 -15.796  17.265  1.00  0.00     0.033 C 
ATOM     27  C   UNL     1      14.411 -16.476  18.256  1.00  0.00     0.120 C 
ATOM     28  C   UNL     1      15.747 -16.328  20.397  1.00  0.00     0.014 C 
ATOM     29  C   UNL     1      13.369 -15.734  20.458  1.00  0.00     0.014 C 
ENDROOT
BRANCH   1  30
ATOM     30  C   UNL     1      15.157  -6.300  16.080  1.00  0.00     0.048 C 
ATOM     31  O   UNL     1      15.045  -5.626  15.024  1.00  0.00    -0.550 OA
ATOM     32  O   UNL     1      14.238  -6.078  17.102  1.00  0.00    -0.550 OA
ENDBRANCH   1  30
BRANCH  27  33
ATOM     33  O   UNL     1      15.630 -16.729  17.603  1.00  0.00    -0.393 OA
ATOM     34  H   UNL     1      15.656 -17.697  17.381  1.00  0.00     0.210 HD
ENDBRANCH  27  33
TORSDOF 2
ENDMDL
MODEL 6
REMARK VINA RESULT:    -4.973      1.977      8.695
REMARK INTER + INTRA:          -5.554
REMARK INTER:                  -5.319
REMARK INTRA:                  -0.236
REMARK UNBOUND:                -0.146
REMARK SMILES CC1(C)CC[C@@]2(C(=O)[O-])CC[C@@]3(C)C(=CC[C@@H]4[C@@]5(C)CC[C@@H](O)C(C)(C)[C@H]5CC[C@@]43C)[C@H]2C1
REMARK SMILES IDX 6 1 5 2 10 3 32 4 4 5 11 6 14 7 33 8 2 9 12 10 15 11 1 12
REMARK SMILES IDX 3 13 13 14 30 15 16 16 17 17 29 18 31 19 18 20 28 21 27 22
REMARK SMILES IDX 20 23 19 24 24 25 21 26 22 27 25 28 26 29 7 30 8 31 9 32
REMARK SMILES IDX 23 33
REMARK H PARENT 23 34
REMARK Flexibility Score: inf
ROOT
ATOM      1  C   UNL     1      19.033  -9.312  11.447  1.00  0.00     0.017 C 
ATOM      2  C   UNL     1      20.125  -8.206  11.424  1.00  0.00     0.014 C 
ATOM      3  C   UNL     1      19.490 -10.499  12.340  1.00  0.00     0.014 C 
ATOM      4  C   UNL     1      17.656  -8.727  11.954  1.00  0.00     0.028 C 
ATOM      5  C   UNL     1      19.738  -6.946  10.615  1.00  0.00     0.007 C 
ATOM      6  C   UNL     1      19.489 -10.232  13.859  1.00  0.00     0.013 C 
ATOM      7  C   UNL     1      17.209  -9.353  13.295  1.00  0.00    -0.064 C 
ATOM      8  C   UNL     1      17.557  -7.182  11.943  1.00  0.00     0.015 C 
ATOM      9  C   UNL     1      18.226  -6.532  10.705  1.00  0.00    -0.035 C 
ATOM     10  C   UNL     1      18.210  -9.510  14.460  1.00  0.00    -0.006 C 
ATOM     11  C   UNL     1      16.079 -10.075  13.256  1.00  0.00    -0.027 C 
ATOM     12  C   UNL     1      17.458  -6.928   9.402  1.00  0.00     0.011 C 
ATOM     13  C   UNL     1      18.128  -4.997  10.854  1.00  0.00     0.011 C 
ATOM     14  C   UNL     1      18.634  -8.081  14.933  1.00  0.00     0.017 C 
ATOM     15  C   UNL     1      17.603 -10.304  15.754  1.00  0.00    -0.020 C 
ATOM     16  C   UNL     1      15.626 -11.023  14.300  1.00  0.00     0.032 C 
ATOM     17  C   UNL     1      16.704 -11.528  15.310  1.00  0.00     0.006 C 
ATOM     18  C   UNL     1      16.676  -9.391  16.615  1.00  0.00     0.008 C 
ATOM     19  C   UNL     1      18.821 -10.747  16.649  1.00  0.00     0.012 C 
ATOM     20  C   UNL     1      15.970 -12.361  16.484  1.00  0.00    -0.025 C 
ATOM     21  C   UNL     1      15.992 -10.103  17.797  1.00  0.00     0.005 C 
ATOM     22  C   UNL     1      15.182 -11.395  17.464  1.00  0.00     0.003 C 
ATOM     23  C   UNL     1      16.962 -13.254  17.293  1.00  0.00     0.010 C 
ATOM     24  C   UNL     1      14.991 -13.361  15.777  1.00  0.00     0.012 C 
ATOM     25  C   UNL     1      14.612 -12.095  18.788  1.00  0.00    -0.006 C 
ATOM     26  C   UNL     1      16.334 -13.990  18.486  1.00  0.00     0.033 C 
ATOM     27  C   UNL     1      15.672 -13.020  19.468  1.00  0.00     0.120 C 
ATOM     28  C   UNL     1      14.146 -11.037  19.829  1.00  0.00     0.014 C 
ATOM     29  C   UNL     1      13.324 -12.919  18.489  1.00  0.00     0.014 C 
ENDROOT
BRANCH   1  30
ATOM     30  C   UNL     1      18.895  -9.912  10.045  1.00  0.00     0.048 C 
ATOM     31  O   UNL     1      19.898 -10.095   9.309  1.00  0.00    -0.550 OA
ATOM     32  O   UNL     1      17.659 -10.373   9.598  1.00  0.00    -0.550 OA
ENDBRANCH   1  30
BRANCH  27  33
ATOM     33  O   UNL     1      16.679 -12.260  20.089  1.00  0.00    -0.393 OA
ATOM     34  H   UNL     1      17.555 -12.652  19.827  1.00  0.00     0.210 HD
ENDBRANCH  27  33
TORSDOF 2
ENDMDL
MODEL 7
REMARK VINA RESULT:    -4.870      1.634      2.728
REMARK INTER + INTRA:          -5.442
REMARK INTER:                  -5.211
REMARK INTRA:                  -0.231
REMARK UNBOUND:                -0.146
REMARK SMILES CC1(C)CC[C@@]2(C(=O)[O-])CC[C@@]3(C)C(=CC[C@@H]4[C@@]5(C)CC[C@@H](O)C(C)(C)[C@H]5CC[C@@]43C)[C@H]2C1
REMARK SMILES IDX 6 1 5 2 10 3 32 4 4 5 11 6 14 7 33 8 2 9 12 10 15 11 1 12
REMARK SMILES IDX 3 13 13 14 30 15 16 16 17 17 29 18 31 19 18 20 28 21 27 22
REMARK SMILES IDX 20 23 19 24 24 25 21 26 22 27 25 28 26 29 7 30 8 31 9 32
REMARK SMILES IDX 23 33
REMARK H PARENT 23 34
REMARK Flexibility Score: inf
ROOT
ATOM      1  C   UNL     1      15.779 -12.889  19.240  1.00  0.00     0.017 C 
ATOM      2  C   UNL     1      15.816 -14.378  19.686  1.00  0.00     0.014 C 
ATOM      3  C   UNL     1      17.205 -12.410  18.848  1.00  0.00     0.014 C 
ATOM      4  C   UNL     1      14.772 -12.691  18.038  1.00  0.00     0.028 C 
ATOM      5  C   UNL     1      14.431 -14.973  20.033  1.00  0.00     0.007 C 
ATOM      6  C   UNL     1      17.757 -12.968  17.521  1.00  0.00     0.013 C 
ATOM      7  C   UNL     1      15.485 -12.249  16.740  1.00  0.00    -0.064 C 
ATOM      8  C   UNL     1      13.779 -13.858  17.818  1.00  0.00     0.015 C 
ATOM      9  C   UNL     1      13.244 -14.468  19.139  1.00  0.00    -0.035 C 
ATOM     10  C   UNL     1      16.776 -12.957  16.274  1.00  0.00    -0.006 C 
ATOM     11  C   UNL     1      15.164 -11.030  16.282  1.00  0.00    -0.027 C 
ATOM     12  C   UNL     1      12.370 -13.422  19.905  1.00  0.00     0.011 C 
ATOM     13  C   UNL     1      12.332 -15.664  18.783  1.00  0.00     0.011 C 
ATOM     14  C   UNL     1      16.419 -14.438  15.920  1.00  0.00     0.017 C 
ATOM     15  C   UNL     1      17.464 -12.280  14.954  1.00  0.00    -0.020 C 
ATOM     16  C   UNL     1      15.927 -10.261  15.271  1.00  0.00     0.032 C 
ATOM     17  C   UNL     1      17.403 -10.701  15.016  1.00  0.00     0.006 C 
ATOM     18  C   UNL     1      16.719 -12.678  13.641  1.00  0.00     0.008 C 
ATOM     19  C   UNL     1      18.940 -12.822  14.861  1.00  0.00     0.012 C 
ATOM     20  C   UNL     1      17.976  -9.894  13.739  1.00  0.00    -0.025 C 
ATOM     21  C   UNL     1      17.255 -11.998  12.367  1.00  0.00     0.005 C 
ATOM     22  C   UNL     1      17.345 -10.440  12.390  1.00  0.00     0.003 C 
ATOM     23  C   UNL     1      19.533  -9.932  13.657  1.00  0.00     0.010 C 
ATOM     24  C   UNL     1      17.605  -8.387  13.960  1.00  0.00     0.012 C 
ATOM     25  C   UNL     1      18.015  -9.866  11.052  1.00  0.00    -0.006 C 
ATOM     26  C   UNL     1      20.125  -9.266  12.405  1.00  0.00     0.033 C 
ATOM     27  C   UNL     1      19.575  -9.886  11.118  1.00  0.00     0.120 C 
ATOM     28  C   UNL     1      17.568 -10.679   9.804  1.00  0.00     0.014 C 
ATOM     29  C   UNL     1      17.530  -8.416  10.747  1.00  0.00     0.014 C 
ENDROOT
BRANCH   1  30
ATOM     30  C   UNL     1      15.390 -12.014  20.435  1.00  0.00     0.048 C 
ATOM     31  O   UNL     1      15.753 -12.304  21.604  1.00  0.00    -0.550 OA
ATOM     32  O   UNL     1      14.716 -10.812  20.235  1.00  0.00    -0.550 OA
ENDBRANCH   1  30
BRANCH  27  33
ATOM     33  O   UNL     1      20.067 -11.199  11.013  1.00  0.00    -0.393 OA
ATOM     34  H   UNL     1      20.784 -11.307  11.693  1.00  0.00     0.210 HD
ENDBRANCH  27  33
TORSDOF 2
ENDMDL
MODEL 8
REMARK VINA RESULT:    -4.276      1.802      2.601
REMARK INTER + INTRA:          -4.797
REMARK INTER:                  -4.562
REMARK INTRA:                  -0.235
REMARK UNBOUND:                -0.146
REMARK SMILES CC1(C)CC[C@@]2(C(=O)[O-])CC[C@@]3(C)C(=CC[C@@H]4[C@@]5(C)CC[C@@H](O)C(C)(C)[C@H]5CC[C@@]43C)[C@H]2C1
REMARK SMILES IDX 6 1 5 2 10 3 32 4 4 5 11 6 14 7 33 8 2 9 12 10 15 11 1 12
REMARK SMILES IDX 3 13 13 14 30 15 16 16 17 17 29 18 31 19 18 20 28 21 27 22
REMARK SMILES IDX 20 23 19 24 24 25 21 26 22 27 25 28 26 29 7 30 8 31 9 32
REMARK SMILES IDX 23 33
REMARK H PARENT 23 34
REMARK Flexibility Score: inf
ROOT
ATOM      1  C   UNL     1      14.720 -13.267  19.549  1.00  0.00     0.017 C 
ATOM      2  C   UNL     1      14.405 -12.863  21.017  1.00  0.00     0.014 C 
ATOM      3  C   UNL     1      13.948 -12.347  18.561  1.00  0.00     0.014 C 
ATOM      4  C   UNL     1      16.275 -13.204  19.274  1.00  0.00     0.028 C 
ATOM      5  C   UNL     1      15.179 -13.676  22.081  1.00  0.00     0.007 C 
ATOM      6  C   UNL     1      14.467 -10.900  18.451  1.00  0.00     0.013 C 
ATOM      7  C   UNL     1      16.644 -12.125  18.231  1.00  0.00    -0.064 C 
ATOM      8  C   UNL     1      17.162 -13.152  20.541  1.00  0.00     0.015 C 
ATOM      9  C   UNL     1      16.650 -14.061  21.688  1.00  0.00    -0.035 C 
ATOM     10  C   UNL     1      16.037 -10.708  18.319  1.00  0.00    -0.006 C 
ATOM     11  C   UNL     1      17.176 -12.575  17.085  1.00  0.00    -0.027 C 
ATOM     12  C   UNL     1      16.743 -15.565  21.272  1.00  0.00     0.011 C 
ATOM     13  C   UNL     1      17.572 -13.858  22.912  1.00  0.00     0.011 C 
ATOM     14  C   UNL     1      16.558 -10.035  19.631  1.00  0.00     0.017 C 
ATOM     15  C   UNL     1      16.436  -9.735  17.067  1.00  0.00    -0.020 C 
ATOM     16  C   UNL     1      17.307 -11.797  15.831  1.00  0.00     0.032 C 
ATOM     17  C   UNL     1      16.417 -10.523  15.695  1.00  0.00     0.006 C 
ATOM     18  C   UNL     1      17.885  -9.171  17.208  1.00  0.00     0.008 C 
ATOM     19  C   UNL     1      15.435  -8.519  17.076  1.00  0.00     0.012 C 
ATOM     20  C   UNL     1      16.870  -9.707  14.376  1.00  0.00    -0.025 C 
ATOM     21  C   UNL     1      18.363  -8.324  16.013  1.00  0.00     0.005 C 
ATOM     22  C   UNL     1      18.263  -8.983  14.602  1.00  0.00     0.003 C 
ATOM     23  C   UNL     1      15.795  -8.674  13.914  1.00  0.00     0.010 C 
ATOM     24  C   UNL     1      16.967 -10.756  13.214  1.00  0.00     0.012 C 
ATOM     25  C   UNL     1      18.689  -7.964  13.441  1.00  0.00    -0.006 C 
ATOM     26  C   UNL     1      16.218  -7.800  12.723  1.00  0.00     0.033 C 
ATOM     27  C   UNL     1      17.510  -7.032  13.012  1.00  0.00     0.120 C 
ATOM     28  C   UNL     1      19.882  -7.070  13.885  1.00  0.00     0.014 C 
ATOM     29  C   UNL     1      19.232  -8.718  12.190  1.00  0.00     0.014 C 
ENDROOT
BRANCH   1  30
ATOM     30  C   UNL     1      14.169 -14.671  19.283  1.00  0.00     0.048 C 
ATOM     31  O   UNL     1      13.058 -15.036  19.746  1.00  0.00    -0.550 OA
ATOM     32  O   UNL     1      14.841 -15.538  18.426  1.00  0.00    -0.550 OA
ENDBRANCH   1  30
BRANCH  27  33
ATOM     33  O   UNL     1      17.243  -6.070  14.003  1.00  0.00    -0.393 OA
ATOM     34  H   UNL     1      16.786  -5.305  13.563  1.00  0.00     0.210 HD
ENDBRANCH  27  33
TORSDOF 2
ENDMDL
MODEL 9
REMARK VINA RESULT:    -3.753      2.453      8.249
REMARK INTER + INTRA:          -4.228
REMARK INTER:                  -4.128
REMARK INTRA:                  -0.099
REMARK UNBOUND:                -0.146
REMARK SMILES CC1(C)CC[C@@]2(C(=O)[O-])CC[C@@]3(C)C(=CC[C@@H]4[C@@]5(C)CC[C@@H](O)C(C)(C)[C@H]5CC[C@@]43C)[C@H]2C1
REMARK SMILES IDX 6 1 5 2 10 3 32 4 4 5 11 6 14 7 33 8 2 9 12 10 15 11 1 12
REMARK SMILES IDX 3 13 13 14 30 15 16 16 17 17 29 18 31 19 18 20 28 21 27 22
REMARK SMILES IDX 20 23 19 24 24 25 21 26 22 27 25 28 26 29 7 30 8 31 9 32
REMARK SMILES IDX 23 33
REMARK H PARENT 23 34
REMARK Flexibility Score: inf
ROOT
ATOM      1  C   UNL     1      15.980  -7.866  13.550  1.00  0.00     0.017 C 
ATOM      2  C   UNL     1      16.826  -8.175  12.283  1.00  0.00     0.014 C 
ATOM      3  C   UNL     1      14.973  -9.020  13.817  1.00  0.00     0.014 C 
ATOM      4  C   UNL     1      16.914  -7.636  14.803  1.00  0.00     0.028 C 
ATOM      5  C   UNL     1      17.909  -7.117  11.967  1.00  0.00     0.007 C 
ATOM      6  C   UNL     1      15.586 -10.334  14.342  1.00  0.00     0.013 C 
ATOM      7  C   UNL     1      16.717  -8.717  15.890  1.00  0.00    -0.064 C 
ATOM      8  C   UNL     1      18.404  -7.376  14.470  1.00  0.00     0.015 C 
ATOM      9  C   UNL     1      18.607  -6.480  13.222  1.00  0.00    -0.035 C 
ATOM     10  C   UNL     1      16.655 -10.212  15.509  1.00  0.00    -0.006 C 
ATOM     11  C   UNL     1      16.230  -8.286  17.063  1.00  0.00    -0.027 C 
ATOM     12  C   UNL     1      18.066  -5.039  13.493  1.00  0.00     0.011 C 
ATOM     13  C   UNL     1      20.125  -6.364  12.953  1.00  0.00     0.011 C 
ATOM     14  C   UNL     1      18.050 -10.627  14.937  1.00  0.00     0.017 C 
ATOM     15  C   UNL     1      16.315 -11.204  16.763  1.00  0.00    -0.020 C 
ATOM     16  C   UNL     1      15.655  -9.144  18.126  1.00  0.00     0.032 C 
ATOM     17  C   UNL     1      15.211 -10.581  17.709  1.00  0.00     0.006 C 
ATOM     18  C   UNL     1      17.562 -11.442  17.671  1.00  0.00     0.008 C 
ATOM     19  C   UNL     1      15.876 -12.593  16.162  1.00  0.00     0.012 C 
ATOM     20  C   UNL     1      14.829 -11.416  19.039  1.00  0.00    -0.025 C 
ATOM     21  C   UNL     1      17.289 -12.290  18.928  1.00  0.00     0.005 C 
ATOM     22  C   UNL     1      16.129 -11.812  19.857  1.00  0.00     0.003 C 
ATOM     23  C   UNL     1      13.984 -12.689  18.723  1.00  0.00     0.010 C 
ATOM     24  C   UNL     1      13.892 -10.492  19.892  1.00  0.00     0.012 C 
ATOM     25  C   UNL     1      15.879 -12.835  21.065  1.00  0.00    -0.006 C 
ATOM     26  C   UNL     1      13.680 -13.573  19.942  1.00  0.00     0.033 C 
ATOM     27  C   UNL     1      14.960 -14.027  20.648  1.00  0.00     0.120 C 
ATOM     28  C   UNL     1      17.221 -13.415  21.599  1.00  0.00     0.014 C 
ATOM     29  C   UNL     1      15.264 -12.116  22.303  1.00  0.00     0.014 C 
ENDROOT
BRANCH   1  30
ATOM     30  C   UNL     1      15.103  -6.639  13.283  1.00  0.00     0.048 C 
ATOM     31  O   UNL     1      14.600  -5.977  14.227  1.00  0.00    -0.550 OA
ATOM     32  O   UNL     1      14.935  -6.165  11.985  1.00  0.00    -0.550 OA
ENDBRANCH   1  30
BRANCH  27  33
ATOM     33  O   UNL     1      15.643 -14.917  19.801  1.00  0.00    -0.393 OA
ATOM     34  H   UNL     1      15.154 -14.945  18.937  1.00  0.00     0.210 HD
ENDBRANCH  27  33
TORSDOF 2
ENDMDL
