MODEL 1
REMARK VINA RESULT:    -4.041      0.000      0.000
REMARK INTER + INTRA:         -12.921
REMARK INTER:                  -9.238
REMARK INTRA:                  -3.682
REMARK UNBOUND:                -3.682
REMARK SMILES CCCCCCCCCCCCCCCCCCCCCCCC(=O)[O-]
REMARK SMILES IDX 13 1 14 2 15 3 16 4 17 5 18 6 19 7 20 8 21 9 22 10 23 11
REMARK SMILES IDX 24 12 25 13 26 14 12 15 11 16 10 17 9 18 8 19 7 20 6 21 5 22
REMARK SMILES IDX 4 23 3 24 2 25 1 26
REMARK H PARENT
REMARK Flexibility Score: inf
ROOT
ATOM      1  C   UNL     1      12.691  25.419  33.518  1.00  0.00     0.000 C 
ENDROOT
BRANCH   1   2
ATOM      2  C   UNL     1      12.629  26.347  34.741  1.00  0.00     0.000 C 
BRANCH   2   3
ATOM      3  C   UNL     1      11.601  27.479  34.576  1.00  0.00     0.000 C 
BRANCH   3   4
ATOM      4  C   UNL     1      11.740  28.565  35.657  1.00  0.00     0.000 C 
BRANCH   4   5
ATOM      5  C   UNL     1      12.649  28.131  36.817  1.00  0.00     0.000 C 
BRANCH   5   6
ATOM      6  C   UNL     1      13.907  29.008  36.950  1.00  0.00     0.000 C 
BRANCH   6   7
ATOM      7  C   UNL     1      14.465  29.457  35.588  1.00  0.00     0.000 C 
BRANCH   7   8
ATOM      8  C   UNL     1      14.998  30.903  35.538  1.00  0.00     0.000 C 
BRANCH   8   9
ATOM      9  C   UNL     1      16.361  31.071  34.841  1.00  0.00     0.000 C 
BRANCH   9  10
ATOM     10  C   UNL     1      16.252  31.055  33.309  1.00  0.00     0.006 C 
BRANCH  10  11
ATOM     11  C   UNL     1      17.091  29.923  32.711  1.00  0.00     0.053 C 
BRANCH  11  12
ATOM     12  C   UNL     1      16.847  29.811  31.240  1.00  0.00     0.041 C 
ATOM     13  O   UNL     1      16.522  30.829  30.572  1.00  0.00    -0.550 OA
ATOM     14  O   UNL     1      17.030  28.596  30.594  1.00  0.00    -0.550 OA
ENDBRANCH  11  12
ENDBRANCH  10  11
ENDBRANCH   9  10
ENDBRANCH   8   9
ENDBRANCH   7   8
ENDBRANCH   6   7
ENDBRANCH   5   6
ENDBRANCH   4   5
ENDBRANCH   3   4
ENDBRANCH   2   3
ENDBRANCH   1   2
BRANCH   1  15
ATOM     15  C   UNL     1      14.128  25.293  32.991  1.00  0.00     0.000 C 
BRANCH  15  16
ATOM     16  C   UNL     1      14.973  26.555  33.241  1.00  0.00     0.000 C 
BRANCH  16  17
ATOM     17  C   UNL     1      16.481  26.303  33.425  1.00  0.00     0.000 C 
BRANCH  17  18
ATOM     18  C   UNL     1      17.009  26.799  34.779  1.00  0.00    -0.000 C 
BRANCH  18  19
ATOM     19  C   UNL     1      16.158  26.255  35.932  1.00  0.00    -0.000 C 
BRANCH  19  20
ATOM     20  C   UNL     1      16.499  24.785  36.223  1.00  0.00    -0.000 C 
BRANCH  20  21
ATOM     21  C   UNL     1      15.246  23.944  36.548  1.00  0.00    -0.000 C 
BRANCH  21  22
ATOM     22  C   UNL     1      15.227  22.571  35.854  1.00  0.00    -0.000 C 
BRANCH  22  23
ATOM     23  C   UNL     1      15.837  22.606  34.443  1.00  0.00    -0.000 C 
BRANCH  23  24
ATOM     24  C   UNL     1      16.059  21.203  33.852  1.00  0.00    -0.000 C 
BRANCH  24  25
ATOM     25  C   UNL     1      16.106  20.069  34.893  1.00  0.00    -0.003 C 
ATOM     26  C   UNL     1      15.120  18.941  34.591  1.00  0.00     0.004 C 
ENDBRANCH  24  25
ENDBRANCH  23  24
ENDBRANCH  22  23
ENDBRANCH  21  22
ENDBRANCH  20  21
ENDBRANCH  19  20
ENDBRANCH  18  19
ENDBRANCH  17  18
ENDBRANCH  16  17
ENDBRANCH  15  16
ENDBRANCH   1  15
TORSDOF 22
ENDMDL
MODEL 2
REMARK VINA RESULT:    -3.839      4.612      9.065
REMARK INTER + INTRA:         -12.460
REMARK INTER:                  -9.491
REMARK INTRA:                  -2.969
REMARK UNBOUND:                -3.682
REMARK SMILES CCCCCCCCCCCCCCCCCCCCCCCC(=O)[O-]
REMARK SMILES IDX 13 1 14 2 15 3 16 4 17 5 18 6 19 7 20 8 21 9 22 10 23 11
REMARK SMILES IDX 24 12 25 13 26 14 12 15 11 16 10 17 9 18 8 19 7 20 6 21 5 22
REMARK SMILES IDX 4 23 3 24 2 25 1 26
REMARK H PARENT
REMARK Flexibility Score: inf
ROOT
ATOM      1  C   UNL     1      14.423  24.447  33.958  1.00  0.00     0.000 C 
ENDROOT
BRANCH   1   2
ATOM      2  C   UNL     1      15.281  23.622  32.987  1.00  0.00     0.000 C 
BRANCH   2   3
ATOM      3  C   UNL     1      16.349  22.780  33.706  1.00  0.00     0.000 C 
BRANCH   3   4
ATOM      4  C   UNL     1      16.688  23.326  35.104  1.00  0.00     0.000 C 
BRANCH   4   5
ATOM      5  C   UNL     1      16.618  22.245  36.194  1.00  0.00     0.000 C 
BRANCH   5   6
ATOM      6  C   UNL     1      15.211  21.639  36.344  1.00  0.00     0.000 C 
BRANCH   6   7
ATOM      7  C   UNL     1      15.223  20.101  36.350  1.00  0.00     0.000 C 
BRANCH   7   8
ATOM      8  C   UNL     1      15.274  19.437  34.960  1.00  0.00     0.000 C 
BRANCH   8   9
ATOM      9  C   UNL     1      16.637  18.829  34.577  1.00  0.00     0.000 C 
BRANCH   9  10
ATOM     10  C   UNL     1      16.679  17.304  34.753  1.00  0.00     0.006 C 
BRANCH  10  11
ATOM     11  C   UNL     1      15.304  16.683  34.493  1.00  0.00     0.053 C 
BRANCH  11  12
ATOM     12  C   UNL     1      15.427  15.206  34.289  1.00  0.00     0.041 C 
ATOM     13  O   UNL     1      16.421  14.583  34.750  1.00  0.00    -0.550 OA
ATOM     14  O   UNL     1      14.420  14.507  33.637  1.00  0.00    -0.550 OA
ENDBRANCH  11  12
ENDBRANCH  10  11
ENDBRANCH   9  10
ENDBRANCH   8   9
ENDBRANCH   7   8
ENDBRANCH   6   7
ENDBRANCH   5   6
ENDBRANCH   4   5
ENDBRANCH   3   4
ENDBRANCH   2   3
ENDBRANCH   1   2
BRANCH   1  15
ATOM     15  C   UNL     1      13.349  25.246  33.204  1.00  0.00     0.000 C 
BRANCH  15  16
ATOM     16  C   UNL     1      12.680  26.324  34.075  1.00  0.00     0.000 C 
BRANCH  16  17
ATOM     17  C   UNL     1      12.830  26.119  35.594  1.00  0.00     0.000 C 
BRANCH  17  18
ATOM     18  C   UNL     1      11.991  27.108  36.417  1.00  0.00    -0.000 C 
BRANCH  18  19
ATOM     19  C   UNL     1      11.548  28.299  35.559  1.00  0.00    -0.000 C 
BRANCH  19  20
ATOM     20  C   UNL     1      11.973  29.628  36.202  1.00  0.00    -0.000 C 
BRANCH  20  21
ATOM     21  C   UNL     1      13.435  29.603  36.693  1.00  0.00    -0.000 C 
BRANCH  21  22
ATOM     22  C   UNL     1      14.415  30.329  35.754  1.00  0.00    -0.000 C 
BRANCH  22  23
ATOM     23  C   UNL     1      15.710  29.536  35.511  1.00  0.00    -0.000 C 
BRANCH  23  24
ATOM     24  C   UNL     1      15.633  28.635  34.265  1.00  0.00    -0.000 C 
BRANCH  24  25
ATOM     25  C   UNL     1      16.399  27.306  34.386  1.00  0.00    -0.003 C 
ATOM     26  C   UNL     1      17.125  26.915  33.098  1.00  0.00     0.004 C 
ENDBRANCH  24  25
ENDBRANCH  23  24
ENDBRANCH  22  23
ENDBRANCH  21  22
ENDBRANCH  20  21
ENDBRANCH  19  20
ENDBRANCH  18  19
ENDBRANCH  17  18
ENDBRANCH  16  17
ENDBRANCH  15  16
ENDBRANCH   1  15
TORSDOF 22
ENDMDL
MODEL 3
REMARK VINA RESULT:    -3.827      4.664      9.940
REMARK INTER + INTRA:         -12.431
REMARK INTER:                 -10.134
REMARK INTRA:                  -2.297
REMARK UNBOUND:                -3.682
REMARK SMILES CCCCCCCCCCCCCCCCCCCCCCCC(=O)[O-]
REMARK SMILES IDX 13 1 14 2 15 3 16 4 17 5 18 6 19 7 20 8 21 9 22 10 23 11
REMARK SMILES IDX 24 12 25 13 26 14 12 15 11 16 10 17 9 18 8 19 7 20 6 21 5 22
REMARK SMILES IDX 4 23 3 24 2 25 1 26
REMARK H PARENT
REMARK Flexibility Score: inf
ROOT
ATOM      1  C   UNL     1      14.859  24.076  33.366  1.00  0.00     0.000 C 
ENDROOT
BRANCH   1   2
ATOM      2  C   UNL     1      15.002  23.912  34.887  1.00  0.00     0.000 C 
BRANCH   2   3
ATOM      3  C   UNL     1      15.630  22.565  35.283  1.00  0.00     0.000 C 
BRANCH   3   4
ATOM      4  C   UNL     1      16.135  21.769  34.066  1.00  0.00     0.000 C 
BRANCH   4   5
ATOM      5  C   UNL     1      15.601  20.329  34.039  1.00  0.00     0.000 C 
BRANCH   5   6
ATOM      6  C   UNL     1      15.464  19.717  35.444  1.00  0.00     0.000 C 
BRANCH   6   7
ATOM      7  C   UNL     1      16.307  18.442  35.622  1.00  0.00     0.000 C 
BRANCH   7   8
ATOM      8  C   UNL     1      16.209  17.421  34.470  1.00  0.00     0.000 C 
BRANCH   8   9
ATOM      9  C   UNL     1      15.041  16.423  34.581  1.00  0.00     0.000 C 
BRANCH   9  10
ATOM     10  C   UNL     1      15.507  14.960  34.591  1.00  0.00     0.006 C 
BRANCH  10  11
ATOM     11  C   UNL     1      14.524  14.066  33.830  1.00  0.00     0.053 C 
BRANCH  11  12
ATOM     12  C   UNL     1      15.064  13.729  32.476  1.00  0.00     0.041 C 
ATOM     13  O   UNL     1      14.437  12.937  31.723  1.00  0.00    -0.550 OA
ATOM     14  O   UNL     1      16.231  14.329  32.022  1.00  0.00    -0.550 OA
ENDBRANCH  11  12
ENDBRANCH  10  11
ENDBRANCH   9  10
ENDBRANCH   8   9
ENDBRANCH   7   8
ENDBRANCH   6   7
ENDBRANCH   5   6
ENDBRANCH   4   5
ENDBRANCH   3   4
ENDBRANCH   2   3
ENDBRANCH   1   2
BRANCH   1  15
ATOM     15  C   UNL     1      13.772  25.105  33.021  1.00  0.00     0.000 C 
BRANCH  15  16
ATOM     16  C   UNL     1      13.002  25.603  34.257  1.00  0.00     0.000 C 
BRANCH  16  17
ATOM     17  C   UNL     1      12.495  27.055  34.166  1.00  0.00     0.000 C 
BRANCH  17  18
ATOM     18  C   UNL     1      11.578  27.443  35.335  1.00  0.00    -0.000 C 
BRANCH  18  19
ATOM     19  C   UNL     1      12.019  28.771  35.961  1.00  0.00    -0.000 C 
BRANCH  19  20
ATOM     20  C   UNL     1      13.491  28.711  36.399  1.00  0.00    -0.000 C 
BRANCH  20  21
ATOM     21  C   UNL     1      14.338  29.835  35.769  1.00  0.00    -0.000 C 
BRANCH  21  22
ATOM     22  C   UNL     1      15.794  29.425  35.483  1.00  0.00    -0.000 C 
BRANCH  22  23
ATOM     23  C   UNL     1      15.964  27.905  35.314  1.00  0.00    -0.000 C 
BRANCH  23  24
ATOM     24  C   UNL     1      16.291  27.498  33.866  1.00  0.00    -0.000 C 
BRANCH  24  25
ATOM     25  C   UNL     1      16.403  28.673  32.878  1.00  0.00    -0.003 C 
ATOM     26  C   UNL     1      17.105  28.293  31.574  1.00  0.00     0.004 C 
ENDBRANCH  24  25
ENDBRANCH  23  24
ENDBRANCH  22  23
ENDBRANCH  21  22
ENDBRANCH  20  21
ENDBRANCH  19  20
ENDBRANCH  18  19
ENDBRANCH  17  18
ENDBRANCH  16  17
ENDBRANCH  15  16
ENDBRANCH   1  15
TORSDOF 22
ENDMDL
MODEL 4
REMARK VINA RESULT:    -3.749      3.075      5.733
REMARK INTER + INTRA:         -12.252
REMARK INTER:                 -10.014
REMARK INTRA:                  -2.239
REMARK UNBOUND:                -3.682
REMARK SMILES CCCCCCCCCCCCCCCCCCCCCCCC(=O)[O-]
REMARK SMILES IDX 13 1 14 2 15 3 16 4 17 5 18 6 19 7 20 8 21 9 22 10 23 11
REMARK SMILES IDX 24 12 25 13 26 14 12 15 11 16 10 17 9 18 8 19 7 20 6 21 5 22
REMARK SMILES IDX 4 23 3 24 2 25 1 26
REMARK H PARENT
REMARK Flexibility Score: inf
ROOT
ATOM      1  C   UNL     1      15.483  24.360  34.961  1.00  0.00     0.000 C 
ENDROOT
BRANCH   1   2
ATOM      2  C   UNL     1      16.555  25.427  34.687  1.00  0.00     0.000 C 
BRANCH   2   3
ATOM      3  C   UNL     1      16.415  26.067  33.296  1.00  0.00     0.000 C 
BRANCH   3   4
ATOM      4  C   UNL     1      15.566  27.350  33.320  1.00  0.00     0.000 C 
BRANCH   4   5
ATOM      5  C   UNL     1      16.340  28.560  33.867  1.00  0.00     0.000 C 
BRANCH   5   6
ATOM      6  C   UNL     1      15.498  29.426  34.821  1.00  0.00     0.000 C 
BRANCH   6   7
ATOM      7  C   UNL     1      15.600  28.967  36.286  1.00  0.00     0.000 C 
BRANCH   7   8
ATOM      8  C   UNL     1      14.351  28.254  36.841  1.00  0.00     0.000 C 
BRANCH   8   9
ATOM      9  C   UNL     1      13.007  28.891  36.445  1.00  0.00     0.000 C 
BRANCH   9  10
ATOM     10  C   UNL     1      11.932  27.849  36.101  1.00  0.00     0.006 C 
BRANCH  10  11
ATOM     11  C   UNL     1      12.557  26.609  35.456  1.00  0.00     0.053 C 
BRANCH  11  12
ATOM     12  C   UNL     1      12.064  26.444  34.054  1.00  0.00     0.041 C 
ATOM     13  O   UNL     1      12.437  25.459  33.361  1.00  0.00    -0.550 OA
ATOM     14  O   UNL     1      11.150  27.347  33.526  1.00  0.00    -0.550 OA
ENDBRANCH  11  12
ENDBRANCH  10  11
ENDBRANCH   9  10
ENDBRANCH   8   9
ENDBRANCH   7   8
ENDBRANCH   6   7
ENDBRANCH   5   6
ENDBRANCH   4   5
ENDBRANCH   3   4
ENDBRANCH   2   3
ENDBRANCH   1   2
BRANCH   1  15
ATOM     15  C   UNL     1      15.258  23.474  33.726  1.00  0.00     0.000 C 
BRANCH  15  16
ATOM     16  C   UNL     1      16.291  22.339  33.605  1.00  0.00     0.000 C 
BRANCH  16  17
ATOM     17  C   UNL     1      15.775  20.945  34.006  1.00  0.00     0.000 C 
BRANCH  17  18
ATOM     18  C   UNL     1      15.838  20.697  35.520  1.00  0.00    -0.000 C 
BRANCH  18  19
ATOM     19  C   UNL     1      15.719  19.202  35.837  1.00  0.00    -0.000 C 
BRANCH  19  20
ATOM     20  C   UNL     1      15.466  18.387  34.559  1.00  0.00    -0.000 C 
BRANCH  20  21
ATOM     21  C   UNL     1      15.278  16.883  34.848  1.00  0.00    -0.000 C 
BRANCH  21  22
ATOM     22  C   UNL     1      16.276  15.981  34.100  1.00  0.00    -0.000 C 
BRANCH  22  23
ATOM     23  C   UNL     1      15.849  14.504  34.080  1.00  0.00    -0.000 C 
BRANCH  23  24
ATOM     24  C   UNL     1      14.496  14.282  33.381  1.00  0.00    -0.000 C 
BRANCH  24  25
ATOM     25  C   UNL     1      14.525  13.246  32.242  1.00  0.00    -0.003 C 
ATOM     26  C   UNL     1      15.829  13.271  31.445  1.00  0.00     0.004 C 
ENDBRANCH  24  25
ENDBRANCH  23  24
ENDBRANCH  22  23
ENDBRANCH  21  22
ENDBRANCH  20  21
ENDBRANCH  19  20
ENDBRANCH  18  19
ENDBRANCH  17  18
ENDBRANCH  16  17
ENDBRANCH  15  16
ENDBRANCH   1  15
TORSDOF 22
ENDMDL
MODEL 5
REMARK VINA RESULT:    -3.601      4.795     10.163
REMARK INTER + INTRA:         -11.915
REMARK INTER:                  -9.636
REMARK INTRA:                  -2.280
REMARK UNBOUND:                -3.682
REMARK SMILES CCCCCCCCCCCCCCCCCCCCCCCC(=O)[O-]
REMARK SMILES IDX 13 1 14 2 15 3 16 4 17 5 18 6 19 7 20 8 21 9 22 10 23 11
REMARK SMILES IDX 24 12 25 13 26 14 12 15 11 16 10 17 9 18 8 19 7 20 6 21 5 22
REMARK SMILES IDX 4 23 3 24 2 25 1 26
REMARK H PARENT
REMARK Flexibility Score: inf
ROOT
ATOM      1  C   UNL     1      16.108  24.462  34.541  1.00  0.00     0.000 C 
ENDROOT
BRANCH   1   2
ATOM      2  C   UNL     1      15.440  23.078  34.499  1.00  0.00     0.000 C 
BRANCH   2   3
ATOM      3  C   UNL     1      16.435  21.931  34.743  1.00  0.00     0.000 C 
BRANCH   3   4
ATOM      4  C   UNL     1      16.192  20.731  33.811  1.00  0.00     0.000 C 
BRANCH   4   5
ATOM      5  C   UNL     1      15.554  19.537  34.538  1.00  0.00     0.000 C 
BRANCH   5   6
ATOM      6  C   UNL     1      15.304  19.814  36.032  1.00  0.00     0.000 C 
BRANCH   6   7
ATOM      7  C   UNL     1      15.924  18.743  36.947  1.00  0.00     0.000 C 
BRANCH   7   8
ATOM      8  C   UNL     1      16.534  17.528  36.220  1.00  0.00     0.000 C 
BRANCH   8   9
ATOM      9  C   UNL     1      15.671  16.253  36.244  1.00  0.00     0.000 C 
BRANCH   9  10
ATOM     10  C   UNL     1      16.095  15.227  35.183  1.00  0.00     0.006 C 
BRANCH  10  11
ATOM     11  C   UNL     1      15.211  15.329  33.936  1.00  0.00     0.053 C 
BRANCH  11  12
ATOM     12  C   UNL     1      14.466  14.051  33.717  1.00  0.00     0.041 C 
ATOM     13  O   UNL     1      14.290  13.611  32.549  1.00  0.00    -0.550 OA
ATOM     14  O   UNL     1      14.011  13.315  34.804  1.00  0.00    -0.550 OA
ENDBRANCH  11  12
ENDBRANCH  10  11
ENDBRANCH   9  10
ENDBRANCH   8   9
ENDBRANCH   7   8
ENDBRANCH   6   7
ENDBRANCH   5   6
ENDBRANCH   4   5
ENDBRANCH   3   4
ENDBRANCH   2   3
ENDBRANCH   1   2
BRANCH   1  15
ATOM     15  C   UNL     1      15.362  25.463  33.645  1.00  0.00     0.000 C 
BRANCH  15  16
ATOM     16  C   UNL     1      14.168  24.834  32.906  1.00  0.00     0.000 C 
BRANCH  16  17
ATOM     17  C   UNL     1      12.783  25.300  33.392  1.00  0.00     0.000 C 
BRANCH  17  18
ATOM     18  C   UNL     1      12.835  26.627  34.164  1.00  0.00    -0.000 C 
BRANCH  18  19
ATOM     19  C   UNL     1      12.662  26.393  35.669  1.00  0.00    -0.000 C 
BRANCH  19  20
ATOM     20  C   UNL     1      11.661  27.393  36.270  1.00  0.00    -0.000 C 
BRANCH  20  21
ATOM     21  C   UNL     1      11.563  28.694  35.446  1.00  0.00    -0.000 C 
BRANCH  21  22
ATOM     22  C   UNL     1      11.976  29.952  36.229  1.00  0.00    -0.000 C 
BRANCH  22  23
ATOM     23  C   UNL     1      13.364  29.823  36.880  1.00  0.00    -0.000 C 
BRANCH  23  24
ATOM     24  C   UNL     1      14.511  30.180  35.918  1.00  0.00    -0.000 C 
BRANCH  24  25
ATOM     25  C   UNL     1      15.379  28.986  35.483  1.00  0.00    -0.003 C 
ATOM     26  C   UNL     1      15.860  29.093  34.035  1.00  0.00     0.004 C 
ENDBRANCH  24  25
ENDBRANCH  23  24
ENDBRANCH  22  23
ENDBRANCH  21  22
ENDBRANCH  20  21
ENDBRANCH  19  20
ENDBRANCH  18  19
ENDBRANCH  17  18
ENDBRANCH  16  17
ENDBRANCH  15  16
ENDBRANCH   1  15
TORSDOF 22
ENDMDL
MODEL 6
REMARK VINA RESULT:    -3.582      5.253     10.744
REMARK INTER + INTRA:         -11.870
REMARK INTER:                  -9.181
REMARK INTRA:                  -2.689
REMARK UNBOUND:                -3.682
REMARK SMILES CCCCCCCCCCCCCCCCCCCCCCCC(=O)[O-]
REMARK SMILES IDX 13 1 14 2 15 3 16 4 17 5 18 6 19 7 20 8 21 9 22 10 23 11
REMARK SMILES IDX 24 12 25 13 26 14 12 15 11 16 10 17 9 18 8 19 7 20 6 21 5 22
REMARK SMILES IDX 4 23 3 24 2 25 1 26
REMARK H PARENT
REMARK Flexibility Score: inf
ROOT
ATOM      1  C   UNL     1      15.805  22.849  33.744  1.00  0.00     0.000 C 
ENDROOT
BRANCH   1   2
ATOM      2  C   UNL     1      16.382  21.469  33.394  1.00  0.00     0.000 C 
BRANCH   2   3
ATOM      3  C   UNL     1      15.617  20.318  34.068  1.00  0.00     0.000 C 
BRANCH   3   4
ATOM      4  C   UNL     1      16.553  19.322  34.777  1.00  0.00     0.000 C 
BRANCH   4   5
ATOM      5  C   UNL     1      15.915  18.700  36.029  1.00  0.00     0.000 C 
BRANCH   5   6
ATOM      6  C   UNL     1      15.832  17.165  35.957  1.00  0.00     0.000 C 
BRANCH   6   7
ATOM      7  C   UNL     1      15.379  16.658  34.576  1.00  0.00     0.000 C 
BRANCH   7   8
ATOM      8  C   UNL     1      16.388  15.751  33.844  1.00  0.00     0.000 C 
BRANCH   8   9
ATOM      9  C   UNL     1      15.759  14.670  32.945  1.00  0.00     0.000 C 
BRANCH   9  10
ATOM     10  C   UNL     1      14.587  13.942  33.620  1.00  0.00     0.006 C 
BRANCH  10  11
ATOM     11  C   UNL     1      15.091  12.899  34.620  1.00  0.00     0.053 C 
BRANCH  11  12
ATOM     12  C   UNL     1      14.670  13.259  36.010  1.00  0.00     0.041 C 
ATOM     13  O   UNL     1      13.464  13.145  36.356  1.00  0.00    -0.550 OA
ATOM     14  O   UNL     1      15.616  13.670  36.940  1.00  0.00    -0.550 OA
ENDBRANCH  11  12
ENDBRANCH  10  11
ENDBRANCH   9  10
ENDBRANCH   8   9
ENDBRANCH   7   8
ENDBRANCH   6   7
ENDBRANCH   5   6
ENDBRANCH   4   5
ENDBRANCH   3   4
ENDBRANCH   2   3
ENDBRANCH   1   2
BRANCH   1  15
ATOM     15  C   UNL     1      15.461  22.942  35.238  1.00  0.00     0.000 C 
BRANCH  15  16
ATOM     16  C   UNL     1      16.676  23.297  36.114  1.00  0.00     0.000 C 
BRANCH  16  17
ATOM     17  C   UNL     1      16.450  24.459  37.099  1.00  0.00     0.000 C 
BRANCH  17  18
ATOM     18  C   UNL     1      15.268  25.356  36.705  1.00  0.00    -0.000 C 
BRANCH  18  19
ATOM     19  C   UNL     1      15.758  26.709  36.175  1.00  0.00    -0.000 C 
BRANCH  19  20
ATOM     20  C   UNL     1      16.095  26.624  34.678  1.00  0.00    -0.000 C 
BRANCH  20  21
ATOM     21  C   UNL     1      14.945  27.137  33.787  1.00  0.00    -0.000 C 
BRANCH  21  22
ATOM     22  C   UNL     1      14.070  26.015  33.201  1.00  0.00    -0.000 C 
BRANCH  22  23
ATOM     23  C   UNL     1      12.805  25.747  34.034  1.00  0.00    -0.000 C 
BRANCH  23  24
ATOM     24  C   UNL     1      11.746  26.854  33.885  1.00  0.00    -0.000 C 
BRANCH  24  25
ATOM     25  C   UNL     1      11.652  27.817  35.083  1.00  0.00    -0.003 C 
ATOM     26  C   UNL     1      11.887  27.124  36.425  1.00  0.00     0.004 C 
ENDBRANCH  24  25
ENDBRANCH  23  24
ENDBRANCH  22  23
ENDBRANCH  21  22
ENDBRANCH  20  21
ENDBRANCH  19  20
ENDBRANCH  18  19
ENDBRANCH  17  18
ENDBRANCH  16  17
ENDBRANCH  15  16
ENDBRANCH   1  15
TORSDOF 22
ENDMDL
MODEL 7
REMARK VINA RESULT:    -3.578      1.976      3.515
REMARK INTER + INTRA:         -11.862
REMARK INTER:                  -9.946
REMARK INTRA:                  -1.915
REMARK UNBOUND:                -3.682
REMARK SMILES CCCCCCCCCCCCCCCCCCCCCCCC(=O)[O-]
REMARK SMILES IDX 13 1 14 2 15 3 16 4 17 5 18 6 19 7 20 8 21 9 22 10 23 11
REMARK SMILES IDX 24 12 25 13 26 14 12 15 11 16 10 17 9 18 8 19 7 20 6 21 5 22
REMARK SMILES IDX 4 23 3 24 2 25 1 26
REMARK H PARENT
REMARK Flexibility Score: inf
ROOT
ATOM      1  C   UNL     1      13.640  24.875  33.365  1.00  0.00     0.000 C 
ENDROOT
BRANCH   1   2
ATOM      2  C   UNL     1      13.815  26.077  34.307  1.00  0.00     0.000 C 
BRANCH   2   3
ATOM      3  C   UNL     1      13.352  25.779  35.743  1.00  0.00     0.000 C 
BRANCH   3   4
ATOM      4  C   UNL     1      12.227  26.720  36.208  1.00  0.00     0.000 C 
BRANCH   4   5
ATOM      5  C   UNL     1      11.922  27.827  35.187  1.00  0.00     0.000 C 
BRANCH   5   6
ATOM      6  C   UNL     1      11.954  29.235  35.807  1.00  0.00     0.000 C 
BRANCH   6   7
ATOM      7  C   UNL     1      13.246  29.509  36.598  1.00  0.00     0.000 C 
BRANCH   7   8
ATOM      8  C   UNL     1      14.438  30.008  35.758  1.00  0.00     0.000 C 
BRANCH   8   9
ATOM      9  C   UNL     1      15.450  28.920  35.352  1.00  0.00     0.000 C 
BRANCH   9  10
ATOM     10  C   UNL     1      15.998  29.116  33.931  1.00  0.00     0.006 C 
BRANCH  10  11
ATOM     11  C   UNL     1      16.416  30.571  33.700  1.00  0.00     0.053 C 
BRANCH  11  12
ATOM     12  C   UNL     1      16.375  30.902  32.242  1.00  0.00     0.041 C 
ATOM     13  O   UNL     1      15.996  32.042  31.861  1.00  0.00    -0.550 OA
ATOM     14  O   UNL     1      16.807  29.973  31.305  1.00  0.00    -0.550 OA
ENDBRANCH  11  12
ENDBRANCH  10  11
ENDBRANCH   9  10
ENDBRANCH   8   9
ENDBRANCH   7   8
ENDBRANCH   6   7
ENDBRANCH   5   6
ENDBRANCH   4   5
ENDBRANCH   3   4
ENDBRANCH   2   3
ENDBRANCH   1   2
BRANCH   1  15
ATOM     15  C   UNL     1      15.000  24.362  32.867  1.00  0.00     0.000 C 
BRANCH  15  16
ATOM     16  C   UNL     1      16.125  24.540  33.901  1.00  0.00     0.000 C 
BRANCH  16  17
ATOM     17  C   UNL     1      16.724  23.228  34.443  1.00  0.00     0.000 C 
BRANCH  17  18
ATOM     18  C   UNL     1      16.551  22.048  33.477  1.00  0.00    -0.000 C 
BRANCH  18  19
ATOM     19  C   UNL     1      15.627  20.980  34.074  1.00  0.00    -0.000 C 
BRANCH  19  20
ATOM     20  C   UNL     1      16.146  20.505  35.440  1.00  0.00    -0.000 C 
BRANCH  20  21
ATOM     21  C   UNL     1      16.618  19.036  35.411  1.00  0.00    -0.000 C 
BRANCH  21  22
ATOM     22  C   UNL     1      15.616  18.079  34.741  1.00  0.00    -0.000 C 
BRANCH  22  23
ATOM     23  C   UNL     1      16.245  16.730  34.353  1.00  0.00    -0.000 C 
BRANCH  23  24
ATOM     24  C   UNL     1      15.217  15.586  34.296  1.00  0.00    -0.000 C 
BRANCH  24  25
ATOM     25  C   UNL     1      15.583  14.442  33.333  1.00  0.00    -0.003 C 
ATOM     26  C   UNL     1      14.362  13.678  32.822  1.00  0.00     0.004 C 
ENDBRANCH  24  25
ENDBRANCH  23  24
ENDBRANCH  22  23
ENDBRANCH  21  22
ENDBRANCH  20  21
ENDBRANCH  19  20
ENDBRANCH  18  19
ENDBRANCH  17  18
ENDBRANCH  16  17
ENDBRANCH  15  16
ENDBRANCH   1  15
TORSDOF 22
ENDMDL
MODEL 8
REMARK VINA RESULT:    -3.440      2.699      4.893
REMARK INTER + INTRA:         -11.546
REMARK INTER:                  -9.747
REMARK INTRA:                  -1.799
REMARK UNBOUND:                -3.682
REMARK SMILES CCCCCCCCCCCCCCCCCCCCCCCC(=O)[O-]
REMARK SMILES IDX 13 1 14 2 15 3 16 4 17 5 18 6 19 7 20 8 21 9 22 10 23 11
REMARK SMILES IDX 24 12 25 13 26 14 12 15 11 16 10 17 9 18 8 19 7 20 6 21 5 22
REMARK SMILES IDX 4 23 3 24 2 25 1 26
REMARK H PARENT
REMARK Flexibility Score: inf
ROOT
ATOM      1  C   UNL     1      14.737  24.262  34.039  1.00  0.00     0.000 C 
ENDROOT
BRANCH   1   2
ATOM      2  C   UNL     1      15.589  24.726  35.232  1.00  0.00     0.000 C 
BRANCH   2   3
ATOM      3  C   UNL     1      14.854  24.587  36.575  1.00  0.00     0.000 C 
BRANCH   3   4
ATOM      4  C   UNL     1      13.382  25.028  36.491  1.00  0.00     0.000 C 
BRANCH   4   5
ATOM      5  C   UNL     1      13.204  26.539  36.711  1.00  0.00     0.000 C 
BRANCH   5   6
ATOM      6  C   UNL     1      11.947  27.098  36.022  1.00  0.00     0.000 C 
BRANCH   6   7
ATOM      7  C   UNL     1      12.055  28.601  35.713  1.00  0.00     0.000 C 
BRANCH   7   8
ATOM      8  C   UNL     1      12.927  29.413  36.691  1.00  0.00     0.000 C 
BRANCH   8   9
ATOM      9  C   UNL     1      14.072  30.210  36.038  1.00  0.00     0.000 C 
BRANCH   9  10
ATOM     10  C   UNL     1      15.363  29.390  35.900  1.00  0.00     0.006 C 
BRANCH  10  11
ATOM     11  C   UNL     1      16.129  29.782  34.633  1.00  0.00     0.053 C 
BRANCH  11  12
ATOM     12  C   UNL     1      15.915  28.765  33.557  1.00  0.00     0.041 C 
ATOM     13  O   UNL     1      16.591  28.814  32.494  1.00  0.00    -0.550 OA
ATOM     14  O   UNL     1      15.009  27.730  33.747  1.00  0.00    -0.550 OA
ENDBRANCH  11  12
ENDBRANCH  10  11
ENDBRANCH   9  10
ENDBRANCH   8   9
ENDBRANCH   7   8
ENDBRANCH   6   7
ENDBRANCH   5   6
ENDBRANCH   4   5
ENDBRANCH   3   4
ENDBRANCH   2   3
ENDBRANCH   1   2
BRANCH   1  15
ATOM     15  C   UNL     1      15.593  23.511  33.008  1.00  0.00     0.000 C 
BRANCH  15  16
ATOM     16  C   UNL     1      16.558  22.499  33.651  1.00  0.00     0.000 C 
BRANCH  16  17
ATOM     17  C   UNL     1      15.946  21.119  33.957  1.00  0.00     0.000 C 
BRANCH  17  18
ATOM     18  C   UNL     1      15.583  20.941  35.438  1.00  0.00    -0.000 C 
BRANCH  18  19
ATOM     19  C   UNL     1      15.585  19.459  35.829  1.00  0.00    -0.000 C 
BRANCH  19  20
ATOM     20  C   UNL     1      15.174  18.576  34.641  1.00  0.00    -0.000 C 
BRANCH  20  21
ATOM     21  C   UNL     1      16.029  17.296  34.536  1.00  0.00    -0.000 C 
BRANCH  21  22
ATOM     22  C   UNL     1      15.214  15.997  34.659  1.00  0.00    -0.000 C 
BRANCH  22  23
ATOM     23  C   UNL     1      15.545  14.976  33.558  1.00  0.00    -0.000 C 
BRANCH  23  24
ATOM     24  C   UNL     1      14.369  14.034  33.242  1.00  0.00    -0.000 C 
BRANCH  24  25
ATOM     25  C   UNL     1      14.656  12.996  32.143  1.00  0.00    -0.003 C 
ATOM     26  C   UNL     1      16.008  13.207  31.460  1.00  0.00     0.004 C 
ENDBRANCH  24  25
ENDBRANCH  23  24
ENDBRANCH  22  23
ENDBRANCH  21  22
ENDBRANCH  20  21
ENDBRANCH  19  20
ENDBRANCH  18  19
ENDBRANCH  17  18
ENDBRANCH  16  17
ENDBRANCH  15  16
ENDBRANCH   1  15
TORSDOF 22
ENDMDL
MODEL 9
REMARK VINA RESULT:    -3.410      2.841      4.978
REMARK INTER + INTRA:         -11.478
REMARK INTER:                  -9.675
REMARK INTRA:                  -1.803
REMARK UNBOUND:                -3.682
REMARK SMILES CCCCCCCCCCCCCCCCCCCCCCCC(=O)[O-]
REMARK SMILES IDX 13 1 14 2 15 3 16 4 17 5 18 6 19 7 20 8 21 9 22 10 23 11
REMARK SMILES IDX 24 12 25 13 26 14 12 15 11 16 10 17 9 18 8 19 7 20 6 21 5 22
REMARK SMILES IDX 4 23 3 24 2 25 1 26
REMARK H PARENT
REMARK Flexibility Score: inf
ROOT
ATOM      1  C   UNL     1      14.817  26.252  33.389  1.00  0.00     0.000 C 
ENDROOT
BRANCH   1   2
ATOM      2  C   UNL     1      16.308  26.244  33.018  1.00  0.00     0.000 C 
BRANCH   2   3
ATOM      3  C   UNL     1      16.869  27.657  32.786  1.00  0.00     0.000 C 
BRANCH   3   4
ATOM      4  C   UNL     1      16.538  28.620  33.940  1.00  0.00     0.000 C 
BRANCH   4   5
ATOM      5  C   UNL     1      16.336  30.067  33.462  1.00  0.00     0.000 C 
BRANCH   5   6
ATOM      6  C   UNL     1      16.492  31.096  34.596  1.00  0.00     0.000 C 
BRANCH   6   7
ATOM      7  C   UNL     1      15.272  32.025  34.727  1.00  0.00     0.000 C 
BRANCH   7   8
ATOM      8  C   UNL     1      14.516  31.934  36.068  1.00  0.00     0.000 C 
BRANCH   8   9
ATOM      9  C   UNL     1      14.351  30.509  36.627  1.00  0.00     0.000 C 
BRANCH   9  10
ATOM     10  C   UNL     1      13.027  29.854  36.206  1.00  0.00     0.006 C 
BRANCH  10  11
ATOM     11  C   UNL     1      13.268  28.470  35.598  1.00  0.00     0.053 C 
BRANCH  11  12
ATOM     12  C   UNL     1      11.981  27.715  35.488  1.00  0.00     0.041 C 
ATOM     13  O   UNL     1      11.554  27.043  36.465  1.00  0.00    -0.550 OA
ATOM     14  O   UNL     1      11.223  27.796  34.327  1.00  0.00    -0.550 OA
ENDBRANCH  11  12
ENDBRANCH  10  11
ENDBRANCH   9  10
ENDBRANCH   8   9
ENDBRANCH   7   8
ENDBRANCH   6   7
ENDBRANCH   5   6
ENDBRANCH   4   5
ENDBRANCH   3   4
ENDBRANCH   2   3
ENDBRANCH   1   2
BRANCH   1  15
ATOM     15  C   UNL     1      14.198  24.856  33.221  1.00  0.00     0.000 C 
BRANCH  15  16
ATOM     16  C   UNL     1      15.250  23.757  32.985  1.00  0.00     0.000 C 
BRANCH  16  17
ATOM     17  C   UNL     1      15.558  22.877  34.212  1.00  0.00     0.000 C 
BRANCH  17  18
ATOM     18  C   UNL     1      16.934  22.200  34.131  1.00  0.00    -0.000 C 
BRANCH  18  19
ATOM     19  C   UNL     1      16.838  20.717  34.508  1.00  0.00    -0.000 C 
BRANCH  19  20
ATOM     20  C   UNL     1      15.502  20.117  34.045  1.00  0.00    -0.000 C 
BRANCH  20  21
ATOM     21  C   UNL     1      15.255  18.710  34.630  1.00  0.00    -0.000 C 
BRANCH  21  22
ATOM     22  C   UNL     1      16.541  17.886  34.818  1.00  0.00    -0.000 C 
BRANCH  22  23
ATOM     23  C   UNL     1      16.495  16.532  34.089  1.00  0.00    -0.000 C 
BRANCH  23  24
ATOM     24  C   UNL     1      15.432  15.580  34.665  1.00  0.00    -0.000 C 
BRANCH  24  25
ATOM     25  C   UNL     1      14.728  14.697  33.619  1.00  0.00    -0.003 C 
ATOM     26  C   UNL     1      15.691  14.107  32.589  1.00  0.00     0.004 C 
ENDBRANCH  24  25
ENDBRANCH  23  24
ENDBRANCH  22  23
ENDBRANCH  21  22
ENDBRANCH  20  21
ENDBRANCH  19  20
ENDBRANCH  18  19
ENDBRANCH  17  18
ENDBRANCH  16  17
ENDBRANCH  15  16
ENDBRANCH   1  15
TORSDOF 22
ENDMDL
