MODEL 1
REMARK VINA RESULT:    -1.439      0.000      0.000
REMARK INTER + INTRA:          -4.332
REMARK INTER:                  -3.627
REMARK INTRA:                  -0.705
REMARK UNBOUND:                -0.705
REMARK SMILES CCCCCCCCCCCCCCCCCCCCCCCCCCCC(=O)[O-]
REMARK SMILES IDX 15 1 16 2 17 3 18 4 19 5 20 6 21 7 22 8 23 9 24 10 25 11
REMARK SMILES IDX 26 12 27 13 28 14 29 15 30 16 14 17 13 18 12 19 11 20 10 21
REMARK SMILES IDX 9 22 8 23 7 24 6 25 5 26 4 27 3 28 2 29 1 30
REMARK H PARENT
REMARK Flexibility Score: inf
ROOT
ATOM      1  C   UNL     1      46.258  11.932 -30.024  1.00  0.00     0.000 C 
ENDROOT
BRANCH   1   2
ATOM      2  C   UNL     1      45.766  11.876 -28.568  1.00  0.00     0.000 C 
BRANCH   2   3
ATOM      3  C   UNL     1      46.899  11.939 -27.523  1.00  0.00     0.000 C 
BRANCH   3   4
ATOM      4  C   UNL     1      46.369  11.901 -26.079  1.00  0.00     0.000 C 
BRANCH   4   5
ATOM      5  C   UNL     1      44.891  12.316 -25.983  1.00  0.00     0.000 C 
BRANCH   5   6
ATOM      6  C   UNL     1      44.244  12.082 -24.601  1.00  0.00     0.000 C 
BRANCH   6   7
ATOM      7  C   UNL     1      44.884  12.860 -23.432  1.00  0.00     0.000 C 
BRANCH   7   8
ATOM      8  C   UNL     1      46.172  13.629 -23.783  1.00  0.00     0.000 C 
BRANCH   8   9
ATOM      9  C   UNL     1      46.537  14.685 -22.725  1.00  0.00     0.000 C 
BRANCH   9  10
ATOM     10  C   UNL     1      45.931  16.065 -23.027  1.00  0.00     0.000 C 
BRANCH  10  11
ATOM     11  C   UNL     1      46.802  17.225 -22.514  1.00  0.00     0.000 C 
BRANCH  11  12
ATOM     12  C   UNL     1      46.304  18.599 -23.003  1.00  0.00     0.006 C 
BRANCH  12  13
ATOM     13  C   UNL     1      46.559  18.872 -24.495  1.00  0.00     0.053 C 
BRANCH  13  14
ATOM     14  C   UNL     1      47.481  20.032 -24.706  1.00  0.00     0.041 C 
ATOM     15  O   UNL     1      47.548  20.593 -25.831  1.00  0.00    -0.550 OA
ATOM     16  O   UNL     1      48.247  20.514 -23.652  1.00  0.00    -0.550 OA
ENDBRANCH  13  14
ENDBRANCH  12  13
ENDBRANCH  11  12
ENDBRANCH  10  11
ENDBRANCH   9  10
ENDBRANCH   8   9
ENDBRANCH   7   8
ENDBRANCH   6   7
ENDBRANCH   5   6
ENDBRANCH   4   5
ENDBRANCH   3   4
ENDBRANCH   2   3
ENDBRANCH   1   2
BRANCH   1  17
ATOM     17  C   UNL     1      45.218  12.526 -30.986  1.00  0.00     0.000 C 
BRANCH  17  18
ATOM     18  C   UNL     1      45.806  13.717 -31.759  1.00  0.00     0.000 C 
BRANCH  18  19
ATOM     19  C   UNL     1      45.634  13.585 -33.283  1.00  0.00     0.000 C 
BRANCH  19  20
ATOM     20  C   UNL     1      44.965  12.278 -33.756  1.00  0.00     0.000 C 
BRANCH  20  21
ATOM     21  C   UNL     1      43.422  12.295 -33.772  1.00  0.00     0.000 C 
BRANCH  21  22
ATOM     22  C   UNL     1      42.781  12.027 -35.146  1.00  0.00    -0.000 C 
BRANCH  22  23
ATOM     23  C   UNL     1      43.249  13.018 -36.225  1.00  0.00    -0.000 C 
BRANCH  23  24
ATOM     24  C   UNL     1      42.075  13.662 -36.983  1.00  0.00    -0.000 C 
BRANCH  24  25
ATOM     25  C   UNL     1      41.459  14.850 -36.228  1.00  0.00    -0.000 C 
BRANCH  25  26
ATOM     26  C   UNL     1      39.937  14.690 -36.104  1.00  0.00    -0.000 C 
BRANCH  26  27
ATOM     27  C   UNL     1      39.514  13.264 -35.704  1.00  0.00    -0.000 C 
BRANCH  27  28
ATOM     28  C   UNL     1      38.204  12.771 -36.344  1.00  0.00    -0.000 C 
BRANCH  28  29
ATOM     29  C   UNL     1      37.109  12.472 -35.311  1.00  0.00    -0.003 C 
ATOM     30  C   UNL     1      37.271  13.341 -34.069  1.00  0.00     0.004 C 
ENDBRANCH  28  29
ENDBRANCH  27  28
ENDBRANCH  26  27
ENDBRANCH  25  26
ENDBRANCH  24  25
ENDBRANCH  23  24
ENDBRANCH  22  23
ENDBRANCH  21  22
ENDBRANCH  20  21
ENDBRANCH  19  20
ENDBRANCH  18  19
ENDBRANCH  17  18
ENDBRANCH   1  17
TORSDOF 26
ENDMDL
MODEL 2
REMARK VINA RESULT:     0.821      2.660      3.265
REMARK INTER + INTRA:           1.363
REMARK INTER:                   2.137
REMARK INTRA:                  -0.774
REMARK UNBOUND:                -0.705
REMARK SMILES CCCCCCCCCCCCCCCCCCCCCCCCCCCC(=O)[O-]
REMARK SMILES IDX 15 1 16 2 17 3 18 4 19 5 20 6 21 7 22 8 23 9 24 10 25 11
REMARK SMILES IDX 26 12 27 13 28 14 29 15 30 16 14 17 13 18 12 19 11 20 10 21
REMARK SMILES IDX 9 22 8 23 7 24 6 25 5 26 4 27 3 28 2 29 1 30
REMARK H PARENT
REMARK Flexibility Score: inf
ROOT
ATOM      1  C   UNL     1      46.139  11.967 -29.775  1.00  0.00     0.000 C 
ENDROOT
BRANCH   1   2
ATOM      2  C   UNL     1      45.632  11.882 -28.325  1.00  0.00     0.000 C 
BRANCH   2   3
ATOM      3  C   UNL     1      46.751  11.969 -27.267  1.00  0.00     0.000 C 
BRANCH   3   4
ATOM      4  C   UNL     1      46.209  11.875 -25.830  1.00  0.00     0.000 C 
BRANCH   4   5
ATOM      5  C   UNL     1      44.796  12.468 -25.694  1.00  0.00     0.000 C 
BRANCH   5   6
ATOM      6  C   UNL     1      44.208  12.411 -24.268  1.00  0.00     0.000 C 
BRANCH   6   7
ATOM      7  C   UNL     1      44.702  13.512 -23.306  1.00  0.00     0.000 C 
BRANCH   7   8
ATOM      8  C   UNL     1      46.207  13.831 -23.390  1.00  0.00     0.000 C 
BRANCH   8   9
ATOM      9  C   UNL     1      46.604  15.044 -22.532  1.00  0.00     0.000 C 
BRANCH   9  10
ATOM     10  C   UNL     1      47.938  14.840 -21.795  1.00  0.00     0.000 C 
BRANCH  10  11
ATOM     11  C   UNL     1      48.433  16.115 -21.092  1.00  0.00     0.000 C 
BRANCH  11  12
ATOM     12  C   UNL     1      49.453  15.817 -19.976  1.00  0.00     0.006 C 
BRANCH  12  13
ATOM     13  C   UNL     1      50.035  14.394 -20.013  1.00  0.00     0.053 C 
BRANCH  13  14
ATOM     14  C   UNL     1      51.494  14.391 -20.352  1.00  0.00     0.041 C 
ATOM     15  O   UNL     1      51.925  15.094 -21.303  1.00  0.00    -0.550 OA
ATOM     16  O   UNL     1      52.382  13.632 -19.601  1.00  0.00    -0.550 OA
ENDBRANCH  13  14
ENDBRANCH  12  13
ENDBRANCH  11  12
ENDBRANCH  10  11
ENDBRANCH   9  10
ENDBRANCH   8   9
ENDBRANCH   7   8
ENDBRANCH   6   7
ENDBRANCH   5   6
ENDBRANCH   4   5
ENDBRANCH   3   4
ENDBRANCH   2   3
ENDBRANCH   1   2
BRANCH   1  17
ATOM     17  C   UNL     1      45.215  12.790 -30.685  1.00  0.00     0.000 C 
BRANCH  17  18
ATOM     18  C   UNL     1      46.031  13.610 -31.696  1.00  0.00     0.000 C 
BRANCH  18  19
ATOM     19  C   UNL     1      45.757  13.205 -33.156  1.00  0.00     0.000 C 
BRANCH  19  20
ATOM     20  C   UNL     1      44.856  11.966 -33.334  1.00  0.00     0.000 C 
BRANCH  20  21
ATOM     21  C   UNL     1      43.354  12.262 -33.522  1.00  0.00     0.000 C 
BRANCH  21  22
ATOM     22  C   UNL     1      42.780  11.875 -34.898  1.00  0.00    -0.000 C 
BRANCH  22  23
ATOM     23  C   UNL     1      43.358  12.721 -36.045  1.00  0.00    -0.000 C 
BRANCH  23  24
ATOM     24  C   UNL     1      42.264  13.333 -36.935  1.00  0.00    -0.000 C 
BRANCH  24  25
ATOM     25  C   UNL     1      41.858  14.748 -36.493  1.00  0.00    -0.000 C 
BRANCH  25  26
ATOM     26  C   UNL     1      40.410  14.768 -35.982  1.00  0.00    -0.000 C 
BRANCH  26  27
ATOM     27  C   UNL     1      39.759  13.372 -35.969  1.00  0.00    -0.000 C 
BRANCH  27  28
ATOM     28  C   UNL     1      38.391  13.286 -36.670  1.00  0.00    -0.000 C 
BRANCH  28  29
ATOM     29  C   UNL     1      37.404  14.359 -36.189  1.00  0.00    -0.003 C 
ATOM     30  C   UNL     1      37.531  14.590 -34.687  1.00  0.00     0.004 C 
ENDBRANCH  28  29
ENDBRANCH  27  28
ENDBRANCH  26  27
ENDBRANCH  25  26
ENDBRANCH  24  25
ENDBRANCH  23  24
ENDBRANCH  22  23
ENDBRANCH  21  22
ENDBRANCH  20  21
ENDBRANCH  19  20
ENDBRANCH  18  19
ENDBRANCH  17  18
ENDBRANCH   1  17
TORSDOF 26
ENDMDL
