MODEL 1
REMARK VINA RESULT:    -5.074      0.000      0.000
REMARK INTER + INTRA:         -14.191
REMARK INTER:                 -11.006
REMARK INTRA:                  -3.185
REMARK UNBOUND:                -3.185
REMARK SMILES CCCCCCCCCCCCCCCCCCCCCC(=O)[O-]
REMARK SMILES IDX 12 1 11 2 10 3 9 4 8 5 7 6 6 7 5 8 4 9 3 10 2 11 1 12 13 13
REMARK SMILES IDX 14 14 15 15 16 16 17 17 18 18 19 19 20 20 21 21 22 22 23 23
REMARK SMILES IDX 24 24
REMARK H PARENT
REMARK Flexibility Score: inf
ROOT
ATOM      1  C   UNL     1      31.381  31.301  17.318  1.00  0.00     0.000 C 
ENDROOT
BRANCH   1   2
ATOM      2  C   UNL     1      30.115  30.464  17.075  1.00  0.00     0.000 C 
BRANCH   2   3
ATOM      3  C   UNL     1      29.544  30.636  15.655  1.00  0.00     0.000 C 
BRANCH   3   4
ATOM      4  C   UNL     1      29.167  29.328  14.936  1.00  0.00    -0.000 C 
BRANCH   4   5
ATOM      5  C   UNL     1      29.277  29.429  13.407  1.00  0.00    -0.000 C 
BRANCH   5   6
ATOM      6  C   UNL     1      29.942  30.749  12.989  1.00  0.00    -0.000 C 
BRANCH   6   7
ATOM      7  C   UNL     1      30.584  30.674  11.594  1.00  0.00    -0.000 C 
BRANCH   7   8
ATOM      8  C   UNL     1      32.116  30.799  11.643  1.00  0.00    -0.000 C 
BRANCH   8   9
ATOM      9  C   UNL     1      32.835  29.527  11.164  1.00  0.00    -0.000 C 
BRANCH   9  10
ATOM     10  C   UNL     1      33.723  29.746   9.921  1.00  0.00    -0.000 C 
BRANCH  10  11
ATOM     11  C   UNL     1      33.476  31.113   9.266  1.00  0.00    -0.003 C 
ATOM     12  C   UNL     1      34.766  31.688   8.687  1.00  0.00     0.004 C 
ENDBRANCH  10  11
ENDBRANCH   9  10
ENDBRANCH   8   9
ENDBRANCH   7   8
ENDBRANCH   6   7
ENDBRANCH   5   6
ENDBRANCH   4   5
ENDBRANCH   3   4
ENDBRANCH   2   3
ENDBRANCH   1   2
BRANCH   1  13
ATOM     13  C   UNL     1      31.783  32.157  16.103  1.00  0.00     0.000 C 
BRANCH  13  14
ATOM     14  C   UNL     1      32.988  31.641  15.295  1.00  0.00     0.000 C 
BRANCH  14  15
ATOM     15  C   UNL     1      33.494  30.270  15.776  1.00  0.00     0.000 C 
BRANCH  15  16
ATOM     16  C   UNL     1      33.167  29.129  14.795  1.00  0.00     0.000 C 
BRANCH  16  17
ATOM     17  C   UNL     1      32.606  27.845  15.434  1.00  0.00     0.000 C 
BRANCH  17  18
ATOM     18  C   UNL     1      33.699  26.832  15.810  1.00  0.00     0.000 C 
BRANCH  18  19
ATOM     19  C   UNL     1      34.997  27.032  15.010  1.00  0.00     0.000 C 
BRANCH  19  20
ATOM     20  C   UNL     1      35.023  26.267  13.669  1.00  0.00     0.006 C 
BRANCH  20  21
ATOM     21  C   UNL     1      35.395  27.178  12.492  1.00  0.00     0.053 C 
BRANCH  21  22
ATOM     22  C   UNL     1      36.209  26.428  11.485  1.00  0.00     0.041 C 
ATOM     23  O   UNL     1      37.208  25.755  11.852  1.00  0.00    -0.550 OA
ATOM     24  O   UNL     1      35.834  26.431  10.148  1.00  0.00    -0.550 OA
ENDBRANCH  21  22
ENDBRANCH  20  21
ENDBRANCH  19  20
ENDBRANCH  18  19
ENDBRANCH  17  18
ENDBRANCH  16  17
ENDBRANCH  15  16
ENDBRANCH  14  15
ENDBRANCH  13  14
ENDBRANCH   1  13
TORSDOF 20
ENDMDL
MODEL 2
REMARK VINA RESULT:    -5.039      2.305      5.358
REMARK INTER + INTRA:         -14.116
REMARK INTER:                 -10.225
REMARK INTRA:                  -3.891
REMARK UNBOUND:                -3.185
REMARK SMILES CCCCCCCCCCCCCCCCCCCCCC(=O)[O-]
REMARK SMILES IDX 12 1 11 2 10 3 9 4 8 5 7 6 6 7 5 8 4 9 3 10 2 11 1 12 13 13
REMARK SMILES IDX 14 14 15 15 16 16 17 17 18 18 19 19 20 20 21 21 22 22 23 23
REMARK SMILES IDX 24 24
REMARK H PARENT
REMARK Flexibility Score: inf
ROOT
ATOM      1  C   UNL     1      33.619  30.097  15.993  1.00  0.00     0.000 C 
ENDROOT
BRANCH   1   2
ATOM      2  C   UNL     1      33.642  28.937  14.984  1.00  0.00     0.000 C 
BRANCH   2   3
ATOM      3  C   UNL     1      32.868  27.698  15.473  1.00  0.00     0.000 C 
BRANCH   3   4
ATOM      4  C   UNL     1      31.647  27.309  14.622  1.00  0.00    -0.000 C 
BRANCH   4   5
ATOM      5  C   UNL     1      30.784  26.217  15.272  1.00  0.00    -0.000 C 
BRANCH   5   6
ATOM      6  C   UNL     1      29.483  26.808  15.838  1.00  0.00    -0.000 C 
BRANCH   6   7
ATOM      7  C   UNL     1      28.353  25.771  15.931  1.00  0.00    -0.000 C 
BRANCH   7   8
ATOM      8  C   UNL     1      27.108  26.183  15.129  1.00  0.00    -0.000 C 
BRANCH   8   9
ATOM      9  C   UNL     1      27.393  27.306  14.118  1.00  0.00    -0.000 C 
BRANCH   9  10
ATOM     10  C   UNL     1      27.414  26.830  12.650  1.00  0.00    -0.000 C 
BRANCH  10  11
ATOM     11  C   UNL     1      28.248  27.757  11.753  1.00  0.00    -0.003 C 
ATOM     12  C   UNL     1      29.658  27.207  11.553  1.00  0.00     0.004 C 
ENDBRANCH  10  11
ENDBRANCH   9  10
ENDBRANCH   8   9
ENDBRANCH   7   8
ENDBRANCH   6   7
ENDBRANCH   5   6
ENDBRANCH   4   5
ENDBRANCH   3   4
ENDBRANCH   2   3
ENDBRANCH   1   2
BRANCH   1  13
ATOM     13  C   UNL     1      33.093  31.412  15.388  1.00  0.00     0.000 C 
BRANCH  13  14
ATOM     14  C   UNL     1      31.988  32.120  16.195  1.00  0.00     0.000 C 
BRANCH  14  15
ATOM     15  C   UNL     1      31.343  31.214  17.257  1.00  0.00     0.000 C 
BRANCH  15  16
ATOM     16  C   UNL     1      30.235  30.310  16.685  1.00  0.00     0.000 C 
BRANCH  16  17
ATOM     17  C   UNL     1      29.416  30.914  15.528  1.00  0.00     0.000 C 
BRANCH  17  18
ATOM     18  C   UNL     1      29.668  30.214  14.183  1.00  0.00     0.000 C 
BRANCH  18  19
ATOM     19  C   UNL     1      29.327  31.104  12.976  1.00  0.00     0.000 C 
BRANCH  19  20
ATOM     20  C   UNL     1      30.284  30.918  11.778  1.00  0.00     0.006 C 
BRANCH  20  21
ATOM     21  C   UNL     1      31.721  30.629  12.228  1.00  0.00     0.053 C 
BRANCH  21  22
ATOM     22  C   UNL     1      32.520  30.058  11.099  1.00  0.00     0.041 C 
ATOM     23  O   UNL     1      32.746  28.821  11.045  1.00  0.00    -0.550 OA
ATOM     24  O   UNL     1      32.970  30.886  10.079  1.00  0.00    -0.550 OA
ENDBRANCH  21  22
ENDBRANCH  20  21
ENDBRANCH  19  20
ENDBRANCH  18  19
ENDBRANCH  17  18
ENDBRANCH  16  17
ENDBRANCH  15  16
ENDBRANCH  14  15
ENDBRANCH  13  14
ENDBRANCH   1  13
TORSDOF 20
ENDMDL
MODEL 3
REMARK VINA RESULT:    -5.029      3.225      5.328
REMARK INTER + INTRA:         -14.095
REMARK INTER:                 -10.229
REMARK INTRA:                  -3.866
REMARK UNBOUND:                -3.185
REMARK SMILES CCCCCCCCCCCCCCCCCCCCCC(=O)[O-]
REMARK SMILES IDX 12 1 11 2 10 3 9 4 8 5 7 6 6 7 5 8 4 9 3 10 2 11 1 12 13 13
REMARK SMILES IDX 14 14 15 15 16 16 17 17 18 18 19 19 20 20 21 21 22 22 23 23
REMARK SMILES IDX 24 24
REMARK H PARENT
REMARK Flexibility Score: inf
ROOT
ATOM      1  C   UNL     1      33.596  29.859  16.154  1.00  0.00     0.000 C 
ENDROOT
BRANCH   1   2
ATOM      2  C   UNL     1      33.736  28.586  15.303  1.00  0.00     0.000 C 
BRANCH   2   3
ATOM      3  C   UNL     1      33.275  28.783  13.847  1.00  0.00     0.000 C 
BRANCH   3   4
ATOM      4  C   UNL     1      33.717  27.684  12.864  1.00  0.00    -0.000 C 
BRANCH   4   5
ATOM      5  C   UNL     1      34.712  28.186  11.808  1.00  0.00    -0.000 C 
BRANCH   5   6
ATOM      6  C   UNL     1      34.006  28.457  10.470  1.00  0.00    -0.000 C 
BRANCH   6   7
ATOM      7  C   UNL     1      34.015  29.945  10.086  1.00  0.00    -0.000 C 
BRANCH   7   8
ATOM      8  C   UNL     1      32.602  30.547  10.029  1.00  0.00    -0.000 C 
BRANCH   8   9
ATOM      9  C   UNL     1      32.054  30.917  11.417  1.00  0.00    -0.000 C 
BRANCH   9  10
ATOM     10  C   UNL     1      30.601  30.454  11.655  1.00  0.00    -0.000 C 
BRANCH  10  11
ATOM     11  C   UNL     1      30.429  28.945  11.427  1.00  0.00    -0.003 C 
ATOM     12  C   UNL     1      28.954  28.566  11.329  1.00  0.00     0.004 C 
ENDBRANCH  10  11
ENDBRANCH   9  10
ENDBRANCH   8   9
ENDBRANCH   7   8
ENDBRANCH   6   7
ENDBRANCH   5   6
ENDBRANCH   4   5
ENDBRANCH   3   4
ENDBRANCH   2   3
ENDBRANCH   1   2
BRANCH   1  13
ATOM     13  C   UNL     1      33.143  31.084  15.339  1.00  0.00     0.000 C 
BRANCH  13  14
ATOM     14  C   UNL     1      32.081  31.975  16.012  1.00  0.00     0.000 C 
BRANCH  14  15
ATOM     15  C   UNL     1      31.493  31.352  17.289  1.00  0.00     0.000 C 
BRANCH  15  16
ATOM     16  C   UNL     1      30.181  30.586  17.037  1.00  0.00     0.000 C 
BRANCH  16  17
ATOM     17  C   UNL     1      29.658  30.624  15.589  1.00  0.00     0.000 C 
BRANCH  17  18
ATOM     18  C   UNL     1      29.432  29.225  14.994  1.00  0.00     0.000 C 
BRANCH  18  19
ATOM     19  C   UNL     1      30.168  28.122  15.771  1.00  0.00     0.000 C 
BRANCH  19  20
ATOM     20  C   UNL     1      30.407  26.837  14.948  1.00  0.00     0.006 C 
BRANCH  20  21
ATOM     21  C   UNL     1      29.134  26.361  14.238  1.00  0.00     0.053 C 
BRANCH  21  22
ATOM     22  C   UNL     1      28.159  25.803  15.225  1.00  0.00     0.041 C 
ATOM     23  O   UNL     1      28.502  24.865  15.993  1.00  0.00    -0.550 OA
ATOM     24  O   UNL     1      26.888  26.352  15.333  1.00  0.00    -0.550 OA
ENDBRANCH  21  22
ENDBRANCH  20  21
ENDBRANCH  19  20
ENDBRANCH  18  19
ENDBRANCH  17  18
ENDBRANCH  16  17
ENDBRANCH  15  16
ENDBRANCH  14  15
ENDBRANCH  13  14
ENDBRANCH   1  13
TORSDOF 20
ENDMDL
MODEL 4
REMARK VINA RESULT:    -5.023      2.364      5.816
REMARK INTER + INTRA:         -14.081
REMARK INTER:                 -10.384
REMARK INTRA:                  -3.698
REMARK UNBOUND:                -3.185
REMARK SMILES CCCCCCCCCCCCCCCCCCCCCC(=O)[O-]
REMARK SMILES IDX 12 1 11 2 10 3 9 4 8 5 7 6 6 7 5 8 4 9 3 10 2 11 1 12 13 13
REMARK SMILES IDX 14 14 15 15 16 16 17 17 18 18 19 19 20 20 21 21 22 22 23 23
REMARK SMILES IDX 24 24
REMARK H PARENT
REMARK Flexibility Score: inf
ROOT
ATOM      1  C   UNL     1      33.168  31.148  15.382  1.00  0.00     0.000 C 
ENDROOT
BRANCH   1   2
ATOM      2  C   UNL     1      33.572  29.868  16.132  1.00  0.00     0.000 C 
BRANCH   2   3
ATOM      3  C   UNL     1      33.300  28.586  15.323  1.00  0.00     0.000 C 
BRANCH   3   4
ATOM      4  C   UNL     1      32.244  28.723  14.211  1.00  0.00    -0.000 C 
BRANCH   4   5
ATOM      5  C   UNL     1      31.409  27.449  14.014  1.00  0.00    -0.000 C 
BRANCH   5   6
ATOM      6  C   UNL     1      31.243  26.689  15.339  1.00  0.00    -0.000 C 
BRANCH   6   7
ATOM      7  C   UNL     1      29.857  26.893  15.971  1.00  0.00    -0.000 C 
BRANCH   7   8
ATOM      8  C   UNL     1      29.148  25.564  16.277  1.00  0.00    -0.000 C 
BRANCH   8   9
ATOM      9  C   UNL     1      27.953  25.296  15.347  1.00  0.00    -0.000 C 
BRANCH   9  10
ATOM     10  C   UNL     1      27.194  26.573  14.927  1.00  0.00    -0.000 C 
BRANCH  10  11
ATOM     11  C   UNL     1      27.226  26.792  13.407  1.00  0.00    -0.003 C 
ATOM     12  C   UNL     1      25.816  26.815  12.824  1.00  0.00     0.004 C 
ENDBRANCH  10  11
ENDBRANCH   9  10
ENDBRANCH   8   9
ENDBRANCH   7   8
ENDBRANCH   6   7
ENDBRANCH   5   6
ENDBRANCH   4   5
ENDBRANCH   3   4
ENDBRANCH   2   3
ENDBRANCH   1   2
BRANCH   1  13
ATOM     13  C   UNL     1      32.106  31.975  16.130  1.00  0.00     0.000 C 
BRANCH  13  14
ATOM     14  C   UNL     1      31.360  31.238  17.258  1.00  0.00     0.000 C 
BRANCH  14  15
ATOM     15  C   UNL     1      30.097  30.509  16.770  1.00  0.00     0.000 C 
BRANCH  15  16
ATOM     16  C   UNL     1      29.618  30.992  15.389  1.00  0.00     0.000 C 
BRANCH  16  17
ATOM     17  C   UNL     1      28.693  30.023  14.630  1.00  0.00     0.000 C 
BRANCH  17  18
ATOM     18  C   UNL     1      28.794  30.166  13.103  1.00  0.00     0.000 C 
BRANCH  18  19
ATOM     19  C   UNL     1      29.915  31.123  12.668  1.00  0.00     0.000 C 
BRANCH  19  20
ATOM     20  C   UNL     1      30.543  30.763  11.303  1.00  0.00     0.006 C 
BRANCH  20  21
ATOM     21  C   UNL     1      32.068  30.922  11.310  1.00  0.00     0.053 C 
BRANCH  21  22
ATOM     22  C   UNL     1      32.698  29.990  10.324  1.00  0.00     0.041 C 
ATOM     23  O   UNL     1      32.912  30.369   9.142  1.00  0.00    -0.550 OA
ATOM     24  O   UNL     1      33.096  28.721  10.723  1.00  0.00    -0.550 OA
ENDBRANCH  21  22
ENDBRANCH  20  21
ENDBRANCH  19  20
ENDBRANCH  18  19
ENDBRANCH  17  18
ENDBRANCH  16  17
ENDBRANCH  15  16
ENDBRANCH  14  15
ENDBRANCH  13  14
ENDBRANCH   1  13
TORSDOF 20
ENDMDL
MODEL 5
REMARK VINA RESULT:    -5.003      3.258      4.378
REMARK INTER + INTRA:         -14.038
REMARK INTER:                 -10.414
REMARK INTRA:                  -3.624
REMARK UNBOUND:                -3.185
REMARK SMILES CCCCCCCCCCCCCCCCCCCCCC(=O)[O-]
REMARK SMILES IDX 12 1 11 2 10 3 9 4 8 5 7 6 6 7 5 8 4 9 3 10 2 11 1 12 13 13
REMARK SMILES IDX 14 14 15 15 16 16 17 17 18 18 19 19 20 20 21 21 22 22 23 23
REMARK SMILES IDX 24 24
REMARK H PARENT
REMARK Flexibility Score: inf
ROOT
ATOM      1  C   UNL     1      31.845  32.151  16.235  1.00  0.00     0.000 C 
ENDROOT
BRANCH   1   2
ATOM      2  C   UNL     1      31.275  31.198  17.298  1.00  0.00     0.000 C 
BRANCH   2   3
ATOM      3  C   UNL     1      30.069  30.383  16.792  1.00  0.00     0.000 C 
BRANCH   3   4
ATOM      4  C   UNL     1      29.542  30.786  15.403  1.00  0.00    -0.000 C 
BRANCH   4   5
ATOM      5  C   UNL     1      29.056  29.588  14.573  1.00  0.00    -0.000 C 
BRANCH   5   6
ATOM      6  C   UNL     1      29.645  29.627  13.154  1.00  0.00    -0.000 C 
BRANCH   6   7
ATOM      7  C   UNL     1      30.134  31.027  12.753  1.00  0.00    -0.000 C 
BRANCH   7   8
ATOM      8  C   UNL     1      31.544  31.006  12.141  1.00  0.00    -0.000 C 
BRANCH   8   9
ATOM      9  C   UNL     1      31.953  29.614  11.632  1.00  0.00    -0.000 C 
BRANCH   9  10
ATOM     10  C   UNL     1      33.184  29.629  10.702  1.00  0.00    -0.000 C 
BRANCH  10  11
ATOM     11  C   UNL     1      33.065  30.692   9.600  1.00  0.00    -0.003 C 
ATOM     12  C   UNL     1      34.379  31.448   9.419  1.00  0.00     0.004 C 
ENDBRANCH  10  11
ENDBRANCH   9  10
ENDBRANCH   8   9
ENDBRANCH   7   8
ENDBRANCH   6   7
ENDBRANCH   5   6
ENDBRANCH   4   5
ENDBRANCH   3   4
ENDBRANCH   2   3
ENDBRANCH   1   2
BRANCH   1  13
ATOM     13  C   UNL     1      32.988  31.526  15.415  1.00  0.00     0.000 C 
BRANCH  13  14
ATOM     14  C   UNL     1      33.491  30.157  15.910  1.00  0.00     0.000 C 
BRANCH  14  15
ATOM     15  C   UNL     1      33.277  29.030  14.885  1.00  0.00     0.000 C 
BRANCH  15  16
ATOM     16  C   UNL     1      32.442  27.862  15.441  1.00  0.00     0.000 C 
BRANCH  16  17
ATOM     17  C   UNL     1      31.767  26.966  14.385  1.00  0.00     0.000 C 
BRANCH  17  18
ATOM     18  C   UNL     1      30.822  25.921  14.998  1.00  0.00     0.000 C 
BRANCH  18  19
ATOM     19  C   UNL     1      29.883  26.517  16.060  1.00  0.00     0.000 C 
BRANCH  19  20
ATOM     20  C   UNL     1      28.469  25.896  16.056  1.00  0.00     0.006 C 
BRANCH  20  21
ATOM     21  C   UNL     1      28.225  25.022  14.820  1.00  0.00     0.053 C 
BRANCH  21  22
ATOM     22  C   UNL     1      27.326  25.722  13.851  1.00  0.00     0.041 C 
ATOM     23  O   UNL     1      26.152  26.032  14.186  1.00  0.00    -0.550 OA
ATOM     24  O   UNL     1      27.800  26.079  12.596  1.00  0.00    -0.550 OA
ENDBRANCH  21  22
ENDBRANCH  20  21
ENDBRANCH  19  20
ENDBRANCH  18  19
ENDBRANCH  17  18
ENDBRANCH  16  17
ENDBRANCH  15  16
ENDBRANCH  14  15
ENDBRANCH  13  14
ENDBRANCH   1  13
TORSDOF 20
ENDMDL
MODEL 6
REMARK VINA RESULT:    -4.966      3.287      4.587
REMARK INTER + INTRA:         -13.956
REMARK INTER:                 -10.184
REMARK INTRA:                  -3.772
REMARK UNBOUND:                -3.185
REMARK SMILES CCCCCCCCCCCCCCCCCCCCCC(=O)[O-]
REMARK SMILES IDX 12 1 11 2 10 3 9 4 8 5 7 6 6 7 5 8 4 9 3 10 2 11 1 12 13 13
REMARK SMILES IDX 14 14 15 15 16 16 17 17 18 18 19 19 20 20 21 21 22 22 23 23
REMARK SMILES IDX 24 24
REMARK H PARENT
REMARK Flexibility Score: inf
ROOT
ATOM      1  C   UNL     1      31.008  31.035  17.258  1.00  0.00     0.000 C 
ENDROOT
BRANCH   1   2
ATOM      2  C   UNL     1      29.919  30.228  16.531  1.00  0.00     0.000 C 
BRANCH   2   3
ATOM      3  C   UNL     1      29.327  30.971  15.320  1.00  0.00     0.000 C 
BRANCH   3   4
ATOM      4  C   UNL     1      29.540  30.283  13.959  1.00  0.00    -0.000 C 
BRANCH   4   5
ATOM      5  C   UNL     1      29.574  31.272  12.784  1.00  0.00    -0.000 C 
BRANCH   5   6
ATOM      6  C   UNL     1      30.763  30.981  11.855  1.00  0.00    -0.000 C 
BRANCH   6   7
ATOM      7  C   UNL     1      31.700  29.897  12.412  1.00  0.00    -0.000 C 
BRANCH   7   8
ATOM      8  C   UNL     1      32.418  29.112  11.302  1.00  0.00    -0.000 C 
BRANCH   8   9
ATOM      9  C   UNL     1      33.601  28.283  11.827  1.00  0.00    -0.000 C 
BRANCH   9  10
ATOM     10  C   UNL     1      33.374  26.758  11.750  1.00  0.00    -0.000 C 
BRANCH  10  11
ATOM     11  C   UNL     1      34.623  25.965  12.164  1.00  0.00    -0.003 C 
ATOM     12  C   UNL     1      35.590  26.836  12.962  1.00  0.00     0.004 C 
ENDBRANCH  10  11
ENDBRANCH   9  10
ENDBRANCH   8   9
ENDBRANCH   7   8
ENDBRANCH   6   7
ENDBRANCH   5   6
ENDBRANCH   4   5
ENDBRANCH   3   4
ENDBRANCH   2   3
ENDBRANCH   1   2
BRANCH   1  13
ATOM     13  C   UNL     1      31.770  31.995  16.326  1.00  0.00     0.000 C 
BRANCH  13  14
ATOM     14  C   UNL     1      32.890  31.356  15.484  1.00  0.00     0.000 C 
BRANCH  14  15
ATOM     15  C   UNL     1      33.585  30.183  16.196  1.00  0.00     0.000 C 
BRANCH  15  16
ATOM     16  C   UNL     1      33.665  28.914  15.328  1.00  0.00     0.000 C 
BRANCH  16  17
ATOM     17  C   UNL     1      33.628  27.579  16.097  1.00  0.00     0.000 C 
BRANCH  17  18
ATOM     18  C   UNL     1      32.690  26.542  15.459  1.00  0.00     0.000 C 
BRANCH  18  19
ATOM     19  C   UNL     1      31.413  27.172  14.880  1.00  0.00     0.000 C 
BRANCH  19  20
ATOM     20  C   UNL     1      30.138  26.844  15.688  1.00  0.00     0.006 C 
BRANCH  20  21
ATOM     21  C   UNL     1      28.884  26.828  14.806  1.00  0.00     0.053 C 
BRANCH  21  22
ATOM     22  C   UNL     1      27.783  26.067  15.473  1.00  0.00     0.041 C 
ATOM     23  O   UNL     1      28.016  25.393  16.510  1.00  0.00    -0.550 OA
ATOM     24  O   UNL     1      26.486  26.145  14.980  1.00  0.00    -0.550 OA
ENDBRANCH  21  22
ENDBRANCH  20  21
ENDBRANCH  19  20
ENDBRANCH  18  19
ENDBRANCH  17  18
ENDBRANCH  16  17
ENDBRANCH  15  16
ENDBRANCH  14  15
ENDBRANCH  13  14
ENDBRANCH   1  13
TORSDOF 20
ENDMDL
MODEL 7
REMARK VINA RESULT:    -4.963      1.771      5.396
REMARK INTER + INTRA:         -13.951
REMARK INTER:                 -10.401
REMARK INTRA:                  -3.550
REMARK UNBOUND:                -3.185
REMARK SMILES CCCCCCCCCCCCCCCCCCCCCC(=O)[O-]
REMARK SMILES IDX 12 1 11 2 10 3 9 4 8 5 7 6 6 7 5 8 4 9 3 10 2 11 1 12 13 13
REMARK SMILES IDX 14 14 15 15 16 16 17 17 18 18 19 19 20 20 21 21 22 22 23 23
REMARK SMILES IDX 24 24
REMARK H PARENT
REMARK Flexibility Score: inf
ROOT
ATOM      1  C   UNL     1      31.382  31.248  17.409  1.00  0.00     0.000 C 
ENDROOT
BRANCH   1   2
ATOM      2  C   UNL     1      31.821  32.136  16.233  1.00  0.00     0.000 C 
BRANCH   2   3
ATOM      3  C   UNL     1      32.828  31.442  15.298  1.00  0.00     0.000 C 
BRANCH   3   4
ATOM      4  C   UNL     1      33.563  30.233  15.905  1.00  0.00    -0.000 C 
BRANCH   4   5
ATOM      5  C   UNL     1      33.381  28.945  15.088  1.00  0.00    -0.000 C 
BRANCH   5   6
ATOM      6  C   UNL     1      33.487  27.704  15.986  1.00  0.00    -0.000 C 
BRANCH   6   7
ATOM      7  C   UNL     1      32.963  26.431  15.303  1.00  0.00    -0.000 C 
BRANCH   7   8
ATOM      8  C   UNL     1      31.533  26.599  14.763  1.00  0.00    -0.000 C 
BRANCH   8   9
ATOM      9  C   UNL     1      30.459  26.150  15.767  1.00  0.00    -0.000 C 
BRANCH   9  10
ATOM     10  C   UNL     1      29.217  25.515  15.107  1.00  0.00    -0.000 C 
BRANCH  10  11
ATOM     11  C   UNL     1      27.906  26.041  15.711  1.00  0.00    -0.003 C 
ATOM     12  C   UNL     1      26.820  26.169  14.646  1.00  0.00     0.004 C 
ENDBRANCH  10  11
ENDBRANCH   9  10
ENDBRANCH   8   9
ENDBRANCH   7   8
ENDBRANCH   6   7
ENDBRANCH   5   6
ENDBRANCH   4   5
ENDBRANCH   3   4
ENDBRANCH   2   3
ENDBRANCH   1   2
BRANCH   1  13
ATOM     13  C   UNL     1      30.135  30.402  17.094  1.00  0.00     0.000 C 
BRANCH  13  14
ATOM     14  C   UNL     1      29.466  30.684  15.735  1.00  0.00     0.000 C 
BRANCH  14  15
ATOM     15  C   UNL     1      29.197  29.407  14.920  1.00  0.00     0.000 C 
BRANCH  15  16
ATOM     16  C   UNL     1      29.574  29.551  13.434  1.00  0.00     0.000 C 
BRANCH  16  17
ATOM     17  C   UNL     1      29.864  30.987  12.958  1.00  0.00     0.000 C 
BRANCH  17  18
ATOM     18  C   UNL     1      30.657  31.037  11.643  1.00  0.00     0.000 C 
BRANCH  18  19
ATOM     19  C   UNL     1      32.098  30.521  11.798  1.00  0.00     0.000 C 
BRANCH  19  20
ATOM     20  C   UNL     1      32.431  29.328  10.876  1.00  0.00     0.006 C 
BRANCH  20  21
ATOM     21  C   UNL     1      32.951  28.118  11.663  1.00  0.00     0.053 C 
BRANCH  21  22
ATOM     22  C   UNL     1      34.446  28.095  11.663  1.00  0.00     0.041 C 
ATOM     23  O   UNL     1      35.092  28.875  10.915  1.00  0.00    -0.550 OA
ATOM     24  O   UNL     1      35.128  27.248  12.527  1.00  0.00    -0.550 OA
ENDBRANCH  21  22
ENDBRANCH  20  21
ENDBRANCH  19  20
ENDBRANCH  18  19
ENDBRANCH  17  18
ENDBRANCH  16  17
ENDBRANCH  15  16
ENDBRANCH  14  15
ENDBRANCH  13  14
ENDBRANCH   1  13
TORSDOF 20
ENDMDL
MODEL 8
REMARK VINA RESULT:    -4.931      1.228      4.541
REMARK INTER + INTRA:         -13.880
REMARK INTER:                 -10.214
REMARK INTRA:                  -3.666
REMARK UNBOUND:                -3.185
REMARK SMILES CCCCCCCCCCCCCCCCCCCCCC(=O)[O-]
REMARK SMILES IDX 12 1 11 2 10 3 9 4 8 5 7 6 6 7 5 8 4 9 3 10 2 11 1 12 13 13
REMARK SMILES IDX 14 14 15 15 16 16 17 17 18 18 19 19 20 20 21 21 22 22 23 23
REMARK SMILES IDX 24 24
REMARK H PARENT
REMARK Flexibility Score: inf
ROOT
ATOM      1  C   UNL     1      29.144  29.433  14.821  1.00  0.00     0.000 C 
ENDROOT
BRANCH   1   2
ATOM      2  C   UNL     1      29.417  30.692  15.661  1.00  0.00     0.000 C 
BRANCH   2   3
ATOM      3  C   UNL     1      30.175  30.391  16.967  1.00  0.00     0.000 C 
BRANCH   3   4
ATOM      4  C   UNL     1      31.384  31.302  17.250  1.00  0.00    -0.000 C 
BRANCH   4   5
ATOM      5  C   UNL     1      31.778  32.170  16.045  1.00  0.00    -0.000 C 
BRANCH   5   6
ATOM      6  C   UNL     1      32.935  31.531  15.261  1.00  0.00    -0.000 C 
BRANCH   6   7
ATOM      7  C   UNL     1      33.425  30.219  15.893  1.00  0.00    -0.000 C 
BRANCH   7   8
ATOM      8  C   UNL     1      33.548  29.081  14.866  1.00  0.00    -0.000 C 
BRANCH   8   9
ATOM      9  C   UNL     1      32.499  27.976  15.070  1.00  0.00    -0.000 C 
BRANCH   9  10
ATOM     10  C   UNL     1      32.131  27.221  13.775  1.00  0.00    -0.000 C 
BRANCH  10  11
ATOM     11  C   UNL     1      30.907  26.313  13.963  1.00  0.00    -0.003 C 
ATOM     12  C   UNL     1      30.660  26.018  15.440  1.00  0.00     0.004 C 
ENDBRANCH  10  11
ENDBRANCH   9  10
ENDBRANCH   8   9
ENDBRANCH   7   8
ENDBRANCH   6   7
ENDBRANCH   5   6
ENDBRANCH   4   5
ENDBRANCH   3   4
ENDBRANCH   2   3
ENDBRANCH   1   2
BRANCH   1  13
ATOM     13  C   UNL     1      29.417  29.637  13.320  1.00  0.00     0.000 C 
BRANCH  13  14
ATOM     14  C   UNL     1      30.071  30.979  12.939  1.00  0.00     0.000 C 
BRANCH  14  15
ATOM     15  C   UNL     1      30.690  30.969  11.531  1.00  0.00     0.000 C 
BRANCH  15  16
ATOM     16  C   UNL     1      32.104  30.361  11.498  1.00  0.00     0.000 C 
BRANCH  16  17
ATOM     17  C   UNL     1      32.917  30.639  10.220  1.00  0.00     0.000 C 
BRANCH  17  18
ATOM     18  C   UNL     1      34.191  29.784  10.119  1.00  0.00     0.000 C 
BRANCH  18  19
ATOM     19  C   UNL     1      34.278  28.714  11.220  1.00  0.00     0.000 C 
BRANCH  19  20
ATOM     20  C   UNL     1      35.325  27.615  10.935  1.00  0.00     0.006 C 
BRANCH  20  21
ATOM     21  C   UNL     1      35.007  26.309  11.673  1.00  0.00     0.053 C 
BRANCH  21  22
ATOM     22  C   UNL     1      36.013  26.056  12.751  1.00  0.00     0.041 C 
ATOM     23  O   UNL     1      35.667  26.087  13.961  1.00  0.00    -0.550 OA
ATOM     24  O   UNL     1      37.322  25.736  12.417  1.00  0.00    -0.550 OA
ENDBRANCH  21  22
ENDBRANCH  20  21
ENDBRANCH  19  20
ENDBRANCH  18  19
ENDBRANCH  17  18
ENDBRANCH  16  17
ENDBRANCH  15  16
ENDBRANCH  14  15
ENDBRANCH  13  14
ENDBRANCH   1  13
TORSDOF 20
ENDMDL
MODEL 9
REMARK VINA RESULT:    -4.890      2.094      5.569
REMARK INTER + INTRA:         -13.793
REMARK INTER:                 -10.134
REMARK INTRA:                  -3.659
REMARK UNBOUND:                -3.185
REMARK SMILES CCCCCCCCCCCCCCCCCCCCCC(=O)[O-]
REMARK SMILES IDX 12 1 11 2 10 3 9 4 8 5 7 6 6 7 5 8 4 9 3 10 2 11 1 12 13 13
REMARK SMILES IDX 14 14 15 15 16 16 17 17 18 18 19 19 20 20 21 21 22 22 23 23
REMARK SMILES IDX 24 24
REMARK H PARENT
REMARK Flexibility Score: inf
ROOT
ATOM      1  C   UNL     1      32.115  32.033  16.155  1.00  0.00     0.000 C 
ENDROOT
BRANCH   1   2
ATOM      2  C   UNL     1      33.102  31.166  15.355  1.00  0.00     0.000 C 
BRANCH   2   3
ATOM      3  C   UNL     1      33.637  29.966  16.159  1.00  0.00     0.000 C 
BRANCH   3   4
ATOM      4  C   UNL     1      33.510  28.600  15.461  1.00  0.00    -0.000 C 
BRANCH   4   5
ATOM      5  C   UNL     1      32.757  28.674  14.124  1.00  0.00    -0.000 C 
BRANCH   5   6
ATOM      6  C   UNL     1      31.596  27.669  14.090  1.00  0.00    -0.000 C 
BRANCH   6   7
ATOM      7  C   UNL     1      31.441  26.897  15.410  1.00  0.00    -0.000 C 
BRANCH   7   8
ATOM      8  C   UNL     1      29.982  26.840  15.891  1.00  0.00    -0.000 C 
BRANCH   8   9
ATOM      9  C   UNL     1      29.418  25.410  15.921  1.00  0.00    -0.000 C 
BRANCH   9  10
ATOM     10  C   UNL     1      28.471  25.090  14.745  1.00  0.00    -0.000 C 
BRANCH  10  11
ATOM     11  C   UNL     1      28.055  26.353  13.976  1.00  0.00    -0.003 C 
ATOM     12  C   UNL     1      26.537  26.516  13.966  1.00  0.00     0.004 C 
ENDBRANCH  10  11
ENDBRANCH   9  10
ENDBRANCH   8   9
ENDBRANCH   7   8
ENDBRANCH   6   7
ENDBRANCH   5   6
ENDBRANCH   4   5
ENDBRANCH   3   4
ENDBRANCH   2   3
ENDBRANCH   1   2
BRANCH   1  13
ATOM     13  C   UNL     1      31.349  31.240  17.231  1.00  0.00     0.000 C 
BRANCH  13  14
ATOM     14  C   UNL     1      30.122  30.454  16.731  1.00  0.00     0.000 C 
BRANCH  14  15
ATOM     15  C   UNL     1      29.525  31.029  15.435  1.00  0.00     0.000 C 
BRANCH  15  16
ATOM     16  C   UNL     1      28.747  29.984  14.615  1.00  0.00     0.000 C 
BRANCH  16  17
ATOM     17  C   UNL     1      28.949  30.051  13.090  1.00  0.00     0.000 C 
BRANCH  17  18
ATOM     18  C   UNL     1      30.056  31.032  12.672  1.00  0.00     0.000 C 
BRANCH  18  19
ATOM     19  C   UNL     1      30.698  30.666  11.323  1.00  0.00     0.000 C 
BRANCH  19  20
ATOM     20  C   UNL     1      32.235  30.809  11.309  1.00  0.00     0.006 C 
BRANCH  20  21
ATOM     21  C   UNL     1      32.819  30.631   9.902  1.00  0.00     0.053 C 
BRANCH  21  22
ATOM     22  C   UNL     1      33.218  29.207   9.675  1.00  0.00     0.041 C 
ATOM     23  O   UNL     1      33.276  28.404  10.643  1.00  0.00    -0.550 OA
ATOM     24  O   UNL     1      33.476  28.755   8.388  1.00  0.00    -0.550 OA
ENDBRANCH  21  22
ENDBRANCH  20  21
ENDBRANCH  19  20
ENDBRANCH  18  19
ENDBRANCH  17  18
ENDBRANCH  16  17
ENDBRANCH  15  16
ENDBRANCH  14  15
ENDBRANCH  13  14
ENDBRANCH   1  13
TORSDOF 20
ENDMDL
