MODEL 1
REMARK VINA RESULT:    -5.584      0.000      0.000
REMARK INTER + INTRA:          -6.538
REMARK INTER:                  -6.400
REMARK INTRA:                  -0.138
REMARK UNBOUND:                -0.138
REMARK SMILES O=C([O-])C=Cc1ccc(O)cc1
REMARK SMILES IDX 6 1 7 2 12 3 8 4 11 5 9 6 5 7 4 8 2 9 1 10 3 11 10 12
REMARK H PARENT 10 13
REMARK Flexibility Score: inf
ROOT
ATOM      1  C   UNL     1      70.832  49.066   5.214  1.00  0.00    -0.025 A 
ATOM      2  C   UNL     1      71.457  48.282   4.229  1.00  0.00     0.012 A 
ATOM      3  C   UNL     1      70.008  50.136   4.808  1.00  0.00     0.012 A 
ATOM      4  C   UNL     1      71.244  48.541   2.872  1.00  0.00     0.047 A 
ATOM      5  C   UNL     1      69.798  50.392   3.450  1.00  0.00     0.047 A 
ATOM      6  C   UNL     1      70.413  49.593   2.478  1.00  0.00     0.115 A 
ENDROOT
BRANCH   1   7
ATOM      7  C   UNL     1      71.098  48.758   6.640  1.00  0.00     0.010 C 
ATOM      8  C   UNL     1      71.308  49.693   7.578  1.00  0.00     0.025 C 
BRANCH   8   9
ATOM      9  C   UNL     1      71.558  49.342   8.984  1.00  0.00     0.064 C 
ATOM     10  O   UNL     1      70.596  49.303   9.795  1.00  0.00    -0.545 OA
ATOM     11  O   UNL     1      72.841  49.054   9.435  1.00  0.00    -0.545 OA
ENDBRANCH   8   9
ENDBRANCH   1   7
BRANCH   6  12
ATOM     12  O   UNL     1      70.210  49.839   1.122  1.00  0.00    -0.508 OA
ATOM     13  H   UNL     1      69.318  49.655   0.678  1.00  0.00     0.293 HD
ENDBRANCH   6  12
TORSDOF 3
ENDMDL
MODEL 2
REMARK VINA RESULT:    -5.568      9.754     13.163
REMARK INTER + INTRA:          -6.520
REMARK INTER:                  -6.369
REMARK INTRA:                  -0.151
REMARK UNBOUND:                -0.138
REMARK SMILES O=C([O-])C=Cc1ccc(O)cc1
REMARK SMILES IDX 6 1 7 2 12 3 8 4 11 5 9 6 5 7 4 8 2 9 1 10 3 11 10 12
REMARK H PARENT 10 13
REMARK Flexibility Score: inf
ROOT
ATOM      1  C   UNL     1      73.492  43.429  -4.136  1.00  0.00    -0.025 A 
ATOM      2  C   UNL     1      72.816  42.598  -3.224  1.00  0.00     0.012 A 
ATOM      3  C   UNL     1      73.713  44.778  -3.791  1.00  0.00     0.012 A 
ATOM      4  C   UNL     1      72.397  43.095  -1.986  1.00  0.00     0.047 A 
ATOM      5  C   UNL     1      73.290  45.270  -2.553  1.00  0.00     0.047 A 
ATOM      6  C   UNL     1      72.633  44.429  -1.646  1.00  0.00     0.115 A 
ENDROOT
BRANCH   1   7
ATOM      7  C   UNL     1      73.908  42.858  -5.440  1.00  0.00     0.010 C 
ATOM      8  C   UNL     1      73.518  41.655  -5.886  1.00  0.00     0.025 C 
BRANCH   8   9
ATOM      9  C   UNL     1      73.946  41.132  -7.192  1.00  0.00     0.064 C 
ATOM     10  O   UNL     1      75.023  40.486  -7.280  1.00  0.00    -0.545 OA
ATOM     11  O   UNL     1      73.181  41.341  -8.334  1.00  0.00    -0.545 OA
ENDBRANCH   8   9
ENDBRANCH   1   7
BRANCH   6  12
ATOM     12  O   UNL     1      72.209  44.910  -0.409  1.00  0.00    -0.508 OA
ATOM     13  H   UNL     1      71.564  45.688  -0.337  1.00  0.00     0.293 HD
ENDBRANCH   6  12
TORSDOF 3
ENDMDL
MODEL 3
REMARK VINA RESULT:    -5.539      0.458      1.471
REMARK INTER + INTRA:          -6.487
REMARK INTER:                  -6.346
REMARK INTRA:                  -0.141
REMARK UNBOUND:                -0.138
REMARK SMILES O=C([O-])C=Cc1ccc(O)cc1
REMARK SMILES IDX 6 1 7 2 12 3 8 4 11 5 9 6 5 7 4 8 2 9 1 10 3 11 10 12
REMARK H PARENT 10 13
REMARK Flexibility Score: inf
ROOT
ATOM      1  C   UNL     1      70.702  48.995   5.284  1.00  0.00    -0.025 A 
ATOM      2  C   UNL     1      69.926  50.095   4.878  1.00  0.00     0.012 A 
ATOM      3  C   UNL     1      71.413  48.269   4.307  1.00  0.00     0.012 A 
ATOM      4  C   UNL     1      69.881  50.477   3.534  1.00  0.00     0.047 A 
ATOM      5  C   UNL     1      71.364  48.654   2.964  1.00  0.00     0.047 A 
ATOM      6  C   UNL     1      70.600  49.761   2.574  1.00  0.00     0.115 A 
ENDROOT
BRANCH   1   7
ATOM      7  C   UNL     1      70.709  48.624   6.720  1.00  0.00     0.010 C 
ATOM      8  C   UNL     1      70.984  49.483   7.710  1.00  0.00     0.025 C 
BRANCH   8   9
ATOM      9  C   UNL     1      70.968  49.074   9.123  1.00  0.00     0.064 C 
ATOM     10  O   UNL     1      69.868  48.940   9.719  1.00  0.00    -0.545 OA
ATOM     11  O   UNL     1      72.151  48.833   9.814  1.00  0.00    -0.545 OA
ENDBRANCH   8   9
ENDBRANCH   1   7
BRANCH   6  12
ATOM     12  O   UNL     1      70.546  50.153   1.239  1.00  0.00    -0.508 OA
ATOM     13  H   UNL     1      69.877  50.844   0.917  1.00  0.00     0.293 HD
ENDBRANCH   6  12
TORSDOF 3
ENDMDL
MODEL 4
REMARK VINA RESULT:    -5.012      1.846      2.269
REMARK INTER + INTRA:          -5.883
REMARK INTER:                  -5.746
REMARK INTRA:                  -0.137
REMARK UNBOUND:                -0.138
REMARK SMILES O=C([O-])C=Cc1ccc(O)cc1
REMARK SMILES IDX 6 1 7 2 12 3 8 4 11 5 9 6 5 7 4 8 2 9 1 10 3 11 10 12
REMARK H PARENT 10 13
REMARK Flexibility Score: inf
ROOT
ATOM      1  C   UNL     1      71.462  48.337   5.788  1.00  0.00    -0.025 A 
ATOM      2  C   UNL     1      71.933  48.051   4.494  1.00  0.00     0.012 A 
ATOM      3  C   UNL     1      70.466  49.322   5.945  1.00  0.00     0.012 A 
ATOM      4  C   UNL     1      71.403  48.712   3.382  1.00  0.00     0.047 A 
ATOM      5  C   UNL     1      69.940  49.981   4.830  1.00  0.00     0.047 A 
ATOM      6  C   UNL     1      70.405  49.676   3.545  1.00  0.00     0.115 A 
ENDROOT
BRANCH   1   7
ATOM      7  C   UNL     1      72.064  47.616   6.936  1.00  0.00     0.010 C 
ATOM      8  C   UNL     1      73.313  47.824   7.375  1.00  0.00     0.025 C 
BRANCH   8   9
ATOM      9  C   UNL     1      73.866  47.094   8.526  1.00  0.00     0.064 C 
ATOM     10  O   UNL     1      74.667  46.143   8.332  1.00  0.00    -0.545 OA
ATOM     11  O   UNL     1      73.517  47.438   9.828  1.00  0.00    -0.545 OA
ENDBRANCH   8   9
ENDBRANCH   1   7
BRANCH   6  12
ATOM     12  O   UNL     1      69.886  50.326   2.428  1.00  0.00    -0.508 OA
ATOM     13  H   UNL     1      68.916  50.219   2.156  1.00  0.00     0.293 HD
ENDBRANCH   6  12
TORSDOF 3
ENDMDL
MODEL 5
REMARK VINA RESULT:    -5.011     11.998     14.553
REMARK INTER + INTRA:          -5.881
REMARK INTER:                  -5.747
REMARK INTRA:                  -0.135
REMARK UNBOUND:                -0.138
REMARK SMILES O=C([O-])C=Cc1ccc(O)cc1
REMARK SMILES IDX 6 1 7 2 12 3 8 4 11 5 9 6 5 7 4 8 2 9 1 10 3 11 10 12
REMARK H PARENT 10 13
REMARK Flexibility Score: inf
ROOT
ATOM      1  C   UNL     1      73.788  41.375  -6.392  1.00  0.00    -0.025 A 
ATOM      2  C   UNL     1      72.703  40.620  -6.872  1.00  0.00     0.012 A 
ATOM      3  C   UNL     1      74.994  41.370  -7.124  1.00  0.00     0.012 A 
ATOM      4  C   UNL     1      72.809  39.901  -8.065  1.00  0.00     0.047 A 
ATOM      5  C   UNL     1      75.095  40.648  -8.316  1.00  0.00     0.047 A 
ATOM      6  C   UNL     1      74.002  39.913  -8.792  1.00  0.00     0.115 A 
ENDROOT
BRANCH   1   7
ATOM      7  C   UNL     1      73.630  42.113  -5.115  1.00  0.00     0.010 C 
ATOM      8  C   UNL     1      73.620  43.450  -5.024  1.00  0.00     0.025 C 
BRANCH   8   9
ATOM      9  C   UNL     1      73.449  44.141  -3.737  1.00  0.00     0.064 C 
ATOM     10  O   UNL     1      73.963  45.278  -3.569  1.00  0.00    -0.545 OA
ATOM     11  O   UNL     1      72.728  43.559  -2.700  1.00  0.00    -0.545 OA
ENDBRANCH   8   9
ENDBRANCH   1   7
BRANCH   6  12
ATOM     12  O   UNL     1      74.092  39.192  -9.980  1.00  0.00    -0.508 OA
ATOM     13  H   UNL     1      74.989  38.935 -10.377  1.00  0.00     0.293 HD
ENDBRANCH   6  12
TORSDOF 3
ENDMDL
MODEL 6
REMARK VINA RESULT:    -4.622      7.097      9.223
REMARK INTER + INTRA:          -5.436
REMARK INTER:                  -5.288
REMARK INTRA:                  -0.148
REMARK UNBOUND:                -0.138
REMARK SMILES O=C([O-])C=Cc1ccc(O)cc1
REMARK SMILES IDX 6 1 7 2 12 3 8 4 11 5 9 6 5 7 4 8 2 9 1 10 3 11 10 12
REMARK H PARENT 10 13
REMARK Flexibility Score: inf
ROOT
ATOM      1  C   UNL     1      72.485  44.533  -2.191  1.00  0.00    -0.025 A 
ATOM      2  C   UNL     1      72.340  43.144  -2.353  1.00  0.00     0.012 A 
ATOM      3  C   UNL     1      73.283  45.244  -3.111  1.00  0.00     0.012 A 
ATOM      4  C   UNL     1      72.954  42.485  -3.422  1.00  0.00     0.047 A 
ATOM      5  C   UNL     1      73.896  44.581  -4.178  1.00  0.00     0.047 A 
ATOM      6  C   UNL     1      73.730  43.199  -4.338  1.00  0.00     0.115 A 
ENDROOT
BRANCH   1   7
ATOM      7  C   UNL     1      71.823  45.186  -1.035  1.00  0.00     0.010 C 
ATOM      8  C   UNL     1      71.820  44.678   0.205  1.00  0.00     0.025 C 
BRANCH   8   9
ATOM      9  C   UNL     1      71.160  45.364   1.326  1.00  0.00     0.064 C 
ATOM     10  O   UNL     1      70.255  46.207   1.092  1.00  0.00    -0.545 OA
ATOM     11  O   UNL     1      71.520  45.098   2.643  1.00  0.00    -0.545 OA
ENDBRANCH   8   9
ENDBRANCH   1   7
BRANCH   6  12
ATOM     12  O   UNL     1      74.335  42.528  -5.398  1.00  0.00    -0.508 OA
ATOM     13  H   UNL     1      74.263  41.522  -5.498  1.00  0.00     0.293 HD
ENDBRANCH   6  12
TORSDOF 3
ENDMDL
MODEL 7
REMARK VINA RESULT:    -4.334      2.243      5.944
REMARK INTER + INTRA:          -5.106
REMARK INTER:                  -4.964
REMARK INTRA:                  -0.142
REMARK UNBOUND:                -0.138
REMARK SMILES O=C([O-])C=Cc1ccc(O)cc1
REMARK SMILES IDX 6 1 7 2 12 3 8 4 11 5 9 6 5 7 4 8 2 9 1 10 3 11 10 12
REMARK H PARENT 10 13
REMARK Flexibility Score: inf
ROOT
ATOM      1  C   UNL     1      72.589  47.813   6.406  1.00  0.00    -0.025 A 
ATOM      2  C   UNL     1      73.159  46.562   6.700  1.00  0.00     0.012 A 
ATOM      3  C   UNL     1      72.624  48.822   7.391  1.00  0.00     0.012 A 
ATOM      4  C   UNL     1      73.772  46.331   7.935  1.00  0.00     0.047 A 
ATOM      5  C   UNL     1      73.237  48.587   8.625  1.00  0.00     0.047 A 
ATOM      6  C   UNL     1      73.816  47.341   8.899  1.00  0.00     0.115 A 
ENDROOT
BRANCH   1   7
ATOM      7  C   UNL     1      71.941  48.005   5.086  1.00  0.00     0.010 C 
ATOM      8  C   UNL     1      71.242  49.098   4.751  1.00  0.00     0.025 C 
BRANCH   8   9
ATOM      9  C   UNL     1      70.625  49.252   3.425  1.00  0.00     0.064 C 
ATOM     10  O   UNL     1      70.781  48.353   2.559  1.00  0.00    -0.545 OA
ATOM     11  O   UNL     1      69.871  50.378   3.111  1.00  0.00    -0.545 OA
ENDBRANCH   8   9
ENDBRANCH   1   7
BRANCH   6  12
ATOM     12  O   UNL     1      74.430  47.097  10.125  1.00  0.00    -0.508 OA
ATOM     13  H   UNL     1      74.042  46.436  10.789  1.00  0.00     0.293 HD
ENDBRANCH   6  12
TORSDOF 3
ENDMDL
MODEL 8
REMARK VINA RESULT:    -4.295      2.537      3.182
REMARK INTER + INTRA:          -5.061
REMARK INTER:                  -4.926
REMARK INTRA:                  -0.135
REMARK UNBOUND:                -0.138
REMARK SMILES O=C([O-])C=Cc1ccc(O)cc1
REMARK SMILES IDX 6 1 7 2 12 3 8 4 11 5 9 6 5 7 4 8 2 9 1 10 3 11 10 12
REMARK H PARENT 10 13
REMARK Flexibility Score: inf
ROOT
ATOM      1  C   UNL     1      72.487  47.531   5.549  1.00  0.00    -0.025 A 
ATOM      2  C   UNL     1      73.198  46.321   5.628  1.00  0.00     0.012 A 
ATOM      3  C   UNL     1      71.791  47.834   4.361  1.00  0.00     0.012 A 
ATOM      4  C   UNL     1      73.193  45.422   4.557  1.00  0.00     0.047 A 
ATOM      5  C   UNL     1      71.790  46.932   3.292  1.00  0.00     0.047 A 
ATOM      6  C   UNL     1      72.488  45.723   3.388  1.00  0.00     0.115 A 
ENDROOT
BRANCH   1   7
ATOM      7  C   UNL     1      72.531  48.456   6.708  1.00  0.00     0.010 C 
ATOM      8  C   UNL     1      71.453  49.075   7.209  1.00  0.00     0.025 C 
BRANCH   8   9
ATOM      9  C   UNL     1      71.542  49.976   8.368  1.00  0.00     0.064 C 
ATOM     10  O   UNL     1      71.987  51.143   8.215  1.00  0.00    -0.545 OA
ATOM     11  O   UNL     1      71.141  49.560   9.633  1.00  0.00    -0.545 OA
ENDBRANCH   8   9
ENDBRANCH   1   7
BRANCH   6  12
ATOM     12  O   UNL     1      72.493  44.817   2.330  1.00  0.00    -0.508 OA
ATOM     13  H   UNL     1      72.346  43.826   2.481  1.00  0.00     0.293 HD
ENDBRANCH   6  12
TORSDOF 3
ENDMDL
MODEL 9
REMARK VINA RESULT:    -4.250      2.639      3.506
REMARK INTER + INTRA:          -5.010
REMARK INTER:                  -4.874
REMARK INTRA:                  -0.135
REMARK UNBOUND:                -0.138
REMARK SMILES O=C([O-])C=Cc1ccc(O)cc1
REMARK SMILES IDX 6 1 7 2 12 3 8 4 11 5 9 6 5 7 4 8 2 9 1 10 3 11 10 12
REMARK H PARENT 10 13
REMARK Flexibility Score: inf
ROOT
ATOM      1  C   UNL     1      70.125  48.778   6.833  1.00  0.00    -0.025 A 
ATOM      2  C   UNL     1      69.878  49.475   5.638  1.00  0.00     0.012 A 
ATOM      3  C   UNL     1      71.154  47.814   6.857  1.00  0.00     0.012 A 
ATOM      4  C   UNL     1      70.656  49.236   4.501  1.00  0.00     0.047 A 
ATOM      5  C   UNL     1      71.929  47.578   5.717  1.00  0.00     0.047 A 
ATOM      6  C   UNL     1      71.684  48.290   4.537  1.00  0.00     0.115 A 
ENDROOT
BRANCH   1   7
ATOM      7  C   UNL     1      69.266  49.059   8.009  1.00  0.00     0.010 C 
ATOM      8  C   UNL     1      68.190  48.331   8.337  1.00  0.00     0.025 C 
BRANCH   8   9
ATOM      9  C   UNL     1      67.371  48.639   9.519  1.00  0.00     0.064 C 
ATOM     10  O   UNL     1      66.779  47.708  10.125  1.00  0.00    -0.545 OA
ATOM     11  O   UNL     1      67.239  49.945   9.980  1.00  0.00    -0.545 OA
ENDBRANCH   8   9
ENDBRANCH   1   7
BRANCH   6  12
ATOM     12  O   UNL     1      72.450  48.063   3.397  1.00  0.00    -0.508 OA
ATOM     13  H   UNL     1      72.126  47.457   2.652  1.00  0.00     0.293 HD
ENDBRANCH   6  12
TORSDOF 3
ENDMDL
