MODEL 1
REMARK VINA RESULT:    -3.032      0.000      0.000
REMARK INTER + INTRA:          -5.749
REMARK INTER:                  -5.159
REMARK INTRA:                  -0.590
REMARK UNBOUND:                -0.590
REMARK SMILES CCCCCCCCCCCCCC(=O)[O-]
REMARK SMILES IDX 8 1 9 2 10 3 11 4 12 5 13 6 14 7 15 8 16 9 7 10 6 11 5 12
REMARK SMILES IDX 4 13 3 14 2 15 1 16
REMARK H PARENT
REMARK Flexibility Score: inf
ROOT
ATOM      1  C   UNL     1      -3.390  19.950  16.194  1.00  0.00     0.000 C 
ENDROOT
BRANCH   1   2
ATOM      2  C   UNL     1      -4.888  20.297  16.108  1.00  0.00     0.000 C 
BRANCH   2   3
ATOM      3  C   UNL     1      -5.329  20.962  14.790  1.00  0.00     0.000 C 
BRANCH   3   4
ATOM      4  C   UNL     1      -6.814  20.722  14.468  1.00  0.00     0.000 C 
BRANCH   4   5
ATOM      5  C   UNL     1      -7.594  20.123  15.655  1.00  0.00     0.006 C 
BRANCH   5   6
ATOM      6  C   UNL     1      -8.675  21.058  16.227  1.00  0.00     0.053 C 
BRANCH   6   7
ATOM      7  C   UNL     1      -8.223  21.767  17.466  1.00  0.00     0.041 C 
ATOM      8  O   UNL     1      -7.528  21.162  18.325  1.00  0.00    -0.550 OA
ATOM      9  O   UNL     1      -8.557  23.100  17.667  1.00  0.00    -0.550 OA
ENDBRANCH   6   7
ENDBRANCH   5   6
ENDBRANCH   4   5
ENDBRANCH   3   4
ENDBRANCH   2   3
ENDBRANCH   1   2
BRANCH   1  10
ATOM     10  C   UNL     1      -2.783  20.015  17.609  1.00  0.00     0.000 C 
BRANCH  10  11
ATOM     11  C   UNL     1      -1.239  19.975  17.625  1.00  0.00    -0.000 C 
BRANCH  11  12
ATOM     12  C   UNL     1      -0.630  20.229  16.235  1.00  0.00    -0.000 C 
BRANCH  12  13
ATOM     13  C   UNL     1       0.865  19.875  16.170  1.00  0.00    -0.000 C 
BRANCH  13  14
ATOM     14  C   UNL     1       1.769  21.064  16.527  1.00  0.00    -0.000 C 
BRANCH  14  15
ATOM     15  C   UNL     1       3.241  20.639  16.569  1.00  0.00    -0.003 C 
ATOM     16  C   UNL     1       4.111  21.725  17.198  1.00  0.00     0.004 C 
ENDBRANCH  14  15
ENDBRANCH  13  14
ENDBRANCH  12  13
ENDBRANCH  11  12
ENDBRANCH  10  11
ENDBRANCH   1  10
TORSDOF 12
ENDMDL
MODEL 2
REMARK VINA RESULT:    -2.958      5.234      9.816
REMARK INTER + INTRA:          -5.623
REMARK INTER:                  -5.208
REMARK INTRA:                  -0.415
REMARK UNBOUND:                -0.590
REMARK SMILES CCCCCCCCCCCCCC(=O)[O-]
REMARK SMILES IDX 8 1 9 2 10 3 11 4 12 5 13 6 14 7 15 8 16 9 7 10 6 11 5 12
REMARK SMILES IDX 4 13 3 14 2 15 1 16
REMARK H PARENT
REMARK Flexibility Score: inf
ROOT
ATOM      1  C   UNL     1      -1.370  20.171  16.232  1.00  0.00     0.000 C 
ENDROOT
BRANCH   1   2
ATOM      2  C   UNL     1       0.067  20.039  16.772  1.00  0.00     0.000 C 
BRANCH   2   3
ATOM      3  C   UNL     1       1.127  20.861  16.015  1.00  0.00     0.000 C 
BRANCH   3   4
ATOM      4  C   UNL     1       2.450  20.986  16.790  1.00  0.00     0.000 C 
BRANCH   4   5
ATOM      5  C   UNL     1       3.624  20.281  16.085  1.00  0.00     0.006 C 
BRANCH   5   6
ATOM      6  C   UNL     1       4.988  20.955  16.320  1.00  0.00     0.053 C 
BRANCH   6   7
ATOM      7  C   UNL     1       5.982  20.629  15.247  1.00  0.00     0.041 C 
ATOM      8  O   UNL     1       5.588  20.325  14.089  1.00  0.00    -0.550 OA
ATOM      9  O   UNL     1       7.343  20.675  15.520  1.00  0.00    -0.550 OA
ENDBRANCH   6   7
ENDBRANCH   5   6
ENDBRANCH   4   5
ENDBRANCH   3   4
ENDBRANCH   2   3
ENDBRANCH   1   2
BRANCH   1  10
ATOM     10  C   UNL     1      -2.482  20.073  17.294  1.00  0.00     0.000 C 
BRANCH  10  11
ATOM     11  C   UNL     1      -3.900  19.938  16.699  1.00  0.00    -0.000 C 
BRANCH  11  12
ATOM     12  C   UNL     1      -4.173  20.971  15.592  1.00  0.00    -0.000 C 
BRANCH  12  13
ATOM     13  C   UNL     1      -5.423  20.633  14.763  1.00  0.00    -0.000 C 
BRANCH  13  14
ATOM     14  C   UNL     1      -6.530  21.688  14.908  1.00  0.00    -0.000 C 
BRANCH  14  15
ATOM     15  C   UNL     1      -7.739  21.113  15.655  1.00  0.00    -0.003 C 
ATOM     16  C   UNL     1      -7.966  21.840  16.978  1.00  0.00     0.004 C 
ENDBRANCH  14  15
ENDBRANCH  13  14
ENDBRANCH  12  13
ENDBRANCH  11  12
ENDBRANCH  10  11
ENDBRANCH   1  10
TORSDOF 12
ENDMDL
MODEL 3
REMARK VINA RESULT:    -2.747      5.764     10.340
REMARK INTER + INTRA:          -5.264
REMARK INTER:                  -4.949
REMARK INTRA:                  -0.315
REMARK UNBOUND:                -0.590
REMARK SMILES CCCCCCCCCCCCCC(=O)[O-]
REMARK SMILES IDX 8 1 9 2 10 3 11 4 12 5 13 6 14 7 15 8 16 9 7 10 6 11 5 12
REMARK SMILES IDX 4 13 3 14 2 15 1 16
REMARK H PARENT
REMARK Flexibility Score: inf
ROOT
ATOM      1  C   UNL     1      -0.028  20.573  16.259  1.00  0.00     0.000 C 
ENDROOT
BRANCH   1   2
ATOM      2  C   UNL     1       1.383  19.957  16.213  1.00  0.00     0.000 C 
BRANCH   2   3
ATOM      3  C   UNL     1       2.540  20.974  16.230  1.00  0.00     0.000 C 
BRANCH   3   4
ATOM      4  C   UNL     1       3.859  20.368  16.738  1.00  0.00     0.000 C 
BRANCH   4   5
ATOM      5  C   UNL     1       4.780  19.897  15.596  1.00  0.00     0.006 C 
BRANCH   5   6
ATOM      6  C   UNL     1       5.671  21.009  15.014  1.00  0.00     0.053 C 
BRANCH   6   7
ATOM      7  C   UNL     1       7.125  20.649  15.033  1.00  0.00     0.041 C 
ATOM      8  O   UNL     1       7.802  20.800  16.084  1.00  0.00    -0.550 OA
ATOM      9  O   UNL     1       7.730  20.134  13.893  1.00  0.00    -0.550 OA
ENDBRANCH   6   7
ENDBRANCH   5   6
ENDBRANCH   4   5
ENDBRANCH   3   4
ENDBRANCH   2   3
ENDBRANCH   1   2
BRANCH   1  10
ATOM     10  C   UNL     1      -1.017  19.875  17.213  1.00  0.00     0.000 C 
BRANCH  10  11
ATOM     11  C   UNL     1      -2.417  20.526  17.242  1.00  0.00    -0.000 C 
BRANCH  11  12
ATOM     12  C   UNL     1      -3.094  20.524  15.860  1.00  0.00    -0.000 C 
BRANCH  12  13
ATOM     13  C   UNL     1      -4.602  20.235  15.941  1.00  0.00    -0.000 C 
BRANCH  13  14
ATOM     14  C   UNL     1      -5.393  20.907  14.808  1.00  0.00    -0.000 C 
BRANCH  14  15
ATOM     15  C   UNL     1      -6.642  21.608  15.354  1.00  0.00    -0.003 C 
ATOM     16  C   UNL     1      -7.884  20.739  15.177  1.00  0.00     0.004 C 
ENDBRANCH  14  15
ENDBRANCH  13  14
ENDBRANCH  12  13
ENDBRANCH  11  12
ENDBRANCH  10  11
ENDBRANCH   1  10
TORSDOF 12
ENDMDL
MODEL 4
REMARK VINA RESULT:    -2.732      3.644      7.799
REMARK INTER + INTRA:          -5.238
REMARK INTER:                  -4.483
REMARK INTRA:                  -0.755
REMARK UNBOUND:                -0.590
REMARK SMILES CCCCCCCCCCCCCC(=O)[O-]
REMARK SMILES IDX 8 1 9 2 10 3 11 4 12 5 13 6 14 7 15 8 16 9 7 10 6 11 5 12
REMARK SMILES IDX 4 13 3 14 2 15 1 16
REMARK H PARENT
REMARK Flexibility Score: inf
ROOT
ATOM      1  C   UNL     1      -7.719  21.155  17.176  1.00  0.00     0.000 C 
ENDROOT
BRANCH   1   2
ATOM      2  C   UNL     1      -7.247  20.841  15.744  1.00  0.00     0.000 C 
BRANCH   2   3
ATOM      3  C   UNL     1      -6.125  21.752  15.212  1.00  0.00     0.000 C 
BRANCH   3   4
ATOM      4  C   UNL     1      -4.803  21.000  14.983  1.00  0.00     0.000 C 
BRANCH   4   5
ATOM      5  C   UNL     1      -4.569  19.875  16.011  1.00  0.00     0.006 C 
BRANCH   5   6
ATOM      6  C   UNL     1      -3.953  20.359  17.336  1.00  0.00     0.053 C 
BRANCH   6   7
ATOM      7  C   UNL     1      -2.461  20.235  17.354  1.00  0.00     0.041 C 
ATOM      8  O   UNL     1      -1.827  20.040  16.283  1.00  0.00    -0.550 OA
ATOM      9  O   UNL     1      -1.766  20.348  18.552  1.00  0.00    -0.550 OA
ENDBRANCH   6   7
ENDBRANCH   5   6
ENDBRANCH   4   5
ENDBRANCH   3   4
ENDBRANCH   2   3
ENDBRANCH   1   2
BRANCH   1  10
ATOM     10  C   UNL     1      -9.005  21.999  17.272  1.00  0.00     0.000 C 
BRANCH  10  11
ATOM     11  C   UNL     1      -9.124  22.802  18.586  1.00  0.00    -0.000 C 
BRANCH  11  12
ATOM     12  C   UNL     1      -7.899  22.621  19.499  1.00  0.00    -0.000 C 
BRANCH  12  13
ATOM     13  C   UNL     1      -7.831  23.676  20.615  1.00  0.00    -0.000 C 
BRANCH  13  14
ATOM     14  C   UNL     1      -7.746  23.049  22.014  1.00  0.00    -0.000 C 
BRANCH  14  15
ATOM     15  C   UNL     1      -8.778  21.926  22.174  1.00  0.00    -0.003 C 
ATOM     16  C   UNL     1      -8.165  20.708  22.861  1.00  0.00     0.004 C 
ENDBRANCH  14  15
ENDBRANCH  13  14
ENDBRANCH  12  13
ENDBRANCH  11  12
ENDBRANCH  10  11
ENDBRANCH   1  10
TORSDOF 12
ENDMDL
MODEL 5
REMARK VINA RESULT:    -2.625      1.494      2.437
REMARK INTER + INTRA:          -5.056
REMARK INTER:                  -4.752
REMARK INTRA:                  -0.304
REMARK UNBOUND:                -0.590
REMARK SMILES CCCCCCCCCCCCCC(=O)[O-]
REMARK SMILES IDX 8 1 9 2 10 3 11 4 12 5 13 6 14 7 15 8 16 9 7 10 6 11 5 12
REMARK SMILES IDX 4 13 3 14 2 15 1 16
REMARK H PARENT
REMARK Flexibility Score: inf
ROOT
ATOM      1  C   UNL     1      -1.264  20.748  16.372  1.00  0.00     0.000 C 
ENDROOT
BRANCH   1   2
ATOM      2  C   UNL     1      -2.662  20.103  16.345  1.00  0.00     0.000 C 
BRANCH   2   3
ATOM      3  C   UNL     1      -3.697  20.825  15.462  1.00  0.00     0.000 C 
BRANCH   3   4
ATOM      4  C   UNL     1      -5.144  20.405  15.775  1.00  0.00     0.000 C 
BRANCH   4   5
ATOM      5  C   UNL     1      -6.164  20.987  14.777  1.00  0.00     0.006 C 
BRANCH   5   6
ATOM      6  C   UNL     1      -7.599  20.469  14.979  1.00  0.00     0.053 C 
BRANCH   6   7
ATOM      7  C   UNL     1      -8.185  20.895  16.290  1.00  0.00     0.041 C 
ATOM      8  O   UNL     1      -8.938  20.115  16.932  1.00  0.00    -0.550 OA
ATOM      9  O   UNL     1      -7.890  22.149  16.810  1.00  0.00    -0.550 OA
ENDBRANCH   6   7
ENDBRANCH   5   6
ENDBRANCH   4   5
ENDBRANCH   3   4
ENDBRANCH   2   3
ENDBRANCH   1   2
BRANCH   1  10
ATOM     10  C   UNL     1      -0.151  19.878  16.988  1.00  0.00     0.000 C 
BRANCH  10  11
ATOM     11  C   UNL     1       1.160  19.875  16.173  1.00  0.00    -0.000 C 
BRANCH  11  12
ATOM     12  C   UNL     1       2.037  21.105  16.468  1.00  0.00    -0.000 C 
BRANCH  12  13
ATOM     13  C   UNL     1       3.467  20.725  16.888  1.00  0.00    -0.000 C 
BRANCH  13  14
ATOM     14  C   UNL     1       4.221  19.962  15.788  1.00  0.00    -0.000 C 
BRANCH  14  15
ATOM     15  C   UNL     1       5.351  20.818  15.205  1.00  0.00    -0.003 C 
ATOM     16  C   UNL     1       6.307  19.973  14.367  1.00  0.00     0.004 C 
ENDBRANCH  14  15
ENDBRANCH  13  14
ENDBRANCH  12  13
ENDBRANCH  11  12
ENDBRANCH  10  11
ENDBRANCH   1  10
TORSDOF 12
ENDMDL
MODEL 6
REMARK VINA RESULT:    -2.587      7.976     12.065
REMARK INTER + INTRA:          -4.992
REMARK INTER:                  -4.333
REMARK INTRA:                  -0.659
REMARK UNBOUND:                -0.590
REMARK SMILES CCCCCCCCCCCCCC(=O)[O-]
REMARK SMILES IDX 8 1 9 2 10 3 11 4 12 5 13 6 14 7 15 8 16 9 7 10 6 11 5 12
REMARK SMILES IDX 4 13 3 14 2 15 1 16
REMARK H PARENT
REMARK Flexibility Score: inf
ROOT
ATOM      1  C   UNL     1       7.830  20.514  13.053  1.00  0.00     0.000 C 
ENDROOT
BRANCH   1   2
ATOM      2  C   UNL     1       8.330  20.949  14.444  1.00  0.00     0.000 C 
BRANCH   2   3
ATOM      3  C   UNL     1       8.078  19.933  15.574  1.00  0.00     0.000 C 
BRANCH   3   4
ATOM      4  C   UNL     1       6.837  20.273  16.417  1.00  0.00     0.000 C 
BRANCH   4   5
ATOM      5  C   UNL     1       5.672  20.822  15.571  1.00  0.00     0.006 C 
BRANCH   5   6
ATOM      6  C   UNL     1       4.333  20.101  15.810  1.00  0.00     0.053 C 
BRANCH   6   7
ATOM      7  C   UNL     1       3.384  20.912  16.637  1.00  0.00     0.041 C 
ATOM      8  O   UNL     1       2.140  20.792  16.476  1.00  0.00    -0.550 OA
ATOM      9  O   UNL     1       3.871  21.793  17.595  1.00  0.00    -0.550 OA
ENDBRANCH   6   7
ENDBRANCH   5   6
ENDBRANCH   4   5
ENDBRANCH   3   4
ENDBRANCH   2   3
ENDBRANCH   1   2
BRANCH   1  10
ATOM     10  C   UNL     1       8.904  19.906  12.131  1.00  0.00     0.000 C 
BRANCH  10  11
ATOM     11  C   UNL     1      10.272  20.619  12.214  1.00  0.00    -0.000 C 
BRANCH  11  12
ATOM     12  C   UNL     1      10.693  21.239  10.870  1.00  0.00    -0.000 C 
BRANCH  12  13
ATOM     13  C   UNL     1      11.125  22.708  11.007  1.00  0.00    -0.000 C 
BRANCH  13  14
ATOM     14  C   UNL     1      10.662  23.338  12.329  1.00  0.00    -0.000 C 
BRANCH  14  15
ATOM     15  C   UNL     1      10.874  24.856  12.315  1.00  0.00    -0.003 C 
ATOM     16  C   UNL     1       9.994  25.526  11.262  1.00  0.00     0.004 C 
ENDBRANCH  14  15
ENDBRANCH  13  14
ENDBRANCH  12  13
ENDBRANCH  11  12
ENDBRANCH  10  11
ENDBRANCH   1  10
TORSDOF 12
ENDMDL
MODEL 7
REMARK VINA RESULT:    -2.535      6.529     11.182
REMARK INTER + INTRA:          -4.904
REMARK INTER:                  -4.598
REMARK INTRA:                  -0.306
REMARK UNBOUND:                -0.590
REMARK SMILES CCCCCCCCCCCCCC(=O)[O-]
REMARK SMILES IDX 8 1 9 2 10 3 11 4 12 5 13 6 14 7 15 8 16 9 7 10 6 11 5 12
REMARK SMILES IDX 4 13 3 14 2 15 1 16
REMARK H PARENT
REMARK Flexibility Score: inf
ROOT
ATOM      1  C   UNL     1       1.732  21.039  16.260  1.00  0.00     0.000 C 
ENDROOT
BRANCH   1   2
ATOM      2  C   UNL     1       3.161  20.653  16.688  1.00  0.00     0.000 C 
BRANCH   2   3
ATOM      3  C   UNL     1       4.145  20.410  15.528  1.00  0.00     0.000 C 
BRANCH   3   4
ATOM      4  C   UNL     1       5.613  20.616  15.939  1.00  0.00     0.000 C 
BRANCH   4   5
ATOM      5  C   UNL     1       6.606  20.228  14.826  1.00  0.00     0.006 C 
BRANCH   5   6
ATOM      6  C   UNL     1       8.054  20.049  15.317  1.00  0.00     0.053 C 
BRANCH   6   7
ATOM      7  C   UNL     1       8.978  21.096  14.773  1.00  0.00     0.041 C 
ATOM      8  O   UNL     1       8.944  21.399  13.551  1.00  0.00    -0.550 OA
ATOM      9  O   UNL     1       9.869  21.746  15.618  1.00  0.00    -0.550 OA
ENDBRANCH   6   7
ENDBRANCH   5   6
ENDBRANCH   4   5
ENDBRANCH   3   4
ENDBRANCH   2   3
ENDBRANCH   1   2
BRANCH   1  10
ATOM     10  C   UNL     1       0.711  19.885  16.271  1.00  0.00     0.000 C 
BRANCH  10  11
ATOM     11  C   UNL     1      -0.493  20.129  17.207  1.00  0.00    -0.000 C 
BRANCH  11  12
ATOM     12  C   UNL     1      -1.841  19.995  16.478  1.00  0.00    -0.000 C 
BRANCH  12  13
ATOM     13  C   UNL     1      -3.033  19.924  17.446  1.00  0.00    -0.000 C 
BRANCH  13  14
ATOM     14  C   UNL     1      -4.384  19.875  16.716  1.00  0.00    -0.000 C 
BRANCH  14  15
ATOM     15  C   UNL     1      -4.332  20.684  15.414  1.00  0.00    -0.003 C 
ATOM     16  C   UNL     1      -5.729  21.119  14.979  1.00  0.00     0.004 C 
ENDBRANCH  14  15
ENDBRANCH  13  14
ENDBRANCH  12  13
ENDBRANCH  11  12
ENDBRANCH  10  11
ENDBRANCH   1  10
TORSDOF 12
ENDMDL
MODEL 8
REMARK VINA RESULT:    -2.380      8.757     13.909
REMARK INTER + INTRA:          -4.640
REMARK INTER:                  -4.061
REMARK INTRA:                  -0.578
REMARK UNBOUND:                -0.590
REMARK SMILES CCCCCCCCCCCCCC(=O)[O-]
REMARK SMILES IDX 8 1 9 2 10 3 11 4 12 5 13 6 14 7 15 8 16 9 7 10 6 11 5 12
REMARK SMILES IDX 4 13 3 14 2 15 1 16
REMARK H PARENT
REMARK Flexibility Score: inf
ROOT
ATOM      1  C   UNL     1       8.285  21.071  15.764  1.00  0.00     0.000 C 
ENDROOT
BRANCH   1   2
ATOM      2  C   UNL     1       9.681  21.373  15.188  1.00  0.00     0.000 C 
BRANCH   2   3
ATOM      3  C   UNL     1      10.309  20.230  14.366  1.00  0.00     0.000 C 
BRANCH   3   4
ATOM      4  C   UNL     1      10.507  20.599  12.886  1.00  0.00     0.000 C 
BRANCH   4   5
ATOM      5  C   UNL     1      10.106  22.054  12.573  1.00  0.00     0.006 C 
BRANCH   5   6
ATOM      6  C   UNL     1      10.836  22.654  11.358  1.00  0.00     0.053 C 
BRANCH   6   7
ATOM      7  C   UNL     1      10.825  24.152  11.364  1.00  0.00     0.041 C 
ATOM      8  O   UNL     1      10.881  24.782  12.454  1.00  0.00    -0.550 OA
ATOM      9  O   UNL     1      10.766  24.854  10.166  1.00  0.00    -0.550 OA
ENDBRANCH   6   7
ENDBRANCH   5   6
ENDBRANCH   4   5
ENDBRANCH   3   4
ENDBRANCH   2   3
ENDBRANCH   1   2
BRANCH   1  10
ATOM     10  C   UNL     1       7.492  19.979  15.021  1.00  0.00     0.000 C 
BRANCH  10  11
ATOM     11  C   UNL     1       6.021  20.358  14.743  1.00  0.00    -0.000 C 
BRANCH  11  12
ATOM     12  C   UNL     1       5.170  20.390  16.025  1.00  0.00    -0.000 C 
BRANCH  12  13
ATOM     13  C   UNL     1       3.732  19.900  15.793  1.00  0.00    -0.000 C 
BRANCH  13  14
ATOM     14  C   UNL     1       2.701  20.684  16.619  1.00  0.00    -0.000 C 
BRANCH  14  15
ATOM     15  C   UNL     1       1.294  20.104  16.431  1.00  0.00    -0.003 C 
ATOM     16  C   UNL     1       0.387  21.087  15.695  1.00  0.00     0.004 C 
ENDBRANCH  14  15
ENDBRANCH  13  14
ENDBRANCH  12  13
ENDBRANCH  11  12
ENDBRANCH  10  11
ENDBRANCH   1  10
TORSDOF 12
ENDMDL
MODEL 9
REMARK VINA RESULT:    -0.310      4.536      8.616
REMARK INTER + INTRA:          -1.117
REMARK INTER:                  -0.534
REMARK INTRA:                  -0.583
REMARK UNBOUND:                -0.590
REMARK SMILES CCCCCCCCCCCCCC(=O)[O-]
REMARK SMILES IDX 8 1 9 2 10 3 11 4 12 5 13 6 14 7 15 8 16 9 7 10 6 11 5 12
REMARK SMILES IDX 4 13 3 14 2 15 1 16
REMARK H PARENT
REMARK Flexibility Score: inf
ROOT
ATOM      1  C   UNL     1       5.815  20.727  15.578  1.00  0.00     0.000 C 
ENDROOT
BRANCH   1   2
ATOM      2  C   UNL     1       4.645  21.164  16.479  1.00  0.00     0.000 C 
BRANCH   2   3
ATOM      3  C   UNL     1       3.427  20.221  16.469  1.00  0.00     0.000 C 
BRANCH   3   4
ATOM      4  C   UNL     1       2.087  20.977  16.437  1.00  0.00     0.000 C 
BRANCH   4   5
ATOM      5  C   UNL     1       0.871  20.035  16.349  1.00  0.00     0.006 C 
BRANCH   5   6
ATOM      6  C   UNL     1      -0.447  20.749  16.000  1.00  0.00     0.053 C 
BRANCH   6   7
ATOM      7  C   UNL     1      -1.611  20.221  16.780  1.00  0.00     0.041 C 
ATOM      8  O   UNL     1      -2.733  20.076  16.226  1.00  0.00    -0.550 OA
ATOM      9  O   UNL     1      -1.455  19.875  18.117  1.00  0.00    -0.550 OA
ENDBRANCH   6   7
ENDBRANCH   5   6
ENDBRANCH   4   5
ENDBRANCH   3   4
ENDBRANCH   2   3
ENDBRANCH   1   2
BRANCH   1  10
ATOM     10  C   UNL     1       7.124  20.392  16.319  1.00  0.00     0.000 C 
BRANCH  10  11
ATOM     11  C   UNL     1       8.315  20.105  15.380  1.00  0.00    -0.000 C 
BRANCH  11  12
ATOM     12  C   UNL     1       8.561  21.247  14.377  1.00  0.00    -0.000 C 
BRANCH  12  13
ATOM     13  C   UNL     1      10.041  21.382  13.986  1.00  0.00    -0.000 C 
BRANCH  13  14
ATOM     14  C   UNL     1      10.970  21.455  15.207  1.00  0.00    -0.000 C 
BRANCH  14  15
ATOM     15  C   UNL     1      11.001  22.874  15.786  1.00  0.00    -0.003 C 
ATOM     16  C   UNL     1      10.486  22.894  17.224  1.00  0.00     0.004 C 
ENDBRANCH  14  15
ENDBRANCH  13  14
ENDBRANCH  12  13
ENDBRANCH  11  12
ENDBRANCH  10  11
ENDBRANCH   1  10
TORSDOF 12
ENDMDL
