MODEL 1
REMARK VINA RESULT:    -4.267      0.000      0.000
REMARK INTER + INTRA:          -9.035
REMARK INTER:                  -7.260
REMARK INTRA:                  -1.775
REMARK UNBOUND:                -1.775
REMARK SMILES CCCCCCCCCCCCCC(=O)[O-]
REMARK SMILES IDX 8 1 9 2 10 3 11 4 12 5 13 6 14 7 15 8 16 9 7 10 6 11 5 12
REMARK SMILES IDX 4 13 3 14 2 15 1 16
REMARK H PARENT
REMARK Flexibility Score: inf
ROOT
ATOM      1  C   UNL     1     -34.695  21.661 -29.954  1.00  0.00     0.000 C 
ENDROOT
BRANCH   1   2
ATOM      2  C   UNL     1     -35.975  22.170 -30.651  1.00  0.00     0.000 C 
BRANCH   2   3
ATOM      3  C   UNL     1     -36.739  21.079 -31.426  1.00  0.00     0.000 C 
BRANCH   3   4
ATOM      4  C   UNL     1     -38.189  20.852 -30.967  1.00  0.00     0.000 C 
BRANCH   4   5
ATOM      5  C   UNL     1     -38.434  21.306 -29.517  1.00  0.00     0.006 C 
BRANCH   5   6
ATOM      6  C   UNL     1     -39.897  21.119 -29.092  1.00  0.00     0.053 C 
BRANCH   6   7
ATOM      7  C   UNL     1     -40.094  19.854 -28.316  1.00  0.00     0.041 C 
ATOM      8  O   UNL     1     -41.254  19.404 -28.122  1.00  0.00    -0.550 OA
ATOM      9  O   UNL     1     -38.999  19.188 -27.780  1.00  0.00    -0.550 OA
ENDBRANCH   6   7
ENDBRANCH   5   6
ENDBRANCH   4   5
ENDBRANCH   3   4
ENDBRANCH   2   3
ENDBRANCH   1   2
BRANCH   1  10
ATOM     10  C   UNL     1     -34.782  21.761 -28.421  1.00  0.00     0.000 C 
BRANCH  10  11
ATOM     11  C   UNL     1     -35.071  20.393 -27.764  1.00  0.00    -0.000 C 
BRANCH  11  12
ATOM     12  C   UNL     1     -34.865  19.198 -28.711  1.00  0.00    -0.000 C 
BRANCH  12  13
ATOM     13  C   UNL     1     -36.002  18.166 -28.623  1.00  0.00    -0.000 C 
BRANCH  13  14
ATOM     14  C   UNL     1     -36.295  17.495 -29.975  1.00  0.00    -0.000 C 
BRANCH  14  15
ATOM     15  C   UNL     1     -37.602  16.689 -29.965  1.00  0.00    -0.003 C 
ATOM     16  C   UNL     1     -38.676  17.374 -30.805  1.00  0.00     0.004 C 
ENDBRANCH  14  15
ENDBRANCH  13  14
ENDBRANCH  12  13
ENDBRANCH  11  12
ENDBRANCH  10  11
ENDBRANCH   1  10
TORSDOF 12
ENDMDL
MODEL 2
REMARK VINA RESULT:    -4.198      2.365      5.144
REMARK INTER + INTRA:          -8.918
REMARK INTER:                  -7.070
REMARK INTRA:                  -1.848
REMARK UNBOUND:                -1.775
REMARK SMILES CCCCCCCCCCCCCC(=O)[O-]
REMARK SMILES IDX 8 1 9 2 10 3 11 4 12 5 13 6 14 7 15 8 16 9 7 10 6 11 5 12
REMARK SMILES IDX 4 13 3 14 2 15 1 16
REMARK H PARENT
REMARK Flexibility Score: inf
ROOT
ATOM      1  C   UNL     1     -38.318  19.206 -31.219  1.00  0.00     0.000 C 
ENDROOT
BRANCH   1   2
ATOM      2  C   UNL     1     -38.907  18.624 -29.916  1.00  0.00     0.000 C 
BRANCH   2   3
ATOM      3  C   UNL     1     -38.684  19.514 -28.678  1.00  0.00     0.000 C 
BRANCH   3   4
ATOM      4  C   UNL     1     -37.639  18.986 -27.680  1.00  0.00     0.000 C 
BRANCH   4   5
ATOM      5  C   UNL     1     -36.934  17.711 -28.173  1.00  0.00     0.006 C 
BRANCH   5   6
ATOM      6  C   UNL     1     -35.497  17.987 -28.639  1.00  0.00     0.053 C 
BRANCH   6   7
ATOM      7  C   UNL     1     -35.197  17.321 -29.945  1.00  0.00     0.041 C 
ATOM      8  O   UNL     1     -34.228  17.711 -30.648  1.00  0.00    -0.550 OA
ATOM      9  O   UNL     1     -36.006  16.287 -30.402  1.00  0.00    -0.550 OA
ENDBRANCH   6   7
ENDBRANCH   5   6
ENDBRANCH   4   5
ENDBRANCH   3   4
ENDBRANCH   2   3
ENDBRANCH   1   2
BRANCH   1  10
ATOM     10  C   UNL     1     -38.172  20.737 -31.163  1.00  0.00     0.000 C 
BRANCH  10  11
ATOM     11  C   UNL     1     -36.859  21.222 -31.815  1.00  0.00    -0.000 C 
BRANCH  11  12
ATOM     12  C   UNL     1     -35.984  22.075 -30.879  1.00  0.00    -0.000 C 
BRANCH  12  13
ATOM     13  C   UNL     1     -35.010  21.230 -30.041  1.00  0.00    -0.000 C 
BRANCH  13  14
ATOM     14  C   UNL     1     -35.082  21.562 -28.541  1.00  0.00    -0.000 C 
BRANCH  14  15
ATOM     15  C   UNL     1     -36.130  22.639 -28.224  1.00  0.00    -0.003 C 
ATOM     16  C   UNL     1     -35.502  23.813 -27.478  1.00  0.00     0.004 C 
ENDBRANCH  14  15
ENDBRANCH  13  14
ENDBRANCH  12  13
ENDBRANCH  11  12
ENDBRANCH  10  11
ENDBRANCH   1  10
TORSDOF 12
ENDMDL
MODEL 3
REMARK VINA RESULT:    -4.195      1.263      3.516
REMARK INTER + INTRA:          -8.913
REMARK INTER:                  -7.078
REMARK INTRA:                  -1.835
REMARK UNBOUND:                -1.775
REMARK SMILES CCCCCCCCCCCCCC(=O)[O-]
REMARK SMILES IDX 8 1 9 2 10 3 11 4 12 5 13 6 14 7 15 8 16 9 7 10 6 11 5 12
REMARK SMILES IDX 4 13 3 14 2 15 1 16
REMARK H PARENT
REMARK Flexibility Score: inf
ROOT
ATOM      1  C   UNL     1     -34.559  18.275 -28.908  1.00  0.00     0.000 C 
ENDROOT
BRANCH   1   2
ATOM      2  C   UNL     1     -35.450  17.560 -29.946  1.00  0.00     0.000 C 
BRANCH   2   3
ATOM      3  C   UNL     1     -36.776  17.028 -29.368  1.00  0.00     0.000 C 
BRANCH   3   4
ATOM      4  C   UNL     1     -37.991  17.167 -30.301  1.00  0.00     0.000 C 
BRANCH   4   5
ATOM      5  C   UNL     1     -38.666  18.545 -30.200  1.00  0.00     0.006 C 
BRANCH   5   6
ATOM      6  C   UNL     1     -38.813  19.012 -28.745  1.00  0.00     0.053 C 
BRANCH   6   7
ATOM      7  C   UNL     1     -39.978  19.936 -28.571  1.00  0.00     0.041 C 
ATOM      8  O   UNL     1     -41.044  19.521 -28.047  1.00  0.00    -0.550 OA
ATOM      9  O   UNL     1     -39.896  21.251 -29.015  1.00  0.00    -0.550 OA
ENDBRANCH   6   7
ENDBRANCH   5   6
ENDBRANCH   4   5
ENDBRANCH   3   4
ENDBRANCH   2   3
ENDBRANCH   1   2
BRANCH   1  10
ATOM     10  C   UNL     1     -35.373  18.863 -27.742  1.00  0.00     0.000 C 
BRANCH  10  11
ATOM     11  C   UNL     1     -34.880  20.270 -27.339  1.00  0.00    -0.000 C 
BRANCH  11  12
ATOM     12  C   UNL     1     -34.889  21.283 -28.498  1.00  0.00    -0.000 C 
BRANCH  12  13
ATOM     13  C   UNL     1     -36.302  21.551 -29.042  1.00  0.00    -0.000 C 
BRANCH  13  14
ATOM     14  C   UNL     1     -36.391  21.368 -30.567  1.00  0.00    -0.000 C 
BRANCH  14  15
ATOM     15  C   UNL     1     -35.011  21.294 -31.235  1.00  0.00    -0.003 C 
ATOM     16  C   UNL     1     -35.034  21.944 -32.616  1.00  0.00     0.004 C 
ENDBRANCH  14  15
ENDBRANCH  13  14
ENDBRANCH  12  13
ENDBRANCH  11  12
ENDBRANCH  10  11
ENDBRANCH   1  10
TORSDOF 12
ENDMDL
MODEL 4
REMARK VINA RESULT:    -4.194      1.747      4.010
REMARK INTER + INTRA:          -8.911
REMARK INTER:                  -7.394
REMARK INTRA:                  -1.517
REMARK UNBOUND:                -1.775
REMARK SMILES CCCCCCCCCCCCCC(=O)[O-]
REMARK SMILES IDX 8 1 9 2 10 3 11 4 12 5 13 6 14 7 15 8 16 9 7 10 6 11 5 12
REMARK SMILES IDX 4 13 3 14 2 15 1 16
REMARK H PARENT
REMARK Flexibility Score: inf
ROOT
ATOM      1  C   UNL     1     -34.412  20.988 -27.893  1.00  0.00     0.000 C 
ENDROOT
BRANCH   1   2
ATOM      2  C   UNL     1     -34.563  19.452 -27.862  1.00  0.00     0.000 C 
BRANCH   2   3
ATOM      3  C   UNL     1     -35.784  18.961 -27.061  1.00  0.00     0.000 C 
BRANCH   3   4
ATOM      4  C   UNL     1     -36.977  18.500 -27.915  1.00  0.00     0.000 C 
BRANCH   4   5
ATOM      5  C   UNL     1     -36.564  18.060 -29.330  1.00  0.00     0.006 C 
BRANCH   5   6
ATOM      6  C   UNL     1     -37.471  16.951 -29.879  1.00  0.00     0.053 C 
BRANCH   6   7
ATOM      7  C   UNL     1     -38.495  17.488 -30.830  1.00  0.00     0.041 C 
ATOM      8  O   UNL     1     -39.409  16.740 -31.267  1.00  0.00    -0.550 OA
ATOM      9  O   UNL     1     -38.424  18.808 -31.258  1.00  0.00    -0.550 OA
ENDBRANCH   6   7
ENDBRANCH   5   6
ENDBRANCH   4   5
ENDBRANCH   3   4
ENDBRANCH   2   3
ENDBRANCH   1   2
BRANCH   1  10
ATOM     10  C   UNL     1     -34.555  21.563 -29.313  1.00  0.00     0.000 C 
BRANCH  10  11
ATOM     11  C   UNL     1     -35.594  22.704 -29.377  1.00  0.00    -0.000 C 
BRANCH  11  12
ATOM     12  C   UNL     1     -36.523  22.762 -28.152  1.00  0.00    -0.000 C 
BRANCH  12  13
ATOM     13  C   UNL     1     -38.012  22.702 -28.530  1.00  0.00    -0.000 C 
BRANCH  13  14
ATOM     14  C   UNL     1     -38.394  21.377 -29.211  1.00  0.00    -0.000 C 
BRANCH  14  15
ATOM     15  C   UNL     1     -39.903  21.095 -29.154  1.00  0.00    -0.003 C 
ATOM     16  C   UNL     1     -40.194  19.823 -28.363  1.00  0.00     0.004 C 
ENDBRANCH  14  15
ENDBRANCH  13  14
ENDBRANCH  12  13
ENDBRANCH  11  12
ENDBRANCH  10  11
ENDBRANCH   1  10
TORSDOF 12
ENDMDL
MODEL 5
REMARK VINA RESULT:    -4.084     15.020     17.881
REMARK INTER + INTRA:          -8.724
REMARK INTER:                  -6.672
REMARK INTRA:                  -2.051
REMARK UNBOUND:                -1.775
REMARK SMILES CCCCCCCCCCCCCC(=O)[O-]
REMARK SMILES IDX 8 1 9 2 10 3 11 4 12 5 13 6 14 7 15 8 16 9 7 10 6 11 5 12
REMARK SMILES IDX 4 13 3 14 2 15 1 16
REMARK H PARENT
REMARK Flexibility Score: inf
ROOT
ATOM      1  C   UNL     1     -50.814  10.343 -31.286  1.00  0.00     0.000 C 
ENDROOT
BRANCH   1   2
ATOM      2  C   UNL     1     -50.668   9.914 -32.762  1.00  0.00     0.000 C 
BRANCH   2   3
ATOM      3  C   UNL     1     -49.229   9.534 -33.161  1.00  0.00     0.000 C 
BRANCH   3   4
ATOM      4  C   UNL     1     -48.905   8.033 -33.067  1.00  0.00     0.000 C 
BRANCH   4   5
ATOM      5  C   UNL     1     -48.001   7.692 -31.870  1.00  0.00     0.006 C 
BRANCH   5   6
ATOM      6  C   UNL     1     -47.302   8.933 -31.301  1.00  0.00     0.053 C 
BRANCH   6   7
ATOM      7  C   UNL     1     -47.382   8.983 -29.806  1.00  0.00     0.041 C 
ATOM      8  O   UNL     1     -46.815   8.099 -29.111  1.00  0.00    -0.550 OA
ATOM      9  O   UNL     1     -48.110   9.988 -29.181  1.00  0.00    -0.550 OA
ENDBRANCH   6   7
ENDBRANCH   5   6
ENDBRANCH   4   5
ENDBRANCH   3   4
ENDBRANCH   2   3
ENDBRANCH   1   2
BRANCH   1  10
ATOM     10  C   UNL     1     -51.867   9.509 -30.534  1.00  0.00     0.000 C 
BRANCH  10  11
ATOM     11  C   UNL     1     -51.363   8.084 -30.218  1.00  0.00    -0.000 C 
BRANCH  11  12
ATOM     12  C   UNL     1     -52.280   6.971 -30.756  1.00  0.00    -0.000 C 
BRANCH  12  13
ATOM     13  C   UNL     1     -51.643   6.182 -31.912  1.00  0.00    -0.000 C 
BRANCH  13  14
ATOM     14  C   UNL     1     -52.612   5.975 -33.088  1.00  0.00    -0.000 C 
BRANCH  14  15
ATOM     15  C   UNL     1     -52.439   7.031 -34.190  1.00  0.00    -0.003 C 
ATOM     16  C   UNL     1     -53.586   8.038 -34.170  1.00  0.00     0.004 C 
ENDBRANCH  14  15
ENDBRANCH  13  14
ENDBRANCH  12  13
ENDBRANCH  11  12
ENDBRANCH  10  11
ENDBRANCH   1  10
TORSDOF 12
ENDMDL
MODEL 6
REMARK VINA RESULT:    -4.084      2.064      3.928
REMARK INTER + INTRA:          -8.723
REMARK INTER:                  -7.097
REMARK INTRA:                  -1.626
REMARK UNBOUND:                -1.775
REMARK SMILES CCCCCCCCCCCCCC(=O)[O-]
REMARK SMILES IDX 8 1 9 2 10 3 11 4 12 5 13 6 14 7 15 8 16 9 7 10 6 11 5 12
REMARK SMILES IDX 4 13 3 14 2 15 1 16
REMARK H PARENT
REMARK Flexibility Score: inf
ROOT
ATOM      1  C   UNL     1     -37.933  17.201 -30.288  1.00  0.00     0.000 C 
ENDROOT
BRANCH   1   2
ATOM      2  C   UNL     1     -38.694  18.534 -30.126  1.00  0.00     0.000 C 
BRANCH   2   3
ATOM      3  C   UNL     1     -38.822  19.005 -28.664  1.00  0.00     0.000 C 
BRANCH   3   4
ATOM      4  C   UNL     1     -39.860  20.115 -28.429  1.00  0.00     0.000 C 
BRANCH   4   5
ATOM      5  C   UNL     1     -39.413  21.478 -28.986  1.00  0.00     0.006 C 
BRANCH   5   6
ATOM      6  C   UNL     1     -40.397  22.029 -30.027  1.00  0.00     0.053 C 
BRANCH   6   7
ATOM      7  C   UNL     1     -41.208  23.164 -29.482  1.00  0.00     0.041 C 
ATOM      8  O   UNL     1     -40.745  23.890 -28.564  1.00  0.00    -0.550 OA
ATOM      9  O   UNL     1     -42.489  23.401 -29.968  1.00  0.00    -0.550 OA
ENDBRANCH   6   7
ENDBRANCH   5   6
ENDBRANCH   4   5
ENDBRANCH   3   4
ENDBRANCH   2   3
ENDBRANCH   1   2
BRANCH   1  10
ATOM     10  C   UNL     1     -36.770  17.064 -29.290  1.00  0.00     0.000 C 
BRANCH  10  11
ATOM     11  C   UNL     1     -35.393  17.154 -29.983  1.00  0.00    -0.000 C 
BRANCH  11  12
ATOM     12  C   UNL     1     -34.365  17.997 -29.208  1.00  0.00    -0.000 C 
BRANCH  12  13
ATOM     13  C   UNL     1     -34.739  19.487 -29.150  1.00  0.00    -0.000 C 
BRANCH  13  14
ATOM     14  C   UNL     1     -35.066  20.066 -30.537  1.00  0.00    -0.000 C 
BRANCH  14  15
ATOM     15  C   UNL     1     -36.182  21.121 -30.489  1.00  0.00    -0.003 C 
ATOM     16  C   UNL     1     -36.892  21.229 -31.836  1.00  0.00     0.004 C 
ENDBRANCH  14  15
ENDBRANCH  13  14
ENDBRANCH  12  13
ENDBRANCH  11  12
ENDBRANCH  10  11
ENDBRANCH   1  10
TORSDOF 12
ENDMDL
MODEL 7
REMARK VINA RESULT:    -4.027      2.426      4.512
REMARK INTER + INTRA:          -8.627
REMARK INTER:                  -7.044
REMARK INTRA:                  -1.583
REMARK UNBOUND:                -1.775
REMARK SMILES CCCCCCCCCCCCCC(=O)[O-]
REMARK SMILES IDX 8 1 9 2 10 3 11 4 12 5 13 6 14 7 15 8 16 9 7 10 6 11 5 12
REMARK SMILES IDX 4 13 3 14 2 15 1 16
REMARK H PARENT
REMARK Flexibility Score: inf
ROOT
ATOM      1  C   UNL     1     -35.955  22.564 -29.976  1.00  0.00     0.000 C 
ENDROOT
BRANCH   1   2
ATOM      2  C   UNL     1     -36.160  22.159 -28.500  1.00  0.00     0.000 C 
BRANCH   2   3
ATOM      3  C   UNL     1     -34.866  21.721 -27.788  1.00  0.00     0.000 C 
BRANCH   3   4
ATOM      4  C   UNL     1     -34.870  20.274 -27.267  1.00  0.00     0.000 C 
BRANCH   4   5
ATOM      5  C   UNL     1     -34.296  19.272 -28.283  1.00  0.00     0.006 C 
BRANCH   5   6
ATOM      6  C   UNL     1     -35.340  18.239 -28.728  1.00  0.00     0.053 C 
BRANCH   6   7
ATOM      7  C   UNL     1     -34.911  17.507 -29.962  1.00  0.00     0.041 C 
ATOM      8  O   UNL     1     -33.937  17.927 -30.641  1.00  0.00    -0.550 OA
ATOM      9  O   UNL     1     -35.605  16.378 -30.379  1.00  0.00    -0.550 OA
ENDBRANCH   6   7
ENDBRANCH   5   6
ENDBRANCH   4   5
ENDBRANCH   3   4
ENDBRANCH   2   3
ENDBRANCH   1   2
BRANCH   1  10
ATOM     10  C   UNL     1     -35.581  21.367 -30.866  1.00  0.00     0.000 C 
BRANCH  10  11
ATOM     11  C   UNL     1     -36.644  21.095 -31.953  1.00  0.00    -0.000 C 
BRANCH  11  12
ATOM     12  C   UNL     1     -38.055  20.852 -31.389  1.00  0.00    -0.000 C 
BRANCH  12  13
ATOM     13  C   UNL     1     -38.287  19.390 -30.975  1.00  0.00    -0.000 C 
BRANCH  13  14
ATOM     14  C   UNL     1     -38.484  19.231 -29.458  1.00  0.00    -0.000 C 
BRANCH  14  15
ATOM     15  C   UNL     1     -39.427  20.291 -28.870  1.00  0.00    -0.003 C 
ATOM     16  C   UNL     1     -40.596  19.640 -28.137  1.00  0.00     0.004 C 
ENDBRANCH  14  15
ENDBRANCH  13  14
ENDBRANCH  12  13
ENDBRANCH  11  12
ENDBRANCH  10  11
ENDBRANCH   1  10
TORSDOF 12
ENDMDL
MODEL 8
REMARK VINA RESULT:    -4.006      1.464      2.112
REMARK INTER + INTRA:          -8.591
REMARK INTER:                  -7.135
REMARK INTRA:                  -1.456
REMARK UNBOUND:                -1.775
REMARK SMILES CCCCCCCCCCCCCC(=O)[O-]
REMARK SMILES IDX 8 1 9 2 10 3 11 4 12 5 13 6 14 7 15 8 16 9 7 10 6 11 5 12
REMARK SMILES IDX 4 13 3 14 2 15 1 16
REMARK H PARENT
REMARK Flexibility Score: inf
ROOT
ATOM      1  C   UNL     1     -35.203  20.249 -30.663  1.00  0.00     0.000 C 
ENDROOT
BRANCH   1   2
ATOM      2  C   UNL     1     -35.254  21.790 -30.579  1.00  0.00     0.000 C 
BRANCH   2   3
ATOM      3  C   UNL     1     -35.067  22.344 -29.154  1.00  0.00     0.000 C 
BRANCH   3   4
ATOM      4  C   UNL     1     -36.370  22.719 -28.428  1.00  0.00     0.000 C 
BRANCH   4   5
ATOM      5  C   UNL     1     -37.570  21.869 -28.879  1.00  0.00     0.006 C 
BRANCH   5   6
ATOM      6  C   UNL     1     -38.908  22.580 -28.634  1.00  0.00     0.053 C 
BRANCH   6   7
ATOM      7  C   UNL     1     -40.065  21.791 -29.163  1.00  0.00     0.041 C 
ATOM      8  O   UNL     1     -40.911  22.335 -29.920  1.00  0.00    -0.550 OA
ATOM      9  O   UNL     1     -40.226  20.460 -28.794  1.00  0.00    -0.550 OA
ENDBRANCH   6   7
ENDBRANCH   5   6
ENDBRANCH   4   5
ENDBRANCH   3   4
ENDBRANCH   2   3
ENDBRANCH   1   2
BRANCH   1  10
ATOM     10  C   UNL     1     -34.183  19.642 -29.684  1.00  0.00     0.000 C 
BRANCH  10  11
ATOM     11  C   UNL     1     -34.723  18.370 -28.995  1.00  0.00    -0.000 C 
BRANCH  11  12
ATOM     12  C   UNL     1     -35.660  18.661 -27.809  1.00  0.00    -0.000 C 
BRANCH  12  13
ATOM     13  C   UNL     1     -37.127  18.310 -28.110  1.00  0.00    -0.000 C 
BRANCH  13  14
ATOM     14  C   UNL     1     -37.282  17.474 -29.391  1.00  0.00    -0.000 C 
BRANCH  14  15
ATOM     15  C   UNL     1     -38.202  18.141 -30.425  1.00  0.00    -0.003 C 
ATOM     16  C   UNL     1     -39.083  17.108 -31.122  1.00  0.00     0.004 C 
ENDBRANCH  14  15
ENDBRANCH  13  14
ENDBRANCH  12  13
ENDBRANCH  11  12
ENDBRANCH  10  11
ENDBRANCH   1  10
TORSDOF 12
ENDMDL
MODEL 9
REMARK VINA RESULT:    -4.004      1.472      2.013
REMARK INTER + INTRA:          -8.587
REMARK INTER:                  -6.879
REMARK INTRA:                  -1.707
REMARK UNBOUND:                -1.775
REMARK SMILES CCCCCCCCCCCCCC(=O)[O-]
REMARK SMILES IDX 8 1 9 2 10 3 11 4 12 5 13 6 14 7 15 8 16 9 7 10 6 11 5 12
REMARK SMILES IDX 4 13 3 14 2 15 1 16
REMARK H PARENT
REMARK Flexibility Score: inf
ROOT
ATOM      1  C   UNL     1     -35.197  21.468 -28.337  1.00  0.00     0.000 C 
ENDROOT
BRANCH   1   2
ATOM      2  C   UNL     1     -34.846  22.352 -29.554  1.00  0.00     0.000 C 
BRANCH   2   3
ATOM      3  C   UNL     1     -35.848  22.238 -30.718  1.00  0.00     0.000 C 
BRANCH   3   4
ATOM      4  C   UNL     1     -36.464  20.841 -30.909  1.00  0.00     0.000 C 
BRANCH   4   5
ATOM      5  C   UNL     1     -37.992  20.881 -31.083  1.00  0.00     0.006 C 
BRANCH   5   6
ATOM      6  C   UNL     1     -38.731  20.671 -29.755  1.00  0.00     0.053 C 
BRANCH   6   7
ATOM      7  C   UNL     1     -39.335  21.943 -29.246  1.00  0.00     0.041 C 
ATOM      8  O   UNL     1     -38.680  22.692 -28.476  1.00  0.00    -0.550 OA
ATOM      9  O   UNL     1     -40.636  22.285 -29.597  1.00  0.00    -0.550 OA
ENDBRANCH   6   7
ENDBRANCH   5   6
ENDBRANCH   4   5
ENDBRANCH   3   4
ENDBRANCH   2   3
ENDBRANCH   1   2
BRANCH   1  10
ATOM     10  C   UNL     1     -34.079  20.468 -27.996  1.00  0.00     0.000 C 
BRANCH  10  11
ATOM     11  C   UNL     1     -34.539  19.003 -28.159  1.00  0.00    -0.000 C 
BRANCH  11  12
ATOM     12  C   UNL     1     -34.201  18.399 -29.534  1.00  0.00    -0.000 C 
BRANCH  12  13
ATOM     13  C   UNL     1     -35.194  17.306 -29.964  1.00  0.00    -0.000 C 
BRANCH  13  14
ATOM     14  C   UNL     1     -36.637  17.617 -29.531  1.00  0.00    -0.000 C 
BRANCH  14  15
ATOM     15  C   UNL     1     -37.647  16.586 -30.055  1.00  0.00    -0.003 C 
ATOM     16  C   UNL     1     -38.737  17.258 -30.884  1.00  0.00     0.004 C 
ENDBRANCH  14  15
ENDBRANCH  13  14
ENDBRANCH  12  13
ENDBRANCH  11  12
ENDBRANCH  10  11
ENDBRANCH   1  10
TORSDOF 12
ENDMDL
