MODEL 1
REMARK VINA RESULT:    -1.236      0.000      0.000
REMARK INTER + INTRA:          -2.433
REMARK INTER:                  -3.260
REMARK INTRA:                   0.827
REMARK UNBOUND:                 0.827
REMARK SMILES CCCCCCCCCCCCCCCCCCCCCCCCCCCCCC(=O)[O-]
REMARK SMILES IDX 16 1 17 2 18 3 19 4 20 5 21 6 22 7 23 8 24 9 25 10 26 11
REMARK SMILES IDX 27 12 28 13 29 14 30 15 31 16 32 17 15 18 14 19 13 20 12 21
REMARK SMILES IDX 11 22 10 23 9 24 8 25 7 26 6 27 5 28 4 29 3 30 2 31 1 32
REMARK H PARENT
REMARK Flexibility Score: inf
ROOT
ATOM      1  C   UNL     1      -9.635   0.189  -7.193  1.00  0.00     0.000 C 
ENDROOT
BRANCH   1   2
ATOM      2  C   UNL     1     -10.053   1.372  -6.299  1.00  0.00     0.000 C 
BRANCH   2   3
ATOM      3  C   UNL     1      -9.369   2.690  -6.692  1.00  0.00     0.000 C 
BRANCH   3   4
ATOM      4  C   UNL     1      -9.911   3.862  -5.865  1.00  0.00     0.000 C 
BRANCH   4   5
ATOM      5  C   UNL     1      -9.753   3.594  -4.360  1.00  0.00     0.000 C 
BRANCH   5   6
ATOM      6  C   UNL     1      -9.841   2.099  -4.018  1.00  0.00     0.000 C 
BRANCH   6   7
ATOM      7  C   UNL     1      -8.664   1.624  -3.152  1.00  0.00     0.000 C 
BRANCH   7   8
ATOM      8  C   UNL     1      -7.557   2.683  -3.015  1.00  0.00     0.000 C 
BRANCH   8   9
ATOM      9  C   UNL     1      -6.298   2.184  -2.272  1.00  0.00     0.000 C 
BRANCH   9  10
ATOM     10  C   UNL     1      -5.220   1.601  -3.207  1.00  0.00     0.000 C 
BRANCH  10  11
ATOM     11  C   UNL     1      -4.230   0.659  -2.483  1.00  0.00     0.000 C 
BRANCH  11  12
ATOM     12  C   UNL     1      -4.578   0.499  -0.993  1.00  0.00     0.000 C 
BRANCH  12  13
ATOM     13  C   UNL     1      -4.815   1.843  -0.289  1.00  0.00     0.006 C 
BRANCH  13  14
ATOM     14  C   UNL     1      -4.364   1.833   1.179  1.00  0.00     0.053 C 
BRANCH  14  15
ATOM     15  C   UNL     1      -5.314   2.616   2.031  1.00  0.00     0.041 C 
ATOM     16  O   UNL     1      -6.279   3.231   1.506  1.00  0.00    -0.550 OA
ATOM     17  O   UNL     1      -5.115   2.695   3.403  1.00  0.00    -0.550 OA
ENDBRANCH  14  15
ENDBRANCH  13  14
ENDBRANCH  12  13
ENDBRANCH  11  12
ENDBRANCH  10  11
ENDBRANCH   9  10
ENDBRANCH   8   9
ENDBRANCH   7   8
ENDBRANCH   6   7
ENDBRANCH   5   6
ENDBRANCH   4   5
ENDBRANCH   3   4
ENDBRANCH   2   3
ENDBRANCH   1   2
BRANCH   1  18
ATOM     18  C   UNL     1      -9.140   0.580  -8.598  1.00  0.00     0.000 C 
BRANCH  18  19
ATOM     19  C   UNL     1      -7.686   1.084  -8.658  1.00  0.00     0.000 C 
BRANCH  19  20
ATOM     20  C   UNL     1      -7.377   1.929  -9.913  1.00  0.00     0.000 C 
BRANCH  20  21
ATOM     21  C   UNL     1      -7.101   3.405  -9.572  1.00  0.00     0.000 C 
BRANCH  21  22
ATOM     22  C   UNL     1      -8.178   4.352 -10.125  1.00  0.00     0.000 C 
BRANCH  22  23
ATOM     23  C   UNL     1      -9.079   4.934  -9.022  1.00  0.00     0.000 C 
BRANCH  23  24
ATOM     24  C   UNL     1      -8.980   6.467  -8.938  1.00  0.00    -0.000 C 
BRANCH  24  25
ATOM     25  C   UNL     1      -7.795   7.028  -9.741  1.00  0.00    -0.000 C 
BRANCH  25  26
ATOM     26  C   UNL     1      -7.520   8.508  -9.416  1.00  0.00    -0.000 C 
BRANCH  26  27
ATOM     27  C   UNL     1      -8.775   9.403  -9.429  1.00  0.00    -0.000 C 
BRANCH  27  28
ATOM     28  C   UNL     1      -9.082  10.125  -8.101  1.00  0.00    -0.000 C 
BRANCH  28  29
ATOM     29  C   UNL     1      -8.223   9.641  -6.915  1.00  0.00    -0.000 C 
BRANCH  29  30
ATOM     30  C   UNL     1      -8.977   9.695  -5.572  1.00  0.00    -0.000 C 
BRANCH  30  31
ATOM     31  C   UNL     1      -8.980   8.337  -4.846  1.00  0.00    -0.003 C 
ATOM     32  C   UNL     1      -9.257   7.163  -5.782  1.00  0.00     0.004 C 
ENDBRANCH  30  31
ENDBRANCH  29  30
ENDBRANCH  28  29
ENDBRANCH  27  28
ENDBRANCH  26  27
ENDBRANCH  25  26
ENDBRANCH  24  25
ENDBRANCH  23  24
ENDBRANCH  22  23
ENDBRANCH  21  22
ENDBRANCH  20  21
ENDBRANCH  19  20
ENDBRANCH  18  19
ENDBRANCH   1  18
TORSDOF 28
ENDMDL
MODEL 2
REMARK VINA RESULT:    -1.145      1.587      3.613
REMARK INTER + INTRA:          -2.194
REMARK INTER:                  -0.623
REMARK INTRA:                  -1.571
REMARK UNBOUND:                 0.827
REMARK SMILES CCCCCCCCCCCCCCCCCCCCCCCCCCCCCC(=O)[O-]
REMARK SMILES IDX 16 1 17 2 18 3 19 4 20 5 21 6 22 7 23 8 24 9 25 10 26 11
REMARK SMILES IDX 27 12 28 13 29 14 30 15 31 16 32 17 15 18 14 19 13 20 12 21
REMARK SMILES IDX 11 22 10 23 9 24 8 25 7 26 6 27 5 28 4 29 3 30 2 31 1 32
REMARK H PARENT
REMARK Flexibility Score: inf
ROOT
ATOM      1  C   UNL     1      -8.035   3.637  -8.244  1.00  0.00     0.000 C 
ENDROOT
BRANCH   1   2
ATOM      2  C   UNL     1      -7.987   2.799  -9.536  1.00  0.00     0.000 C 
BRANCH   2   3
ATOM      3  C   UNL     1      -9.383   2.450 -10.074  1.00  0.00     0.000 C 
BRANCH   3   4
ATOM      4  C   UNL     1     -10.116   1.489  -9.130  1.00  0.00     0.000 C 
BRANCH   4   5
ATOM      5  C   UNL     1      -9.476   0.093  -9.159  1.00  0.00     0.000 C 
BRANCH   5   6
ATOM      6  C   UNL     1     -10.125  -0.871  -8.154  1.00  0.00     0.000 C 
BRANCH   6   7
ATOM      7  C   UNL     1      -9.976  -0.394  -6.701  1.00  0.00     0.000 C 
BRANCH   7   8
ATOM      8  C   UNL     1      -8.708  -0.937  -6.020  1.00  0.00     0.000 C 
BRANCH   8   9
ATOM      9  C   UNL     1      -7.760   0.162  -5.489  1.00  0.00     0.000 C 
BRANCH   9  10
ATOM     10  C   UNL     1      -8.100   0.632  -4.061  1.00  0.00     0.000 C 
BRANCH  10  11
ATOM     11  C   UNL     1      -7.233   1.823  -3.590  1.00  0.00     0.000 C 
BRANCH  11  12
ATOM     12  C   UNL     1      -5.815   1.376  -3.192  1.00  0.00     0.000 C 
BRANCH  12  13
ATOM     13  C   UNL     1      -5.204   2.249  -2.086  1.00  0.00     0.006 C 
BRANCH  13  14
ATOM     14  C   UNL     1      -6.258   2.812  -1.122  1.00  0.00     0.053 C 
BRANCH  14  15
ATOM     15  C   UNL     1      -5.605   3.435   0.073  1.00  0.00     0.041 C 
ATOM     16  O   UNL     1      -4.938   4.496  -0.049  1.00  0.00    -0.550 OA
ATOM     17  O   UNL     1      -5.705   2.827   1.317  1.00  0.00    -0.550 OA
ENDBRANCH  14  15
ENDBRANCH  13  14
ENDBRANCH  12  13
ENDBRANCH  11  12
ENDBRANCH  10  11
ENDBRANCH   9  10
ENDBRANCH   8   9
ENDBRANCH   7   8
ENDBRANCH   6   7
ENDBRANCH   5   6
ENDBRANCH   4   5
ENDBRANCH   3   4
ENDBRANCH   2   3
ENDBRANCH   1   2
BRANCH   1  18
ATOM     18  C   UNL     1      -8.939   3.070  -7.135  1.00  0.00     0.000 C 
BRANCH  18  19
ATOM     19  C   UNL     1     -10.010   4.045  -6.607  1.00  0.00     0.000 C 
BRANCH  19  20
ATOM     20  C   UNL     1      -9.737   5.519  -6.974  1.00  0.00     0.000 C 
BRANCH  20  21
ATOM     21  C   UNL     1      -8.477   6.072  -6.283  1.00  0.00     0.000 C 
BRANCH  21  22
ATOM     22  C   UNL     1      -7.476   6.683  -7.277  1.00  0.00     0.000 C 
BRANCH  22  23
ATOM     23  C   UNL     1      -6.931   8.044  -6.811  1.00  0.00     0.000 C 
BRANCH  23  24
ATOM     24  C   UNL     1      -5.808   8.566  -7.725  1.00  0.00    -0.000 C 
BRANCH  24  25
ATOM     25  C   UNL     1      -6.099   9.972  -8.274  1.00  0.00    -0.000 C 
BRANCH  25  26
ATOM     26  C   UNL     1      -6.421   9.954  -9.781  1.00  0.00    -0.000 C 
BRANCH  26  27
ATOM     27  C   UNL     1      -7.928   9.962 -10.106  1.00  0.00    -0.000 C 
BRANCH  27  28
ATOM     28  C   UNL     1      -8.670   8.640  -9.817  1.00  0.00    -0.000 C 
BRANCH  28  29
ATOM     29  C   UNL     1     -10.054   8.832  -9.166  1.00  0.00    -0.000 C 
BRANCH  29  30
ATOM     30  C   UNL     1     -10.124  10.084  -8.271  1.00  0.00    -0.000 C 
BRANCH  30  31
ATOM     31  C   UNL     1     -10.068   9.737  -6.772  1.00  0.00    -0.003 C 
ATOM     32  C   UNL     1      -8.735  10.105  -6.125  1.00  0.00     0.004 C 
ENDBRANCH  30  31
ENDBRANCH  29  30
ENDBRANCH  28  29
ENDBRANCH  27  28
ENDBRANCH  26  27
ENDBRANCH  25  26
ENDBRANCH  24  25
ENDBRANCH  23  24
ENDBRANCH  22  23
ENDBRANCH  21  22
ENDBRANCH  20  21
ENDBRANCH  19  20
ENDBRANCH  18  19
ENDBRANCH   1  18
TORSDOF 28
ENDMDL
MODEL 3
REMARK VINA RESULT:    -0.930      2.305      3.700
REMARK INTER + INTRA:          -1.627
REMARK INTER:                  -0.032
REMARK INTRA:                  -1.595
REMARK UNBOUND:                 0.827
REMARK SMILES CCCCCCCCCCCCCCCCCCCCCCCCCCCCCC(=O)[O-]
REMARK SMILES IDX 16 1 17 2 18 3 19 4 20 5 21 6 22 7 23 8 24 9 25 10 26 11
REMARK SMILES IDX 27 12 28 13 29 14 30 15 31 16 32 17 15 18 14 19 13 20 12 21
REMARK SMILES IDX 11 22 10 23 9 24 8 25 7 26 6 27 5 28 4 29 3 30 2 31 1 32
REMARK H PARENT
REMARK Flexibility Score: inf
ROOT
ATOM      1  C   UNL     1      -9.003  -0.032  -5.918  1.00  0.00     0.000 C 
ENDROOT
BRANCH   1   2
ATOM      2  C   UNL     1      -8.700   0.768  -4.637  1.00  0.00     0.000 C 
BRANCH   2   3
ATOM      3  C   UNL     1      -9.098   2.248  -4.748  1.00  0.00     0.000 C 
BRANCH   3   4
ATOM      4  C   UNL     1      -8.353   3.100  -3.713  1.00  0.00     0.000 C 
BRANCH   4   5
ATOM      5  C   UNL     1      -7.648   2.213  -2.675  1.00  0.00     0.000 C 
BRANCH   5   6
ATOM      6  C   UNL     1      -6.181   2.616  -2.458  1.00  0.00     0.000 C 
BRANCH   6   7
ATOM      7  C   UNL     1      -5.975   3.405  -1.156  1.00  0.00     0.000 C 
BRANCH   7   8
ATOM      8  C   UNL     1      -6.764   2.820   0.029  1.00  0.00     0.000 C 
BRANCH   8   9
ATOM      9  C   UNL     1      -5.896   2.503   1.267  1.00  0.00     0.000 C 
BRANCH   9  10
ATOM     10  C   UNL     1      -4.403   2.835   1.075  1.00  0.00     0.000 C 
BRANCH  10  11
ATOM     11  C   UNL     1      -3.545   1.598   0.722  1.00  0.00     0.000 C 
BRANCH  11  12
ATOM     12  C   UNL     1      -4.403   0.441   0.182  1.00  0.00     0.000 C 
BRANCH  12  13
ATOM     13  C   UNL     1      -4.574   0.487  -1.343  1.00  0.00     0.006 C 
BRANCH  13  14
ATOM     14  C   UNL     1      -3.234   0.468  -2.093  1.00  0.00     0.053 C 
BRANCH  14  15
ATOM     15  C   UNL     1      -3.455   0.406  -3.572  1.00  0.00     0.041 C 
ATOM     16  O   UNL     1      -3.856   1.423  -4.197  1.00  0.00    -0.550 OA
ATOM     17  O   UNL     1      -3.248  -0.784  -4.258  1.00  0.00    -0.550 OA
ENDBRANCH  14  15
ENDBRANCH  13  14
ENDBRANCH  12  13
ENDBRANCH  11  12
ENDBRANCH  10  11
ENDBRANCH   9  10
ENDBRANCH   8   9
ENDBRANCH   7   8
ENDBRANCH   6   7
ENDBRANCH   5   6
ENDBRANCH   4   5
ENDBRANCH   3   4
ENDBRANCH   2   3
ENDBRANCH   1   2
BRANCH   1  18
ATOM     18  C   UNL     1      -9.572   0.798  -7.083  1.00  0.00     0.000 C 
BRANCH  18  19
ATOM     19  C   UNL     1      -9.781   0.018  -8.396  1.00  0.00     0.000 C 
BRANCH  19  20
ATOM     20  C   UNL     1      -9.011   0.612  -9.595  1.00  0.00     0.000 C 
BRANCH  20  21
ATOM     21  C   UNL     1      -7.678   1.258  -9.175  1.00  0.00     0.000 C 
BRANCH  21  22
ATOM     22  C   UNL     1      -7.422   2.600  -9.880  1.00  0.00     0.000 C 
BRANCH  22  23
ATOM     23  C   UNL     1      -8.343   3.722  -9.372  1.00  0.00     0.000 C 
BRANCH  23  24
ATOM     24  C   UNL     1      -8.113   4.035  -7.883  1.00  0.00    -0.000 C 
BRANCH  24  25
ATOM     25  C   UNL     1      -8.723   5.381  -7.461  1.00  0.00    -0.000 C 
BRANCH  25  26
ATOM     26  C   UNL     1      -8.731   6.404  -8.613  1.00  0.00    -0.000 C 
BRANCH  26  27
ATOM     27  C   UNL     1      -7.734   7.566  -8.434  1.00  0.00    -0.000 C 
BRANCH  27  28
ATOM     28  C   UNL     1      -8.285   8.965  -8.782  1.00  0.00    -0.000 C 
BRANCH  28  29
ATOM     29  C   UNL     1      -7.553  10.119  -8.069  1.00  0.00    -0.000 C 
BRANCH  29  30
ATOM     30  C   UNL     1      -6.089   9.776  -7.729  1.00  0.00    -0.000 C 
BRANCH  30  31
ATOM     31  C   UNL     1      -5.161   9.893  -8.952  1.00  0.00    -0.003 C 
ATOM     32  C   UNL     1      -3.700  10.119  -8.570  1.00  0.00     0.004 C 
ENDBRANCH  30  31
ENDBRANCH  29  30
ENDBRANCH  28  29
ENDBRANCH  27  28
ENDBRANCH  26  27
ENDBRANCH  25  26
ENDBRANCH  24  25
ENDBRANCH  23  24
ENDBRANCH  22  23
ENDBRANCH  21  22
ENDBRANCH  20  21
ENDBRANCH  19  20
ENDBRANCH  18  19
ENDBRANCH   1  18
TORSDOF 28
ENDMDL
MODEL 4
REMARK VINA RESULT:    -0.762      4.889     10.648
REMARK INTER + INTRA:          -1.184
REMARK INTER:                   0.395
REMARK INTRA:                  -1.579
REMARK UNBOUND:                 0.827
REMARK SMILES CCCCCCCCCCCCCCCCCCCCCCCCCCCCCC(=O)[O-]
REMARK SMILES IDX 16 1 17 2 18 3 19 4 20 5 21 6 22 7 23 8 24 9 25 10 26 11
REMARK SMILES IDX 27 12 28 13 29 14 30 15 31 16 32 17 15 18 14 19 13 20 12 21
REMARK SMILES IDX 11 22 10 23 9 24 8 25 7 26 6 27 5 28 4 29 3 30 2 31 1 32
REMARK H PARENT
REMARK Flexibility Score: inf
ROOT
ATOM      1  C   UNL     1      -9.191   2.263  -3.646  1.00  0.00     0.000 C 
ENDROOT
BRANCH   1   2
ATOM      2  C   UNL     1      -9.241   3.703  -4.189  1.00  0.00     0.000 C 
BRANCH   2   3
ATOM      3  C   UNL     1      -9.625   3.769  -5.675  1.00  0.00     0.000 C 
BRANCH   3   4
ATOM      4  C   UNL     1     -10.073   5.181  -6.069  1.00  0.00     0.000 C 
BRANCH   4   5
ATOM      5  C   UNL     1      -8.910   5.978  -6.681  1.00  0.00     0.000 C 
BRANCH   5   6
ATOM      6  C   UNL     1      -8.052   6.677  -5.616  1.00  0.00     0.000 C 
BRANCH   6   7
ATOM      7  C   UNL     1      -8.898   7.290  -4.490  1.00  0.00     0.000 C 
BRANCH   7   8
ATOM      8  C   UNL     1      -9.375   8.718  -4.808  1.00  0.00     0.000 C 
BRANCH   8   9
ATOM      9  C   UNL     1      -8.899   9.248  -6.178  1.00  0.00     0.000 C 
BRANCH   9  10
ATOM     10  C   UNL     1     -10.046   9.481  -7.182  1.00  0.00     0.000 C 
BRANCH  10  11
ATOM     11  C   UNL     1      -9.939   8.596  -8.446  1.00  0.00     0.000 C 
BRANCH  11  12
ATOM     12  C   UNL     1      -9.828   9.440  -9.727  1.00  0.00     0.000 C 
BRANCH  12  13
ATOM     13  C   UNL     1      -8.411   9.987  -9.959  1.00  0.00     0.006 C 
BRANCH  13  14
ATOM     14  C   UNL     1      -7.324   8.918  -9.777  1.00  0.00     0.053 C 
BRANCH  14  15
ATOM     15  C   UNL     1      -6.137   9.486  -9.063  1.00  0.00     0.041 C 
ATOM     16  O   UNL     1      -6.229   9.837  -7.858  1.00  0.00    -0.550 OA
ATOM     17  O   UNL     1      -4.935   9.659  -9.738  1.00  0.00    -0.550 OA
ENDBRANCH  14  15
ENDBRANCH  13  14
ENDBRANCH  12  13
ENDBRANCH  11  12
ENDBRANCH  10  11
ENDBRANCH   9  10
ENDBRANCH   8   9
ENDBRANCH   7   8
ENDBRANCH   6   7
ENDBRANCH   5   6
ENDBRANCH   4   5
ENDBRANCH   3   4
ENDBRANCH   2   3
ENDBRANCH   1   2
BRANCH   1  18
ATOM     18  C   UNL     1     -10.015   1.237  -4.446  1.00  0.00     0.000 C 
BRANCH  18  19
ATOM     19  C   UNL     1      -9.184   0.258  -5.298  1.00  0.00     0.000 C 
BRANCH  19  20
ATOM     20  C   UNL     1      -8.171   0.957  -6.229  1.00  0.00     0.000 C 
BRANCH  20  21
ATOM     21  C   UNL     1      -8.730   1.173  -7.648  1.00  0.00     0.000 C 
BRANCH  21  22
ATOM     22  C   UNL     1      -9.616   0.009  -8.119  1.00  0.00     0.000 C 
BRANCH  22  23
ATOM     23  C   UNL     1      -9.047  -0.708  -9.355  1.00  0.00     0.000 C 
BRANCH  23  24
ATOM     24  C   UNL     1     -10.125  -1.500 -10.116  1.00  0.00    -0.000 C 
BRANCH  24  25
ATOM     25  C   UNL     1     -10.118  -2.997  -9.762  1.00  0.00    -0.000 C 
BRANCH  25  26
ATOM     26  C   UNL     1      -8.707  -3.504  -9.407  1.00  0.00    -0.000 C 
BRANCH  26  27
ATOM     27  C   UNL     1      -8.469  -4.992  -9.733  1.00  0.00    -0.000 C 
BRANCH  27  28
ATOM     28  C   UNL     1      -9.246  -5.991  -8.851  1.00  0.00    -0.000 C 
BRANCH  28  29
ATOM     29  C   UNL     1      -9.496  -7.355  -9.525  1.00  0.00    -0.000 C 
BRANCH  29  30
ATOM     30  C   UNL     1      -9.297  -8.541  -8.561  1.00  0.00    -0.000 C 
BRANCH  30  31
ATOM     31  C   UNL     1      -7.916  -8.519  -7.882  1.00  0.00    -0.003 C 
ATOM     32  C   UNL     1      -7.779  -9.564  -6.777  1.00  0.00     0.004 C 
ENDBRANCH  30  31
ENDBRANCH  29  30
ENDBRANCH  28  29
ENDBRANCH  27  28
ENDBRANCH  26  27
ENDBRANCH  25  26
ENDBRANCH  24  25
ENDBRANCH  23  24
ENDBRANCH  22  23
ENDBRANCH  21  22
ENDBRANCH  20  21
ENDBRANCH  19  20
ENDBRANCH  18  19
ENDBRANCH   1  18
TORSDOF 28
ENDMDL
MODEL 5
REMARK VINA RESULT:    -0.271      2.140      3.502
REMARK INTER + INTRA:           0.111
REMARK INTER:                   1.312
REMARK INTRA:                  -1.201
REMARK UNBOUND:                 0.827
REMARK SMILES CCCCCCCCCCCCCCCCCCCCCCCCCCCCCC(=O)[O-]
REMARK SMILES IDX 16 1 17 2 18 3 19 4 20 5 21 6 22 7 23 8 24 9 25 10 26 11
REMARK SMILES IDX 27 12 28 13 29 14 30 15 31 16 32 17 15 18 14 19 13 20 12 21
REMARK SMILES IDX 11 22 10 23 9 24 8 25 7 26 6 27 5 28 4 29 3 30 2 31 1 32
REMARK H PARENT
REMARK Flexibility Score: inf
ROOT
ATOM      1  C   UNL     1      -8.648   0.144  -5.568  1.00  0.00     0.000 C 
ENDROOT
BRANCH   1   2
ATOM      2  C   UNL     1      -8.289   0.922  -4.289  1.00  0.00     0.000 C 
BRANCH   2   3
ATOM      3  C   UNL     1      -8.718   2.397  -4.344  1.00  0.00     0.000 C 
BRANCH   3   4
ATOM      4  C   UNL     1      -8.148   3.184  -3.159  1.00  0.00     0.000 C 
BRANCH   4   5
ATOM      5  C   UNL     1      -7.220   2.303  -2.308  1.00  0.00     0.000 C 
BRANCH   5   6
ATOM      6  C   UNL     1      -5.950   3.045  -1.865  1.00  0.00     0.000 C 
BRANCH   6   7
ATOM      7  C   UNL     1      -6.114   3.725  -0.497  1.00  0.00     0.000 C 
BRANCH   7   8
ATOM      8  C   UNL     1      -6.419   2.728   0.635  1.00  0.00     0.000 C 
BRANCH   8   9
ATOM      9  C   UNL     1      -5.297   2.612   1.690  1.00  0.00     0.000 C 
BRANCH   9  10
ATOM     10  C   UNL     1      -3.878   2.692   1.093  1.00  0.00     0.000 C 
BRANCH  10  11
ATOM     11  C   UNL     1      -3.357   1.331   0.575  1.00  0.00     0.000 C 
BRANCH  11  12
ATOM     12  C   UNL     1      -4.508   0.407   0.139  1.00  0.00     0.000 C 
BRANCH  12  13
ATOM     13  C   UNL     1      -4.713   0.388  -1.383  1.00  0.00     0.006 C 
BRANCH  13  14
ATOM     14  C   UNL     1      -3.410   0.624  -2.161  1.00  0.00     0.053 C 
BRANCH  14  15
ATOM     15  C   UNL     1      -3.679   0.705  -3.632  1.00  0.00     0.041 C 
ATOM     16  O   UNL     1      -2.724   0.722  -4.452  1.00  0.00    -0.550 OA
ATOM     17  O   UNL     1      -4.984   0.796  -4.097  1.00  0.00    -0.550 OA
ENDBRANCH  14  15
ENDBRANCH  13  14
ENDBRANCH  12  13
ENDBRANCH  11  12
ENDBRANCH  10  11
ENDBRANCH   9  10
ENDBRANCH   8   9
ENDBRANCH   7   8
ENDBRANCH   6   7
ENDBRANCH   5   6
ENDBRANCH   4   5
ENDBRANCH   3   4
ENDBRANCH   2   3
ENDBRANCH   1   2
BRANCH   1  18
ATOM     18  C   UNL     1      -9.670   0.839  -6.487  1.00  0.00     0.000 C 
BRANCH  18  19
ATOM     19  C   UNL     1     -10.012   0.072  -7.777  1.00  0.00     0.000 C 
BRANCH  19  20
ATOM     20  C   UNL     1      -9.434   0.721  -9.053  1.00  0.00     0.000 C 
BRANCH  20  21
ATOM     21  C   UNL     1      -7.954   1.114  -8.893  1.00  0.00     0.000 C 
BRANCH  21  22
ATOM     22  C   UNL     1      -7.616   2.442  -9.591  1.00  0.00     0.000 C 
BRANCH  22  23
ATOM     23  C   UNL     1      -8.583   3.576  -9.210  1.00  0.00     0.000 C 
BRANCH  23  24
ATOM     24  C   UNL     1      -8.527   3.909  -7.708  1.00  0.00    -0.000 C 
BRANCH  24  25
ATOM     25  C   UNL     1      -9.189   5.256  -7.377  1.00  0.00    -0.000 C 
BRANCH  25  26
ATOM     26  C   UNL     1      -8.723   6.382  -8.321  1.00  0.00    -0.000 C 
BRANCH  26  27
ATOM     27  C   UNL     1      -7.729   7.372  -7.683  1.00  0.00    -0.000 C 
BRANCH  27  28
ATOM     28  C   UNL     1      -8.088   8.863  -7.850  1.00  0.00    -0.000 C 
BRANCH  28  29
ATOM     29  C   UNL     1      -9.479   9.235  -7.300  1.00  0.00    -0.000 C 
BRANCH  29  30
ATOM     30  C   UNL     1      -9.999   8.224  -6.261  1.00  0.00    -0.000 C 
BRANCH  30  31
ATOM     31  C   UNL     1      -9.778   8.704  -4.814  1.00  0.00    -0.003 C 
ATOM     32  C   UNL     1      -9.943   7.589  -3.785  1.00  0.00     0.004 C 
ENDBRANCH  30  31
ENDBRANCH  29  30
ENDBRANCH  28  29
ENDBRANCH  27  28
ENDBRANCH  26  27
ENDBRANCH  25  26
ENDBRANCH  24  25
ENDBRANCH  23  24
ENDBRANCH  22  23
ENDBRANCH  21  22
ENDBRANCH  20  21
ENDBRANCH  19  20
ENDBRANCH  18  19
ENDBRANCH   1  18
TORSDOF 28
ENDMDL
MODEL 6
REMARK VINA RESULT:     0.193     10.555     13.107
REMARK INTER + INTRA:           1.334
REMARK INTER:                   3.438
REMARK INTRA:                  -2.104
REMARK UNBOUND:                 0.827
REMARK SMILES CCCCCCCCCCCCCCCCCCCCCCCCCCCCCC(=O)[O-]
REMARK SMILES IDX 16 1 17 2 18 3 19 4 20 5 21 6 22 7 23 8 24 9 25 10 26 11
REMARK SMILES IDX 27 12 28 13 29 14 30 15 31 16 32 17 15 18 14 19 13 20 12 21
REMARK SMILES IDX 11 22 10 23 9 24 8 25 7 26 6 27 5 28 4 29 3 30 2 31 1 32
REMARK H PARENT
REMARK Flexibility Score: inf
ROOT
ATOM      1  C   UNL     1       3.154  10.118  -1.729  1.00  0.00     0.000 C 
ENDROOT
BRANCH   1   2
ATOM      2  C   UNL     1       1.671  10.125  -2.147  1.00  0.00     0.000 C 
BRANCH   2   3
ATOM      3  C   UNL     1       0.711  10.080  -0.949  1.00  0.00     0.000 C 
BRANCH   3   4
ATOM      4  C   UNL     1      -0.750  10.042  -1.412  1.00  0.00     0.000 C 
BRANCH   4   5
ATOM      5  C   UNL     1      -1.649   9.394  -0.346  1.00  0.00     0.000 C 
BRANCH   5   6
ATOM      6  C   UNL     1      -1.345   7.901  -0.150  1.00  0.00     0.000 C 
BRANCH   6   7
ATOM      7  C   UNL     1      -2.600   7.024  -0.281  1.00  0.00     0.000 C 
BRANCH   7   8
ATOM      8  C   UNL     1      -2.351   5.560   0.120  1.00  0.00     0.000 C 
BRANCH   8   9
ATOM      9  C   UNL     1      -3.558   4.881   0.802  1.00  0.00     0.000 C 
BRANCH   9  10
ATOM     10  C   UNL     1      -3.335   3.386   1.106  1.00  0.00     0.000 C 
BRANCH  10  11
ATOM     11  C   UNL     1      -4.637   2.640   1.484  1.00  0.00     0.000 C 
BRANCH  11  12
ATOM     12  C   UNL     1      -5.758   2.893   0.461  1.00  0.00     0.000 C 
BRANCH  12  13
ATOM     13  C   UNL     1      -5.678   1.956  -0.754  1.00  0.00     0.006 C 
BRANCH  13  14
ATOM     14  C   UNL     1      -6.071   2.650  -2.067  1.00  0.00     0.053 C 
BRANCH  14  15
ATOM     15  C   UNL     1      -6.012   1.688  -3.213  1.00  0.00     0.041 C 
ATOM     16  O   UNL     1      -7.024   1.501  -3.938  1.00  0.00    -0.550 OA
ATOM     17  O   UNL     1      -4.849   0.971  -3.461  1.00  0.00    -0.550 OA
ENDBRANCH  14  15
ENDBRANCH  13  14
ENDBRANCH  12  13
ENDBRANCH  11  12
ENDBRANCH  10  11
ENDBRANCH   9  10
ENDBRANCH   8   9
ENDBRANCH   7   8
ENDBRANCH   6   7
ENDBRANCH   5   6
ENDBRANCH   4   5
ENDBRANCH   3   4
ENDBRANCH   2   3
ENDBRANCH   1   2
BRANCH   1  18
ATOM     18  C   UNL     1       4.158  10.093  -2.896  1.00  0.00     0.000 C 
BRANCH  18  19
ATOM     19  C   UNL     1       4.361   8.713  -3.550  1.00  0.00     0.000 C 
BRANCH  19  20
ATOM     20  C   UNL     1       5.650   7.998  -3.093  1.00  0.00     0.000 C 
BRANCH  20  21
ATOM     21  C   UNL     1       6.485   8.855  -2.123  1.00  0.00     0.000 C 
BRANCH  21  22
ATOM     22  C   UNL     1       7.825   8.196  -1.754  1.00  0.00     0.000 C 
BRANCH  22  23
ATOM     23  C   UNL     1       8.961   8.584  -2.715  1.00  0.00     0.000 C 
BRANCH  23  24
ATOM     24  C   UNL     1       9.082   7.607  -3.899  1.00  0.00    -0.000 C 
BRANCH  24  25
ATOM     25  C   UNL     1       9.973   8.153  -5.027  1.00  0.00    -0.000 C 
BRANCH  25  26
ATOM     26  C   UNL     1       9.219   8.254  -6.367  1.00  0.00    -0.000 C 
BRANCH  26  27
ATOM     27  C   UNL     1       8.419   9.560  -6.545  1.00  0.00    -0.000 C 
BRANCH  27  28
ATOM     28  C   UNL     1       6.915   9.460  -6.214  1.00  0.00    -0.000 C 
BRANCH  28  29
ATOM     29  C   UNL     1       6.107   8.628  -7.229  1.00  0.00    -0.000 C 
BRANCH  29  30
ATOM     30  C   UNL     1       5.445   9.494  -8.318  1.00  0.00    -0.000 C 
BRANCH  30  31
ATOM     31  C   UNL     1       3.944   9.193  -8.475  1.00  0.00    -0.003 C 
ATOM     32  C   UNL     1       3.158   9.389  -7.180  1.00  0.00     0.004 C 
ENDBRANCH  30  31
ENDBRANCH  29  30
ENDBRANCH  28  29
ENDBRANCH  27  28
ENDBRANCH  26  27
ENDBRANCH  25  26
ENDBRANCH  24  25
ENDBRANCH  23  24
ENDBRANCH  22  23
ENDBRANCH  21  22
ENDBRANCH  20  21
ENDBRANCH  19  20
ENDBRANCH  18  19
ENDBRANCH   1  18
TORSDOF 28
ENDMDL
MODEL 7
REMARK VINA RESULT:     0.314      3.225      9.371
REMARK INTER + INTRA:           1.654
REMARK INTER:                   3.347
REMARK INTRA:                  -1.693
REMARK UNBOUND:                 0.827
REMARK SMILES CCCCCCCCCCCCCCCCCCCCCCCCCCCCCC(=O)[O-]
REMARK SMILES IDX 16 1 17 2 18 3 19 4 20 5 21 6 22 7 23 8 24 9 25 10 26 11
REMARK SMILES IDX 27 12 28 13 29 14 30 15 31 16 32 17 15 18 14 19 13 20 12 21
REMARK SMILES IDX 11 22 10 23 9 24 8 25 7 26 6 27 5 28 4 29 3 30 2 31 1 32
REMARK H PARENT
REMARK Flexibility Score: inf
ROOT
ATOM      1  C   UNL     1     -10.125   1.139  -5.644  1.00  0.00     0.000 C 
ENDROOT
BRANCH   1   2
ATOM      2  C   UNL     1      -9.300  -0.012  -6.250  1.00  0.00     0.000 C 
BRANCH   2   3
ATOM      3  C   UNL     1      -9.574  -0.221  -7.748  1.00  0.00     0.000 C 
BRANCH   3   4
ATOM      4  C   UNL     1      -9.801   1.118  -8.461  1.00  0.00     0.000 C 
BRANCH   4   5
ATOM      5  C   UNL     1      -8.466   1.825  -8.742  1.00  0.00     0.000 C 
BRANCH   5   6
ATOM      6  C   UNL     1      -8.548   2.776  -9.946  1.00  0.00     0.000 C 
BRANCH   6   7
ATOM      7  C   UNL     1      -9.664   3.821  -9.793  1.00  0.00     0.000 C 
BRANCH   7   8
ATOM      8  C   UNL     1      -9.195   5.250 -10.115  1.00  0.00     0.000 C 
BRANCH   8   9
ATOM      9  C   UNL     1      -8.973   6.135  -8.869  1.00  0.00     0.000 C 
BRANCH   9  10
ATOM     10  C   UNL     1      -8.022   5.509  -7.829  1.00  0.00     0.000 C 
BRANCH  10  11
ATOM     11  C   UNL     1      -8.029   6.252  -6.472  1.00  0.00     0.000 C 
BRANCH  11  12
ATOM     12  C   UNL     1      -9.257   7.167  -6.328  1.00  0.00     0.000 C 
BRANCH  12  13
ATOM     13  C   UNL     1      -8.881   8.627  -6.035  1.00  0.00     0.006 C 
BRANCH  13  14
ATOM     14  C   UNL     1      -9.045   9.539  -7.259  1.00  0.00     0.053 C 
BRANCH  14  15
ATOM     15  C   UNL     1      -7.831   9.477  -8.133  1.00  0.00     0.041 C 
ATOM     16  O   UNL     1      -6.692   9.303  -7.626  1.00  0.00    -0.550 OA
ATOM     17  O   UNL     1      -7.952   9.644  -9.506  1.00  0.00    -0.550 OA
ENDBRANCH  14  15
ENDBRANCH  13  14
ENDBRANCH  12  13
ENDBRANCH  11  12
ENDBRANCH  10  11
ENDBRANCH   9  10
ENDBRANCH   8   9
ENDBRANCH   7   8
ENDBRANCH   6   7
ENDBRANCH   5   6
ENDBRANCH   4   5
ENDBRANCH   3   4
ENDBRANCH   2   3
ENDBRANCH   1   2
BRANCH   1  18
ATOM     18  C   UNL     1      -9.297   2.233  -4.944  1.00  0.00     0.000 C 
BRANCH  18  19
ATOM     19  C   UNL     1      -8.052   1.725  -4.192  1.00  0.00     0.000 C 
BRANCH  19  20
ATOM     20  C   UNL     1      -7.790   2.464  -2.863  1.00  0.00     0.000 C 
BRANCH  20  21
ATOM     21  C   UNL     1      -6.300   2.461  -2.474  1.00  0.00     0.000 C 
BRANCH  21  22
ATOM     22  C   UNL     1      -6.017   3.285  -1.207  1.00  0.00     0.000 C 
BRANCH  22  23
ATOM     23  C   UNL     1      -7.044   3.030  -0.091  1.00  0.00     0.000 C 
BRANCH  23  24
ATOM     24  C   UNL     1      -6.398   3.024   1.305  1.00  0.00    -0.000 C 
BRANCH  24  25
ATOM     25  C   UNL     1      -4.871   3.198   1.250  1.00  0.00    -0.000 C 
BRANCH  25  26
ATOM     26  C   UNL     1      -4.136   2.167   2.129  1.00  0.00    -0.000 C 
BRANCH  26  27
ATOM     27  C   UNL     1      -3.563   0.967   1.351  1.00  0.00    -0.000 C 
BRANCH  27  28
ATOM     28  C   UNL     1      -4.357   0.559   0.092  1.00  0.00    -0.000 C 
BRANCH  28  29
ATOM     29  C   UNL     1      -3.499   0.477  -1.186  1.00  0.00    -0.000 C 
BRANCH  29  30
ATOM     30  C   UNL     1      -4.333   0.626  -2.473  1.00  0.00    -0.000 C 
BRANCH  30  31
ATOM     31  C   UNL     1      -3.457   0.879  -3.714  1.00  0.00    -0.003 C 
ATOM     32  C   UNL     1      -3.232  -0.378  -4.551  1.00  0.00     0.004 C 
ENDBRANCH  30  31
ENDBRANCH  29  30
ENDBRANCH  28  29
ENDBRANCH  27  28
ENDBRANCH  26  27
ENDBRANCH  25  26
ENDBRANCH  24  25
ENDBRANCH  23  24
ENDBRANCH  22  23
ENDBRANCH  21  22
ENDBRANCH  20  21
ENDBRANCH  19  20
ENDBRANCH  18  19
ENDBRANCH   1  18
TORSDOF 28
ENDMDL
