MODEL 1
REMARK VINA RESULT:    -4.966      0.000      0.000
REMARK INTER + INTRA:         -14.912
REMARK INTER:                 -11.352
REMARK INTRA:                  -3.560
REMARK UNBOUND:                -3.560
REMARK SMILES CCCCCCCCCCCCCCCCCCCCCCCC(=O)[O-]
REMARK SMILES IDX 13 1 14 2 15 3 16 4 17 5 18 6 19 7 20 8 21 9 22 10 23 11
REMARK SMILES IDX 24 12 25 13 26 14 12 15 11 16 10 17 9 18 8 19 7 20 6 21 5 22
REMARK SMILES IDX 4 23 3 24 2 25 1 26
REMARK H PARENT
REMARK Flexibility Score: inf
ROOT
ATOM      1  C   UNL     1      24.795  12.941  30.103  1.00  0.00     0.000 C 
ENDROOT
BRANCH   1   2
ATOM      2  C   UNL     1      23.629  12.781  29.108  1.00  0.00     0.000 C 
BRANCH   2   3
ATOM      3  C   UNL     1      22.332  13.452  29.588  1.00  0.00     0.000 C 
BRANCH   3   4
ATOM      4  C   UNL     1      21.225  12.414  29.830  1.00  0.00     0.000 C 
BRANCH   4   5
ATOM      5  C   UNL     1      20.888  12.250  31.322  1.00  0.00     0.000 C 
BRANCH   5   6
ATOM      6  C   UNL     1      20.227  13.500  31.919  1.00  0.00     0.000 C 
BRANCH   6   7
ATOM      7  C   UNL     1      21.086  14.091  33.044  1.00  0.00     0.000 C 
BRANCH   7   8
ATOM      8  C   UNL     1      21.770  12.980  33.856  1.00  0.00     0.000 C 
BRANCH   8   9
ATOM      9  C   UNL     1      21.329  12.953  35.330  1.00  0.00     0.000 C 
BRANCH   9  10
ATOM     10  C   UNL     1      19.812  13.109  35.561  1.00  0.00     0.006 C 
BRANCH  10  11
ATOM     11  C   UNL     1      19.136  11.887  36.203  1.00  0.00     0.053 C 
BRANCH  11  12
ATOM     12  C   UNL     1      19.407  10.626  35.441  1.00  0.00     0.041 C 
ATOM     13  O   UNL     1      19.918   9.632  36.022  1.00  0.00    -0.550 OA
ATOM     14  O   UNL     1      19.078  10.542  34.092  1.00  0.00    -0.550 OA
ENDBRANCH  11  12
ENDBRANCH  10  11
ENDBRANCH   9  10
ENDBRANCH   8   9
ENDBRANCH   7   8
ENDBRANCH   6   7
ENDBRANCH   5   6
ENDBRANCH   4   5
ENDBRANCH   3   4
ENDBRANCH   2   3
ENDBRANCH   1   2
BRANCH   1  15
ATOM     15  C   UNL     1      24.589  12.250  31.463  1.00  0.00     0.000 C 
BRANCH  15  16
ATOM     16  C   UNL     1      25.128  10.808  31.495  1.00  0.00     0.000 C 
BRANCH  16  17
ATOM     17  C   UNL     1      26.074  10.492  30.318  1.00  0.00     0.000 C 
BRANCH  17  18
ATOM     18  C   UNL     1      27.577  10.614  30.648  1.00  0.00    -0.000 C 
BRANCH  18  19
ATOM     19  C   UNL     1      28.319  11.790  29.984  1.00  0.00    -0.000 C 
BRANCH  19  20
ATOM     20  C   UNL     1      28.655  12.969  30.917  1.00  0.00    -0.000 C 
BRANCH  20  21
ATOM     21  C   UNL     1      28.476  12.636  32.406  1.00  0.00    -0.000 C 
BRANCH  21  22
ATOM     22  C   UNL     1      27.665  13.734  33.112  1.00  0.00    -0.000 C 
BRANCH  22  23
ATOM     23  C   UNL     1      27.585  13.530  34.633  1.00  0.00    -0.000 C 
BRANCH  23  24
ATOM     24  C   UNL     1      27.228  12.083  35.017  1.00  0.00    -0.000 C 
BRANCH  24  25
ATOM     25  C   UNL     1      25.721  11.803  34.911  1.00  0.00    -0.003 C 
ATOM     26  C   UNL     1      24.892  12.650  35.878  1.00  0.00     0.004 C 
ENDBRANCH  24  25
ENDBRANCH  23  24
ENDBRANCH  22  23
ENDBRANCH  21  22
ENDBRANCH  20  21
ENDBRANCH  19  20
ENDBRANCH  18  19
ENDBRANCH  17  18
ENDBRANCH  16  17
ENDBRANCH  15  16
ENDBRANCH   1  15
TORSDOF 22
ENDMDL
MODEL 2
REMARK VINA RESULT:    -4.960      1.399      6.347
REMARK INTER + INTRA:         -14.900
REMARK INTER:                 -11.708
REMARK INTRA:                  -3.192
REMARK UNBOUND:                -3.560
REMARK SMILES CCCCCCCCCCCCCCCCCCCCCCCC(=O)[O-]
REMARK SMILES IDX 13 1 14 2 15 3 16 4 17 5 18 6 19 7 20 8 21 9 22 10 23 11
REMARK SMILES IDX 24 12 25 13 26 14 12 15 11 16 10 17 9 18 8 19 7 20 6 21 5 22
REMARK SMILES IDX 4 23 3 24 2 25 1 26
REMARK H PARENT
REMARK Flexibility Score: inf
ROOT
ATOM      1  C   UNL     1      27.845  13.184  34.397  1.00  0.00     0.000 C 
ENDROOT
BRANCH   1   2
ATOM      2  C   UNL     1      27.811  13.731  32.956  1.00  0.00     0.000 C 
BRANCH   2   3
ATOM      3  C   UNL     1      28.735  12.962  31.998  1.00  0.00     0.000 C 
BRANCH   3   4
ATOM      4  C   UNL     1      28.137  12.896  30.584  1.00  0.00     0.000 C 
BRANCH   4   5
ATOM      5  C   UNL     1      28.330  11.518  29.927  1.00  0.00     0.000 C 
BRANCH   5   6
ATOM      6  C   UNL     1      27.013  10.739  29.794  1.00  0.00     0.000 C 
BRANCH   6   7
ATOM      7  C   UNL     1      26.477  10.328  31.171  1.00  0.00     0.000 C 
BRANCH   7   8
ATOM      8  C   UNL     1      24.967  10.592  31.276  1.00  0.00     0.000 C 
BRANCH   8   9
ATOM      9  C   UNL     1      24.586  12.049  30.961  1.00  0.00     0.000 C 
BRANCH   9  10
ATOM     10  C   UNL     1      23.096  12.279  30.638  1.00  0.00     0.006 C 
BRANCH  10  11
ATOM     11  C   UNL     1      22.305  10.997  30.333  1.00  0.00     0.053 C 
BRANCH  11  12
ATOM     12  C   UNL     1      20.877  11.096  30.776  1.00  0.00     0.041 C 
ATOM     13  O   UNL     1      20.541  10.699  31.924  1.00  0.00    -0.550 OA
ATOM     14  O   UNL     1      19.920  11.642  29.929  1.00  0.00    -0.550 OA
ENDBRANCH  11  12
ENDBRANCH  10  11
ENDBRANCH   9  10
ENDBRANCH   8   9
ENDBRANCH   7   8
ENDBRANCH   6   7
ENDBRANCH   5   6
ENDBRANCH   4   5
ENDBRANCH   3   4
ENDBRANCH   2   3
ENDBRANCH   1   2
BRANCH   1  15
ATOM     15  C   UNL     1      27.825  11.649  34.509  1.00  0.00     0.000 C 
BRANCH  15  16
ATOM     16  C   UNL     1      26.437  11.089  34.871  1.00  0.00     0.000 C 
BRANCH  16  17
ATOM     17  C   UNL     1      25.291  12.073  34.562  1.00  0.00     0.000 C 
BRANCH  17  18
ATOM     18  C   UNL     1      24.452  12.491  35.787  1.00  0.00    -0.000 C 
BRANCH  18  19
ATOM     19  C   UNL     1      22.929  12.569  35.566  1.00  0.00    -0.000 C 
BRANCH  19  20
ATOM     20  C   UNL     1      22.477  12.620  34.094  1.00  0.00    -0.000 C 
BRANCH  20  21
ATOM     21  C   UNL     1      21.344  13.627  33.841  1.00  0.00    -0.000 C 
BRANCH  21  22
ATOM     22  C   UNL     1      20.454  13.763  35.086  1.00  0.00    -0.000 C 
BRANCH  22  23
ATOM     23  C   UNL     1      19.227  12.839  35.043  1.00  0.00    -0.000 C 
BRANCH  23  24
ATOM     24  C   UNL     1      19.325  11.680  36.052  1.00  0.00    -0.000 C 
BRANCH  24  25
ATOM     25  C   UNL     1      19.224  10.304  35.375  1.00  0.00    -0.003 C 
ATOM     26  C   UNL     1      19.615   9.156  36.307  1.00  0.00     0.004 C 
ENDBRANCH  24  25
ENDBRANCH  23  24
ENDBRANCH  22  23
ENDBRANCH  21  22
ENDBRANCH  20  21
ENDBRANCH  19  20
ENDBRANCH  18  19
ENDBRANCH  17  18
ENDBRANCH  16  17
ENDBRANCH  15  16
ENDBRANCH   1  15
TORSDOF 22
ENDMDL
MODEL 3
REMARK VINA RESULT:    -4.837      1.445      4.095
REMARK INTER + INTRA:         -14.618
REMARK INTER:                 -11.645
REMARK INTRA:                  -2.973
REMARK UNBOUND:                -3.560
REMARK SMILES CCCCCCCCCCCCCCCCCCCCCCCC(=O)[O-]
REMARK SMILES IDX 13 1 14 2 15 3 16 4 17 5 18 6 19 7 20 8 21 9 22 10 23 11
REMARK SMILES IDX 24 12 25 13 26 14 12 15 11 16 10 17 9 18 8 19 7 20 6 21 5 22
REMARK SMILES IDX 4 23 3 24 2 25 1 26
REMARK H PARENT
REMARK Flexibility Score: inf
ROOT
ATOM      1  C   UNL     1      26.034  11.126  34.075  1.00  0.00     0.000 C 
ENDROOT
BRANCH   1   2
ATOM      2  C   UNL     1      24.939  12.210  34.055  1.00  0.00     0.000 C 
BRANCH   2   3
ATOM      3  C   UNL     1      24.365  12.512  35.449  1.00  0.00     0.000 C 
BRANCH   3   4
ATOM      4  C   UNL     1      22.829  12.493  35.433  1.00  0.00     0.000 C 
BRANCH   4   5
ATOM      5  C   UNL     1      22.250  12.819  34.045  1.00  0.00     0.000 C 
BRANCH   5   6
ATOM      6  C   UNL     1      21.176  13.915  34.096  1.00  0.00     0.000 C 
BRANCH   6   7
ATOM      7  C   UNL     1      19.775  13.304  34.215  1.00  0.00     0.000 C 
BRANCH   7   8
ATOM      8  C   UNL     1      19.281  13.335  35.669  1.00  0.00     0.000 C 
BRANCH   8   9
ATOM      9  C   UNL     1      18.935  11.940  36.219  1.00  0.00     0.000 C 
BRANCH   9  10
ATOM     10  C   UNL     1      19.477  10.759  35.388  1.00  0.00     0.006 C 
BRANCH  10  11
ATOM     11  C   UNL     1      19.899   9.537  36.220  1.00  0.00     0.053 C 
BRANCH  11  12
ATOM     12  C   UNL     1      18.897   8.426  36.140  1.00  0.00     0.041 C 
ATOM     13  O   UNL     1      18.231   8.248  35.086  1.00  0.00    -0.550 OA
ATOM     14  O   UNL     1      18.712   7.575  37.224  1.00  0.00    -0.550 OA
ENDBRANCH  11  12
ENDBRANCH  10  11
ENDBRANCH   9  10
ENDBRANCH   8   9
ENDBRANCH   7   8
ENDBRANCH   6   7
ENDBRANCH   5   6
ENDBRANCH   4   5
ENDBRANCH   3   4
ENDBRANCH   2   3
ENDBRANCH   1   2
BRANCH   1  15
ATOM     15  C   UNL     1      27.312  11.507  34.846  1.00  0.00     0.000 C 
BRANCH  15  16
ATOM     16  C   UNL     1      28.479  11.899  33.922  1.00  0.00     0.000 C 
BRANCH  16  17
ATOM     17  C   UNL     1      28.160  13.117  33.031  1.00  0.00     0.000 C 
BRANCH  17  18
ATOM     18  C   UNL     1      28.658  12.999  31.575  1.00  0.00    -0.000 C 
BRANCH  18  19
ATOM     19  C   UNL     1      28.021  11.875  30.734  1.00  0.00    -0.000 C 
BRANCH  19  20
ATOM     20  C   UNL     1      27.018  12.340  29.662  1.00  0.00    -0.000 C 
BRANCH  20  21
ATOM     21  C   UNL     1      26.032  13.402  30.173  1.00  0.00    -0.000 C 
BRANCH  21  22
ATOM     22  C   UNL     1      24.831  13.526  29.222  1.00  0.00    -0.000 C 
BRANCH  22  23
ATOM     23  C   UNL     1      23.913  12.295  29.259  1.00  0.00    -0.000 C 
BRANCH  23  24
ATOM     24  C   UNL     1      23.219  12.116  30.621  1.00  0.00    -0.000 C 
BRANCH  24  25
ATOM     25  C   UNL     1      23.239  10.657  31.102  1.00  0.00    -0.003 C 
ATOM     26  C   UNL     1      24.595   9.982  30.889  1.00  0.00     0.004 C 
ENDBRANCH  24  25
ENDBRANCH  23  24
ENDBRANCH  22  23
ENDBRANCH  21  22
ENDBRANCH  20  21
ENDBRANCH  19  20
ENDBRANCH  18  19
ENDBRANCH  17  18
ENDBRANCH  16  17
ENDBRANCH  15  16
ENDBRANCH   1  15
TORSDOF 22
ENDMDL
MODEL 4
REMARK VINA RESULT:    -4.780      1.765      2.976
REMARK INTER + INTRA:         -14.488
REMARK INTER:                 -11.277
REMARK INTRA:                  -3.211
REMARK UNBOUND:                -3.560
REMARK SMILES CCCCCCCCCCCCCCCCCCCCCCCC(=O)[O-]
REMARK SMILES IDX 13 1 14 2 15 3 16 4 17 5 18 6 19 7 20 8 21 9 22 10 23 11
REMARK SMILES IDX 24 12 25 13 26 14 12 15 11 16 10 17 9 18 8 19 7 20 6 21 5 22
REMARK SMILES IDX 4 23 3 24 2 25 1 26
REMARK H PARENT
REMARK Flexibility Score: inf
ROOT
ATOM      1  C   UNL     1      22.961  11.768  31.815  1.00  0.00     0.000 C 
ENDROOT
BRANCH   1   2
ATOM      2  C   UNL     1      21.869  12.005  32.877  1.00  0.00     0.000 C 
BRANCH   2   3
ATOM      3  C   UNL     1      20.942  13.183  32.536  1.00  0.00     0.000 C 
BRANCH   3   4
ATOM      4  C   UNL     1      20.889  14.200  33.686  1.00  0.00     0.000 C 
BRANCH   4   5
ATOM      5  C   UNL     1      20.785  13.525  35.064  1.00  0.00     0.000 C 
BRANCH   5   6
ATOM      6  C   UNL     1      19.332  13.350  35.527  1.00  0.00     0.000 C 
BRANCH   6   7
ATOM      7  C   UNL     1      19.164  12.053  36.328  1.00  0.00     0.000 C 
BRANCH   7   8
ATOM      8  C   UNL     1      20.029  10.927  35.741  1.00  0.00     0.000 C 
BRANCH   8   9
ATOM      9  C   UNL     1      19.334   9.554  35.770  1.00  0.00     0.000 C 
BRANCH   9  10
ATOM     10  C   UNL     1      18.534   9.200  34.500  1.00  0.00     0.006 C 
BRANCH  10  11
ATOM     11  C   UNL     1      18.674  10.217  33.355  1.00  0.00     0.053 C 
BRANCH  11  12
ATOM     12  C   UNL     1      18.960   9.553  32.043  1.00  0.00     0.041 C 
ATOM     13  O   UNL     1      19.324  10.240  31.052  1.00  0.00    -0.550 OA
ATOM     14  O   UNL     1      18.841   8.173  31.919  1.00  0.00    -0.550 OA
ENDBRANCH  11  12
ENDBRANCH  10  11
ENDBRANCH   9  10
ENDBRANCH   8   9
ENDBRANCH   7   8
ENDBRANCH   6   7
ENDBRANCH   5   6
ENDBRANCH   4   5
ENDBRANCH   3   4
ENDBRANCH   2   3
ENDBRANCH   1   2
BRANCH   1  15
ATOM     15  C   UNL     1      22.826  10.451  31.029  1.00  0.00     0.000 C 
BRANCH  15  16
ATOM     16  C   UNL     1      24.185   9.825  30.665  1.00  0.00     0.000 C 
BRANCH  16  17
ATOM     17  C   UNL     1      25.370  10.486  31.399  1.00  0.00     0.000 C 
BRANCH  17  18
ATOM     18  C   UNL     1      26.730  10.345  30.685  1.00  0.00    -0.000 C 
BRANCH  18  19
ATOM     19  C   UNL     1      27.683  11.550  30.808  1.00  0.00    -0.000 C 
BRANCH  19  20
ATOM     20  C   UNL     1      27.099  12.783  31.524  1.00  0.00    -0.000 C 
BRANCH  20  21
ATOM     21  C   UNL     1      28.013  13.332  32.631  1.00  0.00    -0.000 C 
BRANCH  21  22
ATOM     22  C   UNL     1      28.462  12.201  33.570  1.00  0.00    -0.000 C 
BRANCH  22  23
ATOM     23  C   UNL     1      27.668  12.169  34.884  1.00  0.00    -0.000 C 
BRANCH  23  24
ATOM     24  C   UNL     1      26.425  11.265  34.801  1.00  0.00    -0.000 C 
BRANCH  24  25
ATOM     25  C   UNL     1      25.123  12.069  34.664  1.00  0.00    -0.003 C 
ATOM     26  C   UNL     1      24.643  12.651  35.994  1.00  0.00     0.004 C 
ENDBRANCH  24  25
ENDBRANCH  23  24
ENDBRANCH  22  23
ENDBRANCH  21  22
ENDBRANCH  20  21
ENDBRANCH  19  20
ENDBRANCH  18  19
ENDBRANCH  17  18
ENDBRANCH  16  17
ENDBRANCH  15  16
ENDBRANCH   1  15
TORSDOF 22
ENDMDL
MODEL 5
REMARK VINA RESULT:    -4.724      1.119      4.373
REMARK INTER + INTRA:         -14.360
REMARK INTER:                 -11.088
REMARK INTRA:                  -3.271
REMARK UNBOUND:                -3.560
REMARK SMILES CCCCCCCCCCCCCCCCCCCCCCCC(=O)[O-]
REMARK SMILES IDX 13 1 14 2 15 3 16 4 17 5 18 6 19 7 20 8 21 9 22 10 23 11
REMARK SMILES IDX 24 12 25 13 26 14 12 15 11 16 10 17 9 18 8 19 7 20 6 21 5 22
REMARK SMILES IDX 4 23 3 24 2 25 1 26
REMARK H PARENT
REMARK Flexibility Score: inf
ROOT
ATOM      1  C   UNL     1      27.585  13.278  34.581  1.00  0.00     0.000 C 
ENDROOT
BRANCH   1   2
ATOM      2  C   UNL     1      27.248  11.792  34.812  1.00  0.00     0.000 C 
BRANCH   2   3
ATOM      3  C   UNL     1      25.737  11.522  34.892  1.00  0.00     0.000 C 
BRANCH   3   4
ATOM      4  C   UNL     1      25.011  12.645  35.647  1.00  0.00     0.000 C 
BRANCH   4   5
ATOM      5  C   UNL     1      23.482  12.474  35.630  1.00  0.00     0.000 C 
BRANCH   5   6
ATOM      6  C   UNL     1      22.880  12.679  34.233  1.00  0.00     0.000 C 
BRANCH   6   7
ATOM      7  C   UNL     1      21.575  13.479  34.310  1.00  0.00     0.000 C 
BRANCH   7   8
ATOM      8  C   UNL     1      21.029  13.781  32.906  1.00  0.00     0.000 C 
BRANCH   8   9
ATOM      9  C   UNL     1      19.932  12.798  32.461  1.00  0.00     0.000 C 
BRANCH   9  10
ATOM     10  C   UNL     1      19.064  12.228  33.602  1.00  0.00     0.006 C 
BRANCH  10  11
ATOM     11  C   UNL     1      19.382  10.772  33.978  1.00  0.00     0.053 C 
BRANCH  11  12
ATOM     12  C   UNL     1      19.407  10.565  35.461  1.00  0.00     0.041 C 
ATOM     13  O   UNL     1      19.515   9.403  35.937  1.00  0.00    -0.550 OA
ATOM     14  O   UNL     1      19.329  11.656  36.320  1.00  0.00    -0.550 OA
ENDBRANCH  11  12
ENDBRANCH  10  11
ENDBRANCH   9  10
ENDBRANCH   8   9
ENDBRANCH   7   8
ENDBRANCH   6   7
ENDBRANCH   5   6
ENDBRANCH   4   5
ENDBRANCH   3   4
ENDBRANCH   2   3
ENDBRANCH   1   2
BRANCH   1  15
ATOM     15  C   UNL     1      27.770  13.679  33.106  1.00  0.00     0.000 C 
BRANCH  15  16
ATOM     16  C   UNL     1      28.574  12.646  32.296  1.00  0.00     0.000 C 
BRANCH  16  17
ATOM     17  C   UNL     1      28.611  12.959  30.786  1.00  0.00     0.000 C 
BRANCH  17  18
ATOM     18  C   UNL     1      27.225  13.127  30.128  1.00  0.00    -0.000 C 
BRANCH  18  19
ATOM     19  C   UNL     1      26.597  11.847  29.545  1.00  0.00    -0.000 C 
BRANCH  19  20
ATOM     20  C   UNL     1      26.898  10.550  30.322  1.00  0.00    -0.000 C 
BRANCH  20  21
ATOM     21  C   UNL     1      25.716  10.063  31.173  1.00  0.00    -0.000 C 
BRANCH  21  22
ATOM     22  C   UNL     1      24.767  11.228  31.496  1.00  0.00    -0.000 C 
BRANCH  22  23
ATOM     23  C   UNL     1      23.300  10.908  31.169  1.00  0.00    -0.000 C 
BRANCH  23  24
ATOM     24  C   UNL     1      22.754  11.762  30.011  1.00  0.00    -0.000 C 
BRANCH  24  25
ATOM     25  C   UNL     1      23.317  13.191  30.019  1.00  0.00    -0.003 C 
ATOM     26  C   UNL     1      22.337  14.218  29.450  1.00  0.00     0.004 C 
ENDBRANCH  24  25
ENDBRANCH  23  24
ENDBRANCH  22  23
ENDBRANCH  21  22
ENDBRANCH  20  21
ENDBRANCH  19  20
ENDBRANCH  18  19
ENDBRANCH  17  18
ENDBRANCH  16  17
ENDBRANCH  15  16
ENDBRANCH   1  15
TORSDOF 22
ENDMDL
MODEL 6
REMARK VINA RESULT:    -4.686      2.139      7.088
REMARK INTER + INTRA:         -14.271
REMARK INTER:                 -11.417
REMARK INTRA:                  -2.854
REMARK UNBOUND:                -3.560
REMARK SMILES CCCCCCCCCCCCCCCCCCCCCCCC(=O)[O-]
REMARK SMILES IDX 13 1 14 2 15 3 16 4 17 5 18 6 19 7 20 8 21 9 22 10 23 11
REMARK SMILES IDX 24 12 25 13 26 14 12 15 11 16 10 17 9 18 8 19 7 20 6 21 5 22
REMARK SMILES IDX 4 23 3 24 2 25 1 26
REMARK H PARENT
REMARK Flexibility Score: inf
ROOT
ATOM      1  C   UNL     1      24.340  10.826  31.791  1.00  0.00     0.000 C 
ENDROOT
BRANCH   1   2
ATOM      2  C   UNL     1      24.315  11.007  30.261  1.00  0.00     0.000 C 
BRANCH   2   3
ATOM      3  C   UNL     1      24.781  12.401  29.811  1.00  0.00     0.000 C 
BRANCH   3   4
ATOM      4  C   UNL     1      26.089  12.317  29.009  1.00  0.00     0.000 C 
BRANCH   4   5
ATOM      5  C   UNL     1      26.907  11.060  29.347  1.00  0.00     0.000 C 
BRANCH   5   6
ATOM      6  C   UNL     1      28.345  11.388  29.774  1.00  0.00     0.000 C 
BRANCH   6   7
ATOM      7  C   UNL     1      28.456  12.838  30.260  1.00  0.00     0.000 C 
BRANCH   7   8
ATOM      8  C   UNL     1      28.677  12.895  31.779  1.00  0.00     0.000 C 
BRANCH   8   9
ATOM      9  C   UNL     1      27.425  13.343  32.555  1.00  0.00     0.000 C 
BRANCH   9  10
ATOM     10  C   UNL     1      27.703  13.965  33.939  1.00  0.00     0.006 C 
BRANCH  10  11
ATOM     11  C   UNL     1      27.693  12.961  35.102  1.00  0.00     0.053 C 
BRANCH  11  12
ATOM     12  C   UNL     1      26.424  12.165  35.150  1.00  0.00     0.041 C 
ATOM     13  O   UNL     1      25.348  12.710  35.513  1.00  0.00    -0.550 OA
ATOM     14  O   UNL     1      26.427  10.826  34.776  1.00  0.00    -0.550 OA
ENDBRANCH  11  12
ENDBRANCH  10  11
ENDBRANCH   9  10
ENDBRANCH   8   9
ENDBRANCH   7   8
ENDBRANCH   6   7
ENDBRANCH   5   6
ENDBRANCH   4   5
ENDBRANCH   3   4
ENDBRANCH   2   3
ENDBRANCH   1   2
BRANCH   1  15
ATOM     15  C   UNL     1      23.564  11.893  32.584  1.00  0.00     0.000 C 
BRANCH  15  16
ATOM     16  C   UNL     1      22.055  11.597  32.676  1.00  0.00     0.000 C 
BRANCH  16  17
ATOM     17  C   UNL     1      21.197  12.583  31.858  1.00  0.00     0.000 C 
BRANCH  17  18
ATOM     18  C   UNL     1      20.238  13.453  32.697  1.00  0.00    -0.000 C 
BRANCH  18  19
ATOM     19  C   UNL     1      20.888  14.269  33.832  1.00  0.00    -0.000 C 
BRANCH  19  20
ATOM     20  C   UNL     1      20.598  13.764  35.258  1.00  0.00    -0.000 C 
BRANCH  20  21
ATOM     21  C   UNL     1      19.130  13.369  35.476  1.00  0.00    -0.000 C 
BRANCH  21  22
ATOM     22  C   UNL     1      19.035  12.073  36.296  1.00  0.00    -0.000 C 
BRANCH  22  23
ATOM     23  C   UNL     1      19.940  10.957  35.752  1.00  0.00    -0.000 C 
BRANCH  23  24
ATOM     24  C   UNL     1      19.201  10.016  34.783  1.00  0.00    -0.000 C 
BRANCH  24  25
ATOM     25  C   UNL     1      18.695   8.741  35.476  1.00  0.00    -0.003 C 
ATOM     26  C   UNL     1      19.402   8.469  36.805  1.00  0.00     0.004 C 
ENDBRANCH  24  25
ENDBRANCH  23  24
ENDBRANCH  22  23
ENDBRANCH  21  22
ENDBRANCH  20  21
ENDBRANCH  19  20
ENDBRANCH  18  19
ENDBRANCH  17  18
ENDBRANCH  16  17
ENDBRANCH  15  16
ENDBRANCH   1  15
TORSDOF 22
ENDMDL
MODEL 7
REMARK VINA RESULT:    -4.672      1.344      2.316
REMARK INTER + INTRA:         -14.241
REMARK INTER:                 -10.365
REMARK INTRA:                  -3.875
REMARK UNBOUND:                -3.560
REMARK SMILES CCCCCCCCCCCCCCCCCCCCCCCC(=O)[O-]
REMARK SMILES IDX 13 1 14 2 15 3 16 4 17 5 18 6 19 7 20 8 21 9 22 10 23 11
REMARK SMILES IDX 24 12 25 13 26 14 12 15 11 16 10 17 9 18 8 19 7 20 6 21 5 22
REMARK SMILES IDX 4 23 3 24 2 25 1 26
REMARK H PARENT
REMARK Flexibility Score: inf
ROOT
ATOM      1  C   UNL     1      21.610  10.871  29.810  1.00  0.00     0.000 C 
ENDROOT
BRANCH   1   2
ATOM      2  C   UNL     1      21.152  10.334  31.180  1.00  0.00     0.000 C 
BRANCH   2   3
ATOM      3  C   UNL     1      19.757  10.837  31.587  1.00  0.00     0.000 C 
BRANCH   3   4
ATOM      4  C   UNL     1      19.557  12.306  31.188  1.00  0.00     0.000 C 
BRANCH   4   5
ATOM      5  C   UNL     1      19.468  13.241  32.406  1.00  0.00     0.000 C 
BRANCH   5   6
ATOM      6  C   UNL     1      20.778  13.998  32.667  1.00  0.00     0.000 C 
BRANCH   6   7
ATOM      7  C   UNL     1      21.231  13.827  34.122  1.00  0.00     0.000 C 
BRANCH   7   8
ATOM      8  C   UNL     1      21.565  12.358  34.426  1.00  0.00     0.000 C 
BRANCH   8   9
ATOM      9  C   UNL     1      20.774  11.794  35.619  1.00  0.00     0.000 C 
BRANCH   9  10
ATOM     10  C   UNL     1      19.766  10.681  35.266  1.00  0.00     0.006 C 
BRANCH  10  11
ATOM     11  C   UNL     1      19.714   9.525  36.279  1.00  0.00     0.053 C 
BRANCH  11  12
ATOM     12  C   UNL     1      18.761   8.448  35.857  1.00  0.00     0.041 C 
ATOM     13  O   UNL     1      18.310   8.426  34.681  1.00  0.00    -0.550 OA
ATOM     14  O   UNL     1      18.386   7.458  36.759  1.00  0.00    -0.550 OA
ENDBRANCH  11  12
ENDBRANCH  10  11
ENDBRANCH   9  10
ENDBRANCH   8   9
ENDBRANCH   7   8
ENDBRANCH   6   7
ENDBRANCH   5   6
ENDBRANCH   4   5
ENDBRANCH   3   4
ENDBRANCH   2   3
ENDBRANCH   1   2
BRANCH   1  15
ATOM     15  C   UNL     1      23.071  11.356  29.758  1.00  0.00     0.000 C 
BRANCH  15  16
ATOM     16  C   UNL     1      23.378  12.455  30.792  1.00  0.00     0.000 C 
BRANCH  16  17
ATOM     17  C   UNL     1      24.381  12.003  31.873  1.00  0.00     0.000 C 
BRANCH  17  18
ATOM     18  C   UNL     1      25.070  10.652  31.588  1.00  0.00    -0.000 C 
BRANCH  18  19
ATOM     19  C   UNL     1      26.552  10.727  31.170  1.00  0.00    -0.000 C 
BRANCH  19  20
ATOM     20  C   UNL     1      27.140  12.148  31.076  1.00  0.00    -0.000 C 
BRANCH  20  21
ATOM     21  C   UNL     1      28.167  12.454  32.176  1.00  0.00    -0.000 C 
BRANCH  21  22
ATOM     22  C   UNL     1      27.663  13.586  33.086  1.00  0.00    -0.000 C 
BRANCH  22  23
ATOM     23  C   UNL     1      27.651  13.195  34.571  1.00  0.00    -0.000 C 
BRANCH  23  24
ATOM     24  C   UNL     1      27.565  11.672  34.781  1.00  0.00    -0.000 C 
BRANCH  24  25
ATOM     25  C   UNL     1      26.119  11.186  34.961  1.00  0.00    -0.003 C 
ATOM     26  C   UNL     1      25.197  12.266  35.528  1.00  0.00     0.004 C 
ENDBRANCH  24  25
ENDBRANCH  23  24
ENDBRANCH  22  23
ENDBRANCH  21  22
ENDBRANCH  20  21
ENDBRANCH  19  20
ENDBRANCH  18  19
ENDBRANCH  17  18
ENDBRANCH  16  17
ENDBRANCH  15  16
ENDBRANCH   1  15
TORSDOF 22
ENDMDL
MODEL 8
REMARK VINA RESULT:    -4.663      2.693      7.207
REMARK INTER + INTRA:         -14.220
REMARK INTER:                 -10.959
REMARK INTRA:                  -3.261
REMARK UNBOUND:                -3.560
REMARK SMILES CCCCCCCCCCCCCCCCCCCCCCCC(=O)[O-]
REMARK SMILES IDX 13 1 14 2 15 3 16 4 17 5 18 6 19 7 20 8 21 9 22 10 23 11
REMARK SMILES IDX 24 12 25 13 26 14 12 15 11 16 10 17 9 18 8 19 7 20 6 21 5 22
REMARK SMILES IDX 4 23 3 24 2 25 1 26
REMARK H PARENT
REMARK Flexibility Score: inf
ROOT
ATOM      1  C   UNL     1      23.984  10.902  31.799  1.00  0.00     0.000 C 
ENDROOT
BRANCH   1   2
ATOM      2  C   UNL     1      24.313  12.204  32.556  1.00  0.00     0.000 C 
BRANCH   2   3
ATOM      3  C   UNL     1      23.846  12.184  34.020  1.00  0.00     0.000 C 
BRANCH   3   4
ATOM      4  C   UNL     1      25.030  12.357  34.984  1.00  0.00     0.000 C 
BRANCH   4   5
ATOM      5  C   UNL     1      26.060  11.221  34.860  1.00  0.00     0.000 C 
BRANCH   5   6
ATOM      6  C   UNL     1      27.505  11.736  34.820  1.00  0.00     0.000 C 
BRANCH   6   7
ATOM      7  C   UNL     1      27.548  13.221  34.440  1.00  0.00     0.000 C 
BRANCH   7   8
ATOM      8  C   UNL     1      27.913  13.401  32.958  1.00  0.00     0.000 C 
BRANCH   8   9
ATOM      9  C   UNL     1      28.288  12.078  32.266  1.00  0.00     0.000 C 
BRANCH   9  10
ATOM     10  C   UNL     1      27.644  11.861  30.881  1.00  0.00     0.006 C 
BRANCH  10  11
ATOM     11  C   UNL     1      27.552  13.128  30.016  1.00  0.00     0.053 C 
BRANCH  11  12
ATOM     12  C   UNL     1      26.189  13.308  29.420  1.00  0.00     0.041 C 
ATOM     13  O   UNL     1      25.520  12.304  29.056  1.00  0.00    -0.550 OA
ATOM     14  O   UNL     1      25.650  14.582  29.283  1.00  0.00    -0.550 OA
ENDBRANCH  11  12
ENDBRANCH  10  11
ENDBRANCH   9  10
ENDBRANCH   8   9
ENDBRANCH   7   8
ENDBRANCH   6   7
ENDBRANCH   5   6
ENDBRANCH   4   5
ENDBRANCH   3   4
ENDBRANCH   2   3
ENDBRANCH   1   2
BRANCH   1  15
ATOM     15  C   UNL     1      22.500  10.724  31.429  1.00  0.00     0.000 C 
BRANCH  15  16
ATOM     16  C   UNL     1      22.133  11.371  30.080  1.00  0.00     0.000 C 
BRANCH  16  17
ATOM     17  C   UNL     1      20.842  12.212  30.146  1.00  0.00     0.000 C 
BRANCH  17  18
ATOM     18  C   UNL     1      21.063  13.738  30.089  1.00  0.00    -0.000 C 
BRANCH  18  19
ATOM     19  C   UNL     1      21.175  14.454  31.449  1.00  0.00    -0.000 C 
BRANCH  19  20
ATOM     20  C   UNL     1      20.597  13.682  32.651  1.00  0.00    -0.000 C 
BRANCH  20  21
ATOM     21  C   UNL     1      20.801  14.404  33.992  1.00  0.00    -0.000 C 
BRANCH  21  22
ATOM     22  C   UNL     1      20.680  13.415  35.162  1.00  0.00    -0.000 C 
BRANCH  22  23
ATOM     23  C   UNL     1      19.232  13.237  35.643  1.00  0.00    -0.000 C 
BRANCH  23  24
ATOM     24  C   UNL     1      18.998  11.876  36.322  1.00  0.00    -0.000 C 
BRANCH  24  25
ATOM     25  C   UNL     1      19.833  10.753  35.688  1.00  0.00    -0.003 C 
ATOM     26  C   UNL     1      19.467   9.368  36.222  1.00  0.00     0.004 C 
ENDBRANCH  24  25
ENDBRANCH  23  24
ENDBRANCH  22  23
ENDBRANCH  21  22
ENDBRANCH  20  21
ENDBRANCH  19  20
ENDBRANCH  18  19
ENDBRANCH  17  18
ENDBRANCH  16  17
ENDBRANCH  15  16
ENDBRANCH   1  15
TORSDOF 22
ENDMDL
MODEL 9
REMARK VINA RESULT:    -4.625      1.600      3.586
REMARK INTER + INTRA:         -14.133
REMARK INTER:                 -10.540
REMARK INTRA:                  -3.593
REMARK UNBOUND:                -3.560
REMARK SMILES CCCCCCCCCCCCCCCCCCCCCCCC(=O)[O-]
REMARK SMILES IDX 13 1 14 2 15 3 16 4 17 5 18 6 19 7 20 8 21 9 22 10 23 11
REMARK SMILES IDX 24 12 25 13 26 14 12 15 11 16 10 17 9 18 8 19 7 20 6 21 5 22
REMARK SMILES IDX 4 23 3 24 2 25 1 26
REMARK H PARENT
REMARK Flexibility Score: inf
ROOT
ATOM      1  C   UNL     1      21.159  10.792  31.874  1.00  0.00     0.000 C 
ENDROOT
BRANCH   1   2
ATOM      2  C   UNL     1      19.791  11.501  31.863  1.00  0.00     0.000 C 
BRANCH   2   3
ATOM      3  C   UNL     1      19.902  13.023  31.671  1.00  0.00     0.000 C 
BRANCH   3   4
ATOM      4  C   UNL     1      21.244  13.552  32.198  1.00  0.00     0.000 C 
BRANCH   4   5
ATOM      5  C   UNL     1      21.193  13.898  33.696  1.00  0.00     0.000 C 
BRANCH   5   6
ATOM      6  C   UNL     1      22.183  13.069  34.527  1.00  0.00     0.000 C 
BRANCH   6   7
ATOM      7  C   UNL     1      21.448  12.238  35.586  1.00  0.00     0.000 C 
BRANCH   7   8
ATOM      8  C   UNL     1      19.961  12.617  35.649  1.00  0.00     0.000 C 
BRANCH   8   9
ATOM      9  C   UNL     1      19.032  11.395  35.764  1.00  0.00     0.000 C 
BRANCH   9  10
ATOM     10  C   UNL     1      19.734  10.027  35.637  1.00  0.00     0.006 C 
BRANCH  10  11
ATOM     11  C   UNL     1      18.781   8.839  35.432  1.00  0.00     0.053 C 
BRANCH  11  12
ATOM     12  C   UNL     1      18.693   7.969  36.649  1.00  0.00     0.041 C 
ATOM     13  O   UNL     1      18.988   8.433  37.782  1.00  0.00    -0.550 OA
ATOM     14  O   UNL     1      18.267   6.650  36.534  1.00  0.00    -0.550 OA
ENDBRANCH  11  12
ENDBRANCH  10  11
ENDBRANCH   9  10
ENDBRANCH   8   9
ENDBRANCH   7   8
ENDBRANCH   6   7
ENDBRANCH   5   6
ENDBRANCH   4   5
ENDBRANCH   3   4
ENDBRANCH   2   3
ENDBRANCH   1   2
BRANCH   1  15
ATOM     15  C   UNL     1      21.348   9.728  30.777  1.00  0.00     0.000 C 
BRANCH  15  16
ATOM     16  C   UNL     1      22.764   9.730  30.172  1.00  0.00     0.000 C 
BRANCH  16  17
ATOM     17  C   UNL     1      23.262  11.144  29.808  1.00  0.00     0.000 C 
BRANCH  17  18
ATOM     18  C   UNL     1      24.620  11.529  30.430  1.00  0.00    -0.000 C 
BRANCH  18  19
ATOM     19  C   UNL     1      24.560  12.204  31.814  1.00  0.00    -0.000 C 
BRANCH  19  20
ATOM     20  C   UNL     1      25.095  11.357  32.985  1.00  0.00    -0.000 C 
BRANCH  20  21
ATOM     21  C   UNL     1      25.906  12.173  34.003  1.00  0.00    -0.000 C 
BRANCH  21  22
ATOM     22  C   UNL     1      27.216  11.450  34.354  1.00  0.00    -0.000 C 
BRANCH  22  23
ATOM     23  C   UNL     1      28.442  12.075  33.671  1.00  0.00    -0.000 C 
BRANCH  23  24
ATOM     24  C   UNL     1      28.063  13.199  32.690  1.00  0.00    -0.000 C 
BRANCH  24  25
ATOM     25  C   UNL     1      28.749  13.040  31.324  1.00  0.00    -0.003 C 
ATOM     26  C   UNL     1      28.231  11.835  30.538  1.00  0.00     0.004 C 
ENDBRANCH  24  25
ENDBRANCH  23  24
ENDBRANCH  22  23
ENDBRANCH  21  22
ENDBRANCH  20  21
ENDBRANCH  19  20
ENDBRANCH  18  19
ENDBRANCH  17  18
ENDBRANCH  16  17
ENDBRANCH  15  16
ENDBRANCH   1  15
TORSDOF 22
ENDMDL
