MODEL 1
REMARK VINA RESULT:    -6.182      0.000      0.000
REMARK INTER + INTRA:          -7.300
REMARK INTER:                  -7.447
REMARK INTRA:                   0.147
REMARK UNBOUND:                 0.147
REMARK SMILES O=c1c(O)c(-c2ccc(O)c(O)c2)oc2cc(O)cc(O)c12
REMARK SMILES IDX 5 1 3 2 2 3 1 4 22 5 20 6 19 7 17 8 16 9 15 10 14 11 6 12
REMARK SMILES IDX 7 13 8 14 9 15 13 16 11 17 10 18 12 20 4 22 21 24 18 26
REMARK H PARENT 10 19 12 21 4 23 21 25 18 27
REMARK Flexibility Score: inf
ROOT
ATOM      1  C   UNL     1     220.664  23.836 179.371  1.00  0.00     0.180 A 
ATOM      2  C   UNL     1     221.266  22.664 178.873  1.00  0.00     0.208 A 
ATOM      3  C   UNL     1     221.663  22.624 177.527  1.00  0.00     0.238 A 
ATOM      4  O   UNL     1     222.213  21.584 177.073  1.00  0.00    -0.285 OA
ATOM      5  C   UNL     1     221.435  23.743 176.700  1.00  0.00     0.111 A 
ATOM      6  C   UNL     1     221.801  23.783 175.333  1.00  0.00     0.134 A 
ATOM      7  C   UNL     1     221.531  24.932 174.575  1.00  0.00     0.093 A 
ATOM      8  C   UNL     1     220.904  26.037 175.152  1.00  0.00     0.123 A 
ATOM      9  C   UNL     1     220.540  26.004 176.503  1.00  0.00     0.094 A 
ATOM     10  C   UNL     1     220.802  24.869 177.277  1.00  0.00     0.146 A 
ATOM     11  O   UNL     1     220.451  24.866 178.558  1.00  0.00    -0.452 OA
ENDROOT
BRANCH   1  12
ATOM     12  C   UNL     1     220.236  23.961 180.783  1.00  0.00     0.025 A 
ATOM     13  C   UNL     1     220.495  25.150 181.479  1.00  0.00     0.016 A 
ATOM     14  C   UNL     1     220.117  25.281 182.817  1.00  0.00     0.051 A 
ATOM     15  C   UNL     1     219.489  24.227 183.490  1.00  0.00     0.157 A 
ATOM     16  C   UNL     1     219.626  22.892 181.461  1.00  0.00     0.062 A 
ATOM     17  C   UNL     1     219.247  23.013 182.804  1.00  0.00     0.158 A 
BRANCH  15  18
ATOM     18  O   UNL     1     219.131  24.426 184.824  1.00  0.00    -0.504 OA
ATOM     19  H   UNL     1     218.873  25.321 185.213  1.00  0.00     0.293 HD
ENDBRANCH  15  18
BRANCH  17  20
ATOM     20  O   UNL     1     218.642  21.912 183.413  1.00  0.00    -0.504 OA
ATOM     21  H   UNL     1     217.660  21.691 183.334  1.00  0.00     0.293 HD
ENDBRANCH  17  20
ENDBRANCH   1  12
BRANCH   2  22
ATOM     22  O   UNL     1     221.436  21.551 179.701  1.00  0.00    -0.502 OA
ATOM     23  H   UNL     1     220.722  21.243 180.350  1.00  0.00     0.293 HD
ENDBRANCH   2  22
BRANCH   6  24
ATOM     24  O   UNL     1     222.427  22.695 174.726  1.00  0.00    -0.507 OA
ATOM     25  H   UNL     1     222.000  22.196 173.954  1.00  0.00     0.293 HD
ENDBRANCH   6  24
BRANCH   8  26
ATOM     26  O   UNL     1     220.646  27.165 174.377  1.00  0.00    -0.508 OA
ATOM     27  H   UNL     1     220.192  27.983 174.765  1.00  0.00     0.293 HD
ENDBRANCH   8  26
TORSDOF 6
ENDMDL
MODEL 2
REMARK VINA RESULT:    -6.128      1.533      7.220
REMARK INTER + INTRA:          -7.235
REMARK INTER:                  -7.219
REMARK INTRA:                  -0.016
REMARK UNBOUND:                 0.147
REMARK SMILES O=c1c(O)c(-c2ccc(O)c(O)c2)oc2cc(O)cc(O)c12
REMARK SMILES IDX 5 1 3 2 2 3 1 4 22 5 20 6 19 7 17 8 16 9 15 10 14 11 6 12
REMARK SMILES IDX 7 13 8 14 9 15 13 16 11 17 10 18 12 20 4 22 21 24 18 26
REMARK H PARENT 10 19 12 21 4 23 21 25 18 27
REMARK Flexibility Score: inf
ROOT
ATOM      1  C   UNL     1     221.243  24.593 178.937  1.00  0.00     0.180 A 
ATOM      2  C   UNL     1     221.791  25.749 179.526  1.00  0.00     0.208 A 
ATOM      3  C   UNL     1     221.523  26.014 180.878  1.00  0.00     0.238 A 
ATOM      4  O   UNL     1     222.017  27.041 181.419  1.00  0.00    -0.285 OA
ATOM      5  C   UNL     1     220.700  25.134 181.611  1.00  0.00     0.111 A 
ATOM      6  C   UNL     1     220.378  25.330 182.976  1.00  0.00     0.134 A 
ATOM      7  C   UNL     1     219.544  24.413 183.632  1.00  0.00     0.093 A 
ATOM      8  C   UNL     1     219.027  23.309 182.955  1.00  0.00     0.123 A 
ATOM      9  C   UNL     1     219.342  23.108 181.606  1.00  0.00     0.094 A 
ATOM     10  C   UNL     1     220.172  24.010 180.934  1.00  0.00     0.146 A 
ATOM     11  O   UNL     1     220.459  23.793 179.655  1.00  0.00    -0.452 OA
ENDROOT
BRANCH   1  12
ATOM     12  C   UNL     1     221.495  24.235 177.523  1.00  0.00     0.025 A 
ATOM     13  C   UNL     1     222.021  22.973 177.213  1.00  0.00     0.016 A 
ATOM     14  C   UNL     1     222.285  22.623 175.887  1.00  0.00     0.051 A 
ATOM     15  C   UNL     1     222.045  23.528 174.848  1.00  0.00     0.157 A 
ATOM     16  C   UNL     1     221.275  25.156 176.484  1.00  0.00     0.062 A 
ATOM     17  C   UNL     1     221.540  24.815 175.151  1.00  0.00     0.158 A 
BRANCH  15  18
ATOM     18  O   UNL     1     222.323  23.115 173.545  1.00  0.00    -0.504 OA
ATOM     19  H   UNL     1     222.642  23.732 172.812  1.00  0.00     0.293 HD
ENDBRANCH  15  18
BRANCH  17  20
ATOM     20  O   UNL     1     221.293  25.778 174.171  1.00  0.00    -0.504 OA
ATOM     21  H   UNL     1     221.689  25.752 173.242  1.00  0.00     0.293 HD
ENDBRANCH  17  20
ENDBRANCH   1  12
BRANCH   2  22
ATOM     22  O   UNL     1     222.562  26.631 178.765  1.00  0.00    -0.502 OA
ATOM     23  H   UNL     1     223.570  26.555 178.703  1.00  0.00     0.293 HD
ENDBRANCH   2  22
BRANCH   6  24
ATOM     24  O   UNL     1     220.878  26.425 183.681  1.00  0.00    -0.507 OA
ATOM     25  H   UNL     1     221.796  26.409 184.110  1.00  0.00     0.293 HD
ENDBRANCH   6  24
BRANCH   8  26
ATOM     26  O   UNL     1     218.200  22.413 183.630  1.00  0.00    -0.508 OA
ATOM     27  H   UNL     1     218.560  21.550 184.020  1.00  0.00     0.293 HD
ENDBRANCH   8  26
TORSDOF 6
ENDMDL
MODEL 3
REMARK VINA RESULT:    -6.013      0.838      1.496
REMARK INTER + INTRA:          -7.097
REMARK INTER:                  -6.823
REMARK INTRA:                  -0.274
REMARK UNBOUND:                 0.147
REMARK SMILES O=c1c(O)c(-c2ccc(O)c(O)c2)oc2cc(O)cc(O)c12
REMARK SMILES IDX 5 1 3 2 2 3 1 4 22 5 20 6 19 7 17 8 16 9 15 10 14 11 6 12
REMARK SMILES IDX 7 13 8 14 9 15 13 16 11 17 10 18 12 20 4 22 21 24 18 26
REMARK H PARENT 10 19 12 21 4 23 21 25 18 27
REMARK Flexibility Score: inf
ROOT
ATOM      1  C   UNL     1     220.170  23.439 179.310  1.00  0.00     0.180 A 
ATOM      2  C   UNL     1     221.049  22.436 178.857  1.00  0.00     0.208 A 
ATOM      3  C   UNL     1     221.550  22.512 177.548  1.00  0.00     0.238 A 
ATOM      4  O   UNL     1     222.346  21.626 177.136  1.00  0.00    -0.285 OA
ATOM      5  C   UNL     1     221.149  23.573 176.710  1.00  0.00     0.111 A 
ATOM      6  C   UNL     1     221.604  23.721 175.377  1.00  0.00     0.134 A 
ATOM      7  C   UNL     1     221.151  24.800 174.604  1.00  0.00     0.093 A 
ATOM      8  C   UNL     1     220.255  25.730 175.133  1.00  0.00     0.123 A 
ATOM      9  C   UNL     1     219.803  25.590 176.450  1.00  0.00     0.094 A 
ATOM     10  C   UNL     1     220.244  24.523 177.237  1.00  0.00     0.146 A 
ATOM     11  O   UNL     1     219.802  24.416 178.486  1.00  0.00    -0.452 OA
ENDROOT
BRANCH   1  12
ATOM     12  C   UNL     1     219.616  23.438 180.683  1.00  0.00     0.025 A 
ATOM     13  C   UNL     1     218.554  22.577 180.997  1.00  0.00     0.016 A 
ATOM     14  C   UNL     1     218.003  22.574 182.280  1.00  0.00     0.051 A 
ATOM     15  C   UNL     1     218.488  23.438 183.267  1.00  0.00     0.157 A 
ATOM     16  C   UNL     1     220.089  24.323 181.665  1.00  0.00     0.062 A 
ATOM     17  C   UNL     1     219.541  24.330 182.954  1.00  0.00     0.158 A 
BRANCH  15  18
ATOM     18  O   UNL     1     217.899  23.381 184.531  1.00  0.00    -0.504 OA
ATOM     19  H   UNL     1     217.797  24.177 185.145  1.00  0.00     0.293 HD
ENDBRANCH  15  18
BRANCH  17  20
ATOM     20  O   UNL     1     220.063  25.235 183.880  1.00  0.00    -0.504 OA
ATOM     21  H   UNL     1     219.837  26.219 183.898  1.00  0.00     0.293 HD
ENDBRANCH  17  20
ENDBRANCH   1  12
BRANCH   2  22
ATOM     22  O   UNL     1     221.392  21.368 179.692  1.00  0.00    -0.502 OA
ATOM     23  H   UNL     1     221.519  21.479 180.690  1.00  0.00     0.293 HD
ENDBRANCH   2  22
BRANCH   6  24
ATOM     24  O   UNL     1     222.498  22.807 174.818  1.00  0.00    -0.507 OA
ATOM     25  H   UNL     1     222.178  21.997 174.299  1.00  0.00     0.293 HD
ENDBRANCH   6  24
BRANCH   8  26
ATOM     26  O   UNL     1     219.820  26.793 174.344  1.00  0.00    -0.508 OA
ATOM     27  H   UNL     1     218.837  26.948 174.159  1.00  0.00     0.293 HD
ENDBRANCH   8  26
TORSDOF 6
ENDMDL
MODEL 4
REMARK VINA RESULT:    -5.937      1.801      7.238
REMARK INTER + INTRA:          -7.004
REMARK INTER:                  -6.707
REMARK INTRA:                  -0.297
REMARK UNBOUND:                 0.147
REMARK SMILES O=c1c(O)c(-c2ccc(O)c(O)c2)oc2cc(O)cc(O)c12
REMARK SMILES IDX 5 1 3 2 2 3 1 4 22 5 20 6 19 7 17 8 16 9 15 10 14 11 6 12
REMARK SMILES IDX 7 13 8 14 9 15 13 16 11 17 10 18 12 20 4 22 21 24 18 26
REMARK H PARENT 10 19 12 21 4 23 21 25 18 27
REMARK Flexibility Score: inf
ROOT
ATOM      1  C   UNL     1     220.442  25.117 178.183  1.00  0.00     0.180 A 
ATOM      2  C   UNL     1     220.901  26.329 178.734  1.00  0.00     0.208 A 
ATOM      3  C   UNL     1     220.917  26.477 180.131  1.00  0.00     0.238 A 
ATOM      4  O   UNL     1     221.337  27.554 180.635  1.00  0.00    -0.285 OA
ATOM      5  C   UNL     1     220.455  25.425 180.948  1.00  0.00     0.111 A 
ATOM      6  C   UNL     1     220.434  25.495 182.362  1.00  0.00     0.134 A 
ATOM      7  C   UNL     1     219.951  24.408 183.105  1.00  0.00     0.093 A 
ATOM      8  C   UNL     1     219.489  23.256 182.465  1.00  0.00     0.123 A 
ATOM      9  C   UNL     1     219.509  23.181 181.068  1.00  0.00     0.094 A 
ATOM     10  C   UNL     1     219.988  24.252 180.310  1.00  0.00     0.146 A 
ATOM     11  O   UNL     1     220.000  24.152 178.985  1.00  0.00    -0.452 OA
ENDROOT
BRANCH   1  12
ATOM     12  C   UNL     1     220.413  24.878 176.722  1.00  0.00     0.025 A 
ATOM     13  C   UNL     1     219.188  24.918 176.041  1.00  0.00     0.016 A 
ATOM     14  C   UNL     1     219.136  24.675 174.667  1.00  0.00     0.051 A 
ATOM     15  C   UNL     1     220.298  24.375 173.950  1.00  0.00     0.157 A 
ATOM     16  C   UNL     1     221.579  24.554 176.010  1.00  0.00     0.062 A 
ATOM     17  C   UNL     1     221.536  24.306 174.632  1.00  0.00     0.158 A 
BRANCH  15  18
ATOM     18  O   UNL     1     220.179  24.150 172.578  1.00  0.00    -0.504 OA
ATOM     19  H   UNL     1     220.619  23.383 172.090  1.00  0.00     0.293 HD
ENDBRANCH  15  18
BRANCH  17  20
ATOM     20  O   UNL     1     222.735  23.993 173.988  1.00  0.00    -0.504 OA
ATOM     21  H   UNL     1     223.649  24.167 174.381  1.00  0.00     0.293 HD
ENDBRANCH  17  20
ENDBRANCH   1  12
BRANCH   2  22
ATOM     22  O   UNL     1     221.307  27.375 177.901  1.00  0.00    -0.502 OA
ATOM     23  H   UNL     1     222.240  27.766 177.936  1.00  0.00     0.293 HD
ENDBRANCH   2  22
BRANCH   6  24
ATOM     24  O   UNL     1     220.887  26.632 183.031  1.00  0.00    -0.507 OA
ATOM     25  H   UNL     1     221.669  27.178 182.687  1.00  0.00     0.293 HD
ENDBRANCH   6  24
BRANCH   8  26
ATOM     26  O   UNL     1     219.014  22.190 183.226  1.00  0.00    -0.508 OA
ATOM     27  H   UNL     1     219.219  22.112 184.215  1.00  0.00     0.293 HD
ENDBRANCH   8  26
TORSDOF 6
ENDMDL
MODEL 5
REMARK VINA RESULT:    -5.848      1.515      6.873
REMARK INTER + INTRA:          -6.897
REMARK INTER:                  -6.597
REMARK INTRA:                  -0.300
REMARK UNBOUND:                 0.147
REMARK SMILES O=c1c(O)c(-c2ccc(O)c(O)c2)oc2cc(O)cc(O)c12
REMARK SMILES IDX 5 1 3 2 2 3 1 4 22 5 20 6 19 7 17 8 16 9 15 10 14 11 6 12
REMARK SMILES IDX 7 13 8 14 9 15 13 16 11 17 10 18 12 20 4 22 21 24 18 26
REMARK H PARENT 10 19 12 21 4 23 21 25 18 27
REMARK Flexibility Score: inf
ROOT
ATOM      1  C   UNL     1     220.240  23.536 178.869  1.00  0.00     0.180 A 
ATOM      2  C   UNL     1     219.278  22.604 179.305  1.00  0.00     0.208 A 
ATOM      3  C   UNL     1     218.792  22.695 180.620  1.00  0.00     0.238 A 
ATOM      4  O   UNL     1     217.923  21.872 181.017  1.00  0.00    -0.285 OA
ATOM      5  C   UNL     1     219.288  23.697 181.478  1.00  0.00     0.111 A 
ATOM      6  C   UNL     1     218.854  23.855 182.816  1.00  0.00     0.134 A 
ATOM      7  C   UNL     1     219.404  24.872 183.610  1.00  0.00     0.093 A 
ATOM      8  C   UNL     1     220.375  25.732 183.096  1.00  0.00     0.123 A 
ATOM      9  C   UNL     1     220.807  25.582 181.773  1.00  0.00     0.094 A 
ATOM     10  C   UNL     1     220.271  24.575 180.965  1.00  0.00     0.146 A 
ATOM     11  O   UNL     1     220.696  24.459 179.712  1.00  0.00    -0.452 OA
ENDROOT
BRANCH   1  12
ATOM     12  C   UNL     1     220.786  23.517 177.493  1.00  0.00     0.025 A 
ATOM     13  C   UNL     1     221.833  22.639 177.179  1.00  0.00     0.016 A 
ATOM     14  C   UNL     1     222.376  22.619 175.893  1.00  0.00     0.051 A 
ATOM     15  C   UNL     1     221.898  23.482 174.902  1.00  0.00     0.157 A 
ATOM     16  C   UNL     1     220.319  24.402 176.507  1.00  0.00     0.062 A 
ATOM     17  C   UNL     1     220.860  24.391 175.215  1.00  0.00     0.158 A 
BRANCH  15  18
ATOM     18  O   UNL     1     222.479  23.408 173.635  1.00  0.00    -0.504 OA
ATOM     19  H   UNL     1     222.289  24.059 172.887  1.00  0.00     0.293 HD
ENDBRANCH  15  18
BRANCH  17  20
ATOM     20  O   UNL     1     220.344  25.297 174.285  1.00  0.00    -0.504 OA
ATOM     21  H   UNL     1     220.710  26.227 174.141  1.00  0.00     0.293 HD
ENDBRANCH  17  20
ENDBRANCH   1  12
BRANCH   2  22
ATOM     22  O   UNL     1     218.839  21.589 178.450  1.00  0.00    -0.502 OA
ATOM     23  H   UNL     1     219.268  20.672 178.432  1.00  0.00     0.293 HD
ENDBRANCH   2  22
BRANCH   6  24
ATOM     24  O   UNL     1     217.886  23.010 183.361  1.00  0.00    -0.507 OA
ATOM     25  H   UNL     1     217.125  22.641 182.803  1.00  0.00     0.293 HD
ENDBRANCH   6  24
BRANCH   8  26
ATOM     26  O   UNL     1     220.905  26.735 183.905  1.00  0.00    -0.508 OA
ATOM     27  H   UNL     1     221.830  27.114 183.742  1.00  0.00     0.293 HD
ENDBRANCH   8  26
TORSDOF 6
ENDMDL
MODEL 6
REMARK VINA RESULT:    -5.772      2.454      4.105
REMARK INTER + INTRA:          -6.806
REMARK INTER:                  -6.767
REMARK INTRA:                  -0.039
REMARK UNBOUND:                 0.147
REMARK SMILES O=c1c(O)c(-c2ccc(O)c(O)c2)oc2cc(O)cc(O)c12
REMARK SMILES IDX 5 1 3 2 2 3 1 4 22 5 20 6 19 7 17 8 16 9 15 10 14 11 6 12
REMARK SMILES IDX 7 13 8 14 9 15 13 16 11 17 10 18 12 20 4 22 21 24 18 26
REMARK H PARENT 10 19 12 21 4 23 21 25 18 27
REMARK Flexibility Score: inf
ROOT
ATOM      1  C   UNL     1     220.492  25.340 181.994  1.00  0.00     0.180 A 
ATOM      2  C   UNL     1     221.516  25.972 181.263  1.00  0.00     0.208 A 
ATOM      3  C   UNL     1     221.837  25.486 179.986  1.00  0.00     0.238 A 
ATOM      4  O   UNL     1     222.745  26.051 179.317  1.00  0.00    -0.285 OA
ATOM      5  C   UNL     1     221.148  24.369 179.472  1.00  0.00     0.111 A 
ATOM      6  C   UNL     1     221.413  23.814 178.197  1.00  0.00     0.134 A 
ATOM      7  C   UNL     1     220.689  22.695 177.761  1.00  0.00     0.093 A 
ATOM      8  C   UNL     1     219.709  22.120 178.571  1.00  0.00     0.123 A 
ATOM      9  C   UNL     1     219.441  22.664 179.832  1.00  0.00     0.094 A 
ATOM     10  C   UNL     1     220.150  23.780 180.284  1.00  0.00     0.146 A 
ATOM     11  O   UNL     1     219.873  24.279 181.484  1.00  0.00    -0.452 OA
ENDROOT
BRANCH   1  12
ATOM     12  C   UNL     1     220.083  25.807 183.339  1.00  0.00     0.025 A 
ATOM     13  C   UNL     1     219.721  27.149 183.522  1.00  0.00     0.016 A 
ATOM     14  C   UNL     1     219.351  27.613 184.786  1.00  0.00     0.051 A 
ATOM     15  C   UNL     1     219.350  26.756 185.891  1.00  0.00     0.157 A 
ATOM     16  C   UNL     1     220.105  24.947 184.450  1.00  0.00     0.062 A 
ATOM     17  C   UNL     1     219.739  25.406 185.722  1.00  0.00     0.158 A 
BRANCH  15  18
ATOM     18  O   UNL     1     218.963  27.281 187.125  1.00  0.00    -0.504 OA
ATOM     19  H   UNL     1     218.105  27.037 187.600  1.00  0.00     0.293 HD
ENDBRANCH  15  18
BRANCH  17  20
ATOM     20  O   UNL     1     219.782  24.496 186.781  1.00  0.00    -0.504 OA
ATOM     21  H   UNL     1     219.302  24.629 187.659  1.00  0.00     0.293 HD
ENDBRANCH  17  20
ENDBRANCH   1  12
BRANCH   2  22
ATOM     22  O   UNL     1     222.218  27.047 181.815  1.00  0.00    -0.502 OA
ATOM     23  H   UNL     1     221.773  27.742 182.401  1.00  0.00     0.293 HD
ENDBRANCH   2  22
BRANCH   6  24
ATOM     24  O   UNL     1     222.388  24.364 177.363  1.00  0.00    -0.507 OA
ATOM     25  H   UNL     1     222.242  24.464 176.365  1.00  0.00     0.293 HD
ENDBRANCH   6  24
BRANCH   8  26
ATOM     26  O   UNL     1     219.003  21.008 178.115  1.00  0.00    -0.508 OA
ATOM     27  H   UNL     1     218.004  20.921 178.253  1.00  0.00     0.293 HD
ENDBRANCH   8  26
TORSDOF 6
ENDMDL
MODEL 7
REMARK VINA RESULT:    -5.717      1.799      7.362
REMARK INTER + INTRA:          -6.739
REMARK INTER:                  -6.557
REMARK INTRA:                  -0.182
REMARK UNBOUND:                 0.147
REMARK SMILES O=c1c(O)c(-c2ccc(O)c(O)c2)oc2cc(O)cc(O)c12
REMARK SMILES IDX 5 1 3 2 2 3 1 4 22 5 20 6 19 7 17 8 16 9 15 10 14 11 6 12
REMARK SMILES IDX 7 13 8 14 9 15 13 16 11 17 10 18 12 20 4 22 21 24 18 26
REMARK H PARENT 10 19 12 21 4 23 21 25 18 27
REMARK Flexibility Score: inf
ROOT
ATOM      1  C   UNL     1     220.197  24.154 181.384  1.00  0.00     0.180 A 
ATOM      2  C   UNL     1     219.375  23.105 181.841  1.00  0.00     0.208 A 
ATOM      3  C   UNL     1     218.919  23.130 183.169  1.00  0.00     0.238 A 
ATOM      4  O   UNL     1     218.174  22.202 183.586  1.00  0.00    -0.285 OA
ATOM      5  C   UNL     1     219.308  24.184 184.020  1.00  0.00     0.111 A 
ATOM      6  C   UNL     1     218.897  24.281 185.371  1.00  0.00     0.134 A 
ATOM      7  C   UNL     1     219.335  25.359 186.156  1.00  0.00     0.093 A 
ATOM      8  C   UNL     1     220.173  26.337 185.620  1.00  0.00     0.123 A 
ATOM      9  C   UNL     1     220.582  26.247 184.284  1.00  0.00     0.094 A 
ATOM     10  C   UNL     1     220.156  25.183 183.485  1.00  0.00     0.146 A 
ATOM     11  O   UNL     1     220.556  25.125 182.220  1.00  0.00    -0.452 OA
ENDROOT
BRANCH   1  12
ATOM     12  C   UNL     1     220.701  24.209 179.993  1.00  0.00     0.025 A 
ATOM     13  C   UNL     1     220.224  25.202 179.126  1.00  0.00     0.016 A 
ATOM     14  C   UNL     1     220.672  25.259 177.804  1.00  0.00     0.051 A 
ATOM     15  C   UNL     1     221.589  24.321 177.319  1.00  0.00     0.157 A 
ATOM     16  C   UNL     1     221.605  23.251 179.503  1.00  0.00     0.062 A 
ATOM     17  C   UNL     1     222.056  23.298 178.178  1.00  0.00     0.158 A 
BRANCH  15  18
ATOM     18  O   UNL     1     222.001  24.438 175.991  1.00  0.00    -0.504 OA
ATOM     19  H   UNL     1     222.441  23.695 175.468  1.00  0.00     0.293 HD
ENDBRANCH  15  18
BRANCH  17  20
ATOM     20  O   UNL     1     222.956  22.316 177.760  1.00  0.00    -0.504 OA
ATOM     21  H   UNL     1     222.921  21.352 178.062  1.00  0.00     0.293 HD
ENDBRANCH  17  20
ENDBRANCH   1  12
BRANCH   2  22
ATOM     22  O   UNL     1     219.045  22.046 180.992  1.00  0.00    -0.502 OA
ATOM     23  H   UNL     1     218.912  21.101 181.331  1.00  0.00     0.293 HD
ENDBRANCH   2  22
BRANCH   6  24
ATOM     24  O   UNL     1     218.061  23.319 185.937  1.00  0.00    -0.507 OA
ATOM     25  H   UNL     1     218.210  22.328 185.787  1.00  0.00     0.293 HD
ENDBRANCH   6  24
BRANCH   8  26
ATOM     26  O   UNL     1     220.594  27.397 186.420  1.00  0.00    -0.508 OA
ATOM     27  H   UNL     1     220.244  28.337 186.282  1.00  0.00     0.293 HD
ENDBRANCH   8  26
TORSDOF 6
ENDMDL
MODEL 8
REMARK VINA RESULT:    -5.707      2.027      3.803
REMARK INTER + INTRA:          -6.728
REMARK INTER:                  -6.436
REMARK INTRA:                  -0.292
REMARK UNBOUND:                 0.147
REMARK SMILES O=c1c(O)c(-c2ccc(O)c(O)c2)oc2cc(O)cc(O)c12
REMARK SMILES IDX 5 1 3 2 2 3 1 4 22 5 20 6 19 7 17 8 16 9 15 10 14 11 6 12
REMARK SMILES IDX 7 13 8 14 9 15 13 16 11 17 10 18 12 20 4 22 21 24 18 26
REMARK H PARENT 10 19 12 21 4 23 21 25 18 27
REMARK Flexibility Score: inf
ROOT
ATOM      1  C   UNL     1     219.869  24.348 181.329  1.00  0.00     0.180 A 
ATOM      2  C   UNL     1     218.907  24.935 180.485  1.00  0.00     0.208 A 
ATOM      3  C   UNL     1     219.013  24.744 179.098  1.00  0.00     0.238 A 
ATOM      4  O   UNL     1     218.151  25.256 178.333  1.00  0.00    -0.285 OA
ATOM      5  C   UNL     1     220.086  23.990 178.579  1.00  0.00     0.111 A 
ATOM      6  C   UNL     1     220.268  23.754 177.196  1.00  0.00     0.134 A 
ATOM      7  C   UNL     1     221.368  23.000 176.758  1.00  0.00     0.093 A 
ATOM      8  C   UNL     1     222.285  22.481 177.672  1.00  0.00     0.123 A 
ATOM      9  C   UNL     1     222.110  22.710 179.041  1.00  0.00     0.094 A 
ATOM     10  C   UNL     1     221.020  23.457 179.498  1.00  0.00     0.146 A 
ATOM     11  O   UNL     1     220.875  23.656 180.803  1.00  0.00    -0.452 OA
ENDROOT
BRANCH   1  12
ATOM     12  C   UNL     1     219.813  24.488 182.802  1.00  0.00     0.025 A 
ATOM     13  C   UNL     1     219.259  23.456 183.573  1.00  0.00     0.016 A 
ATOM     14  C   UNL     1     219.179  23.577 184.962  1.00  0.00     0.051 A 
ATOM     15  C   UNL     1     219.634  24.732 185.606  1.00  0.00     0.157 A 
ATOM     16  C   UNL     1     220.250  25.660 183.444  1.00  0.00     0.062 A 
ATOM     17  C   UNL     1     220.170  25.791 184.836  1.00  0.00     0.158 A 
BRANCH  15  18
ATOM     18  O   UNL     1     219.532  24.787 186.997  1.00  0.00    -0.504 OA
ATOM     19  H   UNL     1     219.194  25.590 187.508  1.00  0.00     0.293 HD
ENDBRANCH  15  18
BRANCH  17  20
ATOM     20  O   UNL     1     220.627  26.982 185.406  1.00  0.00    -0.504 OA
ATOM     21  H   UNL     1     221.470  27.057 185.956  1.00  0.00     0.293 HD
ENDBRANCH  17  20
ENDBRANCH   1  12
BRANCH   2  22
ATOM     22  O   UNL     1     217.881  25.719 181.021  1.00  0.00    -0.502 OA
ATOM     23  H   UNL     1     217.359  25.442 181.843  1.00  0.00     0.293 HD
ENDBRANCH   2  22
BRANCH   6  24
ATOM     24  O   UNL     1     219.370  24.261 176.256  1.00  0.00    -0.507 OA
ATOM     25  H   UNL     1     219.357  25.243 176.006  1.00  0.00     0.293 HD
ENDBRANCH   6  24
BRANCH   8  26
ATOM     26  O   UNL     1     223.369  21.736 177.211  1.00  0.00    -0.508 OA
ATOM     27  H   UNL     1     223.310  21.182 176.366  1.00  0.00     0.293 HD
ENDBRANCH   8  26
TORSDOF 6
ENDMDL
MODEL 9
REMARK VINA RESULT:    -4.177      1.941      7.398
REMARK INTER + INTRA:          -4.885
REMARK INTER:                  -4.626
REMARK INTRA:                  -0.259
REMARK UNBOUND:                 0.147
REMARK SMILES O=c1c(O)c(-c2ccc(O)c(O)c2)oc2cc(O)cc(O)c12
REMARK SMILES IDX 5 1 3 2 2 3 1 4 22 5 20 6 19 7 17 8 16 9 15 10 14 11 6 12
REMARK SMILES IDX 7 13 8 14 9 15 13 16 11 17 10 18 12 20 4 22 21 24 18 26
REMARK H PARENT 10 19 12 21 4 23 21 25 18 27
REMARK Flexibility Score: inf
ROOT
ATOM      1  C   UNL     1     220.678  24.163 180.548  1.00  0.00     0.180 A 
ATOM      2  C   UNL     1     220.835  25.488 181.000  1.00  0.00     0.208 A 
ATOM      3  C   UNL     1     220.373  25.827 182.281  1.00  0.00     0.238 A 
ATOM      4  O   UNL     1     220.517  27.008 182.700  1.00  0.00    -0.285 OA
ATOM      5  C   UNL     1     219.745  24.847 183.077  1.00  0.00     0.111 A 
ATOM      6  C   UNL     1     219.248  25.107 184.377  1.00  0.00     0.134 A 
ATOM      7  C   UNL     1     218.628  24.079 185.103  1.00  0.00     0.093 A 
ATOM      8  C   UNL     1     218.495  22.802 184.558  1.00  0.00     0.123 A 
ATOM      9  C   UNL     1     218.985  22.538 183.274  1.00  0.00     0.094 A 
ATOM     10  C   UNL     1     219.608  23.548 182.535  1.00  0.00     0.146 A 
ATOM     11  O   UNL     1     220.068  23.269 181.321  1.00  0.00    -0.452 OA
ENDROOT
BRANCH   1  12
ATOM     12  C   UNL     1     221.157  23.724 179.217  1.00  0.00     0.025 A 
ATOM     13  C   UNL     1     220.428  24.075 178.072  1.00  0.00     0.016 A 
ATOM     14  C   UNL     1     220.851  23.655 176.809  1.00  0.00     0.051 A 
ATOM     15  C   UNL     1     221.996  22.865 176.666  1.00  0.00     0.157 A 
ATOM     16  C   UNL     1     222.295  22.912 179.079  1.00  0.00     0.062 A 
ATOM     17  C   UNL     1     222.725  22.483 177.817  1.00  0.00     0.158 A 
BRANCH  15  18
ATOM     18  O   UNL     1     222.369  22.485 175.376  1.00  0.00    -0.504 OA
ATOM     19  H   UNL     1     223.253  22.052 175.147  1.00  0.00     0.293 HD
ENDBRANCH  15  18
BRANCH  17  20
ATOM     20  O   UNL     1     223.866  21.681 177.755  1.00  0.00    -0.504 OA
ATOM     21  H   UNL     1     224.630  21.734 178.414  1.00  0.00     0.293 HD
ENDBRANCH  17  20
ENDBRANCH   1  12
BRANCH   2  22
ATOM     22  O   UNL     1     221.415  26.453 180.171  1.00  0.00    -0.502 OA
ATOM     23  H   UNL     1     220.866  27.151 179.685  1.00  0.00     0.293 HD
ENDBRANCH   2  22
BRANCH   6  24
ATOM     24  O   UNL     1     219.364  26.374 184.950  1.00  0.00    -0.507 OA
ATOM     25  H   UNL     1     219.917  26.534 185.784  1.00  0.00     0.293 HD
ENDBRANCH   6  24
BRANCH   8  26
ATOM     26  O   UNL     1     217.875  21.798 185.300  1.00  0.00    -0.508 OA
ATOM     27  H   UNL     1     216.994  21.391 185.009  1.00  0.00     0.293 HD
ENDBRANCH   8  26
TORSDOF 6
ENDMDL
