MODEL 1
REMARK VINA RESULT:    -7.433      0.000      0.000
REMARK INTER + INTRA:          -9.026
REMARK INTER:                  -8.736
REMARK INTRA:                  -0.290
REMARK UNBOUND:                -0.290
REMARK SMILES O=c1c(O)c(-c2ccc(O)cc2)oc2cc(O)cc(O)c12
REMARK SMILES IDX 5 1 3 2 2 3 1 4 21 5 19 6 18 7 16 8 15 9 14 10 13 11 6 12
REMARK SMILES IDX 7 13 8 14 9 15 12 16 11 17 10 18 4 20 20 22 17 24
REMARK H PARENT 10 19 4 21 20 23 17 25
REMARK Flexibility Score: inf
ROOT
ATOM      1  C   UNL     1     -18.571  58.609  -4.825  1.00  0.00     0.180 A 
ATOM      2  C   UNL     1     -17.743  58.516  -5.956  1.00  0.00     0.208 A 
ATOM      3  C   UNL     1     -16.462  59.088  -5.909  1.00  0.00     0.238 A 
ATOM      4  O   UNL     1     -15.745  59.050  -6.944  1.00  0.00    -0.285 OA
ATOM      5  C   UNL     1     -16.019  59.730  -4.728  1.00  0.00     0.111 A 
ATOM      6  C   UNL     1     -14.725  60.308  -4.556  1.00  0.00     0.134 A 
ATOM      7  C   UNL     1     -14.441  61.032  -3.391  1.00  0.00     0.093 A 
ATOM      8  C   UNL     1     -15.382  61.142  -2.365  1.00  0.00     0.123 A 
ATOM      9  C   UNL     1     -16.627  60.531  -2.499  1.00  0.00     0.094 A 
ATOM     10  C   UNL     1     -16.952  59.833  -3.664  1.00  0.00     0.146 A 
ATOM     11  O   UNL     1     -18.153  59.275  -3.755  1.00  0.00    -0.452 OA
ENDROOT
BRANCH   1  12
ATOM     12  C   UNL     1     -19.926  58.010  -4.788  1.00  0.00     0.021 A 
ATOM     13  C   UNL     1     -21.028  58.763  -5.223  1.00  0.00     0.016 A 
ATOM     14  C   UNL     1     -22.318  58.226  -5.176  1.00  0.00     0.047 A 
ATOM     15  C   UNL     1     -22.524  56.935  -4.680  1.00  0.00     0.115 A 
ATOM     16  C   UNL     1     -20.142  56.719  -4.270  1.00  0.00     0.016 A 
ATOM     17  C   UNL     1     -21.433  56.184  -4.225  1.00  0.00     0.047 A 
BRANCH  15  18
ATOM     18  O   UNL     1     -23.814  56.411  -4.639  1.00  0.00    -0.508 OA
ATOM     19  H   UNL     1     -24.534  56.821  -4.056  1.00  0.00     0.293 HD
ENDBRANCH  15  18
ENDBRANCH   1  12
BRANCH   2  20
ATOM     20  O   UNL     1     -18.208  57.898  -7.119  1.00  0.00    -0.502 OA
ATOM     21  H   UNL     1     -17.911  58.184  -8.044  1.00  0.00     0.293 HD
ENDBRANCH   2  20
BRANCH   6  22
ATOM     22  O   UNL     1     -13.683  60.178  -5.480  1.00  0.00    -0.507 OA
ATOM     23  H   UNL     1     -13.771  60.334  -6.472  1.00  0.00     0.293 HD
ENDBRANCH   6  22
BRANCH   8  24
ATOM     24  O   UNL     1     -15.086  61.851  -1.203  1.00  0.00    -0.508 OA
ATOM     25  H   UNL     1     -15.811  62.309  -0.663  1.00  0.00     0.293 HD
ENDBRANCH   8  24
TORSDOF 5
ENDMDL
MODEL 2
REMARK VINA RESULT:    -7.180      1.336      1.933
REMARK INTER + INTRA:          -8.729
REMARK INTER:                  -8.610
REMARK INTRA:                  -0.119
REMARK UNBOUND:                -0.290
REMARK SMILES O=c1c(O)c(-c2ccc(O)cc2)oc2cc(O)cc(O)c12
REMARK SMILES IDX 5 1 3 2 2 3 1 4 21 5 19 6 18 7 16 8 15 9 14 10 13 11 6 12
REMARK SMILES IDX 7 13 8 14 9 15 12 16 11 17 10 18 4 20 20 22 17 24
REMARK H PARENT 10 19 4 21 20 23 17 25
REMARK Flexibility Score: inf
ROOT
ATOM      1  C   UNL     1     -17.515  59.413  -4.162  1.00  0.00     0.180 A 
ATOM      2  C   UNL     1     -16.408  59.607  -5.005  1.00  0.00     0.208 A 
ATOM      3  C   UNL     1     -15.271  60.255  -4.498  1.00  0.00     0.238 A 
ATOM      4  O   UNL     1     -14.305  60.475  -5.273  1.00  0.00    -0.285 OA
ATOM      5  C   UNL     1     -15.249  60.686  -3.150  1.00  0.00     0.111 A 
ATOM      6  C   UNL     1     -14.135  61.317  -2.519  1.00  0.00     0.134 A 
ATOM      7  C   UNL     1     -14.270  61.819  -1.218  1.00  0.00     0.093 A 
ATOM      8  C   UNL     1     -15.458  61.654  -0.503  1.00  0.00     0.123 A 
ATOM      9  C   UNL     1     -16.532  60.986  -1.089  1.00  0.00     0.094 A 
ATOM     10  C   UNL     1     -16.439  60.507  -2.398  1.00  0.00     0.146 A 
ATOM     11  O   UNL     1     -17.489  59.886  -2.922  1.00  0.00    -0.452 OA
ENDROOT
BRANCH   1  12
ATOM     12  C   UNL     1     -18.741  58.716  -4.617  1.00  0.00     0.021 A 
ATOM     13  C   UNL     1     -19.540  59.300  -5.613  1.00  0.00     0.016 A 
ATOM     14  C   UNL     1     -20.713  58.670  -6.041  1.00  0.00     0.047 A 
ATOM     15  C   UNL     1     -21.109  57.457  -5.470  1.00  0.00     0.115 A 
ATOM     16  C   UNL     1     -19.156  57.506  -4.031  1.00  0.00     0.016 A 
ATOM     17  C   UNL     1     -20.329  56.878  -4.460  1.00  0.00     0.047 A 
BRANCH  15  18
ATOM     18  O   UNL     1     -22.279  56.840  -5.906  1.00  0.00    -0.508 OA
ATOM     19  H   UNL     1     -23.174  57.315  -5.868  1.00  0.00     0.293 HD
ENDBRANCH  15  18
ENDBRANCH   1  12
BRANCH   2  20
ATOM     20  O   UNL     1     -16.460  59.194  -6.340  1.00  0.00    -0.502 OA
ATOM     21  H   UNL     1     -16.159  58.273  -6.636  1.00  0.00     0.293 HD
ENDBRANCH   2  20
BRANCH   6  22
ATOM     22  O   UNL     1     -12.875  61.450  -3.111  1.00  0.00    -0.507 OA
ATOM     23  H   UNL     1     -12.684  61.991  -3.940  1.00  0.00     0.293 HD
ENDBRANCH   6  22
BRANCH   8  24
ATOM     24  O   UNL     1     -15.580  62.142   0.796  1.00  0.00    -0.508 OA
ATOM     25  H   UNL     1     -16.222  61.726   1.460  1.00  0.00     0.293 HD
ENDBRANCH   8  24
TORSDOF 5
ENDMDL
MODEL 3
REMARK VINA RESULT:    -7.155      2.316      6.399
REMARK INTER + INTRA:          -8.699
REMARK INTER:                  -8.485
REMARK INTRA:                  -0.214
REMARK UNBOUND:                -0.290
REMARK SMILES O=c1c(O)c(-c2ccc(O)cc2)oc2cc(O)cc(O)c12
REMARK SMILES IDX 5 1 3 2 2 3 1 4 21 5 19 6 18 7 16 8 15 9 14 10 13 11 6 12
REMARK SMILES IDX 7 13 8 14 9 15 12 16 11 17 10 18 4 20 20 22 17 24
REMARK H PARENT 10 19 4 21 20 23 17 25
REMARK Flexibility Score: inf
ROOT
ATOM      1  C   UNL     1     -16.601  60.513  -2.154  1.00  0.00     0.180 A 
ATOM      2  C   UNL     1     -15.638  60.738  -3.152  1.00  0.00     0.208 A 
ATOM      3  C   UNL     1     -15.832  60.175  -4.423  1.00  0.00     0.238 A 
ATOM      4  O   UNL     1     -14.940  60.334  -5.297  1.00  0.00    -0.285 OA
ATOM      5  C   UNL     1     -16.993  59.409  -4.685  1.00  0.00     0.111 A 
ATOM      6  C   UNL     1     -17.312  58.826  -5.948  1.00  0.00     0.134 A 
ATOM      7  C   UNL     1     -18.423  57.980  -6.058  1.00  0.00     0.093 A 
ATOM      8  C   UNL     1     -19.262  57.748  -4.966  1.00  0.00     0.123 A 
ATOM      9  C   UNL     1     -18.993  58.361  -3.744  1.00  0.00     0.094 A 
ATOM     10  C   UNL     1     -17.872  59.182  -3.594  1.00  0.00     0.146 A 
ATOM     11  O   UNL     1     -17.646  59.736  -2.410  1.00  0.00    -0.452 OA
ENDROOT
BRANCH   1  12
ATOM     12  C   UNL     1     -16.479  61.094  -0.796  1.00  0.00     0.021 A 
ATOM     13  C   UNL     1     -16.255  60.246   0.301  1.00  0.00     0.016 A 
ATOM     14  C   UNL     1     -16.159  60.771   1.594  1.00  0.00     0.047 A 
ATOM     15  C   UNL     1     -16.300  62.145   1.808  1.00  0.00     0.115 A 
ATOM     16  C   UNL     1     -16.641  62.473  -0.572  1.00  0.00     0.016 A 
ATOM     17  C   UNL     1     -16.545  62.995   0.722  1.00  0.00     0.047 A 
BRANCH  15  18
ATOM     18  O   UNL     1     -16.202  62.654   3.101  1.00  0.00    -0.508 OA
ATOM     19  H   UNL     1     -16.178  63.652   3.277  1.00  0.00     0.293 HD
ENDBRANCH  15  18
ENDBRANCH   1  12
BRANCH   2  20
ATOM     20  O   UNL     1     -14.488  61.478  -2.866  1.00  0.00    -0.502 OA
ATOM     21  H   UNL     1     -13.999  61.405  -1.982  1.00  0.00     0.293 HD
ENDBRANCH   2  20
BRANCH   6  22
ATOM     22  O   UNL     1     -16.593  59.067  -7.123  1.00  0.00    -0.507 OA
ATOM     23  H   UNL     1     -15.637  58.784  -7.280  1.00  0.00     0.293 HD
ENDBRANCH   6  22
BRANCH   8  24
ATOM     24  O   UNL     1     -20.374  56.918  -5.088  1.00  0.00    -0.508 OA
ATOM     25  H   UNL     1     -20.842  56.536  -4.274  1.00  0.00     0.293 HD
ENDBRANCH   8  24
TORSDOF 5
ENDMDL
MODEL 4
REMARK VINA RESULT:    -7.059      3.514      5.832
REMARK INTER + INTRA:          -8.586
REMARK INTER:                  -8.542
REMARK INTRA:                  -0.045
REMARK UNBOUND:                -0.290
REMARK SMILES O=c1c(O)c(-c2ccc(O)cc2)oc2cc(O)cc(O)c12
REMARK SMILES IDX 5 1 3 2 2 3 1 4 21 5 19 6 18 7 16 8 15 9 14 10 13 11 6 12
REMARK SMILES IDX 7 13 8 14 9 15 12 16 11 17 10 18 4 20 20 22 17 24
REMARK H PARENT 10 19 4 21 20 23 17 25
REMARK Flexibility Score: inf
ROOT
ATOM      1  C   UNL     1     -18.272  59.615  -1.027  1.00  0.00     0.180 A 
ATOM      2  C   UNL     1     -17.092  60.298  -1.365  1.00  0.00     0.208 A 
ATOM      3  C   UNL     1     -16.652  60.279  -2.698  1.00  0.00     0.238 A 
ATOM      4  O   UNL     1     -15.566  60.847  -2.985  1.00  0.00    -0.285 OA
ATOM      5  C   UNL     1     -17.406  59.591  -3.679  1.00  0.00     0.111 A 
ATOM      6  C   UNL     1     -17.077  59.540  -5.067  1.00  0.00     0.134 A 
ATOM      7  C   UNL     1     -17.822  58.721  -5.924  1.00  0.00     0.093 A 
ATOM      8  C   UNL     1     -18.925  58.004  -5.456  1.00  0.00     0.123 A 
ATOM      9  C   UNL     1     -19.291  58.094  -4.115  1.00  0.00     0.094 A 
ATOM     10  C   UNL     1     -18.545  58.874  -3.228  1.00  0.00     0.146 A 
ATOM     11  O   UNL     1     -18.922  58.923  -1.956  1.00  0.00    -0.452 OA
ENDROOT
BRANCH   1  12
ATOM     12  C   UNL     1     -18.813  59.609   0.352  1.00  0.00     0.021 A 
ATOM     13  C   UNL     1     -18.033  59.091   1.399  1.00  0.00     0.016 A 
ATOM     14  C   UNL     1     -18.533  59.055   2.705  1.00  0.00     0.047 A 
ATOM     15  C   UNL     1     -19.822  59.524   2.978  1.00  0.00     0.115 A 
ATOM     16  C   UNL     1     -20.117  60.059   0.630  1.00  0.00     0.016 A 
ATOM     17  C   UNL     1     -20.614  60.023   1.936  1.00  0.00     0.047 A 
BRANCH  15  18
ATOM     18  O   UNL     1     -20.307  59.483   4.283  1.00  0.00    -0.508 OA
ATOM     19  H   UNL     1     -21.195  59.047   4.504  1.00  0.00     0.293 HD
ENDBRANCH  15  18
ENDBRANCH   1  12
BRANCH   2  20
ATOM     20  O   UNL     1     -16.351  60.952  -0.377  1.00  0.00    -0.502 OA
ATOM     21  H   UNL     1     -15.758  61.748  -0.579  1.00  0.00     0.293 HD
ENDBRANCH   2  20
BRANCH   6  22
ATOM     22  O   UNL     1     -16.052  60.289  -5.653  1.00  0.00    -0.507 OA
ATOM     23  H   UNL     1     -15.371  60.830  -5.143  1.00  0.00     0.293 HD
ENDBRANCH   6  22
BRANCH   8  24
ATOM     24  O   UNL     1     -19.672  57.205  -6.319  1.00  0.00    -0.508 OA
ATOM     25  H   UNL     1     -20.553  57.522  -6.706  1.00  0.00     0.293 HD
ENDBRANCH   8  24
TORSDOF 5
ENDMDL
MODEL 5
REMARK VINA RESULT:    -7.010      9.650     11.464
REMARK INTER + INTRA:          -8.529
REMARK INTER:                  -8.545
REMARK INTRA:                   0.016
REMARK UNBOUND:                -0.290
REMARK SMILES O=c1c(O)c(-c2ccc(O)cc2)oc2cc(O)cc(O)c12
REMARK SMILES IDX 5 1 3 2 2 3 1 4 21 5 19 6 18 7 16 8 15 9 14 10 13 11 6 12
REMARK SMILES IDX 7 13 8 14 9 15 12 16 11 17 10 18 4 20 20 22 17 24
REMARK H PARENT 10 19 4 21 20 23 17 25
REMARK Flexibility Score: inf
ROOT
ATOM      1  C   UNL     1     -21.160  58.516   4.597  1.00  0.00     0.180 A 
ATOM      2  C   UNL     1     -22.216  57.613   4.807  1.00  0.00     0.208 A 
ATOM      3  C   UNL     1     -22.377  57.038   6.077  1.00  0.00     0.238 A 
ATOM      4  O   UNL     1     -23.291  56.189   6.245  1.00  0.00    -0.285 OA
ATOM      5  C   UNL     1     -21.491  57.385   7.125  1.00  0.00     0.111 A 
ATOM      6  C   UNL     1     -21.586  56.894   8.462  1.00  0.00     0.134 A 
ATOM      7  C   UNL     1     -20.577  57.203   9.385  1.00  0.00     0.093 A 
ATOM      8  C   UNL     1     -19.514  58.038   9.035  1.00  0.00     0.123 A 
ATOM      9  C   UNL     1     -19.445  58.570   7.750  1.00  0.00     0.094 A 
ATOM     10  C   UNL     1     -20.416  58.251   6.797  1.00  0.00     0.146 A 
ATOM     11  O   UNL     1     -20.306  58.771   5.581  1.00  0.00    -0.452 OA
ENDROOT
BRANCH   1  12
ATOM     12  C   UNL     1     -20.940  59.182   3.292  1.00  0.00     0.021 A 
ATOM     13  C   UNL     1     -19.647  59.225   2.747  1.00  0.00     0.016 A 
ATOM     14  C   UNL     1     -19.413  59.869   1.527  1.00  0.00     0.047 A 
ATOM     15  C   UNL     1     -20.464  60.489   0.846  1.00  0.00     0.115 A 
ATOM     16  C   UNL     1     -21.990  59.826   2.612  1.00  0.00     0.016 A 
ATOM     17  C   UNL     1     -21.754  60.469   1.393  1.00  0.00     0.047 A 
BRANCH  15  18
ATOM     18  O   UNL     1     -20.217  61.126  -0.368  1.00  0.00    -0.508 OA
ATOM     19  H   UNL     1     -20.594  62.044  -0.570  1.00  0.00     0.293 HD
ENDBRANCH  15  18
ENDBRANCH   1  12
BRANCH   2  20
ATOM     20  O   UNL     1     -23.066  57.267   3.753  1.00  0.00    -0.502 OA
ATOM     21  H   UNL     1     -23.955  56.806   3.899  1.00  0.00     0.293 HD
ENDBRANCH   2  20
BRANCH   6  22
ATOM     22  O   UNL     1     -22.655  56.129   8.939  1.00  0.00    -0.507 OA
ATOM     23  H   UNL     1     -22.731  55.771   9.879  1.00  0.00     0.293 HD
ENDBRANCH   6  22
BRANCH   8  24
ATOM     24  O   UNL     1     -18.524  58.353   9.963  1.00  0.00    -0.508 OA
ATOM     25  H   UNL     1     -17.565  58.520   9.679  1.00  0.00     0.293 HD
ENDBRANCH   8  24
TORSDOF 5
ENDMDL
MODEL 6
REMARK VINA RESULT:    -6.870      7.965      9.614
REMARK INTER + INTRA:          -8.365
REMARK INTER:                  -8.336
REMARK INTRA:                  -0.028
REMARK UNBOUND:                -0.290
REMARK SMILES O=c1c(O)c(-c2ccc(O)cc2)oc2cc(O)cc(O)c12
REMARK SMILES IDX 5 1 3 2 2 3 1 4 21 5 19 6 18 7 16 8 15 9 14 10 13 11 6 12
REMARK SMILES IDX 7 13 8 14 9 15 12 16 11 17 10 18 4 20 20 22 17 24
REMARK H PARENT 10 19 4 21 20 23 17 25
REMARK Flexibility Score: inf
ROOT
ATOM      1  C   UNL     1     -19.932  58.900   4.220  1.00  0.00     0.180 A 
ATOM      2  C   UNL     1     -18.616  58.811   3.736  1.00  0.00     0.208 A 
ATOM      3  C   UNL     1     -18.333  59.283   2.445  1.00  0.00     0.238 A 
ATOM      4  O   UNL     1     -17.164  59.151   1.997  1.00  0.00    -0.285 OA
ATOM      5  C   UNL     1     -19.364  59.852   1.660  1.00  0.00     0.111 A 
ATOM      6  C   UNL     1     -19.182  60.399   0.355  1.00  0.00     0.134 A 
ATOM      7  C   UNL     1     -20.297  60.817  -0.382  1.00  0.00     0.093 A 
ATOM      8  C   UNL     1     -21.581  60.768   0.167  1.00  0.00     0.123 A 
ATOM      9  C   UNL     1     -21.762  60.292   1.463  1.00  0.00     0.094 A 
ATOM     10  C   UNL     1     -20.673  59.834   2.209  1.00  0.00     0.146 A 
ATOM     11  O   UNL     1     -20.891  59.378   3.436  1.00  0.00    -0.452 OA
ENDROOT
BRANCH   1  12
ATOM     12  C   UNL     1     -20.305  58.446   5.580  1.00  0.00     0.021 A 
ATOM     13  C   UNL     1     -21.406  57.591   5.747  1.00  0.00     0.016 A 
ATOM     14  C   UNL     1     -21.789  57.169   7.025  1.00  0.00     0.047 A 
ATOM     15  C   UNL     1     -21.085  57.607   8.150  1.00  0.00     0.115 A 
ATOM     16  C   UNL     1     -19.614  58.901   6.719  1.00  0.00     0.016 A 
ATOM     17  C   UNL     1     -19.999  58.478   7.994  1.00  0.00     0.047 A 
BRANCH  15  18
ATOM     18  O   UNL     1     -21.477  57.179   9.417  1.00  0.00    -0.508 OA
ATOM     19  H   UNL     1     -21.928  57.806  10.072  1.00  0.00     0.293 HD
ENDBRANCH  15  18
ENDBRANCH   1  12
BRANCH   2  20
ATOM     20  O   UNL     1     -17.618  58.225   4.519  1.00  0.00    -0.502 OA
ATOM     21  H   UNL     1     -17.368  58.576   5.435  1.00  0.00     0.293 HD
ENDBRANCH   2  20
BRANCH   6  22
ATOM     22  O   UNL     1     -17.933  60.577  -0.249  1.00  0.00    -0.507 OA
ATOM     23  H   UNL     1     -17.441  59.869  -0.773  1.00  0.00     0.293 HD
ENDBRANCH   6  22
BRANCH   8  24
ATOM     24  O   UNL     1     -22.684  61.201  -0.566  1.00  0.00    -0.508 OA
ATOM     25  H   UNL     1     -22.604  61.452  -1.545  1.00  0.00     0.293 HD
ENDBRANCH   8  24
TORSDOF 5
ENDMDL
MODEL 7
REMARK VINA RESULT:    -6.840      9.592     11.922
REMARK INTER + INTRA:          -8.330
REMARK INTER:                  -8.278
REMARK INTRA:                  -0.051
REMARK UNBOUND:                -0.290
REMARK SMILES O=c1c(O)c(-c2ccc(O)cc2)oc2cc(O)cc(O)c12
REMARK SMILES IDX 5 1 3 2 2 3 1 4 21 5 19 6 18 7 16 8 15 9 14 10 13 11 6 12
REMARK SMILES IDX 7 13 8 14 9 15 12 16 11 17 10 18 4 20 20 22 17 24
REMARK H PARENT 10 19 4 21 20 23 17 25
REMARK Flexibility Score: inf
ROOT
ATOM      1  C   UNL     1     -20.373  58.627   4.991  1.00  0.00     0.180 A 
ATOM      2  C   UNL     1     -19.656  58.995   6.141  1.00  0.00     0.208 A 
ATOM      3  C   UNL     1     -20.045  58.471   7.384  1.00  0.00     0.238 A 
ATOM      4  O   UNL     1     -19.432  58.848   8.417  1.00  0.00    -0.285 OA
ATOM      5  C   UNL     1     -21.135  57.572   7.459  1.00  0.00     0.111 A 
ATOM      6  C   UNL     1     -21.590  56.948   8.659  1.00  0.00     0.134 A 
ATOM      7  C   UNL     1     -22.759  56.178   8.638  1.00  0.00     0.093 A 
ATOM      8  C   UNL     1     -23.452  55.956   7.446  1.00  0.00     0.123 A 
ATOM      9  C   UNL     1     -22.983  56.511   6.258  1.00  0.00     0.094 A 
ATOM     10  C   UNL     1     -21.839  57.314   6.254  1.00  0.00     0.146 A 
ATOM     11  O   UNL     1     -21.432  57.833   5.102  1.00  0.00    -0.452 OA
ENDROOT
BRANCH   1  12
ATOM     12  C   UNL     1     -20.009  59.118   3.642  1.00  0.00     0.021 A 
ATOM     13  C   UNL     1     -20.990  59.716   2.835  1.00  0.00     0.016 A 
ATOM     14  C   UNL     1     -20.673  60.167   1.549  1.00  0.00     0.047 A 
ATOM     15  C   UNL     1     -19.376  60.012   1.050  1.00  0.00     0.115 A 
ATOM     16  C   UNL     1     -18.711  58.946   3.126  1.00  0.00     0.016 A 
ATOM     17  C   UNL     1     -18.396  59.398   1.841  1.00  0.00     0.047 A 
BRANCH  15  18
ATOM     18  O   UNL     1     -19.074  60.466  -0.232  1.00  0.00    -0.508 OA
ATOM     19  H   UNL     1     -19.717  60.339  -1.004  1.00  0.00     0.293 HD
ENDBRANCH  15  18
ENDBRANCH   1  12
BRANCH   2  20
ATOM     20  O   UNL     1     -18.596  59.902   6.048  1.00  0.00    -0.502 OA
ATOM     21  H   UNL     1     -17.821  59.903   6.699  1.00  0.00     0.293 HD
ENDBRANCH   2  20
BRANCH   6  22
ATOM     22  O   UNL     1     -20.920  57.030   9.884  1.00  0.00    -0.507 OA
ATOM     23  H   UNL     1     -21.369  57.019  10.787  1.00  0.00     0.293 HD
ENDBRANCH   6  22
BRANCH   8  24
ATOM     24  O   UNL     1     -24.606  55.175   7.429  1.00  0.00    -0.508 OA
ATOM     25  H   UNL     1     -25.369  55.370   6.792  1.00  0.00     0.293 HD
ENDBRANCH   8  24
TORSDOF 5
ENDMDL
MODEL 8
REMARK VINA RESULT:    -6.798      4.357      7.785
REMARK INTER + INTRA:          -8.280
REMARK INTER:                  -8.090
REMARK INTRA:                  -0.190
REMARK UNBOUND:                -0.290
REMARK SMILES O=c1c(O)c(-c2ccc(O)cc2)oc2cc(O)cc(O)c12
REMARK SMILES IDX 5 1 3 2 2 3 1 4 21 5 19 6 18 7 16 8 15 9 14 10 13 11 6 12
REMARK SMILES IDX 7 13 8 14 9 15 12 16 11 17 10 18 4 20 20 22 17 24
REMARK H PARENT 10 19 4 21 20 23 17 25
REMARK Flexibility Score: inf
ROOT
ATOM      1  C   UNL     1     -17.225  60.630  -0.364  1.00  0.00     0.180 A 
ATOM      2  C   UNL     1     -16.476  60.218   0.751  1.00  0.00     0.208 A 
ATOM      3  C   UNL     1     -17.151  59.811   1.913  1.00  0.00     0.238 A 
ATOM      4  O   UNL     1     -16.475  59.496   2.926  1.00  0.00    -0.285 OA
ATOM      5  C   UNL     1     -18.566  59.806   1.939  1.00  0.00     0.111 A 
ATOM      6  C   UNL     1     -19.355  59.375   3.048  1.00  0.00     0.134 A 
ATOM      7  C   UNL     1     -20.746  59.536   3.012  1.00  0.00     0.093 A 
ATOM      8  C   UNL     1     -21.381  60.051   1.880  1.00  0.00     0.123 A 
ATOM      9  C   UNL     1     -20.625  60.419   0.769  1.00  0.00     0.094 A 
ATOM     10  C   UNL     1     -19.233  60.304   0.789  1.00  0.00     0.146 A 
ATOM     11  O   UNL     1     -18.550  60.676  -0.286  1.00  0.00    -0.452 OA
ENDROOT
BRANCH   1  12
ATOM     12  C   UNL     1     -16.586  61.049  -1.632  1.00  0.00     0.021 A 
ATOM     13  C   UNL     1     -16.635  60.196  -2.747  1.00  0.00     0.016 A 
ATOM     14  C   UNL     1     -16.019  60.562  -3.948  1.00  0.00     0.047 A 
ATOM     15  C   UNL     1     -15.334  61.777  -4.046  1.00  0.00     0.115 A 
ATOM     16  C   UNL     1     -15.877  62.261  -1.730  1.00  0.00     0.016 A 
ATOM     17  C   UNL     1     -15.262  62.625  -2.932  1.00  0.00     0.047 A 
BRANCH  15  18
ATOM     18  O   UNL     1     -14.726  62.130  -5.248  1.00  0.00    -0.508 OA
ATOM     19  H   UNL     1     -13.749  62.395  -5.289  1.00  0.00     0.293 HD
ENDBRANCH  15  18
ENDBRANCH   1  12
BRANCH   2  20
ATOM     20  O   UNL     1     -15.079  60.252   0.711  1.00  0.00    -0.502 OA
ATOM     21  H   UNL     1     -14.560  61.110   0.572  1.00  0.00     0.293 HD
ENDBRANCH   2  20
BRANCH   6  22
ATOM     22  O   UNL     1     -18.827  58.762   4.189  1.00  0.00    -0.507 OA
ATOM     23  H   UNL     1     -18.845  57.770   4.370  1.00  0.00     0.293 HD
ENDBRANCH   6  22
BRANCH   8  24
ATOM     24  O   UNL     1     -22.766  60.192   1.845  1.00  0.00    -0.508 OA
ATOM     25  H   UNL     1     -23.247  60.500   1.007  1.00  0.00     0.293 HD
ENDBRANCH   8  24
TORSDOF 5
ENDMDL
MODEL 9
REMARK VINA RESULT:    -6.684      3.800      5.630
REMARK INTER + INTRA:          -8.146
REMARK INTER:                  -8.220
REMARK INTRA:                   0.074
REMARK UNBOUND:                -0.290
REMARK SMILES O=c1c(O)c(-c2ccc(O)cc2)oc2cc(O)cc(O)c12
REMARK SMILES IDX 5 1 3 2 2 3 1 4 21 5 19 6 18 7 16 8 15 9 14 10 13 11 6 12
REMARK SMILES IDX 7 13 8 14 9 15 12 16 11 17 10 18 4 20 20 22 17 24
REMARK H PARENT 10 19 4 21 20 23 17 25
REMARK Flexibility Score: inf
ROOT
ATOM      1  C   UNL     1     -18.104  60.552  -0.221  1.00  0.00     0.180 A 
ATOM      2  C   UNL     1     -16.941  61.107   0.338  1.00  0.00     0.208 A 
ATOM      3  C   UNL     1     -15.811  61.281  -0.476  1.00  0.00     0.238 A 
ATOM      4  O   UNL     1     -14.755  61.728   0.043  1.00  0.00    -0.285 OA
ATOM      5  C   UNL     1     -15.863  60.914  -1.842  1.00  0.00     0.111 A 
ATOM      6  C   UNL     1     -14.791  61.083  -2.769  1.00  0.00     0.134 A 
ATOM      7  C   UNL     1     -14.908  60.564  -4.064  1.00  0.00     0.093 A 
ATOM      8  C   UNL     1     -16.085  59.940  -4.485  1.00  0.00     0.123 A 
ATOM      9  C   UNL     1     -17.159  59.822  -3.606  1.00  0.00     0.094 A 
ATOM     10  C   UNL     1     -17.058  60.298  -2.296  1.00  0.00     0.146 A 
ATOM     11  O   UNL     1     -18.102  60.156  -1.488  1.00  0.00    -0.452 OA
ENDROOT
BRANCH   1  12
ATOM     12  C   UNL     1     -19.344  60.360   0.567  1.00  0.00     0.021 A 
ATOM     13  C   UNL     1     -20.564  60.846   0.068  1.00  0.00     0.016 A 
ATOM     14  C   UNL     1     -21.742  60.696   0.805  1.00  0.00     0.047 A 
ATOM     15  C   UNL     1     -21.714  60.071   2.056  1.00  0.00     0.115 A 
ATOM     16  C   UNL     1     -19.319  59.752   1.836  1.00  0.00     0.016 A 
ATOM     17  C   UNL     1     -20.499  59.602   2.571  1.00  0.00     0.047 A 
BRANCH  15  18
ATOM     18  O   UNL     1     -22.896  59.928   2.780  1.00  0.00    -0.508 OA
ATOM     19  H   UNL     1     -23.705  60.508   2.593  1.00  0.00     0.293 HD
ENDBRANCH  15  18
ENDBRANCH   1  12
BRANCH   2  20
ATOM     20  O   UNL     1     -16.904  61.443   1.694  1.00  0.00    -0.502 OA
ATOM     21  H   UNL     1     -16.171  62.017   2.093  1.00  0.00     0.293 HD
ENDBRANCH   2  20
BRANCH   6  22
ATOM     22  O   UNL     1     -13.610  61.773  -2.478  1.00  0.00    -0.507 OA
ATOM     23  H   UNL     1     -13.493  62.415  -1.709  1.00  0.00     0.293 HD
ENDBRANCH   6  22
BRANCH   8  24
ATOM     24  O   UNL     1     -16.200  59.440  -5.780  1.00  0.00    -0.508 OA
ATOM     25  H   UNL     1     -16.816  59.868  -6.461  1.00  0.00     0.293 HD
ENDBRANCH   8  24
TORSDOF 5
ENDMDL
