MODEL 1
REMARK VINA RESULT:    -5.443      0.000      0.000
REMARK INTER + INTRA:          -5.602
REMARK INTER:                  -5.602
REMARK INTRA:                   0.000
REMARK UNBOUND:                 0.000
REMARK SMILES O=c1ccc2ccc(O)cc2o1
REMARK SMILES IDX 6 1 7 2 8 3 10 4 11 5 5 6 4 7 3 8 2 9 1 10 12 11 9 12
REMARK H PARENT 9 13
REMARK Flexibility Score: inf
ROOT
ATOM      1  C   UNL     1      10.420  13.553  15.684  1.00  0.00     0.016 A 
ATOM      2  C   UNL     1      11.611  12.927  15.303  1.00  0.00     0.047 A 
ATOM      3  C   UNL     1      12.357  13.420  14.226  1.00  0.00     0.119 A 
ATOM      4  C   UNL     1      11.909  14.548  13.523  1.00  0.00     0.094 A 
ATOM      5  C   UNL     1      10.718  15.181  13.895  1.00  0.00     0.142 A 
ATOM      6  C   UNL     1       9.968  14.681  14.982  1.00  0.00     0.018 A 
ATOM      7  C   UNL     1       8.782  15.334  15.331  1.00  0.00     0.019 A 
ATOM      8  C   UNL     1       8.377  16.451  14.602  1.00  0.00     0.094 A 
ATOM      9  C   UNL     1       9.170  16.891  13.537  1.00  0.00     0.336 A 
ATOM     10  O   UNL     1       8.822  17.898  12.867  1.00  0.00    -0.246 OA
ATOM     11  O   UNL     1      10.295  16.251  13.226  1.00  0.00    -0.423 OA
ENDROOT
BRANCH   3  12
ATOM     12  O   UNL     1      13.541  12.783  13.864  1.00  0.00    -0.508 OA
ATOM     13  H   UNL     1      14.435  13.259  13.911  1.00  0.00     0.293 HD
ENDBRANCH   3  12
TORSDOF 1
ENDMDL
MODEL 2
REMARK VINA RESULT:    -4.898      2.923      3.947
REMARK INTER + INTRA:          -5.041
REMARK INTER:                  -5.041
REMARK INTRA:                   0.000
REMARK UNBOUND:                 0.000
REMARK SMILES O=c1ccc2ccc(O)cc2o1
REMARK SMILES IDX 6 1 7 2 8 3 10 4 11 5 5 6 4 7 3 8 2 9 1 10 12 11 9 12
REMARK H PARENT 9 13
REMARK Flexibility Score: inf
ROOT
ATOM      1  C   UNL     1      12.113  14.502  12.391  1.00  0.00     0.016 A 
ATOM      2  C   UNL     1      13.386  14.898  11.968  1.00  0.00     0.047 A 
ATOM      3  C   UNL     1      14.439  14.991  12.886  1.00  0.00     0.119 A 
ATOM      4  C   UNL     1      14.220  14.685  14.237  1.00  0.00     0.094 A 
ATOM      5  C   UNL     1      12.949  14.288  14.670  1.00  0.00     0.142 A 
ATOM      6  C   UNL     1      11.888  14.196  13.741  1.00  0.00     0.018 A 
ATOM      7  C   UNL     1      10.631  13.797  14.203  1.00  0.00     0.019 A 
ATOM      8  C   UNL     1      10.460  13.504  15.556  1.00  0.00     0.094 A 
ATOM      9  C   UNL     1      11.556  13.617  16.418  1.00  0.00     0.336 A 
ATOM     10  O   UNL     1      11.422  13.356  17.642  1.00  0.00    -0.246 OA
ATOM     11  O   UNL     1      12.743  13.999  15.953  1.00  0.00    -0.423 OA
ENDROOT
BRANCH   3  12
ATOM     12  O   UNL     1      15.700  15.386  12.445  1.00  0.00    -0.508 OA
ATOM     13  H   UNL     1      16.161  14.921  11.671  1.00  0.00     0.293 HD
ENDBRANCH   3  12
TORSDOF 1
ENDMDL
MODEL 3
REMARK VINA RESULT:    -4.887      2.803      4.007
REMARK INTER + INTRA:          -5.029
REMARK INTER:                  -5.029
REMARK INTRA:                   0.000
REMARK UNBOUND:                 0.000
REMARK SMILES O=c1ccc2ccc(O)cc2o1
REMARK SMILES IDX 6 1 7 2 8 3 10 4 11 5 5 6 4 7 3 8 2 9 1 10 12 11 9 12
REMARK H PARENT 9 13
REMARK Flexibility Score: inf
ROOT
ATOM      1  C   UNL     1      13.207  15.976  15.022  1.00  0.00     0.016 A 
ATOM      2  C   UNL     1      13.481  16.612  13.806  1.00  0.00     0.047 A 
ATOM      3  C   UNL     1      12.974  16.095  12.608  1.00  0.00     0.119 A 
ATOM      4  C   UNL     1      12.188  14.934  12.623  1.00  0.00     0.094 A 
ATOM      5  C   UNL     1      11.909  14.290  13.834  1.00  0.00     0.142 A 
ATOM      6  C   UNL     1      12.421  14.814  15.042  1.00  0.00     0.018 A 
ATOM      7  C   UNL     1      12.126  14.149  16.236  1.00  0.00     0.019 A 
ATOM      8  C   UNL     1      11.340  12.998  16.201  1.00  0.00     0.094 A 
ATOM      9  C   UNL     1      10.867  12.536  14.968  1.00  0.00     0.336 A 
ATOM     10  O   UNL     1      10.156  11.499  14.916  1.00  0.00    -0.246 OA
ATOM     11  O   UNL     1      11.163  13.188  13.846  1.00  0.00    -0.423 OA
ENDROOT
BRANCH   3  12
ATOM     12  O   UNL     1      13.257  16.743  11.408  1.00  0.00    -0.508 OA
ATOM     13  H   UNL     1      12.521  17.014  10.765  1.00  0.00     0.293 HD
ENDBRANCH   3  12
TORSDOF 1
ENDMDL
MODEL 4
REMARK VINA RESULT:    -4.799      1.711      4.799
REMARK INTER + INTRA:          -4.939
REMARK INTER:                  -4.939
REMARK INTRA:                   0.000
REMARK UNBOUND:                 0.000
REMARK SMILES O=c1ccc2ccc(O)cc2o1
REMARK SMILES IDX 6 1 7 2 8 3 10 4 11 5 5 6 4 7 3 8 2 9 1 10 12 11 9 12
REMARK H PARENT 9 13
REMARK Flexibility Score: inf
ROOT
ATOM      1  C   UNL     1       9.743  16.184  12.544  1.00  0.00     0.016 A 
ATOM      2  C   UNL     1       8.689  17.074  12.771  1.00  0.00     0.047 A 
ATOM      3  C   UNL     1       7.994  17.052  13.986  1.00  0.00     0.119 A 
ATOM      4  C   UNL     1       8.354  16.133  14.982  1.00  0.00     0.094 A 
ATOM      5  C   UNL     1       9.407  15.238  14.765  1.00  0.00     0.142 A 
ATOM      6  C   UNL     1      10.106  15.262  13.537  1.00  0.00     0.018 A 
ATOM      7  C   UNL     1      11.153  14.355  13.348  1.00  0.00     0.019 A 
ATOM      8  C   UNL     1      11.475  13.460  14.368  1.00  0.00     0.094 A 
ATOM      9  C   UNL     1      10.739  13.493  15.557  1.00  0.00     0.336 A 
ATOM     10  O   UNL     1      11.014  12.693  16.489  1.00  0.00    -0.246 OA
ATOM     11  O   UNL     1       9.747  14.366  15.711  1.00  0.00    -0.423 OA
ENDROOT
BRANCH   3  12
ATOM     12  O   UNL     1       6.947  17.948  14.194  1.00  0.00    -0.508 OA
ATOM     13  H   UNL     1       6.313  17.850  14.979  1.00  0.00     0.293 HD
ENDBRANCH   3  12
TORSDOF 1
ENDMDL
MODEL 5
REMARK VINA RESULT:    -4.756      0.764      4.230
REMARK INTER + INTRA:          -4.895
REMARK INTER:                  -4.895
REMARK INTRA:                   0.000
REMARK UNBOUND:                 0.000
REMARK SMILES O=c1ccc2ccc(O)cc2o1
REMARK SMILES IDX 6 1 7 2 8 3 10 4 11 5 5 6 4 7 3 8 2 9 1 10 12 11 9 12
REMARK H PARENT 9 13
REMARK Flexibility Score: inf
ROOT
ATOM      1  C   UNL     1       8.655  15.461  15.372  1.00  0.00     0.016 A 
ATOM      2  C   UNL     1       8.283  16.633  14.706  1.00  0.00     0.047 A 
ATOM      3  C   UNL     1       9.078  17.143  13.673  1.00  0.00     0.119 A 
ATOM      4  C   UNL     1      10.255  16.477  13.301  1.00  0.00     0.094 A 
ATOM      5  C   UNL     1      10.637  15.303  13.961  1.00  0.00     0.142 A 
ATOM      6  C   UNL     1       9.832  14.792  15.004  1.00  0.00     0.018 A 
ATOM      7  C   UNL     1      10.239  13.618  15.645  1.00  0.00     0.019 A 
ATOM      8  C   UNL     1      11.417  12.991  15.241  1.00  0.00     0.094 A 
ATOM      9  C   UNL     1      12.163  13.555  14.201  1.00  0.00     0.336 A 
ATOM     10  O   UNL     1      13.230  13.003  13.822  1.00  0.00    -0.246 OA
ATOM     11  O   UNL     1      11.754  14.673  13.607  1.00  0.00    -0.423 OA
ENDROOT
BRANCH   3  12
ATOM     12  O   UNL     1       8.690  18.311  13.021  1.00  0.00    -0.508 OA
ATOM     13  H   UNL     1       8.415  19.140  13.537  1.00  0.00     0.293 HD
ENDBRANCH   3  12
TORSDOF 1
ENDMDL
MODEL 6
REMARK VINA RESULT:    -4.614      2.799      4.096
REMARK INTER + INTRA:          -4.749
REMARK INTER:                  -4.749
REMARK INTRA:                   0.000
REMARK UNBOUND:                 0.000
REMARK SMILES O=c1ccc2ccc(O)cc2o1
REMARK SMILES IDX 6 1 7 2 8 3 10 4 11 5 5 6 4 7 3 8 2 9 1 10 12 11 9 12
REMARK H PARENT 9 13
REMARK Flexibility Score: inf
ROOT
ATOM      1  C   UNL     1      10.548  13.985  14.022  1.00  0.00     0.016 A 
ATOM      2  C   UNL     1      10.445  13.680  15.383  1.00  0.00     0.047 A 
ATOM      3  C   UNL     1      11.582  13.693  16.199  1.00  0.00     0.119 A 
ATOM      4  C   UNL     1      12.833  14.014  15.653  1.00  0.00     0.094 A 
ATOM      5  C   UNL     1      12.947  14.321  14.292  1.00  0.00     0.142 A 
ATOM      6  C   UNL     1      11.798  14.306  13.470  1.00  0.00     0.018 A 
ATOM      7  C   UNL     1      11.943  14.617  12.115  1.00  0.00     0.019 A 
ATOM      8  C   UNL     1      13.208  14.929  11.617  1.00  0.00     0.094 A 
ATOM      9  C   UNL     1      14.301  14.924  12.489  1.00  0.00     0.336 A 
ATOM     10  O   UNL     1      15.450  15.203  12.059  1.00  0.00    -0.246 OA
ATOM     11  O   UNL     1      14.135  14.625  13.775  1.00  0.00    -0.423 OA
ENDROOT
BRANCH   3  12
ATOM     12  O   UNL     1      11.457  13.388  17.553  1.00  0.00    -0.508 OA
ATOM     13  H   UNL     1      12.254  13.418  18.179  1.00  0.00     0.293 HD
ENDBRANCH   3  12
TORSDOF 1
ENDMDL
MODEL 7
REMARK VINA RESULT:    -4.575      1.875      3.891
REMARK INTER + INTRA:          -4.709
REMARK INTER:                  -4.709
REMARK INTRA:                   0.000
REMARK UNBOUND:                 0.000
REMARK SMILES O=c1ccc2ccc(O)cc2o1
REMARK SMILES IDX 6 1 7 2 8 3 10 4 11 5 5 6 4 7 3 8 2 9 1 10 12 11 9 12
REMARK H PARENT 9 13
REMARK Flexibility Score: inf
ROOT
ATOM      1  C   UNL     1      11.466  13.249  15.280  1.00  0.00     0.016 A 
ATOM      2  C   UNL     1      10.254  13.721  15.795  1.00  0.00     0.047 A 
ATOM      3  C   UNL     1       9.578  14.772  15.164  1.00  0.00     0.119 A 
ATOM      4  C   UNL     1      10.116  15.356  14.008  1.00  0.00     0.094 A 
ATOM      5  C   UNL     1      11.328  14.892  13.485  1.00  0.00     0.142 A 
ATOM      6  C   UNL     1      12.008  13.831  14.124  1.00  0.00     0.018 A 
ATOM      7  C   UNL     1      13.217  13.389  13.578  1.00  0.00     0.019 A 
ATOM      8  C   UNL     1      13.712  14.002  12.428  1.00  0.00     0.094 A 
ATOM      9  C   UNL     1      12.985  15.046  11.848  1.00  0.00     0.336 A 
ATOM     10  O   UNL     1      13.415  15.612  10.809  1.00  0.00    -0.246 OA
ATOM     11  O   UNL     1      11.837  15.448  12.388  1.00  0.00    -0.423 OA
ENDROOT
BRANCH   3  12
ATOM     12  O   UNL     1       8.372  15.226  15.693  1.00  0.00    -0.508 OA
ATOM     13  H   UNL     1       8.314  15.601  16.633  1.00  0.00     0.293 HD
ENDBRANCH   3  12
TORSDOF 1
ENDMDL
MODEL 8
REMARK VINA RESULT:    -4.504      2.067      3.136
REMARK INTER + INTRA:          -4.636
REMARK INTER:                  -4.636
REMARK INTRA:                   0.000
REMARK UNBOUND:                 0.000
REMARK SMILES O=c1ccc2ccc(O)cc2o1
REMARK SMILES IDX 6 1 7 2 8 3 10 4 11 5 5 6 4 7 3 8 2 9 1 10 12 11 9 12
REMARK H PARENT 9 13
REMARK Flexibility Score: inf
ROOT
ATOM      1  C   UNL     1      13.715  14.099  14.504  1.00  0.00     0.016 A 
ATOM      2  C   UNL     1      14.414  15.015  13.712  1.00  0.00     0.047 A 
ATOM      3  C   UNL     1      13.758  16.127  13.170  1.00  0.00     0.119 A 
ATOM      4  C   UNL     1      12.393  16.326  13.422  1.00  0.00     0.094 A 
ATOM      5  C   UNL     1      11.684  15.415  14.213  1.00  0.00     0.142 A 
ATOM      6  C   UNL     1      12.349  14.294  14.758  1.00  0.00     0.018 A 
ATOM      7  C   UNL     1      11.615  13.400  15.544  1.00  0.00     0.019 A 
ATOM      8  C   UNL     1      10.259  13.640  15.766  1.00  0.00     0.094 A 
ATOM      9  C   UNL     1       9.667  14.771  15.194  1.00  0.00     0.336 A 
ATOM     10  O   UNL     1       8.445  15.005  15.383  1.00  0.00    -0.246 OA
ATOM     11  O   UNL     1      10.389  15.606  14.450  1.00  0.00    -0.423 OA
ENDROOT
BRANCH   3  12
ATOM     12  O   UNL     1      14.473  17.029  12.384  1.00  0.00    -0.508 OA
ATOM     13  H   UNL     1      15.355  16.774  11.955  1.00  0.00     0.293 HD
ENDBRANCH   3  12
TORSDOF 1
ENDMDL
MODEL 9
REMARK VINA RESULT:    -4.480      1.578      2.366
REMARK INTER + INTRA:          -4.611
REMARK INTER:                  -4.611
REMARK INTRA:                   0.000
REMARK UNBOUND:                 0.000
REMARK SMILES O=c1ccc2ccc(O)cc2o1
REMARK SMILES IDX 6 1 7 2 8 3 10 4 11 5 5 6 4 7 3 8 2 9 1 10 12 11 9 12
REMARK H PARENT 9 13
REMARK Flexibility Score: inf
ROOT
ATOM      1  C   UNL     1      11.721  14.206  13.441  1.00  0.00     0.016 A 
ATOM      2  C   UNL     1      11.897  13.489  14.628  1.00  0.00     0.047 A 
ATOM      3  C   UNL     1      10.971  13.608  15.671  1.00  0.00     0.119 A 
ATOM      4  C   UNL     1       9.859  14.451  15.527  1.00  0.00     0.094 A 
ATOM      5  C   UNL     1       9.674  15.174  14.343  1.00  0.00     0.142 A 
ATOM      6  C   UNL     1      10.612  15.051  13.292  1.00  0.00     0.018 A 
ATOM      7  C   UNL     1      10.401  15.785  12.121  1.00  0.00     0.019 A 
ATOM      8  C   UNL     1       9.281  16.611  12.024  1.00  0.00     0.094 A 
ATOM      9  C   UNL     1       8.395  16.683  13.105  1.00  0.00     0.336 A 
ATOM     10  O   UNL     1       7.379  17.423  13.036  1.00  0.00    -0.246 OA
ATOM     11  O   UNL     1       8.619  15.974  14.208  1.00  0.00    -0.423 OA
ENDROOT
BRANCH   3  12
ATOM     12  O   UNL     1      11.163  12.885  16.846  1.00  0.00    -0.508 OA
ATOM     13  H   UNL     1      11.272  11.876  16.835  1.00  0.00     0.293 HD
ENDBRANCH   3  12
TORSDOF 1
ENDMDL
