MODEL 1
REMARK VINA RESULT:    -7.432      0.000      0.000
REMARK INTER + INTRA:         -15.250
REMARK INTER:                 -12.211
REMARK INTRA:                  -3.039
REMARK UNBOUND:                -3.039
REMARK SMILES C[C@H]1O[C@@H](OC[C@H]2O[C@@H](Oc3c(-c4ccc(O)c(O)c4)oc4cc(O)cc(O)c4c3=O)[C@@H](O)[C@H](O)[C@H]2O)[C@@H](O)[C@H](O)[C@H]1O
REMARK SMILES IDX 7 1 36 2 34 3 32 4 9 5 8 6 6 7 5 8 4 9 1 10 2 11 42 12 3 13
REMARK SMILES IDX 40 14 38 15 43 16 41 18 39 20 37 22 35 24 10 26 11 27 12 28
REMARK SMILES IDX 30 29 21 30 29 31 31 32 22 33 27 34 23 35 26 36 24 37 13 38
REMARK SMILES IDX 20 39 14 40 18 41 15 42 16 43 19 44 17 46 28 48 25 50 33 52
REMARK H PARENT 43 17 41 19 39 21 37 23 35 25 19 45 17 47 28 49 25 51 33 53
REMARK Flexibility Score: inf
ROOT
ATOM      1  C   UNL     1     138.510 130.073 154.317  1.00  0.00     0.180 C 
ATOM      2  C   UNL     1     137.837 128.793 153.766  1.00  0.00     0.177 C 
ATOM      3  C   UNL     1     138.559 128.363 152.501  1.00  0.00     0.180 C 
ATOM      4  C   UNL     1     138.473 129.514 151.487  1.00  0.00     0.214 C 
ATOM      5  C   UNL     1     138.879 130.912 152.073  1.00  0.00     0.339 C 
ATOM      6  O   UNL     1     138.391 131.157 153.397  1.00  0.00    -0.332 OA
ENDROOT
BRANCH   1   7
ATOM      7  C   UNL     1     139.958 129.921 154.848  1.00  0.00     0.198 C 
BRANCH   7   8
ATOM      8  O   UNL     1     140.080 130.411 156.179  1.00  0.00    -0.347 OA
BRANCH   8   9
ATOM      9  C   UNL     1     138.993 130.033 157.025  1.00  0.00     0.281 C 
ATOM     10  C   UNL     1     136.637 132.140 158.915  1.00  0.00     0.041 C 
ATOM     11  C   UNL     1     137.632 130.999 158.685  1.00  0.00     0.150 C 
ATOM     12  C   UNL     1     138.597 130.787 159.880  1.00  0.00     0.174 C 
ATOM     13  O   UNL     1     138.390 131.235 157.511  1.00  0.00    -0.344 OA
ATOM     14  C   UNL     1     139.832 129.950 159.426  1.00  0.00     0.179 C 
ATOM     15  C   UNL     1     139.504 129.107 158.176  1.00  0.00     0.202 C 
BRANCH  12  16
ATOM     16  O   UNL     1     138.989 132.034 160.408  1.00  0.00    -0.388 OA
ATOM     17  H   UNL     1     139.241 131.914 161.366  1.00  0.00     0.211 HD
ENDBRANCH  12  16
BRANCH  14  18
ATOM     18  O   UNL     1     140.305 129.149 160.483  1.00  0.00    -0.387 OA
ATOM     19  H   UNL     1     141.300 129.121 160.427  1.00  0.00     0.211 HD
ENDBRANCH  14  18
BRANCH  15  20
ATOM     20  O   UNL     1     140.636 128.381 157.779  1.00  0.00    -0.385 OA
ATOM     21  H   UNL     1     141.272 129.027 157.367  1.00  0.00     0.211 HD
ENDBRANCH  15  20
ENDBRANCH   8   9
ENDBRANCH   7   8
ENDBRANCH   1   7
BRANCH   2  22
ATOM     22  O   UNL     1     137.869 127.754 154.712  1.00  0.00    -0.387 OA
ATOM     23  H   UNL     1     136.965 127.712 155.123  1.00  0.00     0.211 HD
ENDBRANCH   2  22
BRANCH   3  24
ATOM     24  O   UNL     1     137.924 127.216 151.983  1.00  0.00    -0.387 OA
ATOM     25  H   UNL     1     138.025 127.272 150.990  1.00  0.00     0.211 HD
ENDBRANCH   3  24
BRANCH   5  26
ATOM     26  O   UNL     1     140.287 131.208 152.009  1.00  0.00    -0.454 OA
BRANCH  26  27
ATOM     27  C   UNL     1     140.948 132.223 151.271  1.00  0.00     0.214 A 
ATOM     28  C   UNL     1     141.444 133.337 151.971  1.00  0.00     0.180 A 
ATOM     29  C   UNL     1     141.204 132.159 149.884  1.00  0.00     0.239 A 
ATOM     30  O   UNL     1     142.341 134.140 151.411  1.00  0.00    -0.452 OA
ATOM     31  C   UNL     1     142.166 133.027 149.321  1.00  0.00     0.111 A 
ATOM     32  O   UNL     1     140.583 131.341 149.149  1.00  0.00    -0.285 OA
ATOM     33  C   UNL     1     142.749 134.005 150.161  1.00  0.00     0.146 A 
ATOM     34  C   UNL     1     142.590 132.933 147.968  1.00  0.00     0.134 A 
ATOM     35  C   UNL     1     143.751 134.848 149.670  1.00  0.00     0.094 A 
ATOM     36  C   UNL     1     143.587 133.790 147.492  1.00  0.00     0.093 A 
ATOM     37  C   UNL     1     144.175 134.734 148.341  1.00  0.00     0.123 A 
BRANCH  28  38
ATOM     38  C   UNL     1     140.919 133.716 153.291  1.00  0.00     0.025 A 
ATOM     39  C   UNL     1     141.609 133.270 154.434  1.00  0.00     0.062 A 
ATOM     40  C   UNL     1     139.658 134.304 153.437  1.00  0.00     0.016 A 
ATOM     41  C   UNL     1     141.036 133.383 155.702  1.00  0.00     0.158 A 
ATOM     42  C   UNL     1     139.091 134.446 154.703  1.00  0.00     0.051 A 
ATOM     43  C   UNL     1     139.769 133.976 155.836  1.00  0.00     0.157 A 
BRANCH  41  44
ATOM     44  O   UNL     1     141.718 132.860 156.809  1.00  0.00    -0.504 OA
ATOM     45  H   UNL     1     141.706 131.874 157.022  1.00  0.00     0.293 HD
ENDBRANCH  41  44
BRANCH  43  46
ATOM     46  O   UNL     1     139.170 134.063 157.097  1.00  0.00    -0.504 OA
ATOM     47  H   UNL     1     138.234 133.695 157.262  1.00  0.00     0.293 HD
ENDBRANCH  43  46
ENDBRANCH  28  38
BRANCH  34  48
ATOM     48  O   UNL     1     142.022 131.995 147.102  1.00  0.00    -0.507 OA
ATOM     49  H   UNL     1     141.077 131.652 147.228  1.00  0.00     0.293 HD
ENDBRANCH  34  48
BRANCH  37  50
ATOM     50  O   UNL     1     145.196 135.536 147.851  1.00  0.00    -0.508 OA
ATOM     51  H   UNL     1     145.938 135.158 147.257  1.00  0.00     0.293 HD
ENDBRANCH  37  50
ENDBRANCH  26  27
ENDBRANCH   5  26
BRANCH   4  52
ATOM     52  O   UNL     1     139.169 129.192 150.313  1.00  0.00    -0.384 OA
ATOM     53  H   UNL     1     138.534 129.222 149.557  1.00  0.00     0.211 HD
ENDBRANCH   4  52
TORSDOF 16
ENDMDL
MODEL 2
REMARK VINA RESULT:    -7.278      2.051      9.407
REMARK INTER + INTRA:         -14.998
REMARK INTER:                 -11.971
REMARK INTRA:                  -3.028
REMARK UNBOUND:                -3.039
REMARK SMILES C[C@H]1O[C@@H](OC[C@H]2O[C@@H](Oc3c(-c4ccc(O)c(O)c4)oc4cc(O)cc(O)c4c3=O)[C@@H](O)[C@H](O)[C@H]2O)[C@@H](O)[C@H](O)[C@H]1O
REMARK SMILES IDX 7 1 36 2 34 3 32 4 9 5 8 6 6 7 5 8 4 9 1 10 2 11 42 12 3 13
REMARK SMILES IDX 40 14 38 15 43 16 41 18 39 20 37 22 35 24 10 26 11 27 12 28
REMARK SMILES IDX 30 29 21 30 29 31 31 32 22 33 27 34 23 35 26 36 24 37 13 38
REMARK SMILES IDX 20 39 14 40 18 41 15 42 16 43 19 44 17 46 28 48 25 50 33 52
REMARK H PARENT 43 17 41 19 39 21 37 23 35 25 19 45 17 47 28 49 25 51 33 53
REMARK Flexibility Score: inf
ROOT
ATOM      1  C   UNL     1     139.972 135.748 152.214  1.00  0.00     0.180 C 
ATOM      2  C   UNL     1     140.041 137.191 152.770  1.00  0.00     0.177 C 
ATOM      3  C   UNL     1     140.498 137.139 154.218  1.00  0.00     0.180 C 
ATOM      4  C   UNL     1     139.491 136.287 155.007  1.00  0.00     0.214 C 
ATOM      5  C   UNL     1     139.159 134.907 154.337  1.00  0.00     0.339 C 
ATOM      6  O   UNL     1     139.005 134.969 152.914  1.00  0.00    -0.332 OA
ENDROOT
BRANCH   1   7
ATOM      7  C   UNL     1     141.322 134.999 152.065  1.00  0.00     0.198 C 
BRANCH   7   8
ATOM      8  O   UNL     1     141.673 134.825 150.696  1.00  0.00    -0.347 OA
BRANCH   8   9
ATOM      9  C   UNL     1     142.885 135.487 150.333  1.00  0.00     0.281 C 
ATOM     10  C   UNL     1     143.501 138.008 147.719  1.00  0.00     0.041 C 
ATOM     11  C   UNL     1     143.744 136.730 148.527  1.00  0.00     0.150 C 
ATOM     12  C   UNL     1     144.170 135.528 147.646  1.00  0.00     0.174 C 
ATOM     13  O   UNL     1     142.580 136.380 149.259  1.00  0.00    -0.344 OA
ATOM     14  C   UNL     1     143.971 134.194 148.429  1.00  0.00     0.179 C 
ATOM     15  C   UNL     1     143.979 134.437 149.952  1.00  0.00     0.202 C 
BRANCH  12  16
ATOM     16  O   UNL     1     143.437 135.530 146.442  1.00  0.00    -0.388 OA
ATOM     17  H   UNL     1     142.791 136.292 146.459  1.00  0.00     0.211 HD
ENDBRANCH  12  16
BRANCH  14  18
ATOM     18  O   UNL     1     144.939 133.246 148.049  1.00  0.00    -0.387 OA
ATOM     19  H   UNL     1     144.891 133.135 147.060  1.00  0.00     0.211 HD
ENDBRANCH  14  18
BRANCH  15  20
ATOM     20  O   UNL     1     143.778 133.226 150.631  1.00  0.00    -0.385 OA
ATOM     21  H   UNL     1     143.379 132.587 149.981  1.00  0.00     0.211 HD
ENDBRANCH  15  20
ENDBRANCH   8   9
ENDBRANCH   7   8
ENDBRANCH   1   7
BRANCH   2  22
ATOM     22  O   UNL     1     140.923 137.985 152.018  1.00  0.00    -0.387 OA
ATOM     23  H   UNL     1     140.531 138.066 151.108  1.00  0.00     0.211 HD
ENDBRANCH   2  22
BRANCH   3  24
ATOM     24  O   UNL     1     140.527 138.450 154.732  1.00  0.00    -0.387 OA
ATOM     25  H   UNL     1     139.688 138.889 154.414  1.00  0.00     0.211 HD
ENDBRANCH   3  24
BRANCH   5  26
ATOM     26  O   UNL     1     140.056 133.835 154.686  1.00  0.00    -0.454 OA
BRANCH  26  27
ATOM     27  C   UNL     1     139.779 132.646 155.406  1.00  0.00     0.214 A 
ATOM     28  C   UNL     1     139.672 131.443 154.685  1.00  0.00     0.180 A 
ATOM     29  C   UNL     1     139.670 132.573 156.812  1.00  0.00     0.239 A 
ATOM     30  O   UNL     1     139.745 130.274 155.310  1.00  0.00    -0.452 OA
ATOM     31  C   UNL     1     139.754 131.313 157.445  1.00  0.00     0.111 A 
ATOM     32  O   UNL     1     139.497 133.617 157.501  1.00  0.00    -0.285 OA
ATOM     33  C   UNL     1     139.829 130.162 156.624  1.00  0.00     0.146 A 
ATOM     34  C   UNL     1     139.800 131.162 158.857  1.00  0.00     0.134 A 
ATOM     35  C   UNL     1     139.976 128.897 157.200  1.00  0.00     0.094 A 
ATOM     36  C   UNL     1     139.939 129.888 159.415  1.00  0.00     0.093 A 
ATOM     37  C   UNL     1     140.040 128.761 158.592  1.00  0.00     0.123 A 
BRANCH  28  38
ATOM     38  C   UNL     1     139.371 131.430 153.246  1.00  0.00     0.025 A 
ATOM     39  C   UNL     1     140.448 131.486 152.341  1.00  0.00     0.062 A 
ATOM     40  C   UNL     1     138.065 131.585 152.768  1.00  0.00     0.016 A 
ATOM     41  C   UNL     1     140.227 131.723 150.984  1.00  0.00     0.158 A 
ATOM     42  C   UNL     1     137.834 131.794 151.410  1.00  0.00     0.051 A 
ATOM     43  C   UNL     1     138.910 131.877 150.516  1.00  0.00     0.157 A 
BRANCH  41  44
ATOM     44  O   UNL     1     141.326 131.849 150.124  1.00  0.00    -0.504 OA
ATOM     45  H   UNL     1     142.197 132.252 150.432  1.00  0.00     0.293 HD
ENDBRANCH  41  44
BRANCH  43  46
ATOM     46  O   UNL     1     138.679 132.149 149.163  1.00  0.00    -0.504 OA
ATOM     47  H   UNL     1     138.315 133.053 148.863  1.00  0.00     0.293 HD
ENDBRANCH  43  46
ENDBRANCH  28  38
BRANCH  34  48
ATOM     48  O   UNL     1     139.707 132.273 159.701  1.00  0.00    -0.507 OA
ATOM     49  H   UNL     1     140.262 133.108 159.551  1.00  0.00     0.293 HD
ENDBRANCH  34  48
BRANCH  37  50
ATOM     50  O   UNL     1     140.226 127.516 159.175  1.00  0.00    -0.508 OA
ATOM     51  H   UNL     1     139.904 127.314 160.125  1.00  0.00     0.293 HD
ENDBRANCH  37  50
ENDBRANCH  26  27
ENDBRANCH   5  26
BRANCH   4  52
ATOM     52  O   UNL     1     139.891 136.162 156.345  1.00  0.00    -0.384 OA
ATOM     53  H   UNL     1     139.177 136.532 156.919  1.00  0.00     0.211 HD
ENDBRANCH   4  52
TORSDOF 16
ENDMDL
MODEL 3
REMARK VINA RESULT:    -7.241      1.807      9.147
REMARK INTER + INTRA:         -14.937
REMARK INTER:                 -11.128
REMARK INTRA:                  -3.809
REMARK UNBOUND:                -3.039
REMARK SMILES C[C@H]1O[C@@H](OC[C@H]2O[C@@H](Oc3c(-c4ccc(O)c(O)c4)oc4cc(O)cc(O)c4c3=O)[C@@H](O)[C@H](O)[C@H]2O)[C@@H](O)[C@H](O)[C@H]1O
REMARK SMILES IDX 7 1 36 2 34 3 32 4 9 5 8 6 6 7 5 8 4 9 1 10 2 11 42 12 3 13
REMARK SMILES IDX 40 14 38 15 43 16 41 18 39 20 37 22 35 24 10 26 11 27 12 28
REMARK SMILES IDX 30 29 21 30 29 31 31 32 22 33 27 34 23 35 26 36 24 37 13 38
REMARK SMILES IDX 20 39 14 40 18 41 15 42 16 43 19 44 17 46 28 48 25 50 33 52
REMARK H PARENT 43 17 41 19 39 21 37 23 35 25 19 45 17 47 28 49 25 51 33 53
REMARK Flexibility Score: inf
ROOT
ATOM      1  C   UNL     1     140.662 133.661 151.131  1.00  0.00     0.180 C 
ATOM      2  C   UNL     1     140.943 135.183 151.094  1.00  0.00     0.177 C 
ATOM      3  C   UNL     1     141.397 135.633 152.472  1.00  0.00     0.180 C 
ATOM      4  C   UNL     1     140.282 135.298 153.475  1.00  0.00     0.214 C 
ATOM      5  C   UNL     1     139.749 133.826 153.370  1.00  0.00     0.339 C 
ATOM      6  O   UNL     1     139.596 133.353 152.026  1.00  0.00    -0.332 OA
ENDROOT
BRANCH   1   7
ATOM      7  C   UNL     1     141.888 132.736 151.348  1.00  0.00     0.198 C 
BRANCH   7   8
ATOM      8  O   UNL     1     141.792 131.550 150.565  1.00  0.00    -0.347 OA
BRANCH   8   9
ATOM      9  C   UNL     1     142.543 131.610 149.352  1.00  0.00     0.281 C 
ATOM     10  C   UNL     1     144.666 134.312 148.027  1.00  0.00     0.041 C 
ATOM     11  C   UNL     1     143.580 133.234 147.998  1.00  0.00     0.150 C 
ATOM     12  C   UNL     1     142.319 133.665 147.206  1.00  0.00     0.174 C 
ATOM     13  O   UNL     1     143.201 132.879 149.318  1.00  0.00    -0.344 OA
ATOM     14  C   UNL     1     141.115 132.746 147.577  1.00  0.00     0.179 C 
ATOM     15  C   UNL     1     141.601 131.387 148.124  1.00  0.00     0.202 C 
BRANCH  12  16
ATOM     16  O   UNL     1     142.029 135.020 147.465  1.00  0.00    -0.388 OA
ATOM     17  H   UNL     1     141.447 135.076 148.274  1.00  0.00     0.211 HD
ENDBRANCH  12  16
BRANCH  14  18
ATOM     18  O   UNL     1     140.255 132.583 146.475  1.00  0.00    -0.387 OA
ATOM     19  H   UNL     1     140.230 133.445 145.974  1.00  0.00     0.211 HD
ENDBRANCH  14  18
BRANCH  15  20
ATOM     20  O   UNL     1     140.499 130.590 148.469  1.00  0.00    -0.385 OA
ATOM     21  H   UNL     1     140.643 129.695 148.059  1.00  0.00     0.211 HD
ENDBRANCH  15  20
ENDBRANCH   8   9
ENDBRANCH   7   8
ENDBRANCH   1   7
BRANCH   2  22
ATOM     22  O   UNL     1     141.926 135.496 150.140  1.00  0.00    -0.387 OA
ATOM     23  H   UNL     1     142.783 135.122 150.478  1.00  0.00     0.211 HD
ENDBRANCH   2  22
BRANCH   3  24
ATOM     24  O   UNL     1     141.619 137.024 152.445  1.00  0.00    -0.387 OA
ATOM     25  H   UNL     1     142.359 137.171 151.788  1.00  0.00     0.211 HD
ENDBRANCH   3  24
BRANCH   5  26
ATOM     26  O   UNL     1     140.483 132.861 154.148  1.00  0.00    -0.454 OA
BRANCH  26  27
ATOM     27  C   UNL     1     140.067 132.152 155.303  1.00  0.00     0.214 A 
ATOM     28  C   UNL     1     139.561 130.850 155.137  1.00  0.00     0.180 A 
ATOM     29  C   UNL     1     140.191 132.638 156.622  1.00  0.00     0.239 A 
ATOM     30  O   UNL     1     139.469 130.025 156.173  1.00  0.00    -0.452 OA
ATOM     31  C   UNL     1     140.090 131.733 157.702  1.00  0.00     0.111 A 
ATOM     32  O   UNL     1     140.387 133.866 156.843  1.00  0.00    -0.285 OA
ATOM     33  C   UNL     1     139.752 130.389 157.412  1.00  0.00     0.146 A 
ATOM     34  C   UNL     1     140.344 132.109 159.049  1.00  0.00     0.134 A 
ATOM     35  C   UNL     1     139.699 129.441 158.437  1.00  0.00     0.094 A 
ATOM     36  C   UNL     1     140.278 131.147 160.062  1.00  0.00     0.093 A 
ATOM     37  C   UNL     1     139.971 129.817 159.758  1.00  0.00     0.123 A 
BRANCH  28  38
ATOM     38  C   UNL     1     139.020 130.391 153.849  1.00  0.00     0.025 A 
ATOM     39  C   UNL     1     139.887 129.727 152.962  1.00  0.00     0.062 A 
ATOM     40  C   UNL     1     137.754 130.787 153.403  1.00  0.00     0.016 A 
ATOM     41  C   UNL     1     139.509 129.486 151.641  1.00  0.00     0.158 A 
ATOM     42  C   UNL     1     137.357 130.525 152.092  1.00  0.00     0.051 A 
ATOM     43  C   UNL     1     138.234 129.888 151.204  1.00  0.00     0.157 A 
BRANCH  41  44
ATOM     44  O   UNL     1     140.426 128.891 150.764  1.00  0.00    -0.504 OA
ATOM     45  H   UNL     1     140.697 127.924 150.856  1.00  0.00     0.293 HD
ENDBRANCH  41  44
BRANCH  43  46
ATOM     46  O   UNL     1     137.858 129.684 149.872  1.00  0.00    -0.504 OA
ATOM     47  H   UNL     1     138.516 129.308 149.191  1.00  0.00     0.293 HD
ENDBRANCH  43  46
ENDBRANCH  28  38
BRANCH  34  48
ATOM     48  O   UNL     1     140.659 133.430 159.378  1.00  0.00    -0.507 OA
ATOM     49  H   UNL     1     140.133 133.950 160.071  1.00  0.00     0.293 HD
ENDBRANCH  34  48
BRANCH  37  50
ATOM     50  O   UNL     1     139.962 128.878 160.779  1.00  0.00    -0.508 OA
ATOM     51  H   UNL     1     139.422 128.012 160.708  1.00  0.00     0.293 HD
ENDBRANCH  37  50
ENDBRANCH  26  27
ENDBRANCH   5  26
BRANCH   4  52
ATOM     52  O   UNL     1     140.668 135.647 154.777  1.00  0.00    -0.384 OA
ATOM     53  H   UNL     1     139.923 136.137 155.202  1.00  0.00     0.211 HD
ENDBRANCH   4  52
TORSDOF 16
ENDMDL
MODEL 4
REMARK VINA RESULT:    -7.174      4.294      9.078
REMARK INTER + INTRA:         -14.827
REMARK INTER:                 -11.179
REMARK INTRA:                  -3.648
REMARK UNBOUND:                -3.039
REMARK SMILES C[C@H]1O[C@@H](OC[C@H]2O[C@@H](Oc3c(-c4ccc(O)c(O)c4)oc4cc(O)cc(O)c4c3=O)[C@@H](O)[C@H](O)[C@H]2O)[C@@H](O)[C@H](O)[C@H]1O
REMARK SMILES IDX 7 1 36 2 34 3 32 4 9 5 8 6 6 7 5 8 4 9 1 10 2 11 42 12 3 13
REMARK SMILES IDX 40 14 38 15 43 16 41 18 39 20 37 22 35 24 10 26 11 27 12 28
REMARK SMILES IDX 30 29 21 30 29 31 31 32 22 33 27 34 23 35 26 36 24 37 13 38
REMARK SMILES IDX 20 39 14 40 18 41 15 42 16 43 19 44 17 46 28 48 25 50 33 52
REMARK H PARENT 43 17 41 19 39 21 37 23 35 25 19 45 17 47 28 49 25 51 33 53
REMARK Flexibility Score: inf
ROOT
ATOM      1  C   UNL     1     140.872 130.068 148.550  1.00  0.00     0.180 C 
ATOM      2  C   UNL     1     141.807 130.236 147.328  1.00  0.00     0.177 C 
ATOM      3  C   UNL     1     140.992 130.057 146.058  1.00  0.00     0.180 C 
ATOM      4  C   UNL     1     140.363 128.656 146.087  1.00  0.00     0.214 C 
ATOM      5  C   UNL     1     139.630 128.313 147.432  1.00  0.00     0.339 C 
ATOM      6  O   UNL     1     140.323 128.753 148.606  1.00  0.00    -0.332 OA
ENDROOT
BRANCH   1   7
ATOM      7  C   UNL     1     139.787 131.158 148.747  1.00  0.00     0.198 C 
BRANCH   7   8
ATOM      8  O   UNL     1     139.631 131.497 150.122  1.00  0.00    -0.347 OA
BRANCH   8   9
ATOM      9  C   UNL     1     140.277 132.718 150.481  1.00  0.00     0.281 C 
ATOM     10  C   UNL     1     142.240 135.043 148.406  1.00  0.00     0.041 C 
ATOM     11  C   UNL     1     141.925 134.162 149.618  1.00  0.00     0.150 C 
ATOM     12  C   UNL     1     143.161 133.387 150.142  1.00  0.00     0.174 C 
ATOM     13  O   UNL     1     140.896 133.239 149.302  1.00  0.00    -0.344 OA
ATOM     14  C   UNL     1     142.704 132.207 151.053  1.00  0.00     0.179 C 
ATOM     15  C   UNL     1     141.300 132.466 151.637  1.00  0.00     0.202 C 
BRANCH  12  16
ATOM     16  O   UNL     1     143.935 132.927 149.057  1.00  0.00    -0.388 OA
ATOM     17  H   UNL     1     144.373 133.710 148.619  1.00  0.00     0.211 HD
ENDBRANCH  12  16
BRANCH  14  18
ATOM     18  O   UNL     1     143.651 131.966 152.066  1.00  0.00    -0.387 OA
ATOM     19  H   UNL     1     144.303 131.293 151.726  1.00  0.00     0.211 HD
ENDBRANCH  14  18
BRANCH  15  20
ATOM     20  O   UNL     1     140.906 131.381 152.435  1.00  0.00    -0.385 OA
ATOM     21  H   UNL     1     141.137 131.608 153.375  1.00  0.00     0.211 HD
ENDBRANCH  15  20
ENDBRANCH   8   9
ENDBRANCH   7   8
ENDBRANCH   1   7
BRANCH   2  22
ATOM     22  O   UNL     1     142.423 131.499 147.327  1.00  0.00    -0.387 OA
ATOM     23  H   UNL     1     143.252 131.413 146.785  1.00  0.00     0.211 HD
ENDBRANCH   2  22
BRANCH   3  24
ATOM     24  O   UNL     1     141.851 130.177 144.947  1.00  0.00    -0.387 OA
ATOM     25  H   UNL     1     142.113 129.244 144.701  1.00  0.00     0.211 HD
ENDBRANCH   3  24
BRANCH   5  26
ATOM     26  O   UNL     1     138.253 128.729 147.493  1.00  0.00    -0.454 OA
BRANCH  26  27
ATOM     27  C   UNL     1     137.082 127.929 147.476  1.00  0.00     0.214 A 
ATOM     28  C   UNL     1     136.536 127.526 148.708  1.00  0.00     0.180 A 
ATOM     29  C   UNL     1     136.384 127.565 146.305  1.00  0.00     0.239 A 
ATOM     30  O   UNL     1     135.291 127.072 148.777  1.00  0.00    -0.452 OA
ATOM     31  C   UNL     1     135.059 127.086 146.414  1.00  0.00     0.111 A 
ATOM     32  O   UNL     1     136.931 127.660 145.170  1.00  0.00    -0.285 OA
ATOM     33  C   UNL     1     134.531 126.885 147.711  1.00  0.00     0.146 A 
ATOM     34  C   UNL     1     134.236 126.834 145.283  1.00  0.00     0.134 A 
ATOM     35  C   UNL     1     133.206 126.472 147.875  1.00  0.00     0.094 A 
ATOM     36  C   UNL     1     132.915 126.414 145.466  1.00  0.00     0.093 A 
ATOM     37  C   UNL     1     132.397 126.246 146.755  1.00  0.00     0.123 A 
BRANCH  28  38
ATOM     38  C   UNL     1     137.344 127.490 149.936  1.00  0.00     0.025 A 
ATOM     39  C   UNL     1     137.408 128.653 150.725  1.00  0.00     0.062 A 
ATOM     40  C   UNL     1     138.210 126.425 150.213  1.00  0.00     0.016 A 
ATOM     41  C   UNL     1     138.340 128.765 151.757  1.00  0.00     0.158 A 
ATOM     42  C   UNL     1     139.125 126.518 151.260  1.00  0.00     0.051 A 
ATOM     43  C   UNL     1     139.203 127.689 152.027  1.00  0.00     0.157 A 
BRANCH  41  44
ATOM     44  O   UNL     1     138.426 129.966 152.474  1.00  0.00    -0.504 OA
ATOM     45  H   UNL     1     137.615 130.392 152.896  1.00  0.00     0.293 HD
ENDBRANCH  41  44
BRANCH  43  46
ATOM     46  O   UNL     1     140.166 127.803 153.036  1.00  0.00    -0.504 OA
ATOM     47  H   UNL     1     139.918 127.675 154.016  1.00  0.00     0.293 HD
ENDBRANCH  43  46
ENDBRANCH  28  38
BRANCH  34  48
ATOM     48  O   UNL     1     134.728 127.000 143.986  1.00  0.00    -0.507 OA
ATOM     49  H   UNL     1     134.201 127.489 143.271  1.00  0.00     0.293 HD
ENDBRANCH  34  48
BRANCH  37  50
ATOM     50  O   UNL     1     131.068 125.875 146.903  1.00  0.00    -0.508 OA
ATOM     51  H   UNL     1     130.579 125.975 147.796  1.00  0.00     0.293 HD
ENDBRANCH  37  50
ENDBRANCH  26  27
ENDBRANCH   5  26
BRANCH   4  52
ATOM     52  O   UNL     1     139.555 128.453 144.959  1.00  0.00    -0.384 OA
ATOM     53  H   UNL     1     139.637 127.508 144.683  1.00  0.00     0.211 HD
ENDBRANCH   4  52
TORSDOF 16
ENDMDL
MODEL 5
REMARK VINA RESULT:    -7.169      2.064      8.738
REMARK INTER + INTRA:         -14.818
REMARK INTER:                 -12.648
REMARK INTRA:                  -2.170
REMARK UNBOUND:                -3.039
REMARK SMILES C[C@H]1O[C@@H](OC[C@H]2O[C@@H](Oc3c(-c4ccc(O)c(O)c4)oc4cc(O)cc(O)c4c3=O)[C@@H](O)[C@H](O)[C@H]2O)[C@@H](O)[C@H](O)[C@H]1O
REMARK SMILES IDX 7 1 36 2 34 3 32 4 9 5 8 6 6 7 5 8 4 9 1 10 2 11 42 12 3 13
REMARK SMILES IDX 40 14 38 15 43 16 41 18 39 20 37 22 35 24 10 26 11 27 12 28
REMARK SMILES IDX 30 29 21 30 29 31 31 32 22 33 27 34 23 35 26 36 24 37 13 38
REMARK SMILES IDX 20 39 14 40 18 41 15 42 16 43 19 44 17 46 28 48 25 50 33 52
REMARK H PARENT 43 17 41 19 39 21 37 23 35 25 19 45 17 47 28 49 25 51 33 53
REMARK Flexibility Score: inf
ROOT
ATOM      1  C   UNL     1     140.210 134.669 152.443  1.00  0.00     0.180 C 
ATOM      2  C   UNL     1     140.338 135.974 153.266  1.00  0.00     0.177 C 
ATOM      3  C   UNL     1     140.181 135.643 154.740  1.00  0.00     0.180 C 
ATOM      4  C   UNL     1     138.802 134.995 154.940  1.00  0.00     0.214 C 
ATOM      5  C   UNL     1     138.492 133.831 153.934  1.00  0.00     0.339 C 
ATOM      6  O   UNL     1     138.915 134.091 152.590  1.00  0.00    -0.332 OA
ENDROOT
BRANCH   1   7
ATOM      7  C   UNL     1     141.337 133.621 152.627  1.00  0.00     0.198 C 
BRANCH   7   8
ATOM      8  O   UNL     1     142.436 133.880 151.759  1.00  0.00    -0.347 OA
BRANCH   8   9
ATOM      9  C   UNL     1     142.092 133.818 150.374  1.00  0.00     0.281 C 
ATOM     10  C   UNL     1     142.882 131.241 147.865  1.00  0.00     0.041 C 
ATOM     11  C   UNL     1     142.764 132.654 148.441  1.00  0.00     0.150 C 
ATOM     12  C   UNL     1     143.966 133.561 148.073  1.00  0.00     0.174 C 
ATOM     13  O   UNL     1     142.636 132.602 149.852  1.00  0.00    -0.344 OA
ATOM     14  C   UNL     1     144.014 134.796 149.023  1.00  0.00     0.179 C 
ATOM     15  C   UNL     1     142.626 135.085 149.630  1.00  0.00     0.202 C 
BRANCH  12  16
ATOM     16  O   UNL     1     145.164 132.820 148.134  1.00  0.00    -0.388 OA
ATOM     17  H   UNL     1     145.486 132.649 147.204  1.00  0.00     0.211 HD
ENDBRANCH  12  16
BRANCH  14  18
ATOM     18  O   UNL     1     144.531 135.920 148.352  1.00  0.00    -0.387 OA
ATOM     19  H   UNL     1     145.136 136.403 148.980  1.00  0.00     0.211 HD
ENDBRANCH  14  18
BRANCH  15  20
ATOM     20  O   UNL     1     142.702 136.186 150.496  1.00  0.00    -0.385 OA
ATOM     21  H   UNL     1     142.086 136.883 150.143  1.00  0.00     0.211 HD
ENDBRANCH  15  20
ENDBRANCH   8   9
ENDBRANCH   7   8
ENDBRANCH   1   7
BRANCH   2  22
ATOM     22  O   UNL     1     141.579 136.595 153.045  1.00  0.00    -0.387 OA
ATOM     23  H   UNL     1     142.104 135.987 152.460  1.00  0.00     0.211 HD
ENDBRANCH   2  22
BRANCH   3  24
ATOM     24  O   UNL     1     140.265 136.837 155.485  1.00  0.00    -0.387 OA
ATOM     25  H   UNL     1     141.138 137.255 155.235  1.00  0.00     0.211 HD
ENDBRANCH   3  24
BRANCH   5  26
ATOM     26  O   UNL     1     138.955 132.533 154.351  1.00  0.00    -0.454 OA
BRANCH  26  27
ATOM     27  C   UNL     1     138.212 131.339 154.524  1.00  0.00     0.214 A 
ATOM     28  C   UNL     1     137.975 130.888 155.835  1.00  0.00     0.180 A 
ATOM     29  C   UNL     1     137.631 130.603 153.469  1.00  0.00     0.239 A 
ATOM     30  O   UNL     1     137.030 129.988 156.079  1.00  0.00    -0.452 OA
ATOM     31  C   UNL     1     136.626 129.653 153.763  1.00  0.00     0.111 A 
ATOM     32  O   UNL     1     138.001 130.783 152.275  1.00  0.00    -0.285 OA
ATOM     33  C   UNL     1     136.329 129.402 155.123  1.00  0.00     0.146 A 
ATOM     34  C   UNL     1     135.889 128.975 152.755  1.00  0.00     0.134 A 
ATOM     35  C   UNL     1     135.302 128.518 155.467  1.00  0.00     0.094 A 
ATOM     36  C   UNL     1     134.871 128.089 153.118  1.00  0.00     0.093 A 
ATOM     37  C   UNL     1     134.568 127.871 154.466  1.00  0.00     0.123 A 
BRANCH  28  38
ATOM     38  C   UNL     1     138.823 131.309 156.961  1.00  0.00     0.025 A 
ATOM     39  C   UNL     1     138.193 131.747 158.141  1.00  0.00     0.062 A 
ATOM     40  C   UNL     1     140.202 131.492 156.811  1.00  0.00     0.016 A 
ATOM     41  C   UNL     1     138.924 132.384 159.145  1.00  0.00     0.158 A 
ATOM     42  C   UNL     1     140.944 132.102 157.821  1.00  0.00     0.051 A 
ATOM     43  C   UNL     1     140.309 132.561 158.983  1.00  0.00     0.157 A 
BRANCH  41  44
ATOM     44  O   UNL     1     138.252 132.874 160.272  1.00  0.00    -0.504 OA
ATOM     45  H   UNL     1     138.691 133.518 160.913  1.00  0.00     0.293 HD
ENDBRANCH  41  44
BRANCH  43  46
ATOM     46  O   UNL     1     141.045 133.230 159.967  1.00  0.00    -0.504 OA
ATOM     47  H   UNL     1     141.420 134.163 159.801  1.00  0.00     0.293 HD
ENDBRANCH  43  46
ENDBRANCH  28  38
BRANCH  34  48
ATOM     48  O   UNL     1     136.168 129.180 151.401  1.00  0.00    -0.507 OA
ATOM     49  H   UNL     1     136.978 129.708 151.094  1.00  0.00     0.293 HD
ENDBRANCH  34  48
BRANCH  37  50
ATOM     50  O   UNL     1     133.519 127.022 154.792  1.00  0.00    -0.508 OA
ATOM     51  H   UNL     1     133.486 126.528 155.688  1.00  0.00     0.293 HD
ENDBRANCH  37  50
ENDBRANCH  26  27
ENDBRANCH   5  26
BRANCH   4  52
ATOM     52  O   UNL     1     138.621 134.622 156.279  1.00  0.00    -0.384 OA
ATOM     53  H   UNL     1     138.698 135.430 156.841  1.00  0.00     0.211 HD
ENDBRANCH   4  52
TORSDOF 16
ENDMDL
MODEL 6
REMARK VINA RESULT:    -7.160      2.229      8.255
REMARK INTER + INTRA:         -14.804
REMARK INTER:                 -12.323
REMARK INTRA:                  -2.481
REMARK UNBOUND:                -3.039
REMARK SMILES C[C@H]1O[C@@H](OC[C@H]2O[C@@H](Oc3c(-c4ccc(O)c(O)c4)oc4cc(O)cc(O)c4c3=O)[C@@H](O)[C@H](O)[C@H]2O)[C@@H](O)[C@H](O)[C@H]1O
REMARK SMILES IDX 7 1 36 2 34 3 32 4 9 5 8 6 6 7 5 8 4 9 1 10 2 11 42 12 3 13
REMARK SMILES IDX 40 14 38 15 43 16 41 18 39 20 37 22 35 24 10 26 11 27 12 28
REMARK SMILES IDX 30 29 21 30 29 31 31 32 22 33 27 34 23 35 26 36 24 37 13 38
REMARK SMILES IDX 20 39 14 40 18 41 15 42 16 43 19 44 17 46 28 48 25 50 33 52
REMARK H PARENT 43 17 41 19 39 21 37 23 35 25 19 45 17 47 28 49 25 51 33 53
REMARK Flexibility Score: inf
ROOT
ATOM      1  C   UNL     1     139.368 134.392 152.615  1.00  0.00     0.180 C 
ATOM      2  C   UNL     1     139.916 135.633 153.361  1.00  0.00     0.177 C 
ATOM      3  C   UNL     1     140.180 135.259 154.810  1.00  0.00     0.180 C 
ATOM      4  C   UNL     1     138.857 134.779 155.428  1.00  0.00     0.214 C 
ATOM      5  C   UNL     1     138.100 133.708 154.565  1.00  0.00     0.339 C 
ATOM      6  O   UNL     1     138.117 133.973 153.157  1.00  0.00    -0.332 OA
ENDROOT
BRANCH   1   7
ATOM      7  C   UNL     1     140.348 133.205 152.434  1.00  0.00     0.198 C 
BRANCH   7   8
ATOM      8  O   UNL     1     141.406 133.533 151.538  1.00  0.00    -0.347 OA
BRANCH   8   9
ATOM      9  C   UNL     1     141.295 132.888 150.269  1.00  0.00     0.281 C 
ATOM     10  C   UNL     1     139.180 130.052 149.246  1.00  0.00     0.041 C 
ATOM     11  C   UNL     1     140.467 130.869 149.383  1.00  0.00     0.150 C 
ATOM     12  C   UNL     1     141.711 129.995 149.688  1.00  0.00     0.174 C 
ATOM     13  O   UNL     1     140.324 131.846 150.402  1.00  0.00    -0.344 OA
ATOM     14  C   UNL     1     142.864 130.884 150.245  1.00  0.00     0.179 C 
ATOM     15  C   UNL     1     142.692 132.355 149.812  1.00  0.00     0.202 C 
BRANCH  12  16
ATOM     16  O   UNL     1     141.368 128.971 150.594  1.00  0.00    -0.388 OA
ATOM     17  H   UNL     1     140.564 129.255 151.112  1.00  0.00     0.211 HD
ENDBRANCH  12  16
BRANCH  14  18
ATOM     18  O   UNL     1     144.117 130.373 149.858  1.00  0.00    -0.387 OA
ATOM     19  H   UNL     1     144.127 129.396 150.059  1.00  0.00     0.211 HD
ENDBRANCH  14  18
BRANCH  15  20
ATOM     20  O   UNL     1     143.730 133.134 150.344  1.00  0.00    -0.385 OA
ATOM     21  H   UNL     1     144.518 133.025 149.746  1.00  0.00     0.211 HD
ENDBRANCH  15  20
ENDBRANCH   8   9
ENDBRANCH   7   8
ENDBRANCH   1   7
BRANCH   2  22
ATOM     22  O   UNL     1     141.098 136.104 152.766  1.00  0.00    -0.387 OA
ATOM     23  H   UNL     1     141.001 137.089 152.675  1.00  0.00     0.211 HD
ENDBRANCH   2  22
BRANCH   3  24
ATOM     24  O   UNL     1     140.646 136.398 155.495  1.00  0.00    -0.387 OA
ATOM     25  H   UNL     1     141.603 136.212 155.718  1.00  0.00     0.211 HD
ENDBRANCH   3  24
BRANCH   5  26
ATOM     26  O   UNL     1     138.494 132.345 154.811  1.00  0.00    -0.454 OA
BRANCH  26  27
ATOM     27  C   UNL     1     137.691 131.177 154.819  1.00  0.00     0.214 A 
ATOM     28  C   UNL     1     137.386 130.590 156.060  1.00  0.00     0.180 A 
ATOM     29  C   UNL     1     137.118 130.598 153.667  1.00  0.00     0.239 A 
ATOM     30  O   UNL     1     136.392 129.716 156.166  1.00  0.00    -0.452 OA
ATOM     31  C   UNL     1     136.061 129.672 153.814  1.00  0.00     0.111 A 
ATOM     32  O   UNL     1     137.540 130.897 152.514  1.00  0.00    -0.285 OA
ATOM     33  C   UNL     1     135.702 129.279 155.126  1.00  0.00     0.146 A 
ATOM     34  C   UNL     1     135.332 129.152 152.711  1.00  0.00     0.134 A 
ATOM     35  C   UNL     1     134.624 128.413 155.330  1.00  0.00     0.094 A 
ATOM     36  C   UNL     1     134.262 128.281 152.934  1.00  0.00     0.093 A 
ATOM     37  C   UNL     1     133.900 127.923 154.237  1.00  0.00     0.123 A 
BRANCH  28  38
ATOM     38  C   UNL     1     138.209 130.835 157.254  1.00  0.00     0.025 A 
ATOM     39  C   UNL     1     137.677 131.644 158.274  1.00  0.00     0.062 A 
ATOM     40  C   UNL     1     139.561 130.476 157.298  1.00  0.00     0.016 A 
ATOM     41  C   UNL     1     138.487 132.113 159.309  1.00  0.00     0.158 A 
ATOM     42  C   UNL     1     140.371 130.916 158.343  1.00  0.00     0.051 A 
ATOM     43  C   UNL     1     139.844 131.745 159.343  1.00  0.00     0.157 A 
BRANCH  41  44
ATOM     44  O   UNL     1     137.942 132.979 160.266  1.00  0.00    -0.504 OA
ATOM     45  H   UNL     1     138.267 133.928 160.370  1.00  0.00     0.293 HD
ENDBRANCH  41  44
BRANCH  43  46
ATOM     46  O   UNL     1     140.674 132.237 160.355  1.00  0.00    -0.504 OA
ATOM     47  H   UNL     1     141.586 132.638 160.140  1.00  0.00     0.293 HD
ENDBRANCH  43  46
ENDBRANCH  28  38
BRANCH  34  48
ATOM     48  O   UNL     1     135.671 129.499 151.400  1.00  0.00    -0.507 OA
ATOM     49  H   UNL     1     135.751 128.805 150.665  1.00  0.00     0.293 HD
ENDBRANCH  34  48
BRANCH  37  50
ATOM     50  O   UNL     1     132.802 127.095 154.427  1.00  0.00    -0.508 OA
ATOM     51  H   UNL     1     132.271 127.100 155.302  1.00  0.00     0.293 HD
ENDBRANCH  37  50
ENDBRANCH  26  27
ENDBRANCH   5  26
BRANCH   4  52
ATOM     52  O   UNL     1     139.051 134.371 156.755  1.00  0.00    -0.384 OA
ATOM     53  H   UNL     1     138.786 135.113 157.351  1.00  0.00     0.211 HD
ENDBRANCH   4  52
TORSDOF 16
ENDMDL
MODEL 7
REMARK VINA RESULT:    -7.149      2.425      9.314
REMARK INTER + INTRA:         -14.786
REMARK INTER:                 -12.133
REMARK INTRA:                  -2.653
REMARK UNBOUND:                -3.039
REMARK SMILES C[C@H]1O[C@@H](OC[C@H]2O[C@@H](Oc3c(-c4ccc(O)c(O)c4)oc4cc(O)cc(O)c4c3=O)[C@@H](O)[C@H](O)[C@H]2O)[C@@H](O)[C@H](O)[C@H]1O
REMARK SMILES IDX 7 1 36 2 34 3 32 4 9 5 8 6 6 7 5 8 4 9 1 10 2 11 42 12 3 13
REMARK SMILES IDX 40 14 38 15 43 16 41 18 39 20 37 22 35 24 10 26 11 27 12 28
REMARK SMILES IDX 30 29 21 30 29 31 31 32 22 33 27 34 23 35 26 36 24 37 13 38
REMARK SMILES IDX 20 39 14 40 18 41 15 42 16 43 19 44 17 46 28 48 25 50 33 52
REMARK H PARENT 43 17 41 19 39 21 37 23 35 25 19 45 17 47 28 49 25 51 33 53
REMARK Flexibility Score: inf
ROOT
ATOM      1  C   UNL     1     138.794 136.678 152.341  1.00  0.00     0.180 C 
ATOM      2  C   UNL     1     139.613 137.673 153.198  1.00  0.00     0.177 C 
ATOM      3  C   UNL     1     140.230 136.924 154.367  1.00  0.00     0.180 C 
ATOM      4  C   UNL     1     139.092 136.294 155.184  1.00  0.00     0.214 C 
ATOM      5  C   UNL     1     138.053 135.494 154.322  1.00  0.00     0.339 C 
ATOM      6  O   UNL     1     137.709 136.127 153.084  1.00  0.00    -0.332 OA
ENDROOT
BRANCH   1   7
ATOM      7  C   UNL     1     139.598 135.585 151.592  1.00  0.00     0.198 C 
BRANCH   7   8
ATOM      8  O   UNL     1     140.846 136.084 151.122  1.00  0.00    -0.347 OA
BRANCH   8   9
ATOM      9  C   UNL     1     141.013 135.954 149.710  1.00  0.00     0.281 C 
ATOM     10  C   UNL     1     142.456 133.187 147.754  1.00  0.00     0.041 C 
ATOM     11  C   UNL     1     142.243 134.638 148.193  1.00  0.00     0.150 C 
ATOM     12  C   UNL     1     143.560 135.454 148.246  1.00  0.00     0.174 C 
ATOM     13  O   UNL     1     141.618 134.681 149.466  1.00  0.00    -0.344 OA
ATOM     14  C   UNL     1     143.356 136.742 149.101  1.00  0.00     0.179 C 
ATOM     15  C   UNL     1     141.867 137.142 149.157  1.00  0.00     0.202 C 
BRANCH  12  16
ATOM     16  O   UNL     1     144.600 134.655 148.762  1.00  0.00    -0.388 OA
ATOM     17  H   UNL     1     144.322 133.698 148.722  1.00  0.00     0.211 HD
ENDBRANCH  12  16
BRANCH  14  18
ATOM     18  O   UNL     1     144.157 137.793 148.616  1.00  0.00    -0.387 OA
ATOM     19  H   UNL     1     144.474 137.543 147.704  1.00  0.00     0.211 HD
ENDBRANCH  14  18
BRANCH  15  20
ATOM     20  O   UNL     1     141.710 138.290 149.948  1.00  0.00    -0.385 OA
ATOM     21  H   UNL     1     142.616 138.675 150.093  1.00  0.00     0.211 HD
ENDBRANCH  15  20
ENDBRANCH   8   9
ENDBRANCH   7   8
ENDBRANCH   1   7
BRANCH   2  22
ATOM     22  O   UNL     1     140.623 138.289 152.438  1.00  0.00    -0.387 OA
ATOM     23  H   UNL     1     141.098 138.915 153.047  1.00  0.00     0.211 HD
ENDBRANCH   2  22
BRANCH   3  24
ATOM     24  O   UNL     1     140.947 137.837 155.164  1.00  0.00    -0.387 OA
ATOM     25  H   UNL     1     141.069 138.656 154.603  1.00  0.00     0.211 HD
ENDBRANCH   3  24
BRANCH   5  26
ATOM     26  O   UNL     1     138.396 134.115 154.087  1.00  0.00    -0.454 OA
BRANCH  26  27
ATOM     27  C   UNL     1     138.787 133.126 155.024  1.00  0.00     0.214 A 
ATOM     28  C   UNL     1     140.136 132.730 155.048  1.00  0.00     0.180 A 
ATOM     29  C   UNL     1     137.925 132.557 155.986  1.00  0.00     0.239 A 
ATOM     30  O   UNL     1     140.628 132.073 156.092  1.00  0.00    -0.452 OA
ATOM     31  C   UNL     1     138.481 131.866 157.086  1.00  0.00     0.111 A 
ATOM     32  O   UNL     1     136.672 132.658 155.871  1.00  0.00    -0.285 OA
ATOM     33  C   UNL     1     139.884 131.677 157.110  1.00  0.00     0.146 A 
ATOM     34  C   UNL     1     137.699 131.389 158.172  1.00  0.00     0.134 A 
ATOM     35  C   UNL     1     140.491 131.054 158.204  1.00  0.00     0.094 A 
ATOM     36  C   UNL     1     138.322 130.761 159.254  1.00  0.00     0.093 A 
ATOM     37  C   UNL     1     139.712 130.606 159.278  1.00  0.00     0.123 A 
BRANCH  28  38
ATOM     38  C   UNL     1     141.020 132.929 153.889  1.00  0.00     0.025 A 
ATOM     39  C   UNL     1     140.953 132.002 152.833  1.00  0.00     0.062 A 
ATOM     40  C   UNL     1     142.059 133.868 153.913  1.00  0.00     0.016 A 
ATOM     41  C   UNL     1     141.922 131.991 151.830  1.00  0.00     0.158 A 
ATOM     42  C   UNL     1     143.015 133.882 152.899  1.00  0.00     0.051 A 
ATOM     43  C   UNL     1     142.960 132.939 151.864  1.00  0.00     0.157 A 
BRANCH  41  44
ATOM     44  O   UNL     1     141.867 131.006 150.836  1.00  0.00    -0.504 OA
ATOM     45  H   UNL     1     142.411 130.159 150.897  1.00  0.00     0.293 HD
ENDBRANCH  41  44
BRANCH  43  46
ATOM     46  O   UNL     1     143.957 132.916 150.883  1.00  0.00    -0.504 OA
ATOM     47  H   UNL     1     143.937 132.230 150.129  1.00  0.00     0.293 HD
ENDBRANCH  43  46
ENDBRANCH  28  38
BRANCH  34  48
ATOM     48  O   UNL     1     136.309 131.537 158.174  1.00  0.00    -0.507 OA
ATOM     49  H   UNL     1     135.781 131.633 159.034  1.00  0.00     0.293 HD
ENDBRANCH  34  48
BRANCH  37  50
ATOM     50  O   UNL     1     140.306 130.022 160.389  1.00  0.00    -0.508 OA
ATOM     51  H   UNL     1     140.058 129.079 160.697  1.00  0.00     0.293 HD
ENDBRANCH  37  50
ENDBRANCH  26  27
ENDBRANCH   5  26
BRANCH   4  52
ATOM     52  O   UNL     1     139.606 135.544 156.252  1.00  0.00    -0.384 OA
ATOM     53  H   UNL     1     140.593 135.572 156.205  1.00  0.00     0.211 HD
ENDBRANCH   4  52
TORSDOF 16
ENDMDL
MODEL 8
REMARK VINA RESULT:    -7.131      2.351      8.043
REMARK INTER + INTRA:         -14.756
REMARK INTER:                 -12.189
REMARK INTRA:                  -2.567
REMARK UNBOUND:                -3.039
REMARK SMILES C[C@H]1O[C@@H](OC[C@H]2O[C@@H](Oc3c(-c4ccc(O)c(O)c4)oc4cc(O)cc(O)c4c3=O)[C@@H](O)[C@H](O)[C@H]2O)[C@@H](O)[C@H](O)[C@H]1O
REMARK SMILES IDX 7 1 36 2 34 3 32 4 9 5 8 6 6 7 5 8 4 9 1 10 2 11 42 12 3 13
REMARK SMILES IDX 40 14 38 15 43 16 41 18 39 20 37 22 35 24 10 26 11 27 12 28
REMARK SMILES IDX 30 29 21 30 29 31 31 32 22 33 27 34 23 35 26 36 24 37 13 38
REMARK SMILES IDX 20 39 14 40 18 41 15 42 16 43 19 44 17 46 28 48 25 50 33 52
REMARK H PARENT 43 17 41 19 39 21 37 23 35 25 19 45 17 47 28 49 25 51 33 53
REMARK Flexibility Score: inf
ROOT
ATOM      1  C   UNL     1     139.757 129.128 151.282  1.00  0.00     0.180 C 
ATOM      2  C   UNL     1     138.932 128.357 150.223  1.00  0.00     0.177 C 
ATOM      3  C   UNL     1     137.464 128.710 150.391  1.00  0.00     0.180 C 
ATOM      4  C   UNL     1     137.039 128.321 151.815  1.00  0.00     0.214 C 
ATOM      5  C   UNL     1     138.008 128.842 152.935  1.00  0.00     0.339 C 
ATOM      6  O   UNL     1     139.397 128.734 152.604  1.00  0.00    -0.332 OA
ENDROOT
BRANCH   1   7
ATOM      7  C   UNL     1     139.811 130.669 151.130  1.00  0.00     0.198 C 
BRANCH   7   8
ATOM      8  O   UNL     1     141.145 131.129 150.940  1.00  0.00    -0.347 OA
BRANCH   8   9
ATOM      9  C   UNL     1     141.223 132.508 150.577  1.00  0.00     0.281 C 
ATOM     10  C   UNL     1     142.315 134.053 147.417  1.00  0.00     0.041 C 
ATOM     11  C   UNL     1     142.252 133.843 148.932  1.00  0.00     0.150 C 
ATOM     12  C   UNL     1     143.634 133.975 149.621  1.00  0.00     0.174 C 
ATOM     13  O   UNL     1     141.703 132.570 149.231  1.00  0.00    -0.344 OA
ATOM     14  C   UNL     1     143.588 133.329 151.040  1.00  0.00     0.179 C 
ATOM     15  C   UNL     1     142.144 133.277 151.580  1.00  0.00     0.202 C 
BRANCH  12  16
ATOM     16  O   UNL     1     144.629 133.380 148.819  1.00  0.00    -0.388 OA
ATOM     17  H   UNL     1     145.218 134.097 148.451  1.00  0.00     0.211 HD
ENDBRANCH  12  16
BRANCH  14  18
ATOM     18  O   UNL     1     144.448 134.008 151.923  1.00  0.00    -0.387 OA
ATOM     19  H   UNL     1     145.149 133.366 152.224  1.00  0.00     0.211 HD
ENDBRANCH  14  18
BRANCH  15  20
ATOM     20  O   UNL     1     142.129 132.674 152.847  1.00  0.00    -0.385 OA
ATOM     21  H   UNL     1     142.890 133.053 153.363  1.00  0.00     0.211 HD
ENDBRANCH  15  20
ENDBRANCH   8   9
ENDBRANCH   7   8
ENDBRANCH   1   7
BRANCH   2  22
ATOM     22  O   UNL     1     139.354 128.673 148.920  1.00  0.00    -0.387 OA
ATOM     23  H   UNL     1     140.123 128.078 148.715  1.00  0.00     0.211 HD
ENDBRANCH   2  22
BRANCH   3  24
ATOM     24  O   UNL     1     136.711 127.982 149.448  1.00  0.00    -0.387 OA
ATOM     25  H   UNL     1     135.763 128.278 149.566  1.00  0.00     0.211 HD
ENDBRANCH   3  24
BRANCH   5  26
ATOM     26  O   UNL     1     137.721 130.170 153.412  1.00  0.00    -0.454 OA
BRANCH  26  27
ATOM     27  C   UNL     1     137.998 130.737 154.682  1.00  0.00     0.214 A 
ATOM     28  C   UNL     1     137.146 130.415 155.753  1.00  0.00     0.180 A 
ATOM     29  C   UNL     1     139.116 131.551 154.963  1.00  0.00     0.239 A 
ATOM     30  O   UNL     1     137.526 130.633 157.007  1.00  0.00    -0.452 OA
ATOM     31  C   UNL     1     139.495 131.762 156.308  1.00  0.00     0.111 A 
ATOM     32  O   UNL     1     139.773 132.091 154.029  1.00  0.00    -0.285 OA
ATOM     33  C   UNL     1     138.660 131.235 157.322  1.00  0.00     0.146 A 
ATOM     34  C   UNL     1     140.685 132.445 156.675  1.00  0.00     0.134 A 
ATOM     35  C   UNL     1     139.021 131.361 158.666  1.00  0.00     0.094 A 
ATOM     36  C   UNL     1     141.026 132.569 158.026  1.00  0.00     0.093 A 
ATOM     37  C   UNL     1     140.206 132.018 159.016  1.00  0.00     0.123 A 
BRANCH  28  38
ATOM     38  C   UNL     1     135.775 129.930 155.531  1.00  0.00     0.025 A 
ATOM     39  C   UNL     1     135.539 128.545 155.605  1.00  0.00     0.062 A 
ATOM     40  C   UNL     1     134.771 130.772 155.037  1.00  0.00     0.016 A 
ATOM     41  C   UNL     1     134.330 128.003 155.167  1.00  0.00     0.158 A 
ATOM     42  C   UNL     1     133.550 130.241 154.625  1.00  0.00     0.051 A 
ATOM     43  C   UNL     1     133.329 128.858 154.675  1.00  0.00     0.157 A 
BRANCH  41  44
ATOM     44  O   UNL     1     134.158 126.612 155.185  1.00  0.00    -0.504 OA
ATOM     45  H   UNL     1     134.818 125.990 154.743  1.00  0.00     0.293 HD
ENDBRANCH  41  44
BRANCH  43  46
ATOM     46  O   UNL     1     132.127 128.322 154.200  1.00  0.00    -0.504 OA
ATOM     47  H   UNL     1     131.265 128.405 154.738  1.00  0.00     0.293 HD
ENDBRANCH  43  46
ENDBRANCH  28  38
BRANCH  34  48
ATOM     48  O   UNL     1     141.524 132.998 155.704  1.00  0.00    -0.507 OA
ATOM     49  H   UNL     1     142.534 132.934 155.768  1.00  0.00     0.293 HD
ENDBRANCH  34  48
BRANCH  37  50
ATOM     50  O   UNL     1     140.597 132.116 160.345  1.00  0.00    -0.508 OA
ATOM     51  H   UNL     1     141.540 131.860 160.647  1.00  0.00     0.293 HD
ENDBRANCH  37  50
ENDBRANCH  26  27
ENDBRANCH   5  26
BRANCH   4  52
ATOM     52  O   UNL     1     135.701 128.671 152.045  1.00  0.00    -0.384 OA
ATOM     53  H   UNL     1     135.507 129.502 151.547  1.00  0.00     0.211 HD
ENDBRANCH   4  52
TORSDOF 16
ENDMDL
MODEL 9
REMARK VINA RESULT:    -7.097      2.460      4.994
REMARK INTER + INTRA:         -14.700
REMARK INTER:                 -12.158
REMARK INTRA:                  -2.542
REMARK UNBOUND:                -3.039
REMARK SMILES C[C@H]1O[C@@H](OC[C@H]2O[C@@H](Oc3c(-c4ccc(O)c(O)c4)oc4cc(O)cc(O)c4c3=O)[C@@H](O)[C@H](O)[C@H]2O)[C@@H](O)[C@H](O)[C@H]1O
REMARK SMILES IDX 7 1 36 2 34 3 32 4 9 5 8 6 6 7 5 8 4 9 1 10 2 11 42 12 3 13
REMARK SMILES IDX 40 14 38 15 43 16 41 18 39 20 37 22 35 24 10 26 11 27 12 28
REMARK SMILES IDX 30 29 21 30 29 31 31 32 22 33 27 34 23 35 26 36 24 37 13 38
REMARK SMILES IDX 20 39 14 40 18 41 15 42 16 43 19 44 17 46 28 48 25 50 33 52
REMARK H PARENT 43 17 41 19 39 21 37 23 35 25 19 45 17 47 28 49 25 51 33 53
REMARK Flexibility Score: inf
ROOT
ATOM      1  C   UNL     1     141.021 133.015 155.033  1.00  0.00     0.180 C 
ATOM      2  C   UNL     1     140.666 134.216 155.943  1.00  0.00     0.177 C 
ATOM      3  C   UNL     1     140.206 135.373 155.073  1.00  0.00     0.180 C 
ATOM      4  C   UNL     1     141.347 135.727 154.107  1.00  0.00     0.214 C 
ATOM      5  C   UNL     1     141.950 134.491 153.350  1.00  0.00     0.339 C 
ATOM      6  O   UNL     1     142.110 133.326 154.167  1.00  0.00    -0.332 OA
ENDROOT
BRANCH   1   7
ATOM      7  C   UNL     1     139.845 132.354 154.270  1.00  0.00     0.198 C 
BRANCH   7   8
ATOM      8  O   UNL     1     139.913 130.932 154.336  1.00  0.00    -0.347 OA
BRANCH   8   9
ATOM      9  C   UNL     1     138.919 130.356 155.185  1.00  0.00     0.281 C 
ATOM     10  C   UNL     1     136.868 131.926 157.810  1.00  0.00     0.041 C 
ATOM     11  C   UNL     1     137.792 130.877 157.185  1.00  0.00     0.150 C 
ATOM     12  C   UNL     1     138.882 130.370 158.164  1.00  0.00     0.174 C 
ATOM     13  O   UNL     1     138.416 131.399 156.024  1.00  0.00    -0.344 OA
ATOM     14  C   UNL     1     140.028 129.671 157.371  1.00  0.00     0.179 C 
ATOM     15  C   UNL     1     139.530 129.170 155.999  1.00  0.00     0.202 C 
BRANCH  12  16
ATOM     16  O   UNL     1     139.373 131.444 158.935  1.00  0.00    -0.388 OA
ATOM     17  H   UNL     1     140.333 131.276 159.148  1.00  0.00     0.211 HD
ENDBRANCH  12  16
BRANCH  14  18
ATOM     18  O   UNL     1     140.594 128.630 158.130  1.00  0.00    -0.387 OA
ATOM     19  H   UNL     1     139.995 128.453 158.906  1.00  0.00     0.211 HD
ENDBRANCH  14  18
BRANCH  15  20
ATOM     20  O   UNL     1     140.585 128.565 155.300  1.00  0.00    -0.385 OA
ATOM     21  H   UNL     1     140.662 127.630 155.633  1.00  0.00     0.211 HD
ENDBRANCH  15  20
ENDBRANCH   8   9
ENDBRANCH   7   8
ENDBRANCH   1   7
BRANCH   2  22
ATOM     22  O   UNL     1     139.658 133.878 156.862  1.00  0.00    -0.387 OA
ATOM     23  H   UNL     1     139.237 133.041 156.531  1.00  0.00     0.211 HD
ENDBRANCH   2  22
BRANCH   3  24
ATOM     24  O   UNL     1     139.916 136.476 155.901  1.00  0.00    -0.387 OA
ATOM     25  H   UNL     1     139.751 136.099 156.812  1.00  0.00     0.211 HD
ENDBRANCH   3  24
BRANCH   5  26
ATOM     26  O   UNL     1     141.273 134.142 152.128  1.00  0.00    -0.454 OA
BRANCH  26  27
ATOM     27  C   UNL     1     141.813 133.584 150.942  1.00  0.00     0.214 A 
ATOM     28  C   UNL     1     142.448 134.447 150.031  1.00  0.00     0.180 A 
ATOM     29  C   UNL     1     141.819 132.205 150.643  1.00  0.00     0.239 A 
ATOM     30  O   UNL     1     143.249 133.963 149.089  1.00  0.00    -0.452 OA
ATOM     31  C   UNL     1     142.684 131.722 149.635  1.00  0.00     0.111 A 
ATOM     32  O   UNL     1     141.061 131.406 151.261  1.00  0.00    -0.285 OA
ATOM     33  C   UNL     1     143.426 132.668 148.889  1.00  0.00     0.146 A 
ATOM     34  C   UNL     1     142.859 130.337 149.369  1.00  0.00     0.134 A 
ATOM     35  C   UNL     1     144.342 132.240 147.923  1.00  0.00     0.094 A 
ATOM     36  C   UNL     1     143.774 129.928 148.393  1.00  0.00     0.093 A 
ATOM     37  C   UNL     1     144.521 130.873 147.683  1.00  0.00     0.123 A 
BRANCH  28  38
ATOM     38  C   UNL     1     142.173 135.892 150.016  1.00  0.00     0.025 A 
ATOM     39  C   UNL     1     141.057 136.349 149.291  1.00  0.00     0.062 A 
ATOM     40  C   UNL     1     143.099 136.819 150.507  1.00  0.00     0.016 A 
ATOM     41  C   UNL     1     140.882 137.709 149.035  1.00  0.00     0.158 A 
ATOM     42  C   UNL     1     142.917 138.182 150.279  1.00  0.00     0.051 A 
ATOM     43  C   UNL     1     141.818 138.632 149.534  1.00  0.00     0.157 A 
BRANCH  41  44
ATOM     44  O   UNL     1     139.800 138.123 148.245  1.00  0.00    -0.504 OA
ATOM     45  H   UNL     1     138.948 137.586 148.191  1.00  0.00     0.293 HD
ENDBRANCH  41  44
BRANCH  43  46
ATOM     46  O   UNL     1     141.672 139.994 149.253  1.00  0.00    -0.504 OA
ATOM     47  H   UNL     1     142.383 140.503 148.729  1.00  0.00     0.293 HD
ENDBRANCH  43  46
ENDBRANCH  28  38
BRANCH  34  48
ATOM     48  O   UNL     1     142.128 129.374 150.069  1.00  0.00    -0.507 OA
ATOM     49  H   UNL     1     141.538 129.616 150.857  1.00  0.00     0.293 HD
ENDBRANCH  34  48
BRANCH  37  50
ATOM     50  O   UNL     1     145.456 130.433 146.756  1.00  0.00    -0.508 OA
ATOM     51  H   UNL     1     145.455 129.471 146.407  1.00  0.00     0.293 HD
ENDBRANCH  37  50
ENDBRANCH  26  27
ENDBRANCH   5  26
BRANCH   4  52
ATOM     52  O   UNL     1     140.959 136.760 153.242  1.00  0.00    -0.384 OA
ATOM     53  H   UNL     1     141.065 137.620 153.716  1.00  0.00     0.211 HD
ENDBRANCH   4  52
TORSDOF 16
ENDMDL
