MODEL 1
REMARK VINA RESULT:    -2.536      0.000      0.000
REMARK INTER + INTRA:          -2.536
REMARK INTER:                  -2.536
REMARK INTRA:                   0.000
REMARK UNBOUND:                 0.000
REMARK SMILES CC1(C)O[C@]2(C)CC[C@H]1CC2
REMARK SMILES IDX 1 1 2 2 9 3 10 4 11 5 5 6 4 7 7 8 8 9 6 10 3 11
REMARK H PARENT
REMARK Flexibility Score: inf
ROOT
ATOM      1  C   UNL     1      11.902  -2.082   3.462  1.00  0.00     0.042 C 
ATOM      2  C   UNL     1      10.497  -2.390   2.902  1.00  0.00     0.066 C 
ATOM      3  C   UNL     1       9.534  -1.157   3.101  1.00  0.00     0.021 C 
ATOM      4  C   UNL     1      10.090   0.035   2.284  1.00  0.00     0.009 C 
ATOM      5  C   UNL     1      10.347  -0.424   0.828  1.00  0.00     0.035 C 
ATOM      6  C   UNL     1       9.877  -1.897   0.648  1.00  0.00     0.066 C 
ATOM      7  O   UNL     1      10.635  -2.740   1.517  1.00  0.00    -0.369 OA
ATOM      8  C   UNL     1       8.371  -1.997   1.025  1.00  0.00     0.035 C 
ATOM      9  C   UNL     1       8.160  -1.501   2.477  1.00  0.00     0.009 C 
ATOM     10  C   UNL     1      10.096  -2.353  -0.798  1.00  0.00     0.042 C 
ATOM     11  C   UNL     1       9.962  -3.626   3.657  1.00  0.00     0.042 C 
ENDROOT
TORSDOF 0
ENDMDL
MODEL 2
REMARK VINA RESULT:    -2.519      1.326      2.219
REMARK INTER + INTRA:          -2.519
REMARK INTER:                  -2.519
REMARK INTRA:                   0.000
REMARK UNBOUND:                 0.000
REMARK SMILES CC1(C)O[C@]2(C)CC[C@H]1CC2
REMARK SMILES IDX 1 1 2 2 9 3 10 4 11 5 5 6 4 7 7 8 8 9 6 10 3 11
REMARK H PARENT
REMARK Flexibility Score: inf
ROOT
ATOM      1  C   UNL     1      12.356  -2.049   3.528  1.00  0.00     0.042 C 
ATOM      2  C   UNL     1      11.698  -2.108   2.133  1.00  0.00     0.066 C 
ATOM      3  C   UNL     1      10.138  -2.306   2.260  1.00  0.00     0.021 C 
ATOM      4  C   UNL     1       9.544  -1.073   2.983  1.00  0.00     0.009 C 
ATOM      5  C   UNL     1      10.030   0.214   2.273  1.00  0.00     0.035 C 
ATOM      6  C   UNL     1      10.874  -0.160   1.020  1.00  0.00     0.066 C 
ATOM      7  O   UNL     1      12.025  -0.898   1.434  1.00  0.00    -0.369 OA
ATOM      8  C   UNL     1      10.012  -1.047   0.077  1.00  0.00     0.035 C 
ATOM      9  C   UNL     1       9.526  -2.305   0.838  1.00  0.00     0.009 C 
ATOM     10  C   UNL     1      11.333   1.106   0.290  1.00  0.00     0.042 C 
ATOM     11  C   UNL     1      12.337  -3.289   1.371  1.00  0.00     0.042 C 
ENDROOT
TORSDOF 0
ENDMDL
MODEL 3
REMARK VINA RESULT:    -2.508      1.270      2.999
REMARK INTER + INTRA:          -2.508
REMARK INTER:                  -2.508
REMARK INTRA:                   0.000
REMARK UNBOUND:                 0.000
REMARK SMILES CC1(C)O[C@]2(C)CC[C@H]1CC2
REMARK SMILES IDX 1 1 2 2 9 3 10 4 11 5 5 6 4 7 7 8 8 9 6 10 3 11
REMARK H PARENT
REMARK Flexibility Score: inf
ROOT
ATOM      1  C   UNL     1      11.591  -3.729   1.160  1.00  0.00     0.042 C 
ATOM      2  C   UNL     1      11.478  -2.282   1.684  1.00  0.00     0.066 C 
ATOM      3  C   UNL     1      10.914  -1.325   0.564  1.00  0.00     0.021 C 
ATOM      4  C   UNL     1       9.479  -1.784   0.205  1.00  0.00     0.009 C 
ATOM      5  C   UNL     1       8.646  -1.909   1.504  1.00  0.00     0.035 C 
ATOM      6  C   UNL     1       9.496  -1.444   2.722  1.00  0.00     0.066 C 
ATOM      7  O   UNL     1      10.638  -2.293   2.848  1.00  0.00    -0.369 OA
ATOM      8  C   UNL     1       9.970   0.018   2.480  1.00  0.00     0.035 C 
ATOM      9  C   UNL     1      10.773   0.097   1.158  1.00  0.00     0.009 C 
ATOM     10  C   UNL     1       8.672  -1.531   4.011  1.00  0.00     0.042 C 
ATOM     11  C   UNL     1      12.892  -1.837   2.118  1.00  0.00     0.042 C 
ENDROOT
TORSDOF 0
ENDMDL
MODEL 4
REMARK VINA RESULT:    -2.492      8.803     10.161
REMARK INTER + INTRA:          -2.492
REMARK INTER:                  -2.492
REMARK INTRA:                   0.000
REMARK UNBOUND:                 0.000
REMARK SMILES CC1(C)O[C@]2(C)CC[C@H]1CC2
REMARK SMILES IDX 1 1 2 2 9 3 10 4 11 5 5 6 4 7 7 8 8 9 6 10 3 11
REMARK H PARENT
REMARK Flexibility Score: inf
ROOT
ATOM      1  C   UNL     1       8.030   5.596   9.117  1.00  0.00     0.042 C 
ATOM      2  C   UNL     1       7.992   6.052   7.642  1.00  0.00     0.066 C 
ATOM      3  C   UNL     1       7.991   7.626   7.545  1.00  0.00     0.021 C 
ATOM      4  C   UNL     1       9.317   8.154   8.143  1.00  0.00     0.009 C 
ATOM      5  C   UNL     1      10.504   7.413   7.480  1.00  0.00     0.035 C 
ATOM      6  C   UNL     1       9.975   6.455   6.373  1.00  0.00     0.066 C 
ATOM      7  O   UNL     1       9.122   5.477   6.969  1.00  0.00    -0.369 OA
ATOM      8  C   UNL     1       9.161   7.281   5.336  1.00  0.00     0.035 C 
ATOM      9  C   UNL     1       8.005   8.025   6.050  1.00  0.00     0.009 C 
ATOM     10  C   UNL     1      11.143   5.740   5.686  1.00  0.00     0.042 C 
ATOM     11  C   UNL     1       6.710   5.466   7.012  1.00  0.00     0.042 C 
ENDROOT
TORSDOF 0
ENDMDL
MODEL 5
REMARK VINA RESULT:    -2.486      1.227      2.738
REMARK INTER + INTRA:          -2.486
REMARK INTER:                  -2.486
REMARK INTRA:                   0.000
REMARK UNBOUND:                 0.000
REMARK SMILES CC1(C)O[C@]2(C)CC[C@H]1CC2
REMARK SMILES IDX 1 1 2 2 9 3 10 4 11 5 5 6 4 7 7 8 8 9 6 10 3 11
REMARK H PARENT
REMARK Flexibility Score: inf
ROOT
ATOM      1  C   UNL     1       9.738  -3.550   0.150  1.00  0.00     0.042 C 
ATOM      2  C   UNL     1       9.343  -2.280   0.936  1.00  0.00     0.066 C 
ATOM      3  C   UNL     1       9.875  -2.355   2.419  1.00  0.00     0.021 C 
ATOM      4  C   UNL     1      11.422  -2.395   2.383  1.00  0.00     0.009 C 
ATOM      5  C   UNL     1      11.941  -1.226   1.512  1.00  0.00     0.035 C 
ATOM      6  C   UNL     1      10.745  -0.348   1.040  1.00  0.00     0.066 C 
ATOM      7  O   UNL     1       9.870  -1.142   0.238  1.00  0.00    -0.369 OA
ATOM      8  C   UNL     1       9.970   0.163   2.288  1.00  0.00     0.035 C 
ATOM      9  C   UNL     1       9.497  -1.039   3.141  1.00  0.00     0.009 C 
ATOM     10  C   UNL     1      11.248   0.833   0.204  1.00  0.00     0.042 C 
ATOM     11  C   UNL     1       7.802  -2.186   0.913  1.00  0.00     0.042 C 
ENDROOT
TORSDOF 0
ENDMDL
MODEL 6
REMARK VINA RESULT:    -2.447      1.305      3.302
REMARK INTER + INTRA:          -2.447
REMARK INTER:                  -2.447
REMARK INTRA:                   0.000
REMARK UNBOUND:                 0.000
REMARK SMILES CC1(C)O[C@]2(C)CC[C@H]1CC2
REMARK SMILES IDX 1 1 2 2 9 3 10 4 11 5 5 6 4 7 7 8 8 9 6 10 3 11
REMARK H PARENT
REMARK Flexibility Score: inf
ROOT
ATOM      1  C   UNL     1       9.630  -1.721  -0.825  1.00  0.00     0.042 C 
ATOM      2  C   UNL     1      10.467  -2.156   0.397  1.00  0.00     0.066 C 
ATOM      3  C   UNL     1      11.685  -1.178   0.615  1.00  0.00     0.021 C 
ATOM      4  C   UNL     1      11.131   0.232   0.931  1.00  0.00     0.009 C 
ATOM      5  C   UNL     1      10.103   0.128   2.084  1.00  0.00     0.035 C 
ATOM      6  C   UNL     1      10.038  -1.339   2.601  1.00  0.00     0.066 C 
ATOM      7  O   UNL     1       9.600  -2.190   1.541  1.00  0.00    -0.369 OA
ATOM      8  C   UNL     1      11.460  -1.778   3.056  1.00  0.00     0.035 C 
ATOM      9  C   UNL     1      12.456  -1.629   1.880  1.00  0.00     0.009 C 
ATOM     10  C   UNL     1       9.048  -1.449   3.765  1.00  0.00     0.042 C 
ATOM     11  C   UNL     1      10.963  -3.593   0.128  1.00  0.00     0.042 C 
ENDROOT
TORSDOF 0
ENDMDL
MODEL 7
REMARK VINA RESULT:    -2.438      1.533      3.404
REMARK INTER + INTRA:          -2.438
REMARK INTER:                  -2.438
REMARK INTRA:                   0.000
REMARK UNBOUND:                 0.000
REMARK SMILES CC1(C)O[C@]2(C)CC[C@H]1CC2
REMARK SMILES IDX 1 1 2 2 9 3 10 4 11 5 5 6 4 7 7 8 8 9 6 10 3 11
REMARK H PARENT
REMARK Flexibility Score: inf
ROOT
ATOM      1  C   UNL     1      11.590  -1.735   2.995  1.00  0.00     0.042 C 
ATOM      2  C   UNL     1      10.153  -1.351   2.578  1.00  0.00     0.066 C 
ATOM      3  C   UNL     1       9.538  -2.447   1.625  1.00  0.00     0.021 C 
ATOM      4  C   UNL     1       9.435  -3.777   2.410  1.00  0.00     0.009 C 
ATOM      5  C   UNL     1       8.700  -3.522   3.749  1.00  0.00     0.035 C 
ATOM      6  C   UNL     1       8.230  -2.040   3.818  1.00  0.00     0.066 C 
ATOM      7  O   UNL     1       9.373  -1.184   3.771  1.00  0.00    -0.369 OA
ATOM      8  C   UNL     1       7.317  -1.742   2.594  1.00  0.00     0.035 C 
ATOM      9  C   UNL     1       8.085  -2.038   1.282  1.00  0.00     0.009 C 
ATOM     10  C   UNL     1       7.472  -1.783   5.124  1.00  0.00     0.042 C 
ATOM     11  C   UNL     1      10.231   0.014   1.861  1.00  0.00     0.042 C 
ENDROOT
TORSDOF 0
ENDMDL
MODEL 8
REMARK VINA RESULT:    -2.435      9.429     10.494
REMARK INTER + INTRA:          -2.435
REMARK INTER:                  -2.435
REMARK INTRA:                   0.000
REMARK UNBOUND:                 0.000
REMARK SMILES CC1(C)O[C@]2(C)CC[C@H]1CC2
REMARK SMILES IDX 1 1 2 2 9 3 10 4 11 5 5 6 4 7 7 8 8 9 6 10 3 11
REMARK H PARENT
REMARK Flexibility Score: inf
ROOT
ATOM      1  C   UNL     1       9.230   5.792   7.184  1.00  0.00     0.042 C 
ATOM      2  C   UNL     1       7.836   5.929   7.834  1.00  0.00     0.066 C 
ATOM      3  C   UNL     1       7.515   7.440   8.151  1.00  0.00     0.021 C 
ATOM      4  C   UNL     1       7.464   8.221   6.815  1.00  0.00     0.009 C 
ATOM      5  C   UNL     1       6.510   7.493   5.837  1.00  0.00     0.035 C 
ATOM      6  C   UNL     1       5.851   6.277   6.551  1.00  0.00     0.066 C 
ATOM      7  O   UNL     1       6.870   5.355   6.941  1.00  0.00    -0.369 OA
ATOM      8  C   UNL     1       5.103   6.779   7.819  1.00  0.00     0.035 C 
ATOM      9  C   UNL     1       6.090   7.523   8.750  1.00  0.00     0.009 C 
ATOM     10  C   UNL     1       4.878   5.567   5.603  1.00  0.00     0.042 C 
ATOM     11  C   UNL     1       7.848   5.091   9.130  1.00  0.00     0.042 C 
ENDROOT
TORSDOF 0
ENDMDL
MODEL 9
REMARK VINA RESULT:    -2.297      8.065      9.495
REMARK INTER + INTRA:          -2.297
REMARK INTER:                  -2.297
REMARK INTRA:                   0.000
REMARK UNBOUND:                 0.000
REMARK SMILES CC1(C)O[C@]2(C)CC[C@H]1CC2
REMARK SMILES IDX 1 1 2 2 9 3 10 4 11 5 5 6 4 7 7 8 8 9 6 10 3 11
REMARK H PARENT
REMARK Flexibility Score: inf
ROOT
ATOM      1  C   UNL     1       9.334   5.791   6.882  1.00  0.00     0.042 C 
ATOM      2  C   UNL     1       9.786   6.949   5.967  1.00  0.00     0.066 C 
ATOM      3  C   UNL     1      11.361   7.027   5.904  1.00  0.00     0.021 C 
ATOM      4  C   UNL     1      11.890   5.720   5.266  1.00  0.00     0.009 C 
ATOM      5  C   UNL     1      11.149   5.469   3.931  1.00  0.00     0.035 C 
ATOM      6  C   UNL     1      10.188   6.656   3.630  1.00  0.00     0.066 C 
ATOM      7  O   UNL     1       9.211   6.743   4.668  1.00  0.00    -0.369 OA
ATOM      8  C   UNL     1      11.011   7.975   3.592  1.00  0.00     0.035 C 
ATOM      9  C   UNL     1      11.756   8.168   4.935  1.00  0.00     0.009 C 
ATOM     10  C   UNL     1       9.472   6.436   2.294  1.00  0.00     0.042 C 
ATOM     11  C   UNL     1       9.199   8.253   6.550  1.00  0.00     0.042 C 
ENDROOT
TORSDOF 0
ENDMDL
