MODEL 1
REMARK VINA RESULT:    -4.810      0.000      0.000
REMARK INTER + INTRA:         -11.747
REMARK INTER:                  -9.029
REMARK INTRA:                  -2.719
REMARK UNBOUND:                -2.719
REMARK SMILES CCCCCCCCC=CCCCCCCCC(=O)[O-]
REMARK SMILES IDX 10 1 9 2 11 3 12 4 13 5 14 6 15 7 16 8 17 9 18 10 19 11
REMARK SMILES IDX 20 12 8 13 7 14 6 15 5 16 4 17 3 18 2 19 1 20
REMARK H PARENT
REMARK Flexibility Score: inf
ROOT
ATOM      1  C   UNL     1      12.475  13.760   5.602  1.00  0.00    -0.031 C 
ATOM      2  C   UNL     1      11.715  13.367   6.634  1.00  0.00    -0.031 C 
ENDROOT
BRANCH   1   3
ATOM      3  C   UNL     1      13.819  13.131   5.358  1.00  0.00     0.027 C 
BRANCH   3   4
ATOM      4  C   UNL     1      13.814  12.290   4.075  1.00  0.00     0.004 C 
BRANCH   4   5
ATOM      5  C   UNL     1      12.540  12.490   3.235  1.00  0.00     0.000 C 
BRANCH   5   6
ATOM      6  C   UNL     1      12.792  13.184   1.878  1.00  0.00     0.000 C 
BRANCH   6   7
ATOM      7  C   UNL     1      13.216  14.654   2.043  1.00  0.00     0.000 C 
BRANCH   7   8
ATOM      8  C   UNL     1      14.667  14.912   1.594  1.00  0.00     0.006 C 
BRANCH   8   9
ATOM      9  C   UNL     1      15.539  15.628   2.639  1.00  0.00     0.053 C 
BRANCH   9  10
ATOM     10  C   UNL     1      16.796  14.870   2.939  1.00  0.00     0.041 C 
ATOM     11  O   UNL     1      16.793  13.611   2.947  1.00  0.00    -0.550 OA
ATOM     12  O   UNL     1      17.981  15.555   3.186  1.00  0.00    -0.550 OA
ENDBRANCH   9  10
ENDBRANCH   8   9
ENDBRANCH   7   8
ENDBRANCH   6   7
ENDBRANCH   5   6
ENDBRANCH   4   5
ENDBRANCH   3   4
ENDBRANCH   1   3
BRANCH   2  13
ATOM     13  C   UNL     1      10.359  13.969   6.892  1.00  0.00     0.027 C 
BRANCH  13  14
ATOM     14  C   UNL     1       9.833  14.780   5.694  1.00  0.00     0.004 C 
BRANCH  14  15
ATOM     15  C   UNL     1       8.590  14.177   5.010  1.00  0.00     0.000 C 
BRANCH  15  16
ATOM     16  C   UNL     1       8.861  13.502   3.654  1.00  0.00     0.000 C 
BRANCH  16  17
ATOM     17  C   UNL     1       9.078  11.984   3.778  1.00  0.00    -0.000 C 
BRANCH  17  18
ATOM     18  C   UNL     1       8.434  11.399   5.046  1.00  0.00    -0.000 C 
BRANCH  18  19
ATOM     19  C   UNL     1       9.407  10.523   5.849  1.00  0.00    -0.003 C 
ATOM     20  C   UNL     1      10.452   9.886   4.935  1.00  0.00     0.004 C 
ENDBRANCH  18  19
ENDBRANCH  17  18
ENDBRANCH  16  17
ENDBRANCH  15  16
ENDBRANCH  14  15
ENDBRANCH  13  14
ENDBRANCH   2  13
TORSDOF 15
ENDMDL
MODEL 2
REMARK VINA RESULT:    -4.796      1.307      3.043
REMARK INTER + INTRA:         -11.720
REMARK INTER:                  -9.277
REMARK INTRA:                  -2.443
REMARK UNBOUND:                -2.719
REMARK SMILES CCCCCCCCC=CCCCCCCCC(=O)[O-]
REMARK SMILES IDX 10 1 9 2 11 3 12 4 13 5 14 6 15 7 16 8 17 9 18 10 19 11
REMARK SMILES IDX 20 12 8 13 7 14 6 15 5 16 4 17 3 18 2 19 1 20
REMARK H PARENT
REMARK Flexibility Score: inf
ROOT
ATOM      1  C   UNL     1      11.595  11.897   3.273  1.00  0.00    -0.031 C 
ATOM      2  C   UNL     1      11.659  11.131   4.371  1.00  0.00    -0.031 C 
ENDROOT
BRANCH   1   3
ATOM      3  C   UNL     1      12.690  12.881   2.961  1.00  0.00     0.027 C 
BRANCH   3   4
ATOM      4  C   UNL     1      12.119  14.177   2.371  1.00  0.00     0.004 C 
BRANCH   4   5
ATOM      5  C   UNL     1      12.634  14.463   0.949  1.00  0.00     0.000 C 
BRANCH   5   6
ATOM      6  C   UNL     1      14.174  14.438   0.828  1.00  0.00     0.000 C 
BRANCH   6   7
ATOM      7  C   UNL     1      14.804  15.816   1.095  1.00  0.00     0.000 C 
BRANCH   7   8
ATOM      8  C   UNL     1      15.929  15.765   2.146  1.00  0.00     0.006 C 
BRANCH   8   9
ATOM      9  C   UNL     1      15.492  15.230   3.521  1.00  0.00     0.053 C 
BRANCH   9  10
ATOM     10  C   UNL     1      16.269  14.014   3.925  1.00  0.00     0.041 C 
ATOM     11  O   UNL     1      15.760  13.165   4.703  1.00  0.00    -0.550 OA
ATOM     12  O   UNL     1      17.548  13.805   3.422  1.00  0.00    -0.550 OA
ENDBRANCH   9  10
ENDBRANCH   8   9
ENDBRANCH   7   8
ENDBRANCH   6   7
ENDBRANCH   5   6
ENDBRANCH   4   5
ENDBRANCH   3   4
ENDBRANCH   1   3
BRANCH   2  13
ATOM     13  C   UNL     1      10.586  10.128   4.699  1.00  0.00     0.027 C 
BRANCH  13  14
ATOM     14  C   UNL     1       9.653  10.604   5.827  1.00  0.00     0.004 C 
BRANCH  14  15
ATOM     15  C   UNL     1       8.366  11.301   5.340  1.00  0.00     0.000 C 
BRANCH  15  16
ATOM     16  C   UNL     1       8.223  12.771   5.774  1.00  0.00     0.000 C 
BRANCH  16  17
ATOM     17  C   UNL     1       9.515  13.339   6.384  1.00  0.00    -0.000 C 
BRANCH  17  18
ATOM     18  C   UNL     1      10.110  14.482   5.545  1.00  0.00    -0.000 C 
BRANCH  18  19
ATOM     19  C   UNL     1      11.521  14.876   6.004  1.00  0.00    -0.003 C 
ATOM     20  C   UNL     1      12.163  13.757   6.823  1.00  0.00     0.004 C 
ENDBRANCH  18  19
ENDBRANCH  17  18
ENDBRANCH  16  17
ENDBRANCH  15  16
ENDBRANCH  14  15
ENDBRANCH  13  14
ENDBRANCH   2  13
TORSDOF 15
ENDMDL
MODEL 3
REMARK VINA RESULT:    -4.667      1.381      3.095
REMARK INTER + INTRA:         -11.478
REMARK INTER:                  -8.979
REMARK INTRA:                  -2.499
REMARK UNBOUND:                -2.719
REMARK SMILES CCCCCCCCC=CCCCCCCCC(=O)[O-]
REMARK SMILES IDX 10 1 9 2 11 3 12 4 13 5 14 6 15 7 16 8 17 9 18 10 19 11
REMARK SMILES IDX 20 12 8 13 7 14 6 15 5 16 4 17 3 18 2 19 1 20
REMARK H PARENT
REMARK Flexibility Score: inf
ROOT
ATOM      1  C   UNL     1      10.724  11.619   3.808  1.00  0.00    -0.031 C 
ATOM      2  C   UNL     1      10.694  10.880   4.927  1.00  0.00    -0.031 C 
ENDROOT
BRANCH   1   3
ATOM      3  C   UNL     1      12.028  12.139   3.269  1.00  0.00     0.027 C 
BRANCH   3   4
ATOM      4  C   UNL     1      13.149  12.014   4.310  1.00  0.00     0.004 C 
BRANCH   4   5
ATOM      5  C   UNL     1      13.555  13.368   4.917  1.00  0.00     0.000 C 
BRANCH   5   6
ATOM      6  C   UNL     1      13.197  14.581   4.030  1.00  0.00     0.000 C 
BRANCH   6   7
ATOM      7  C   UNL     1      14.279  15.674   4.071  1.00  0.00     0.000 C 
BRANCH   7   8
ATOM      8  C   UNL     1      15.087  15.766   2.762  1.00  0.00     0.006 C 
BRANCH   8   9
ATOM      9  C   UNL     1      16.575  15.404   2.905  1.00  0.00     0.053 C 
BRANCH   9  10
ATOM     10  C   UNL     1      16.779  13.936   3.126  1.00  0.00     0.041 C 
ATOM     11  O   UNL     1      17.593  13.530   3.997  1.00  0.00    -0.550 OA
ATOM     12  O   UNL     1      16.049  13.012   2.386  1.00  0.00    -0.550 OA
ENDBRANCH   9  10
ENDBRANCH   8   9
ENDBRANCH   7   8
ENDBRANCH   6   7
ENDBRANCH   5   6
ENDBRANCH   4   5
ENDBRANCH   3   4
ENDBRANCH   1   3
BRANCH   2  13
ATOM     13  C   UNL     1       9.405  10.333   5.479  1.00  0.00     0.027 C 
BRANCH  13  14
ATOM     14  C   UNL     1       8.820  11.212   6.600  1.00  0.00     0.004 C 
BRANCH  14  15
ATOM     15  C   UNL     1       7.570  12.017   6.193  1.00  0.00     0.000 C 
BRANCH  15  16
ATOM     16  C   UNL     1       7.761  13.544   6.174  1.00  0.00     0.000 C 
BRANCH  16  17
ATOM     17  C   UNL     1       9.143  13.976   6.693  1.00  0.00    -0.000 C 
BRANCH  17  18
ATOM     18  C   UNL     1       9.950  14.755   5.642  1.00  0.00    -0.000 C 
BRANCH  18  19
ATOM     19  C   UNL     1       9.057  15.378   4.558  1.00  0.00    -0.003 C 
ATOM     20  C   UNL     1       9.518  14.959   3.163  1.00  0.00     0.004 C 
ENDBRANCH  18  19
ENDBRANCH  17  18
ENDBRANCH  16  17
ENDBRANCH  15  16
ENDBRANCH  14  15
ENDBRANCH  13  14
ENDBRANCH   2  13
TORSDOF 15
ENDMDL
MODEL 4
REMARK VINA RESULT:    -4.650      1.772      3.675
REMARK INTER + INTRA:         -11.447
REMARK INTER:                  -9.214
REMARK INTRA:                  -2.232
REMARK UNBOUND:                -2.719
REMARK SMILES CCCCCCCCC=CCCCCCCCC(=O)[O-]
REMARK SMILES IDX 10 1 9 2 11 3 12 4 13 5 14 6 15 7 16 8 17 9 18 10 19 11
REMARK SMILES IDX 20 12 8 13 7 14 6 15 5 16 4 17 3 18 2 19 1 20
REMARK H PARENT
REMARK Flexibility Score: inf
ROOT
ATOM      1  C   UNL     1       8.589  11.359   6.508  1.00  0.00    -0.031 C 
ATOM      2  C   UNL     1       7.460  12.020   6.803  1.00  0.00    -0.031 C 
ENDROOT
BRANCH   1   3
ATOM      3  C   UNL     1       8.804  10.787   5.133  1.00  0.00     0.027 C 
BRANCH   3   4
ATOM      4  C   UNL     1      10.238  10.268   4.967  1.00  0.00     0.004 C 
BRANCH   4   5
ATOM      5  C   UNL     1      11.114  11.197   4.107  1.00  0.00     0.000 C 
BRANCH   5   6
ATOM      6  C   UNL     1      12.181  11.968   4.913  1.00  0.00     0.000 C 
BRANCH   6   7
ATOM      7  C   UNL     1      13.359  12.427   4.035  1.00  0.00     0.000 C 
BRANCH   7   8
ATOM      8  C   UNL     1      14.431  13.199   4.827  1.00  0.00     0.006 C 
BRANCH   8   9
ATOM      9  C   UNL     1      15.243  14.202   3.989  1.00  0.00     0.053 C 
BRANCH   9  10
ATOM     10  C   UNL     1      16.363  13.538   3.247  1.00  0.00     0.041 C 
ATOM     11  O   UNL     1      17.554  13.682   3.631  1.00  0.00    -0.550 OA
ATOM     12  O   UNL     1      16.090  12.738   2.142  1.00  0.00    -0.550 OA
ENDBRANCH   9  10
ENDBRANCH   8   9
ENDBRANCH   7   8
ENDBRANCH   6   7
ENDBRANCH   5   6
ENDBRANCH   4   5
ENDBRANCH   3   4
ENDBRANCH   1   3
BRANCH   2  13
ATOM     13  C   UNL     1       7.226  12.616   8.165  1.00  0.00     0.027 C 
BRANCH  13  14
ATOM     14  C   UNL     1       7.140  14.152   8.134  1.00  0.00     0.004 C 
BRANCH  14  15
ATOM     15  C   UNL     1       7.702  14.798   6.852  1.00  0.00     0.000 C 
BRANCH  15  16
ATOM     16  C   UNL     1       9.186  15.200   6.926  1.00  0.00     0.000 C 
BRANCH  16  17
ATOM     17  C   UNL     1       9.969  14.819   5.658  1.00  0.00    -0.000 C 
BRANCH  17  18
ATOM     18  C   UNL     1       9.047  14.490   4.473  1.00  0.00    -0.000 C 
BRANCH  18  19
ATOM     19  C   UNL     1       9.801  14.446   3.136  1.00  0.00    -0.003 C 
ATOM     20  C   UNL     1      11.116  15.218   3.223  1.00  0.00     0.004 C 
ENDBRANCH  18  19
ENDBRANCH  17  18
ENDBRANCH  16  17
ENDBRANCH  15  16
ENDBRANCH  14  15
ENDBRANCH  13  14
ENDBRANCH   2  13
TORSDOF 15
ENDMDL
MODEL 5
REMARK VINA RESULT:    -4.599      3.614      5.470
REMARK INTER + INTRA:         -11.351
REMARK INTER:                  -8.812
REMARK INTRA:                  -2.540
REMARK UNBOUND:                -2.719
REMARK SMILES CCCCCCCCC=CCCCCCCCC(=O)[O-]
REMARK SMILES IDX 10 1 9 2 11 3 12 4 13 5 14 6 15 7 16 8 17 9 18 10 19 11
REMARK SMILES IDX 20 12 8 13 7 14 6 15 5 16 4 17 3 18 2 19 1 20
REMARK H PARENT
REMARK Flexibility Score: inf
ROOT
ATOM      1  C   UNL     1      11.077  11.742   3.651  1.00  0.00    -0.031 C 
ATOM      2  C   UNL     1      11.071  10.944   4.728  1.00  0.00    -0.031 C 
ENDROOT
BRANCH   1   3
ATOM      3  C   UNL     1      12.357  12.367   3.168  1.00  0.00     0.027 C 
BRANCH   3   4
ATOM      4  C   UNL     1      13.460  12.266   4.230  1.00  0.00     0.004 C 
BRANCH   4   5
ATOM      5  C   UNL     1      13.956  13.641   4.710  1.00  0.00     0.000 C 
BRANCH   5   6
ATOM      6  C   UNL     1      12.825  14.671   4.924  1.00  0.00     0.000 C 
BRANCH   6   7
ATOM      7  C   UNL     1      12.332  14.703   6.382  1.00  0.00     0.000 C 
BRANCH   7   8
ATOM      8  C   UNL     1      10.895  14.170   6.540  1.00  0.00     0.006 C 
BRANCH   8   9
ATOM      9  C   UNL     1       9.880  14.776   5.555  1.00  0.00     0.053 C 
BRANCH   9  10
ATOM     10  C   UNL     1       8.998  15.795   6.210  1.00  0.00     0.041 C 
ATOM     11  O   UNL     1       7.820  15.972   5.803  1.00  0.00    -0.550 OA
ATOM     12  O   UNL     1       9.470  16.534   7.289  1.00  0.00    -0.550 OA
ENDBRANCH   9  10
ENDBRANCH   8   9
ENDBRANCH   7   8
ENDBRANCH   6   7
ENDBRANCH   5   6
ENDBRANCH   4   5
ENDBRANCH   3   4
ENDBRANCH   1   3
BRANCH   2  13
ATOM     13  C   UNL     1       9.808  10.293   5.224  1.00  0.00     0.027 C 
BRANCH  13  14
ATOM     14  C   UNL     1       8.599  11.246   5.193  1.00  0.00     0.004 C 
BRANCH  14  15
ATOM     15  C   UNL     1       8.071  11.653   6.583  1.00  0.00     0.000 C 
BRANCH  15  16
ATOM     16  C   UNL     1       8.977  11.256   7.762  1.00  0.00     0.000 C 
BRANCH  16  17
ATOM     17  C   UNL     1       8.878  12.236   8.944  1.00  0.00    -0.000 C 
BRANCH  17  18
ATOM     18  C   UNL     1       7.589  12.046   9.759  1.00  0.00    -0.000 C 
BRANCH  18  19
ATOM     19  C   UNL     1       7.063  13.366  10.343  1.00  0.00    -0.003 C 
ATOM     20  C   UNL     1       7.412  14.544   9.435  1.00  0.00     0.004 C 
ENDBRANCH  18  19
ENDBRANCH  17  18
ENDBRANCH  16  17
ENDBRANCH  15  16
ENDBRANCH  14  15
ENDBRANCH  13  14
ENDBRANCH   2  13
TORSDOF 15
ENDMDL
MODEL 6
REMARK VINA RESULT:    -4.593      1.431      3.130
REMARK INTER + INTRA:         -11.339
REMARK INTER:                  -9.033
REMARK INTRA:                  -2.305
REMARK UNBOUND:                -2.719
REMARK SMILES CCCCCCCCC=CCCCCCCCC(=O)[O-]
REMARK SMILES IDX 10 1 9 2 11 3 12 4 13 5 14 6 15 7 16 8 17 9 18 10 19 11
REMARK SMILES IDX 20 12 8 13 7 14 6 15 5 16 4 17 3 18 2 19 1 20
REMARK H PARENT
REMARK Flexibility Score: inf
ROOT
ATOM      1  C   UNL     1       8.951  11.247   5.266  1.00  0.00    -0.031 C 
ATOM      2  C   UNL     1       8.606  11.241   6.561  1.00  0.00    -0.031 C 
ENDROOT
BRANCH   1   3
ATOM      3  C   UNL     1      10.035  10.336   4.758  1.00  0.00     0.027 C 
BRANCH   3   4
ATOM      4  C   UNL     1      11.365  11.087   4.607  1.00  0.00     0.004 C 
BRANCH   4   5
ATOM      5  C   UNL     1      11.338  12.130   3.477  1.00  0.00     0.000 C 
BRANCH   5   6
ATOM      6  C   UNL     1      12.737  12.501   2.938  1.00  0.00     0.000 C 
BRANCH   6   7
ATOM      7  C   UNL     1      12.934  14.023   2.822  1.00  0.00     0.000 C 
BRANCH   7   8
ATOM      8  C   UNL     1      14.358  14.410   2.380  1.00  0.00     0.006 C 
BRANCH   8   9
ATOM      9  C   UNL     1      15.390  13.274   2.493  1.00  0.00     0.053 C 
BRANCH   9  10
ATOM     10  C   UNL     1      16.352  13.496   3.620  1.00  0.00     0.041 C 
ATOM     11  O   UNL     1      16.031  13.194   4.799  1.00  0.00    -0.550 OA
ATOM     12  O   UNL     1      17.617  14.016   3.365  1.00  0.00    -0.550 OA
ENDBRANCH   9  10
ENDBRANCH   8   9
ENDBRANCH   7   8
ENDBRANCH   6   7
ENDBRANCH   5   6
ENDBRANCH   4   5
ENDBRANCH   3   4
ENDBRANCH   1   3
BRANCH   2  13
ATOM     13  C   UNL     1       7.514  12.130   7.093  1.00  0.00     0.027 C 
BRANCH  13  14
ATOM     14  C   UNL     1       7.998  13.566   7.363  1.00  0.00     0.004 C 
BRANCH  14  15
ATOM     15  C   UNL     1       7.596  14.590   6.283  1.00  0.00     0.000 C 
BRANCH  15  16
ATOM     16  C   UNL     1       8.748  15.062   5.377  1.00  0.00     0.000 C 
BRANCH  16  17
ATOM     17  C   UNL     1       9.833  15.832   6.150  1.00  0.00    -0.000 C 
BRANCH  17  18
ATOM     18  C   UNL     1      11.244  15.282   5.888  1.00  0.00    -0.000 C 
BRANCH  18  19
ATOM     19  C   UNL     1      11.529  13.995   6.675  1.00  0.00    -0.003 C 
ATOM     20  C   UNL     1      13.010  13.625   6.602  1.00  0.00     0.004 C 
ENDBRANCH  18  19
ENDBRANCH  17  18
ENDBRANCH  16  17
ENDBRANCH  15  16
ENDBRANCH  14  15
ENDBRANCH  13  14
ENDBRANCH   2  13
TORSDOF 15
ENDMDL
MODEL 7
REMARK VINA RESULT:    -4.567      3.746      6.607
REMARK INTER + INTRA:         -11.290
REMARK INTER:                  -8.689
REMARK INTRA:                  -2.600
REMARK UNBOUND:                -2.719
REMARK SMILES CCCCCCCCC=CCCCCCCCC(=O)[O-]
REMARK SMILES IDX 10 1 9 2 11 3 12 4 13 5 14 6 15 7 16 8 17 9 18 10 19 11
REMARK SMILES IDX 20 12 8 13 7 14 6 15 5 16 4 17 3 18 2 19 1 20
REMARK H PARENT
REMARK Flexibility Score: inf
ROOT
ATOM      1  C   UNL     1      12.662  14.194   5.143  1.00  0.00    -0.031 C 
ATOM      2  C   UNL     1      11.826  14.779   4.273  1.00  0.00    -0.031 C 
ENDROOT
BRANCH   1   3
ATOM      3  C   UNL     1      12.511  12.738   5.490  1.00  0.00     0.027 C 
BRANCH   3   4
ATOM      4  C   UNL     1      12.564  11.860   4.232  1.00  0.00     0.004 C 
BRANCH   4   5
ATOM      5  C   UNL     1      11.175  11.368   3.789  1.00  0.00     0.000 C 
BRANCH   5   6
ATOM      6  C   UNL     1      10.577  10.280   4.709  1.00  0.00     0.000 C 
BRANCH   6   7
ATOM      7  C   UNL     1       9.469  10.833   5.622  1.00  0.00     0.000 C 
BRANCH   7   8
ATOM      8  C   UNL     1       8.397  11.626   4.849  1.00  0.00     0.006 C 
BRANCH   8   9
ATOM      9  C   UNL     1       8.221  13.081   5.317  1.00  0.00     0.053 C 
BRANCH   9  10
ATOM     10  C   UNL     1       7.240  13.197   6.444  1.00  0.00     0.041 C 
ATOM     11  O   UNL     1       7.097  14.289   7.053  1.00  0.00    -0.550 OA
ATOM     12  O   UNL     1       6.463  12.102   6.806  1.00  0.00    -0.550 OA
ENDBRANCH   9  10
ENDBRANCH   8   9
ENDBRANCH   7   8
ENDBRANCH   6   7
ENDBRANCH   5   6
ENDBRANCH   4   5
ENDBRANCH   3   4
ENDBRANCH   1   3
BRANCH   2  13
ATOM     13  C   UNL     1      11.964  16.229   3.897  1.00  0.00     0.027 C 
BRANCH  13  14
ATOM     14  C   UNL     1      11.603  16.497   2.425  1.00  0.00     0.004 C 
BRANCH  14  15
ATOM     15  C   UNL     1      11.481  15.230   1.556  1.00  0.00     0.000 C 
BRANCH  15  16
ATOM     16  C   UNL     1      12.732  14.891   0.726  1.00  0.00     0.000 C 
BRANCH  16  17
ATOM     17  C   UNL     1      13.350  13.536   1.110  1.00  0.00    -0.000 C 
BRANCH  17  18
ATOM     18  C   UNL     1      14.715  13.686   1.802  1.00  0.00    -0.000 C 
BRANCH  18  19
ATOM     19  C   UNL     1      15.124  15.155   1.983  1.00  0.00    -0.003 C 
ATOM     20  C   UNL     1      15.616  15.415   3.405  1.00  0.00     0.004 C 
ENDBRANCH  18  19
ENDBRANCH  17  18
ENDBRANCH  16  17
ENDBRANCH  15  16
ENDBRANCH  14  15
ENDBRANCH  13  14
ENDBRANCH   2  13
TORSDOF 15
ENDMDL
MODEL 8
REMARK VINA RESULT:    -4.545      1.563      3.481
REMARK INTER + INTRA:         -11.249
REMARK INTER:                  -8.417
REMARK INTRA:                  -2.832
REMARK UNBOUND:                -2.719
REMARK SMILES CCCCCCCCC=CCCCCCCCC(=O)[O-]
REMARK SMILES IDX 10 1 9 2 11 3 12 4 13 5 14 6 15 7 16 8 17 9 18 10 19 11
REMARK SMILES IDX 20 12 8 13 7 14 6 15 5 16 4 17 3 18 2 19 1 20
REMARK H PARENT
REMARK Flexibility Score: inf
ROOT
ATOM      1  C   UNL     1       9.484  15.101   2.937  1.00  0.00    -0.031 C 
ATOM      2  C   UNL     1       8.647  15.056   3.984  1.00  0.00    -0.031 C 
ENDROOT
BRANCH   1   3
ATOM      3  C   UNL     1       9.827  16.414   2.288  1.00  0.00     0.027 C 
BRANCH   3   4
ATOM      4  C   UNL     1      11.197  16.350   1.599  1.00  0.00     0.004 C 
BRANCH   4   5
ATOM      5  C   UNL     1      11.645  14.911   1.291  1.00  0.00     0.000 C 
BRANCH   5   6
ATOM      6  C   UNL     1      13.156  14.779   0.999  1.00  0.00     0.000 C 
BRANCH   6   7
ATOM      7  C   UNL     1      14.012  15.638   1.947  1.00  0.00     0.000 C 
BRANCH   7   8
ATOM      8  C   UNL     1      15.457  15.122   2.081  1.00  0.00     0.006 C 
BRANCH   8   9
ATOM      9  C   UNL     1      15.570  13.648   2.507  1.00  0.00     0.053 C 
BRANCH   9  10
ATOM     10  C   UNL     1      16.433  13.476   3.720  1.00  0.00     0.041 C 
ATOM     11  O   UNL     1      17.681  13.628   3.638  1.00  0.00    -0.550 OA
ATOM     12  O   UNL     1      15.857  13.172   4.948  1.00  0.00    -0.550 OA
ENDBRANCH   9  10
ENDBRANCH   8   9
ENDBRANCH   7   8
ENDBRANCH   6   7
ENDBRANCH   5   6
ENDBRANCH   4   5
ENDBRANCH   3   4
ENDBRANCH   1   3
BRANCH   2  13
ATOM     13  C   UNL     1       8.299  13.759   4.663  1.00  0.00     0.027 C 
BRANCH  13  14
ATOM     14  C   UNL     1       8.600  12.531   3.785  1.00  0.00     0.004 C 
BRANCH  14  15
ATOM     15  C   UNL     1       9.000  11.266   4.571  1.00  0.00     0.000 C 
BRANCH  15  16
ATOM     16  C   UNL     1      10.470  10.841   4.411  1.00  0.00     0.000 C 
BRANCH  16  17
ATOM     17  C   UNL     1      11.280  11.820   3.543  1.00  0.00    -0.000 C 
BRANCH  17  18
ATOM     18  C   UNL     1      12.538  12.338   4.258  1.00  0.00    -0.000 C 
BRANCH  18  19
ATOM     19  C   UNL     1      12.385  13.788   4.743  1.00  0.00    -0.003 C 
ATOM     20  C   UNL     1      11.964  13.833   6.210  1.00  0.00     0.004 C 
ENDBRANCH  18  19
ENDBRANCH  17  18
ENDBRANCH  16  17
ENDBRANCH  15  16
ENDBRANCH  14  15
ENDBRANCH  13  14
ENDBRANCH   2  13
TORSDOF 15
ENDMDL
MODEL 9
REMARK VINA RESULT:    -4.518      3.491      6.520
REMARK INTER + INTRA:         -11.199
REMARK INTER:                  -8.643
REMARK INTRA:                  -2.556
REMARK UNBOUND:                -2.719
REMARK SMILES CCCCCCCCC=CCCCCCCCC(=O)[O-]
REMARK SMILES IDX 10 1 9 2 11 3 12 4 13 5 14 6 15 7 16 8 17 9 18 10 19 11
REMARK SMILES IDX 20 12 8 13 7 14 6 15 5 16 4 17 3 18 2 19 1 20
REMARK H PARENT
REMARK Flexibility Score: inf
ROOT
ATOM      1  C   UNL     1      12.392  12.046   3.717  1.00  0.00    -0.031 C 
ATOM      2  C   UNL     1      12.967  12.939   4.535  1.00  0.00    -0.031 C 
ENDROOT
BRANCH   1   3
ATOM      3  C   UNL     1      10.963  11.625   3.925  1.00  0.00     0.027 C 
BRANCH   3   4
ATOM      4  C   UNL     1      10.879  10.331   4.744  1.00  0.00     0.004 C 
BRANCH   4   5
ATOM      5  C   UNL     1       9.720  10.337   5.756  1.00  0.00     0.000 C 
BRANCH   5   6
ATOM      6  C   UNL     1       8.560  11.280   5.366  1.00  0.00     0.000 C 
BRANCH   6   7
ATOM      7  C   UNL     1       8.117  12.176   6.537  1.00  0.00     0.000 C 
BRANCH   7   8
ATOM      8  C   UNL     1       9.300  12.872   7.237  1.00  0.00     0.006 C 
BRANCH   8   9
ATOM      9  C   UNL     1       9.639  14.265   6.679  1.00  0.00     0.053 C 
BRANCH   9  10
ATOM     10  C   UNL     1       8.553  15.261   6.949  1.00  0.00     0.041 C 
ATOM     11  O   UNL     1       8.208  15.521   8.132  1.00  0.00    -0.550 OA
ATOM     12  O   UNL     1       7.935  15.922   5.893  1.00  0.00    -0.550 OA
ENDBRANCH   9  10
ENDBRANCH   8   9
ENDBRANCH   7   8
ENDBRANCH   6   7
ENDBRANCH   5   6
ENDBRANCH   4   5
ENDBRANCH   3   4
ENDBRANCH   1   3
BRANCH   2  13
ATOM     13  C   UNL     1      14.390  13.389   4.340  1.00  0.00     0.027 C 
BRANCH  13  14
ATOM     14  C   UNL     1      14.913  13.103   2.922  1.00  0.00     0.004 C 
BRANCH  14  15
ATOM     15  C   UNL     1      14.644  14.228   1.902  1.00  0.00     0.000 C 
BRANCH  15  16
ATOM     16  C   UNL     1      13.788  13.813   0.692  1.00  0.00     0.000 C 
BRANCH  16  17
ATOM     17  C   UNL     1      12.493  14.634   0.571  1.00  0.00    -0.000 C 
BRANCH  17  18
ATOM     18  C   UNL     1      12.368  15.701   1.671  1.00  0.00    -0.000 C 
BRANCH  18  19
ATOM     19  C   UNL     1      11.125  15.496   2.551  1.00  0.00    -0.003 C 
ATOM     20  C   UNL     1      11.312  16.144   3.921  1.00  0.00     0.004 C 
ENDBRANCH  18  19
ENDBRANCH  17  18
ENDBRANCH  16  17
ENDBRANCH  15  16
ENDBRANCH  14  15
ENDBRANCH  13  14
ENDBRANCH   2  13
TORSDOF 15
ENDMDL
