MODEL 1
REMARK VINA RESULT:    -5.535      0.000      0.000
REMARK INTER + INTRA:         -16.233
REMARK INTER:                 -12.654
REMARK INTRA:                  -3.579
REMARK UNBOUND:                -3.579
REMARK SMILES CCCCCCCCCCCCCCCCCCCCCCCC(=O)[O-]
REMARK SMILES IDX 13 1 14 2 15 3 16 4 17 5 18 6 19 7 20 8 21 9 22 10 23 11
REMARK SMILES IDX 24 12 25 13 26 14 12 15 11 16 10 17 9 18 8 19 7 20 6 21 5 22
REMARK SMILES IDX 4 23 3 24 2 25 1 26
REMARK H PARENT
REMARK Flexibility Score: inf
ROOT
ATOM      1  C   UNL     1     -19.731  56.628  -3.343  1.00  0.00     0.000 C 
ENDROOT
BRANCH   1   2
ATOM      2  C   UNL     1     -20.581  55.411  -2.954  1.00  0.00     0.000 C 
BRANCH   2   3
ATOM      3  C   UNL     1     -22.064  55.784  -2.832  1.00  0.00     0.000 C 
BRANCH   3   4
ATOM      4  C   UNL     1     -22.854  54.665  -2.144  1.00  0.00     0.000 C 
BRANCH   4   5
ATOM      5  C   UNL     1     -21.920  53.726  -1.369  1.00  0.00     0.000 C 
BRANCH   5   6
ATOM      6  C   UNL     1     -22.256  53.665   0.129  1.00  0.00     0.000 C 
BRANCH   6   7
ATOM      7  C   UNL     1     -23.312  54.709   0.539  1.00  0.00     0.000 C 
BRANCH   7   8
ATOM      8  C   UNL     1     -22.721  55.815   1.442  1.00  0.00     0.000 C 
BRANCH   8   9
ATOM      9  C   UNL     1     -22.335  57.093   0.676  1.00  0.00     0.000 C 
BRANCH   9  10
ATOM     10  C   UNL     1     -23.554  57.900   0.207  1.00  0.00     0.006 C 
BRANCH  10  11
ATOM     11  C   UNL     1     -24.495  58.206   1.376  1.00  0.00     0.053 C 
BRANCH  11  12
ATOM     12  C   UNL     1     -23.801  59.028   2.418  1.00  0.00     0.041 C 
ATOM     13  O   UNL     1     -23.775  58.643   3.618  1.00  0.00    -0.550 OA
ATOM     14  O   UNL     1     -23.203  60.236   2.069  1.00  0.00    -0.550 OA
ENDBRANCH  11  12
ENDBRANCH  10  11
ENDBRANCH   9  10
ENDBRANCH   8   9
ENDBRANCH   7   8
ENDBRANCH   6   7
ENDBRANCH   5   6
ENDBRANCH   4   5
ENDBRANCH   3   4
ENDBRANCH   2   3
ENDBRANCH   1   2
BRANCH   1  15
ATOM     15  C   UNL     1     -18.390  56.240  -3.989  1.00  0.00     0.000 C 
BRANCH  15  16
ATOM     16  C   UNL     1     -17.182  56.358  -3.036  1.00  0.00     0.000 C 
BRANCH  16  17
ATOM     17  C   UNL     1     -16.602  54.984  -2.652  1.00  0.00     0.000 C 
BRANCH  17  18
ATOM     18  C   UNL     1     -17.494  54.218  -1.663  1.00  0.00    -0.000 C 
BRANCH  18  19
ATOM     19  C   UNL     1     -16.827  54.033  -0.288  1.00  0.00    -0.000 C 
BRANCH  19  20
ATOM     20  C   UNL     1     -17.622  54.707   0.842  1.00  0.00    -0.000 C 
BRANCH  20  21
ATOM     21  C   UNL     1     -18.719  55.645   0.306  1.00  0.00    -0.000 C 
BRANCH  21  22
ATOM     22  C   UNL     1     -18.378  57.132   0.497  1.00  0.00    -0.000 C 
BRANCH  22  23
ATOM     23  C   UNL     1     -16.966  57.412   1.047  1.00  0.00    -0.000 C 
BRANCH  23  24
ATOM     24  C   UNL     1     -15.989  57.987  -0.001  1.00  0.00    -0.000 C 
BRANCH  24  25
ATOM     25  C   UNL     1     -15.302  59.275   0.480  1.00  0.00    -0.003 C 
ATOM     26  C   UNL     1     -14.035  58.960   1.267  1.00  0.00     0.004 C 
ENDBRANCH  24  25
ENDBRANCH  23  24
ENDBRANCH  22  23
ENDBRANCH  21  22
ENDBRANCH  20  21
ENDBRANCH  19  20
ENDBRANCH  18  19
ENDBRANCH  17  18
ENDBRANCH  16  17
ENDBRANCH  15  16
ENDBRANCH   1  15
TORSDOF 22
ENDMDL
MODEL 2
REMARK VINA RESULT:    -5.494      1.500      2.029
REMARK INTER + INTRA:         -16.139
REMARK INTER:                 -12.461
REMARK INTRA:                  -3.678
REMARK UNBOUND:                -3.579
REMARK SMILES CCCCCCCCCCCCCCCCCCCCCCCC(=O)[O-]
REMARK SMILES IDX 13 1 14 2 15 3 16 4 17 5 18 6 19 7 20 8 21 9 22 10 23 11
REMARK SMILES IDX 24 12 25 13 26 14 12 15 11 16 10 17 9 18 8 19 7 20 6 21 5 22
REMARK SMILES IDX 4 23 3 24 2 25 1 26
REMARK H PARENT
REMARK Flexibility Score: inf
ROOT
ATOM      1  C   UNL     1     -19.069  56.553  -3.015  1.00  0.00     0.000 C 
ENDROOT
BRANCH   1   2
ATOM      2  C   UNL     1     -20.456  56.635  -3.667  1.00  0.00     0.000 C 
BRANCH   2   3
ATOM      3  C   UNL     1     -21.569  56.416  -2.634  1.00  0.00     0.000 C 
BRANCH   3   4
ATOM      4  C   UNL     1     -22.520  55.301  -3.083  1.00  0.00     0.000 C 
BRANCH   4   5
ATOM      5  C   UNL     1     -23.496  54.923  -1.961  1.00  0.00     0.000 C 
BRANCH   5   6
ATOM      6  C   UNL     1     -24.965  55.031  -2.396  1.00  0.00     0.000 C 
BRANCH   6   7
ATOM      7  C   UNL     1     -25.903  55.378  -1.224  1.00  0.00     0.000 C 
BRANCH   7   8
ATOM      8  C   UNL     1     -25.128  55.872   0.018  1.00  0.00     0.000 C 
BRANCH   8   9
ATOM      9  C   UNL     1     -25.135  57.402   0.179  1.00  0.00     0.000 C 
BRANCH   9  10
ATOM     10  C   UNL     1     -23.732  58.020   0.079  1.00  0.00     0.006 C 
BRANCH  10  11
ATOM     11  C   UNL     1     -22.722  57.232   0.918  1.00  0.00     0.053 C 
BRANCH  11  12
ATOM     12  C   UNL     1     -22.483  57.904   2.235  1.00  0.00     0.041 C 
ATOM     13  O   UNL     1     -23.404  57.963   3.094  1.00  0.00    -0.550 OA
ATOM     14  O   UNL     1     -21.250  58.489   2.506  1.00  0.00    -0.550 OA
ENDBRANCH  11  12
ENDBRANCH  10  11
ENDBRANCH   9  10
ENDBRANCH   8   9
ENDBRANCH   7   8
ENDBRANCH   6   7
ENDBRANCH   5   6
ENDBRANCH   4   5
ENDBRANCH   3   4
ENDBRANCH   2   3
ENDBRANCH   1   2
BRANCH   1  15
ATOM     15  C   UNL     1     -18.165  55.491  -3.664  1.00  0.00     0.000 C 
BRANCH  15  16
ATOM     16  C   UNL     1     -18.048  54.188  -2.845  1.00  0.00     0.000 C 
BRANCH  16  17
ATOM     17  C   UNL     1     -19.339  53.350  -2.888  1.00  0.00     0.000 C 
BRANCH  17  18
ATOM     18  C   UNL     1     -19.930  53.096  -1.493  1.00  0.00    -0.000 C 
BRANCH  18  19
ATOM     19  C   UNL     1     -19.116  53.772  -0.375  1.00  0.00    -0.000 C 
BRANCH  19  20
ATOM     20  C   UNL     1     -19.805  55.035   0.167  1.00  0.00    -0.000 C 
BRANCH  20  21
ATOM     21  C   UNL     1     -18.797  56.147   0.514  1.00  0.00    -0.000 C 
BRANCH  21  22
ATOM     22  C   UNL     1     -17.341  55.653   0.514  1.00  0.00    -0.000 C 
BRANCH  22  23
ATOM     23  C   UNL     1     -16.290  56.721   0.149  1.00  0.00    -0.000 C 
BRANCH  23  24
ATOM     24  C   UNL     1     -16.336  57.975   1.049  1.00  0.00    -0.000 C 
BRANCH  24  25
ATOM     25  C   UNL     1     -15.432  59.103   0.530  1.00  0.00    -0.003 C 
ATOM     26  C   UNL     1     -14.055  59.050   1.184  1.00  0.00     0.004 C 
ENDBRANCH  24  25
ENDBRANCH  23  24
ENDBRANCH  22  23
ENDBRANCH  21  22
ENDBRANCH  20  21
ENDBRANCH  19  20
ENDBRANCH  18  19
ENDBRANCH  17  18
ENDBRANCH  16  17
ENDBRANCH  15  16
ENDBRANCH   1  15
TORSDOF 22
ENDMDL
MODEL 3
REMARK VINA RESULT:    -5.413      2.274      6.794
REMARK INTER + INTRA:         -15.953
REMARK INTER:                 -11.951
REMARK INTRA:                  -4.002
REMARK UNBOUND:                -3.579
REMARK SMILES CCCCCCCCCCCCCCCCCCCCCCCC(=O)[O-]
REMARK SMILES IDX 13 1 14 2 15 3 16 4 17 5 18 6 19 7 20 8 21 9 22 10 23 11
REMARK SMILES IDX 24 12 25 13 26 14 12 15 11 16 10 17 9 18 8 19 7 20 6 21 5 22
REMARK SMILES IDX 4 23 3 24 2 25 1 26
REMARK H PARENT
REMARK Flexibility Score: inf
ROOT
ATOM      1  C   UNL     1     -25.290  55.839  -2.382  1.00  0.00     0.000 C 
ENDROOT
BRANCH   1   2
ATOM      2  C   UNL     1     -23.912  55.192  -2.581  1.00  0.00     0.000 C 
BRANCH   2   3
ATOM      3  C   UNL     1     -22.792  56.238  -2.510  1.00  0.00     0.000 C 
BRANCH   3   4
ATOM      4  C   UNL     1     -21.581  55.800  -3.342  1.00  0.00     0.000 C 
BRANCH   4   5
ATOM      5  C   UNL     1     -20.268  56.211  -2.664  1.00  0.00     0.000 C 
BRANCH   5   6
ATOM      6  C   UNL     1     -19.216  56.707  -3.668  1.00  0.00     0.000 C 
BRANCH   6   7
ATOM      7  C   UNL     1     -18.176  55.625  -4.015  1.00  0.00     0.000 C 
BRANCH   7   8
ATOM      8  C   UNL     1     -17.005  55.596  -3.008  1.00  0.00     0.000 C 
BRANCH   8   9
ATOM      9  C   UNL     1     -17.076  54.423  -2.015  1.00  0.00     0.000 C 
BRANCH   9  10
ATOM     10  C   UNL     1     -16.758  54.840  -0.572  1.00  0.00     0.006 C 
BRANCH  10  11
ATOM     11  C   UNL     1     -17.982  55.469   0.102  1.00  0.00     0.053 C 
BRANCH  11  12
ATOM     12  C   UNL     1     -17.761  56.929   0.352  1.00  0.00     0.041 C 
ATOM     13  O   UNL     1     -16.664  57.467   0.043  1.00  0.00    -0.550 OA
ATOM     14  O   UNL     1     -18.759  57.693   0.951  1.00  0.00    -0.550 OA
ENDBRANCH  11  12
ENDBRANCH  10  11
ENDBRANCH   9  10
ENDBRANCH   8   9
ENDBRANCH   7   8
ENDBRANCH   6   7
ENDBRANCH   5   6
ENDBRANCH   4   5
ENDBRANCH   3   4
ENDBRANCH   2   3
ENDBRANCH   1   2
BRANCH   1  15
ATOM     15  C   UNL     1     -25.967  55.411  -1.069  1.00  0.00     0.000 C 
BRANCH  15  16
ATOM     16  C   UNL     1     -26.097  56.551  -0.035  1.00  0.00     0.000 C 
BRANCH  16  17
ATOM     17  C   UNL     1     -25.556  57.890  -0.568  1.00  0.00     0.000 C 
BRANCH  17  18
ATOM     18  C   UNL     1     -24.333  58.391   0.215  1.00  0.00    -0.000 C 
BRANCH  18  19
ATOM     19  C   UNL     1     -24.179  57.694   1.578  1.00  0.00    -0.000 C 
BRANCH  19  20
ATOM     20  C   UNL     1     -22.748  57.183   1.815  1.00  0.00    -0.000 C 
BRANCH  20  21
ATOM     21  C   UNL     1     -22.346  56.085   0.812  1.00  0.00    -0.000 C 
BRANCH  21  22
ATOM     22  C   UNL     1     -23.155  54.790   0.990  1.00  0.00    -0.000 C 
BRANCH  22  23
ATOM     23  C   UNL     1     -22.489  53.521   0.420  1.00  0.00    -0.000 C 
BRANCH  23  24
ATOM     24  C   UNL     1     -21.129  53.783  -0.263  1.00  0.00    -0.000 C 
BRANCH  24  25
ATOM     25  C   UNL     1     -20.839  52.786  -1.395  1.00  0.00    -0.003 C 
ATOM     26  C   UNL     1     -19.867  51.703  -0.939  1.00  0.00     0.004 C 
ENDBRANCH  24  25
ENDBRANCH  23  24
ENDBRANCH  22  23
ENDBRANCH  21  22
ENDBRANCH  20  21
ENDBRANCH  19  20
ENDBRANCH  18  19
ENDBRANCH  17  18
ENDBRANCH  16  17
ENDBRANCH  15  16
ENDBRANCH   1  15
TORSDOF 22
ENDMDL
MODEL 4
REMARK VINA RESULT:    -5.257      2.505      6.188
REMARK INTER + INTRA:         -15.596
REMARK INTER:                 -11.245
REMARK INTRA:                  -4.351
REMARK UNBOUND:                -3.579
REMARK SMILES CCCCCCCCCCCCCCCCCCCCCCCC(=O)[O-]
REMARK SMILES IDX 13 1 14 2 15 3 16 4 17 5 18 6 19 7 20 8 21 9 22 10 23 11
REMARK SMILES IDX 24 12 25 13 26 14 12 15 11 16 10 17 9 18 8 19 7 20 6 21 5 22
REMARK SMILES IDX 4 23 3 24 2 25 1 26
REMARK H PARENT
REMARK Flexibility Score: inf
ROOT
ATOM      1  C   UNL     1     -22.496  56.182  -1.977  1.00  0.00     0.000 C 
ENDROOT
BRANCH   1   2
ATOM      2  C   UNL     1     -21.375  57.050  -2.567  1.00  0.00     0.000 C 
BRANCH   2   3
ATOM      3  C   UNL     1     -20.554  56.269  -3.600  1.00  0.00     0.000 C 
BRANCH   3   4
ATOM      4  C   UNL     1     -19.075  56.672  -3.542  1.00  0.00     0.000 C 
BRANCH   4   5
ATOM      5  C   UNL     1     -18.170  55.436  -3.448  1.00  0.00     0.000 C 
BRANCH   5   6
ATOM      6  C   UNL     1     -18.969  54.128  -3.341  1.00  0.00     0.000 C 
BRANCH   6   7
ATOM      7  C   UNL     1     -18.696  53.377  -2.024  1.00  0.00     0.000 C 
BRANCH   7   8
ATOM      8  C   UNL     1     -17.749  54.162  -1.089  1.00  0.00     0.000 C 
BRANCH   8   9
ATOM      9  C   UNL     1     -18.469  54.835   0.093  1.00  0.00     0.000 C 
BRANCH   9  10
ATOM     10  C   UNL     1     -17.625  55.929   0.764  1.00  0.00     0.006 C 
BRANCH  10  11
ATOM     11  C   UNL     1     -16.935  56.810  -0.281  1.00  0.00     0.053 C 
BRANCH  11  12
ATOM     12  C   UNL     1     -16.110  57.872   0.378  1.00  0.00     0.041 C 
ATOM     13  O   UNL     1     -16.271  58.135   1.600  1.00  0.00    -0.550 OA
ATOM     14  O   UNL     1     -15.178  58.592  -0.364  1.00  0.00    -0.550 OA
ENDBRANCH  11  12
ENDBRANCH  10  11
ENDBRANCH   9  10
ENDBRANCH   8   9
ENDBRANCH   7   8
ENDBRANCH   6   7
ENDBRANCH   5   6
ENDBRANCH   4   5
ENDBRANCH   3   4
ENDBRANCH   2   3
ENDBRANCH   1   2
BRANCH   1  15
ATOM     15  C   UNL     1     -22.571  54.786  -2.617  1.00  0.00     0.000 C 
BRANCH  15  16
ATOM     16  C   UNL     1     -22.292  53.632  -1.631  1.00  0.00     0.000 C 
BRANCH  16  17
ATOM     17  C   UNL     1     -21.958  54.138  -0.216  1.00  0.00     0.000 C 
BRANCH  17  18
ATOM     18  C   UNL     1     -22.985  53.687   0.835  1.00  0.00    -0.000 C 
BRANCH  18  19
ATOM     19  C   UNL     1     -23.862  54.848   1.338  1.00  0.00    -0.000 C 
BRANCH  19  20
ATOM     20  C   UNL     1     -25.185  54.959   0.562  1.00  0.00    -0.000 C 
BRANCH  20  21
ATOM     21  C   UNL     1     -25.369  56.346  -0.083  1.00  0.00    -0.000 C 
BRANCH  21  22
ATOM     22  C   UNL     1     -24.986  57.498   0.861  1.00  0.00    -0.000 C 
BRANCH  22  23
ATOM     23  C   UNL     1     -23.852  58.409   0.351  1.00  0.00    -0.000 C 
BRANCH  23  24
ATOM     24  C   UNL     1     -22.985  59.017   1.475  1.00  0.00    -0.000 C 
BRANCH  24  25
ATOM     25  C   UNL     1     -22.092  57.971   2.158  1.00  0.00    -0.003 C 
ATOM     26  C   UNL     1     -21.053  57.417   1.188  1.00  0.00     0.004 C 
ENDBRANCH  24  25
ENDBRANCH  23  24
ENDBRANCH  22  23
ENDBRANCH  21  22
ENDBRANCH  20  21
ENDBRANCH  19  20
ENDBRANCH  18  19
ENDBRANCH  17  18
ENDBRANCH  16  17
ENDBRANCH  15  16
ENDBRANCH   1  15
TORSDOF 22
ENDMDL
MODEL 5
REMARK VINA RESULT:    -5.255      3.073      4.924
REMARK INTER + INTRA:         -15.593
REMARK INTER:                 -11.882
REMARK INTRA:                  -3.711
REMARK UNBOUND:                -3.579
REMARK SMILES CCCCCCCCCCCCCCCCCCCCCCCC(=O)[O-]
REMARK SMILES IDX 13 1 14 2 15 3 16 4 17 5 18 6 19 7 20 8 21 9 22 10 23 11
REMARK SMILES IDX 24 12 25 13 26 14 12 15 11 16 10 17 9 18 8 19 7 20 6 21 5 22
REMARK SMILES IDX 4 23 3 24 2 25 1 26
REMARK H PARENT
REMARK Flexibility Score: inf
ROOT
ATOM      1  C   UNL     1     -22.228  56.560  -2.403  1.00  0.00     0.000 C 
ENDROOT
BRANCH   1   2
ATOM      2  C   UNL     1     -23.002  57.859  -2.142  1.00  0.00     0.000 C 
BRANCH   2   3
ATOM      3  C   UNL     1     -24.336  57.580  -1.439  1.00  0.00     0.000 C 
BRANCH   3   4
ATOM      4  C   UNL     1     -25.165  56.556  -2.224  1.00  0.00     0.000 C 
BRANCH   4   5
ATOM      5  C   UNL     1     -25.804  55.526  -1.284  1.00  0.00     0.000 C 
BRANCH   5   6
ATOM      6  C   UNL     1     -25.370  55.713   0.177  1.00  0.00     0.000 C 
BRANCH   6   7
ATOM      7  C   UNL     1     -25.354  54.387   0.962  1.00  0.00     0.000 C 
BRANCH   7   8
ATOM      8  C   UNL     1     -23.919  53.929   1.305  1.00  0.00     0.000 C 
BRANCH   8   9
ATOM      9  C   UNL     1     -22.845  54.527   0.381  1.00  0.00     0.000 C 
BRANCH   9  10
ATOM     10  C   UNL     1     -22.145  53.470  -0.486  1.00  0.00     0.006 C 
BRANCH  10  11
ATOM     11  C   UNL     1     -20.622  53.593  -0.381  1.00  0.00     0.053 C 
BRANCH  11  12
ATOM     12  C   UNL     1     -19.944  52.533  -1.194  1.00  0.00     0.041 C 
ATOM     13  O   UNL     1     -19.617  52.762  -2.389  1.00  0.00    -0.550 OA
ATOM     14  O   UNL     1     -19.696  51.281  -0.639  1.00  0.00    -0.550 OA
ENDBRANCH  11  12
ENDBRANCH  10  11
ENDBRANCH   9  10
ENDBRANCH   8   9
ENDBRANCH   7   8
ENDBRANCH   6   7
ENDBRANCH   5   6
ENDBRANCH   4   5
ENDBRANCH   3   4
ENDBRANCH   2   3
ENDBRANCH   1   2
BRANCH   1  15
ATOM     15  C   UNL     1     -21.059  56.747  -3.384  1.00  0.00     0.000 C 
BRANCH  15  16
ATOM     16  C   UNL     1     -19.729  56.136  -2.893  1.00  0.00     0.000 C 
BRANCH  16  17
ATOM     17  C   UNL     1     -18.509  56.718  -3.629  1.00  0.00     0.000 C 
BRANCH  17  18
ATOM     18  C   UNL     1     -17.222  56.657  -2.791  1.00  0.00    -0.000 C 
BRANCH  18  19
ATOM     19  C   UNL     1     -17.363  55.744  -1.560  1.00  0.00    -0.000 C 
BRANCH  19  20
ATOM     20  C   UNL     1     -16.522  56.233  -0.370  1.00  0.00    -0.000 C 
BRANCH  20  21
ATOM     21  C   UNL     1     -17.379  56.928   0.705  1.00  0.00    -0.000 C 
BRANCH  21  22
ATOM     22  C   UNL     1     -18.886  56.701   0.506  1.00  0.00    -0.000 C 
BRANCH  22  23
ATOM     23  C   UNL     1     -19.800  57.704   1.237  1.00  0.00    -0.000 C 
BRANCH  23  24
ATOM     24  C   UNL     1     -21.298  57.333   1.191  1.00  0.00    -0.000 C 
BRANCH  24  25
ATOM     25  C   UNL     1     -22.163  58.275   2.043  1.00  0.00    -0.003 C 
ATOM     26  C   UNL     1     -23.433  57.576   2.518  1.00  0.00     0.004 C 
ENDBRANCH  24  25
ENDBRANCH  23  24
ENDBRANCH  22  23
ENDBRANCH  21  22
ENDBRANCH  20  21
ENDBRANCH  19  20
ENDBRANCH  18  19
ENDBRANCH  17  18
ENDBRANCH  16  17
ENDBRANCH  15  16
ENDBRANCH   1  15
TORSDOF 22
ENDMDL
MODEL 6
REMARK VINA RESULT:    -5.246      1.796      2.165
REMARK INTER + INTRA:         -15.571
REMARK INTER:                 -11.698
REMARK INTRA:                  -3.874
REMARK UNBOUND:                -3.579
REMARK SMILES CCCCCCCCCCCCCCCCCCCCCCCC(=O)[O-]
REMARK SMILES IDX 13 1 14 2 15 3 16 4 17 5 18 6 19 7 20 8 21 9 22 10 23 11
REMARK SMILES IDX 24 12 25 13 26 14 12 15 11 16 10 17 9 18 8 19 7 20 6 21 5 22
REMARK SMILES IDX 4 23 3 24 2 25 1 26
REMARK H PARENT
REMARK Flexibility Score: inf
ROOT
ATOM      1  C   UNL     1     -20.370  56.643  -3.627  1.00  0.00     0.000 C 
ENDROOT
BRANCH   1   2
ATOM      2  C   UNL     1     -21.305  56.330  -2.451  1.00  0.00     0.000 C 
BRANCH   2   3
ATOM      3  C   UNL     1     -22.014  54.985  -2.649  1.00  0.00     0.000 C 
BRANCH   3   4
ATOM      4  C   UNL     1     -23.093  54.773  -1.579  1.00  0.00     0.000 C 
BRANCH   4   5
ATOM      5  C   UNL     1     -22.649  53.726  -0.549  1.00  0.00     0.000 C 
BRANCH   5   6
ATOM      6  C   UNL     1     -22.986  54.138   0.892  1.00  0.00     0.000 C 
BRANCH   6   7
ATOM      7  C   UNL     1     -23.797  55.446   0.957  1.00  0.00     0.000 C 
BRANCH   7   8
ATOM      8  C   UNL     1     -23.014  56.586   1.646  1.00  0.00     0.000 C 
BRANCH   8   9
ATOM      9  C   UNL     1     -22.626  57.730   0.692  1.00  0.00     0.000 C 
BRANCH   9  10
ATOM     10  C   UNL     1     -23.841  58.507   0.165  1.00  0.00     0.006 C 
BRANCH  10  11
ATOM     11  C   UNL     1     -23.873  58.508  -1.366  1.00  0.00     0.053 C 
BRANCH  11  12
ATOM     12  C   UNL     1     -24.125  59.886  -1.894  1.00  0.00     0.041 C 
ATOM     13  O   UNL     1     -25.301  60.265  -2.145  1.00  0.00    -0.550 OA
ATOM     14  O   UNL     1     -23.058  60.747  -2.135  1.00  0.00    -0.550 OA
ENDBRANCH  11  12
ENDBRANCH  10  11
ENDBRANCH   9  10
ENDBRANCH   8   9
ENDBRANCH   7   8
ENDBRANCH   6   7
ENDBRANCH   5   6
ENDBRANCH   4   5
ENDBRANCH   3   4
ENDBRANCH   2   3
ENDBRANCH   1   2
BRANCH   1  15
ATOM     15  C   UNL     1     -18.885  56.654  -3.224  1.00  0.00     0.000 C 
BRANCH  15  16
ATOM     16  C   UNL     1     -18.035  55.589  -3.950  1.00  0.00     0.000 C 
BRANCH  16  17
ATOM     17  C   UNL     1     -18.481  54.155  -3.614  1.00  0.00     0.000 C 
BRANCH  17  18
ATOM     18  C   UNL     1     -18.002  53.691  -2.229  1.00  0.00    -0.000 C 
BRANCH  18  19
ATOM     19  C   UNL     1     -19.159  53.206  -1.338  1.00  0.00    -0.000 C 
BRANCH  19  20
ATOM     20  C   UNL     1     -19.005  53.668   0.121  1.00  0.00    -0.000 C 
BRANCH  20  21
ATOM     21  C   UNL     1     -18.133  54.931   0.245  1.00  0.00    -0.000 C 
BRANCH  21  22
ATOM     22  C   UNL     1     -18.960  56.208   0.469  1.00  0.00    -0.000 C 
BRANCH  22  23
ATOM     23  C   UNL     1     -18.143  57.514   0.522  1.00  0.00    -0.000 C 
BRANCH  23  24
ATOM     24  C   UNL     1     -16.828  57.397   1.324  1.00  0.00    -0.000 C 
BRANCH  24  25
ATOM     25  C   UNL     1     -15.591  57.728   0.476  1.00  0.00    -0.003 C 
ATOM     26  C   UNL     1     -14.973  59.056   0.901  1.00  0.00     0.004 C 
ENDBRANCH  24  25
ENDBRANCH  23  24
ENDBRANCH  22  23
ENDBRANCH  21  22
ENDBRANCH  20  21
ENDBRANCH  19  20
ENDBRANCH  18  19
ENDBRANCH  17  18
ENDBRANCH  16  17
ENDBRANCH  15  16
ENDBRANCH   1  15
TORSDOF 22
ENDMDL
MODEL 7
REMARK VINA RESULT:    -5.175      2.871      5.930
REMARK INTER + INTRA:         -15.410
REMARK INTER:                 -11.349
REMARK INTRA:                  -4.061
REMARK UNBOUND:                -3.579
REMARK SMILES CCCCCCCCCCCCCCCCCCCCCCCC(=O)[O-]
REMARK SMILES IDX 13 1 14 2 15 3 16 4 17 5 18 6 19 7 20 8 21 9 22 10 23 11
REMARK SMILES IDX 24 12 25 13 26 14 12 15 11 16 10 17 9 18 8 19 7 20 6 21 5 22
REMARK SMILES IDX 4 23 3 24 2 25 1 26
REMARK H PARENT
REMARK Flexibility Score: inf
ROOT
ATOM      1  C   UNL     1     -23.280  58.978  -1.730  1.00  0.00     0.000 C 
ENDROOT
BRANCH   1   2
ATOM      2  C   UNL     1     -24.752  59.398  -1.838  1.00  0.00     0.000 C 
BRANCH   2   3
ATOM      3  C   UNL     1     -25.317  59.798  -0.469  1.00  0.00     0.000 C 
BRANCH   3   4
ATOM      4  C   UNL     1     -24.207  59.846   0.588  1.00  0.00     0.000 C 
BRANCH   4   5
ATOM      5  C   UNL     1     -24.576  59.000   1.814  1.00  0.00     0.000 C 
BRANCH   5   6
ATOM      6  C   UNL     1     -23.340  58.460   2.549  1.00  0.00     0.000 C 
BRANCH   6   7
ATOM      7  C   UNL     1     -22.631  57.339   1.766  1.00  0.00     0.000 C 
BRANCH   7   8
ATOM      8  C   UNL     1     -21.173  57.708   1.411  1.00  0.00     0.000 C 
BRANCH   8   9
ATOM      9  C   UNL     1     -20.446  56.626   0.592  1.00  0.00     0.000 C 
BRANCH   9  10
ATOM     10  C   UNL     1     -18.934  56.870   0.488  1.00  0.00     0.006 C 
BRANCH  10  11
ATOM     11  C   UNL     1     -18.161  55.547   0.502  1.00  0.00     0.053 C 
BRANCH  11  12
ATOM     12  C   UNL     1     -16.775  55.733  -0.033  1.00  0.00     0.041 C 
ATOM     13  O   UNL     1     -16.038  54.734  -0.249  1.00  0.00    -0.550 OA
ATOM     14  O   UNL     1     -16.285  57.015  -0.270  1.00  0.00    -0.550 OA
ENDBRANCH  11  12
ENDBRANCH  10  11
ENDBRANCH   9  10
ENDBRANCH   8   9
ENDBRANCH   7   8
ENDBRANCH   6   7
ENDBRANCH   5   6
ENDBRANCH   4   5
ENDBRANCH   3   4
ENDBRANCH   2   3
ENDBRANCH   1   2
BRANCH   1  15
ATOM     15  C   UNL     1     -23.064  57.481  -2.011  1.00  0.00     0.000 C 
BRANCH  15  16
ATOM     16  C   UNL     1     -24.106  56.563  -1.336  1.00  0.00     0.000 C 
BRANCH  16  17
ATOM     17  C   UNL     1     -24.295  55.236  -2.092  1.00  0.00     0.000 C 
BRANCH  17  18
ATOM     18  C   UNL     1     -23.095  54.287  -1.939  1.00  0.00    -0.000 C 
BRANCH  18  19
ATOM     19  C   UNL     1     -22.674  54.102  -0.471  1.00  0.00    -0.000 C 
BRANCH  19  20
ATOM     20  C   UNL     1     -21.397  53.256  -0.332  1.00  0.00    -0.000 C 
BRANCH  20  21
ATOM     21  C   UNL     1     -20.842  52.808  -1.697  1.00  0.00    -0.000 C 
BRANCH  21  22
ATOM     22  C   UNL     1     -19.310  52.910  -1.780  1.00  0.00    -0.000 C 
BRANCH  22  23
ATOM     23  C   UNL     1     -18.780  54.009  -2.723  1.00  0.00    -0.000 C 
BRANCH  23  24
ATOM     24  C   UNL     1     -19.792  55.146  -2.989  1.00  0.00    -0.000 C 
BRANCH  24  25
ATOM     25  C   UNL     1     -19.105  56.498  -3.230  1.00  0.00    -0.003 C 
ATOM     26  C   UNL     1     -17.784  56.320  -3.972  1.00  0.00     0.004 C 
ENDBRANCH  24  25
ENDBRANCH  23  24
ENDBRANCH  22  23
ENDBRANCH  21  22
ENDBRANCH  20  21
ENDBRANCH  19  20
ENDBRANCH  18  19
ENDBRANCH  17  18
ENDBRANCH  16  17
ENDBRANCH  15  16
ENDBRANCH   1  15
TORSDOF 22
ENDMDL
MODEL 8
REMARK VINA RESULT:    -5.163      2.213      4.623
REMARK INTER + INTRA:         -15.382
REMARK INTER:                 -11.569
REMARK INTRA:                  -3.813
REMARK UNBOUND:                -3.579
REMARK SMILES CCCCCCCCCCCCCCCCCCCCCCCC(=O)[O-]
REMARK SMILES IDX 13 1 14 2 15 3 16 4 17 5 18 6 19 7 20 8 21 9 22 10 23 11
REMARK SMILES IDX 24 12 25 13 26 14 12 15 11 16 10 17 9 18 8 19 7 20 6 21 5 22
REMARK SMILES IDX 4 23 3 24 2 25 1 26
REMARK H PARENT
REMARK Flexibility Score: inf
ROOT
ATOM      1  C   UNL     1     -17.457  56.593  -3.335  1.00  0.00     0.000 C 
ENDROOT
BRANCH   1   2
ATOM      2  C   UNL     1     -18.660  55.688  -3.634  1.00  0.00     0.000 C 
BRANCH   2   3
ATOM      3  C   UNL     1     -19.982  56.392  -3.300  1.00  0.00     0.000 C 
BRANCH   3   4
ATOM      4  C   UNL     1     -21.062  55.373  -2.915  1.00  0.00     0.000 C 
BRANCH   4   5
ATOM      5  C   UNL     1     -20.435  54.035  -2.501  1.00  0.00     0.000 C 
BRANCH   5   6
ATOM      6  C   UNL     1     -21.169  53.381  -1.321  1.00  0.00     0.000 C 
BRANCH   6   7
ATOM      7  C   UNL     1     -22.498  54.086  -0.989  1.00  0.00     0.000 C 
BRANCH   7   8
ATOM      8  C   UNL     1     -22.798  54.081   0.526  1.00  0.00     0.000 C 
BRANCH   8   9
ATOM      9  C   UNL     1     -24.180  54.658   0.881  1.00  0.00     0.000 C 
BRANCH   9  10
ATOM     10  C   UNL     1     -24.948  55.170  -0.347  1.00  0.00     0.006 C 
BRANCH  10  11
ATOM     11  C   UNL     1     -25.174  56.683  -0.264  1.00  0.00     0.053 C 
BRANCH  11  12
ATOM     12  C   UNL     1     -24.820  57.346  -1.558  1.00  0.00     0.041 C 
ATOM     13  O   UNL     1     -23.637  57.722  -1.777  1.00  0.00    -0.550 OA
ATOM     14  O   UNL     1     -25.803  57.575  -2.517  1.00  0.00    -0.550 OA
ENDBRANCH  11  12
ENDBRANCH  10  11
ENDBRANCH   9  10
ENDBRANCH   8   9
ENDBRANCH   7   8
ENDBRANCH   6   7
ENDBRANCH   5   6
ENDBRANCH   4   5
ENDBRANCH   3   4
ENDBRANCH   2   3
ENDBRANCH   1   2
BRANCH   1  15
ATOM     15  C   UNL     1     -17.018  56.535  -1.862  1.00  0.00     0.000 C 
BRANCH  15  16
ATOM     16  C   UNL     1     -17.164  55.137  -1.222  1.00  0.00     0.000 C 
BRANCH  16  17
ATOM     17  C   UNL     1     -18.012  55.166   0.062  1.00  0.00     0.000 C 
BRANCH  17  18
ATOM     18  C   UNL     1     -18.533  56.572   0.400  1.00  0.00    -0.000 C 
BRANCH  18  19
ATOM     19  C   UNL     1     -20.070  56.643   0.415  1.00  0.00    -0.000 C 
BRANCH  19  20
ATOM     20  C   UNL     1     -20.600  57.618   1.480  1.00  0.00    -0.000 C 
BRANCH  20  21
ATOM     21  C   UNL     1     -22.138  57.620   1.557  1.00  0.00    -0.000 C 
BRANCH  21  22
ATOM     22  C   UNL     1     -22.740  59.028   1.419  1.00  0.00    -0.000 C 
BRANCH  22  23
ATOM     23  C   UNL     1     -23.758  59.412   2.512  1.00  0.00    -0.000 C 
BRANCH  23  24
ATOM     24  C   UNL     1     -23.667  58.542   3.784  1.00  0.00    -0.000 C 
BRANCH  24  25
ATOM     25  C   UNL     1     -23.685  59.380   5.071  1.00  0.00    -0.003 C 
ATOM     26  C   UNL     1     -22.313  59.394   5.738  1.00  0.00     0.004 C 
ENDBRANCH  24  25
ENDBRANCH  23  24
ENDBRANCH  22  23
ENDBRANCH  21  22
ENDBRANCH  20  21
ENDBRANCH  19  20
ENDBRANCH  18  19
ENDBRANCH  17  18
ENDBRANCH  16  17
ENDBRANCH  15  16
ENDBRANCH   1  15
TORSDOF 22
ENDMDL
MODEL 9
REMARK VINA RESULT:    -5.107      1.676      4.113
REMARK INTER + INTRA:         -15.255
REMARK INTER:                 -11.118
REMARK INTRA:                  -4.137
REMARK UNBOUND:                -3.579
REMARK SMILES CCCCCCCCCCCCCCCCCCCCCCCC(=O)[O-]
REMARK SMILES IDX 13 1 14 2 15 3 16 4 17 5 18 6 19 7 20 8 21 9 22 10 23 11
REMARK SMILES IDX 24 12 25 13 26 14 12 15 11 16 10 17 9 18 8 19 7 20 6 21 5 22
REMARK SMILES IDX 4 23 3 24 2 25 1 26
REMARK H PARENT
REMARK Flexibility Score: inf
ROOT
ATOM      1  C   UNL     1     -21.909  53.699  -0.221  1.00  0.00     0.000 C 
ENDROOT
BRANCH   1   2
ATOM      2  C   UNL     1     -22.943  54.647   0.400  1.00  0.00     0.000 C 
BRANCH   2   3
ATOM      3  C   UNL     1     -23.751  53.945   1.499  1.00  0.00     0.000 C 
BRANCH   3   4
ATOM      4  C   UNL     1     -25.256  54.056   1.227  1.00  0.00     0.000 C 
BRANCH   4   5
ATOM      5  C   UNL     1     -25.530  54.917  -0.013  1.00  0.00     0.000 C 
BRANCH   5   6
ATOM      6  C   UNL     1     -26.730  55.857   0.176  1.00  0.00     0.000 C 
BRANCH   6   7
ATOM      7  C   UNL     1     -26.332  57.344   0.106  1.00  0.00     0.000 C 
BRANCH   7   8
ATOM      8  C   UNL     1     -25.126  57.581  -0.831  1.00  0.00     0.000 C 
BRANCH   8   9
ATOM      9  C   UNL     1     -23.919  58.228  -0.128  1.00  0.00     0.000 C 
BRANCH   9  10
ATOM     10  C   UNL     1     -23.940  58.035   1.395  1.00  0.00     0.006 C 
BRANCH  10  11
ATOM     11  C   UNL     1     -22.522  57.864   1.948  1.00  0.00     0.053 C 
BRANCH  11  12
ATOM     12  C   UNL     1     -22.010  59.154   2.510  1.00  0.00     0.041 C 
ATOM     13  O   UNL     1     -21.998  59.344   3.756  1.00  0.00    -0.550 OA
ATOM     14  O   UNL     1     -21.568  60.161   1.656  1.00  0.00    -0.550 OA
ENDBRANCH  11  12
ENDBRANCH  10  11
ENDBRANCH   9  10
ENDBRANCH   8   9
ENDBRANCH   7   8
ENDBRANCH   6   7
ENDBRANCH   5   6
ENDBRANCH   4   5
ENDBRANCH   3   4
ENDBRANCH   2   3
ENDBRANCH   1   2
BRANCH   1  15
ATOM     15  C   UNL     1     -21.760  53.889  -1.740  1.00  0.00     0.000 C 
BRANCH  15  16
ATOM     16  C   UNL     1     -22.843  54.797  -2.364  1.00  0.00     0.000 C 
BRANCH  16  17
ATOM     17  C   UNL     1     -22.273  56.145  -2.840  1.00  0.00     0.000 C 
BRANCH  17  18
ATOM     18  C   UNL     1     -20.798  56.339  -2.453  1.00  0.00    -0.000 C 
BRANCH  18  19
ATOM     19  C   UNL     1     -19.909  56.665  -3.666  1.00  0.00    -0.000 C 
BRANCH  19  20
ATOM     20  C   UNL     1     -18.425  56.361  -3.401  1.00  0.00    -0.000 C 
BRANCH  20  21
ATOM     21  C   UNL     1     -18.150  54.851  -3.275  1.00  0.00    -0.000 C 
BRANCH  21  22
ATOM     22  C   UNL     1     -17.349  54.493  -2.012  1.00  0.00    -0.000 C 
BRANCH  22  23
ATOM     23  C   UNL     1     -18.192  53.980  -0.828  1.00  0.00    -0.000 C 
BRANCH  23  24
ATOM     24  C   UNL     1     -17.798  54.594   0.533  1.00  0.00    -0.000 C 
BRANCH  24  25
ATOM     25  C   UNL     1     -17.840  56.130   0.517  1.00  0.00    -0.003 C 
ATOM     26  C   UNL     1     -19.277  56.641   0.517  1.00  0.00     0.004 C 
ENDBRANCH  24  25
ENDBRANCH  23  24
ENDBRANCH  22  23
ENDBRANCH  21  22
ENDBRANCH  20  21
ENDBRANCH  19  20
ENDBRANCH  18  19
ENDBRANCH  17  18
ENDBRANCH  16  17
ENDBRANCH  15  16
ENDBRANCH   1  15
TORSDOF 22
ENDMDL
