MODEL 1
REMARK VINA RESULT:    -3.943      0.000      0.000
REMARK INTER + INTRA:          -8.617
REMARK INTER:                  -7.631
REMARK INTRA:                  -0.987
REMARK UNBOUND:                -0.987
REMARK SMILES CCCCCCCCCCCCCCCCCC(=O)[O-]
REMARK SMILES IDX 10 1 11 2 12 3 13 4 14 5 15 6 16 7 17 8 18 9 19 10 20 11
REMARK SMILES IDX 9 12 8 13 7 14 6 15 5 16 4 17 3 18 2 19 1 20
REMARK H PARENT
REMARK Flexibility Score: inf
ROOT
ATOM      1  C   UNL     1      12.952   5.020  -1.736  1.00  0.00     0.000 C 
ENDROOT
BRANCH   1   2
ATOM      2  C   UNL     1      13.092   3.619  -2.359  1.00  0.00     0.000 C 
BRANCH   2   3
ATOM      3  C   UNL     1      14.512   3.250  -2.826  1.00  0.00     0.000 C 
BRANCH   3   4
ATOM      4  C   UNL     1      15.401   2.725  -1.687  1.00  0.00     0.000 C 
BRANCH   4   5
ATOM      5  C   UNL     1      15.596   1.198  -1.735  1.00  0.00     0.000 C 
BRANCH   5   6
ATOM      6  C   UNL     1      16.671   0.701  -2.723  1.00  0.00     0.000 C 
BRANCH   6   7
ATOM      7  C   UNL     1      18.017   1.452  -2.662  1.00  0.00     0.006 C 
BRANCH   7   8
ATOM      8  C   UNL     1      19.253   0.550  -2.810  1.00  0.00     0.053 C 
BRANCH   8   9
ATOM      9  C   UNL     1      20.408   1.045  -1.997  1.00  0.00     0.041 C 
ATOM     10  O   UNL     1      20.919   0.312  -1.109  1.00  0.00    -0.550 OA
ATOM     11  O   UNL     1      20.944   2.304  -2.241  1.00  0.00    -0.550 OA
ENDBRANCH   8   9
ENDBRANCH   7   8
ENDBRANCH   6   7
ENDBRANCH   5   6
ENDBRANCH   4   5
ENDBRANCH   3   4
ENDBRANCH   2   3
ENDBRANCH   1   2
BRANCH   1  12
ATOM     12  C   UNL     1      12.030   5.039  -0.505  1.00  0.00     0.000 C 
BRANCH  12  13
ATOM     13  C   UNL     1      10.541   5.008  -0.884  1.00  0.00    -0.000 C 
BRANCH  13  14
ATOM     14  C   UNL     1      10.195   6.024  -1.988  1.00  0.00    -0.000 C 
BRANCH  14  15
ATOM     15  C   UNL     1       9.948   7.436  -1.432  1.00  0.00    -0.000 C 
BRANCH  15  16
ATOM     16  C   UNL     1      10.565   8.534  -2.315  1.00  0.00    -0.000 C 
BRANCH  16  17
ATOM     17  C   UNL     1      11.822   9.158  -1.672  1.00  0.00    -0.000 C 
BRANCH  17  18
ATOM     18  C   UNL     1      11.967  10.666  -1.938  1.00  0.00    -0.000 C 
BRANCH  18  19
ATOM     19  C   UNL     1      11.373  11.530  -0.818  1.00  0.00    -0.003 C 
ATOM     20  C   UNL     1      10.029  12.121  -1.234  1.00  0.00     0.004 C 
ENDBRANCH  18  19
ENDBRANCH  17  18
ENDBRANCH  16  17
ENDBRANCH  15  16
ENDBRANCH  14  15
ENDBRANCH  13  14
ENDBRANCH  12  13
ENDBRANCH   1  12
TORSDOF 16
ENDMDL
MODEL 2
REMARK VINA RESULT:    -3.728      2.384      4.512
REMARK INTER + INTRA:          -8.201
REMARK INTER:                  -7.262
REMARK INTRA:                  -0.938
REMARK UNBOUND:                -0.987
REMARK SMILES CCCCCCCCCCCCCCCCCC(=O)[O-]
REMARK SMILES IDX 10 1 11 2 12 3 13 4 14 5 15 6 16 7 17 8 18 9 19 10 20 11
REMARK SMILES IDX 9 12 8 13 7 14 6 15 5 16 4 17 3 18 2 19 1 20
REMARK H PARENT
REMARK Flexibility Score: inf
ROOT
ATOM      1  C   UNL     1       9.664   7.464  -1.370  1.00  0.00     0.000 C 
ENDROOT
BRANCH   1   2
ATOM      2  C   UNL     1      10.181   6.167  -2.018  1.00  0.00     0.000 C 
BRANCH   2   3
ATOM      3  C   UNL     1      10.460   5.013  -1.039  1.00  0.00     0.000 C 
BRANCH   3   4
ATOM      4  C   UNL     1      11.883   5.049  -0.457  1.00  0.00     0.000 C 
BRANCH   4   5
ATOM      5  C   UNL     1      12.975   5.018  -1.543  1.00  0.00     0.000 C 
BRANCH   5   6
ATOM      6  C   UNL     1      13.004   3.745  -2.413  1.00  0.00     0.000 C 
BRANCH   6   7
ATOM      7  C   UNL     1      14.412   3.251  -2.807  1.00  0.00     0.006 C 
BRANCH   7   8
ATOM      8  C   UNL     1      15.249   2.722  -1.631  1.00  0.00     0.053 C 
BRANCH   8   9
ATOM      9  C   UNL     1      16.279   1.731  -2.080  1.00  0.00     0.041 C 
ATOM     10  O   UNL     1      17.504   2.020  -2.019  1.00  0.00    -0.550 OA
ATOM     11  O   UNL     1      15.889   0.477  -2.533  1.00  0.00    -0.550 OA
ENDBRANCH   8   9
ENDBRANCH   7   8
ENDBRANCH   6   7
ENDBRANCH   5   6
ENDBRANCH   4   5
ENDBRANCH   3   4
ENDBRANCH   2   3
ENDBRANCH   1   2
BRANCH   1  12
ATOM     12  C   UNL     1      10.282   8.730  -1.987  1.00  0.00     0.000 C 
BRANCH  12  13
ATOM     13  C   UNL     1      11.812   8.767  -1.846  1.00  0.00    -0.000 C 
BRANCH  13  14
ATOM     14  C   UNL     1      12.346  10.190  -1.603  1.00  0.00    -0.000 C 
BRANCH  14  15
ATOM     15  C   UNL     1      11.233  11.250  -1.638  1.00  0.00    -0.000 C 
BRANCH  15  16
ATOM     16  C   UNL     1      11.764  12.653  -1.981  1.00  0.00    -0.000 C 
BRANCH  16  17
ATOM     17  C   UNL     1      11.698  13.610  -0.772  1.00  0.00    -0.000 C 
BRANCH  17  18
ATOM     18  C   UNL     1      12.222  15.024  -1.076  1.00  0.00    -0.000 C 
BRANCH  18  19
ATOM     19  C   UNL     1      13.747  15.137  -0.946  1.00  0.00    -0.003 C 
ATOM     20  C   UNL     1      14.154  16.512  -0.421  1.00  0.00     0.004 C 
ENDBRANCH  18  19
ENDBRANCH  17  18
ENDBRANCH  16  17
ENDBRANCH  15  16
ENDBRANCH  14  15
ENDBRANCH  13  14
ENDBRANCH  12  13
ENDBRANCH   1  12
TORSDOF 16
ENDMDL
MODEL 3
REMARK VINA RESULT:    -3.692      3.893      9.869
REMARK INTER + INTRA:          -8.131
REMARK INTER:                  -7.253
REMARK INTRA:                  -0.879
REMARK UNBOUND:                -0.987
REMARK SMILES CCCCCCCCCCCCCCCCCC(=O)[O-]
REMARK SMILES IDX 10 1 11 2 12 3 13 4 14 5 15 6 16 7 17 8 18 9 19 10 20 11
REMARK SMILES IDX 9 12 8 13 7 14 6 15 5 16 4 17 3 18 2 19 1 20
REMARK H PARENT
REMARK Flexibility Score: inf
ROOT
ATOM      1  C   UNL     1      12.438   4.627  -0.438  1.00  0.00     0.000 C 
ENDROOT
BRANCH   1   2
ATOM      2  C   UNL     1      11.068   5.278  -0.698  1.00  0.00     0.000 C 
BRANCH   2   3
ATOM      3  C   UNL     1      10.533   5.124  -2.134  1.00  0.00     0.000 C 
BRANCH   3   4
ATOM      4  C   UNL     1       9.025   5.405  -2.246  1.00  0.00     0.000 C 
BRANCH   4   5
ATOM      5  C   UNL     1       8.716   6.841  -2.707  1.00  0.00     0.000 C 
BRANCH   5   6
ATOM      6  C   UNL     1       8.833   7.924  -1.615  1.00  0.00     0.000 C 
BRANCH   6   7
ATOM      7  C   UNL     1       9.742   9.119  -1.969  1.00  0.00     0.006 C 
BRANCH   7   8
ATOM      8  C   UNL     1      11.247   8.814  -1.895  1.00  0.00     0.053 C 
BRANCH   8   9
ATOM      9  C   UNL     1      12.052  10.040  -1.592  1.00  0.00     0.041 C 
ATOM     10  O   UNL     1      11.556  10.968  -0.899  1.00  0.00    -0.550 OA
ATOM     11  O   UNL     1      13.361  10.144  -2.047  1.00  0.00    -0.550 OA
ENDBRANCH   8   9
ENDBRANCH   7   8
ENDBRANCH   6   7
ENDBRANCH   5   6
ENDBRANCH   4   5
ENDBRANCH   3   4
ENDBRANCH   2   3
ENDBRANCH   1   2
BRANCH   1  12
ATOM     12  C   UNL     1      13.238   4.380  -1.728  1.00  0.00     0.000 C 
BRANCH  12  13
ATOM     13  C   UNL     1      14.461   3.477  -1.499  1.00  0.00    -0.000 C 
BRANCH  13  14
ATOM     14  C   UNL     1      14.573   2.362  -2.555  1.00  0.00    -0.000 C 
BRANCH  14  15
ATOM     15  C   UNL     1      15.584   1.275  -2.156  1.00  0.00    -0.000 C 
BRANCH  15  16
ATOM     16  C   UNL     1      17.018   1.819  -2.030  1.00  0.00    -0.000 C 
BRANCH  16  17
ATOM     17  C   UNL     1      18.043   0.930  -2.767  1.00  0.00    -0.000 C 
BRANCH  17  18
ATOM     18  C   UNL     1      19.489   1.443  -2.665  1.00  0.00    -0.000 C 
BRANCH  18  19
ATOM     19  C   UNL     1      20.428   0.449  -1.970  1.00  0.00    -0.003 C 
ATOM     20  C   UNL     1      21.865   0.615  -2.458  1.00  0.00     0.004 C 
ENDBRANCH  18  19
ENDBRANCH  17  18
ENDBRANCH  16  17
ENDBRANCH  15  16
ENDBRANCH  14  15
ENDBRANCH  13  14
ENDBRANCH  12  13
ENDBRANCH   1  12
TORSDOF 16
ENDMDL
MODEL 4
REMARK VINA RESULT:    -3.634      4.946     10.269
REMARK INTER + INTRA:          -8.020
REMARK INTER:                  -6.726
REMARK INTRA:                  -1.294
REMARK UNBOUND:                -0.987
REMARK SMILES CCCCCCCCCCCCCCCCCC(=O)[O-]
REMARK SMILES IDX 10 1 11 2 12 3 13 4 14 5 15 6 16 7 17 8 18 9 19 10 20 11
REMARK SMILES IDX 9 12 8 13 7 14 6 15 5 16 4 17 3 18 2 19 1 20
REMARK H PARENT
REMARK Flexibility Score: inf
ROOT
ATOM      1  C   UNL     1       9.727   7.438  -2.129  1.00  0.00     0.000 C 
ENDROOT
BRANCH   1   2
ATOM      2  C   UNL     1       8.541   7.871  -1.247  1.00  0.00     0.000 C 
BRANCH   2   3
ATOM      3  C   UNL     1       7.319   8.410  -2.014  1.00  0.00     0.000 C 
BRANCH   3   4
ATOM      4  C   UNL     1       7.639   9.660  -2.850  1.00  0.00     0.000 C 
BRANCH   4   5
ATOM      5  C   UNL     1       8.197  10.820  -2.004  1.00  0.00     0.000 C 
BRANCH   5   6
ATOM      6  C   UNL     1       9.559  11.377  -2.464  1.00  0.00     0.000 C 
BRANCH   6   7
ATOM      7  C   UNL     1      10.756  11.013  -1.561  1.00  0.00     0.006 C 
BRANCH   7   8
ATOM      8  C   UNL     1      11.086  12.067  -0.493  1.00  0.00     0.053 C 
BRANCH   8   9
ATOM      9  C   UNL     1      11.498  13.372  -1.102  1.00  0.00     0.041 C 
ATOM     10  O   UNL     1      12.614  13.478  -1.676  1.00  0.00    -0.550 OA
ATOM     11  O   UNL     1      10.636  14.461  -1.066  1.00  0.00    -0.550 OA
ENDBRANCH   8   9
ENDBRANCH   7   8
ENDBRANCH   6   7
ENDBRANCH   5   6
ENDBRANCH   4   5
ENDBRANCH   3   4
ENDBRANCH   2   3
ENDBRANCH   1   2
BRANCH   1  12
ATOM     12  C   UNL     1      11.016   7.203  -1.324  1.00  0.00     0.000 C 
BRANCH  12  13
ATOM     13  C   UNL     1      10.941   5.944  -0.446  1.00  0.00    -0.000 C 
BRANCH  13  14
ATOM     14  C   UNL     1      12.114   4.980  -0.698  1.00  0.00    -0.000 C 
BRANCH  14  15
ATOM     15  C   UNL     1      12.532   4.936  -2.176  1.00  0.00    -0.000 C 
BRANCH  15  16
ATOM     16  C   UNL     1      13.563   3.830  -2.465  1.00  0.00    -0.000 C 
BRANCH  16  17
ATOM     17  C   UNL     1      14.398   3.473  -1.216  1.00  0.00    -0.000 C 
BRANCH  17  18
ATOM     18  C   UNL     1      15.731   2.780  -1.544  1.00  0.00    -0.000 C 
BRANCH  18  19
ATOM     19  C   UNL     1      15.612   1.252  -1.600  1.00  0.00    -0.003 C 
ATOM     20  C   UNL     1      16.347   0.687  -2.813  1.00  0.00     0.004 C 
ENDBRANCH  18  19
ENDBRANCH  17  18
ENDBRANCH  16  17
ENDBRANCH  15  16
ENDBRANCH  14  15
ENDBRANCH  13  14
ENDBRANCH  12  13
ENDBRANCH   1  12
TORSDOF 16
ENDMDL
MODEL 5
REMARK VINA RESULT:    -3.613      5.828     11.101
REMARK INTER + INTRA:          -7.979
REMARK INTER:                  -7.310
REMARK INTRA:                  -0.669
REMARK UNBOUND:                -0.987
REMARK SMILES CCCCCCCCCCCCCCCCCC(=O)[O-]
REMARK SMILES IDX 10 1 11 2 12 3 13 4 14 5 15 6 16 7 17 8 18 9 19 10 20 11
REMARK SMILES IDX 9 12 8 13 7 14 6 15 5 16 4 17 3 18 2 19 1 20
REMARK H PARENT
REMARK Flexibility Score: inf
ROOT
ATOM      1  C   UNL     1      11.058   8.517  -1.821  1.00  0.00     0.000 C 
ENDROOT
BRANCH   1   2
ATOM      2  C   UNL     1      10.590   9.983  -1.775  1.00  0.00     0.000 C 
BRANCH   2   3
ATOM      3  C   UNL     1      11.693  11.012  -1.468  1.00  0.00     0.000 C 
BRANCH   3   4
ATOM      4  C   UNL     1      11.269  12.049  -0.415  1.00  0.00     0.000 C 
BRANCH   4   5
ATOM      5  C   UNL     1      11.135  13.470  -0.995  1.00  0.00     0.000 C 
BRANCH   5   6
ATOM      6  C   UNL     1      12.398  14.023  -1.685  1.00  0.00     0.000 C 
BRANCH   6   7
ATOM      7  C   UNL     1      13.191  15.064  -0.868  1.00  0.00     0.006 C 
BRANCH   7   8
ATOM      8  C   UNL     1      12.328  16.175  -0.250  1.00  0.00     0.053 C 
BRANCH   8   9
ATOM      9  C   UNL     1      13.082  16.965   0.775  1.00  0.00     0.041 C 
ATOM     10  O   UNL     1      12.522  17.304   1.851  1.00  0.00    -0.550 OA
ATOM     11  O   UNL     1      14.413  17.298   0.558  1.00  0.00    -0.550 OA
ENDBRANCH   8   9
ENDBRANCH   7   8
ENDBRANCH   6   7
ENDBRANCH   5   6
ENDBRANCH   4   5
ENDBRANCH   3   4
ENDBRANCH   2   3
ENDBRANCH   1   2
BRANCH   1  12
ATOM     12  C   UNL     1       9.973   7.527  -1.363  1.00  0.00     0.000 C 
BRANCH  12  13
ATOM     13  C   UNL     1      10.001   6.213  -2.159  1.00  0.00    -0.000 C 
BRANCH  13  14
ATOM     14  C   UNL     1      10.370   5.003  -1.281  1.00  0.00    -0.000 C 
BRANCH  14  15
ATOM     15  C   UNL     1      11.696   5.204  -0.530  1.00  0.00    -0.000 C 
BRANCH  15  16
ATOM     16  C   UNL     1      12.920   5.124  -1.459  1.00  0.00    -0.000 C 
BRANCH  16  17
ATOM     17  C   UNL     1      13.768   3.862  -1.195  1.00  0.00    -0.000 C 
BRANCH  17  18
ATOM     18  C   UNL     1      14.263   3.173  -2.478  1.00  0.00    -0.000 C 
BRANCH  18  19
ATOM     19  C   UNL     1      15.689   2.622  -2.349  1.00  0.00    -0.003 C 
ATOM     20  C   UNL     1      15.677   1.158  -1.916  1.00  0.00     0.004 C 
ENDBRANCH  18  19
ENDBRANCH  17  18
ENDBRANCH  16  17
ENDBRANCH  15  16
ENDBRANCH  14  15
ENDBRANCH  13  14
ENDBRANCH  12  13
ENDBRANCH   1  12
TORSDOF 16
ENDMDL
MODEL 6
REMARK VINA RESULT:    -3.593      3.193      5.994
REMARK INTER + INTRA:          -7.940
REMARK INTER:                  -7.032
REMARK INTRA:                  -0.907
REMARK UNBOUND:                -0.987
REMARK SMILES CCCCCCCCCCCCCCCCCC(=O)[O-]
REMARK SMILES IDX 10 1 11 2 12 3 13 4 14 5 15 6 16 7 17 8 18 9 19 10 20 11
REMARK SMILES IDX 9 12 8 13 7 14 6 15 5 16 4 17 3 18 2 19 1 20
REMARK H PARENT
REMARK Flexibility Score: inf
ROOT
ATOM      1  C   UNL     1      11.363   9.322  -2.552  1.00  0.00     0.000 C 
ENDROOT
BRANCH   1   2
ATOM      2  C   UNL     1      10.247   8.561  -1.813  1.00  0.00     0.000 C 
BRANCH   2   3
ATOM      3  C   UNL     1      10.401   7.029  -1.798  1.00  0.00     0.000 C 
BRANCH   3   4
ATOM      4  C   UNL     1      10.978   6.497  -0.476  1.00  0.00     0.000 C 
BRANCH   4   5
ATOM      5  C   UNL     1      11.625   5.107  -0.621  1.00  0.00     0.000 C 
BRANCH   5   6
ATOM      6  C   UNL     1      11.723   4.572  -2.064  1.00  0.00     0.000 C 
BRANCH   6   7
ATOM      7  C   UNL     1      13.062   3.896  -2.424  1.00  0.00     0.006 C 
BRANCH   7   8
ATOM      8  C   UNL     1      14.032   3.740  -1.242  1.00  0.00     0.053 C 
BRANCH   8   9
ATOM      9  C   UNL     1      15.135   2.775  -1.546  1.00  0.00     0.041 C 
ATOM     10  O   UNL     1      16.305   3.000  -1.135  1.00  0.00    -0.550 OA
ATOM     11  O   UNL     1      14.866   1.610  -2.254  1.00  0.00    -0.550 OA
ENDBRANCH   8   9
ENDBRANCH   7   8
ENDBRANCH   6   7
ENDBRANCH   5   6
ENDBRANCH   4   5
ENDBRANCH   3   4
ENDBRANCH   2   3
ENDBRANCH   1   2
BRANCH   1  12
ATOM     12  C   UNL     1      11.918  10.506  -1.741  1.00  0.00     0.000 C 
BRANCH  12  13
ATOM     13  C   UNL     1      10.806  11.388  -1.151  1.00  0.00    -0.000 C 
BRANCH  13  14
ATOM     14  C   UNL     1      11.340  12.733  -0.626  1.00  0.00    -0.000 C 
BRANCH  14  15
ATOM     15  C   UNL     1      10.679  13.937  -1.315  1.00  0.00    -0.000 C 
BRANCH  15  16
ATOM     16  C   UNL     1      11.582  15.184  -1.320  1.00  0.00    -0.000 C 
BRANCH  16  17
ATOM     17  C   UNL     1      13.045  14.842  -0.966  1.00  0.00    -0.000 C 
BRANCH  17  18
ATOM     18  C   UNL     1      13.886  16.067  -0.570  1.00  0.00    -0.000 C 
BRANCH  18  19
ATOM     19  C   UNL     1      13.044  17.203   0.026  1.00  0.00    -0.003 C 
ATOM     20  C   UNL     1      13.093  17.184   1.551  1.00  0.00     0.004 C 
ENDBRANCH  18  19
ENDBRANCH  17  18
ENDBRANCH  16  17
ENDBRANCH  15  16
ENDBRANCH  14  15
ENDBRANCH  13  14
ENDBRANCH  12  13
ENDBRANCH   1  12
TORSDOF 16
ENDMDL
MODEL 7
REMARK VINA RESULT:    -3.562      2.357      4.818
REMARK INTER + INTRA:          -7.880
REMARK INTER:                  -6.378
REMARK INTRA:                  -1.502
REMARK UNBOUND:                -0.987
REMARK SMILES CCCCCCCCCCCCCCCCCC(=O)[O-]
REMARK SMILES IDX 10 1 11 2 12 3 13 4 14 5 15 6 16 7 17 8 18 9 19 10 20 11
REMARK SMILES IDX 9 12 8 13 7 14 6 15 5 16 4 17 3 18 2 19 1 20
REMARK H PARENT
REMARK Flexibility Score: inf
ROOT
ATOM      1  C   UNL     1      10.362   8.640  -1.748  1.00  0.00     0.000 C 
ENDROOT
BRANCH   1   2
ATOM      2  C   UNL     1       9.529   7.350  -1.860  1.00  0.00     0.000 C 
BRANCH   2   3
ATOM      3  C   UNL     1      10.346   6.060  -2.061  1.00  0.00     0.000 C 
BRANCH   3   4
ATOM      4  C   UNL     1      10.673   5.345  -0.740  1.00  0.00     0.000 C 
BRANCH   4   5
ATOM      5  C   UNL     1      12.174   5.034  -0.583  1.00  0.00     0.000 C 
BRANCH   5   6
ATOM      6  C   UNL     1      12.948   4.840  -1.902  1.00  0.00     0.000 C 
BRANCH   6   7
ATOM      7  C   UNL     1      13.362   3.387  -2.214  1.00  0.00     0.006 C 
BRANCH   7   8
ATOM      8  C   UNL     1      14.692   3.256  -2.973  1.00  0.00     0.053 C 
BRANCH   8   9
ATOM      9  C   UNL     1      15.660   2.365  -2.257  1.00  0.00     0.041 C 
ATOM     10  O   UNL     1      16.276   2.786  -1.242  1.00  0.00    -0.550 OA
ATOM     11  O   UNL     1      15.857   1.060  -2.689  1.00  0.00    -0.550 OA
ENDBRANCH   8   9
ENDBRANCH   7   8
ENDBRANCH   6   7
ENDBRANCH   5   6
ENDBRANCH   4   5
ENDBRANCH   3   4
ENDBRANCH   2   3
ENDBRANCH   1   2
BRANCH   1  12
ATOM     12  C   UNL     1      11.772   8.496  -2.346  1.00  0.00     0.000 C 
BRANCH  12  13
ATOM     13  C   UNL     1      12.723   9.614  -1.889  1.00  0.00    -0.000 C 
BRANCH  13  14
ATOM     14  C   UNL     1      14.020   9.657  -2.717  1.00  0.00    -0.000 C 
BRANCH  14  15
ATOM     15  C   UNL     1      14.569  11.083  -2.875  1.00  0.00    -0.000 C 
BRANCH  15  16
ATOM     16  C   UNL     1      13.455  12.129  -3.056  1.00  0.00    -0.000 C 
BRANCH  16  17
ATOM     17  C   UNL     1      13.764  13.443  -2.307  1.00  0.00    -0.000 C 
BRANCH  17  18
ATOM     18  C   UNL     1      12.553  14.025  -1.559  1.00  0.00    -0.000 C 
BRANCH  18  19
ATOM     19  C   UNL     1      11.302  13.144  -1.668  1.00  0.00    -0.003 C 
ATOM     20  C   UNL     1      11.018  12.426  -0.351  1.00  0.00     0.004 C 
ENDBRANCH  18  19
ENDBRANCH  17  18
ENDBRANCH  16  17
ENDBRANCH  15  16
ENDBRANCH  14  15
ENDBRANCH  13  14
ENDBRANCH  12  13
ENDBRANCH   1  12
TORSDOF 16
ENDMDL
MODEL 8
REMARK VINA RESULT:    -3.524      6.687     11.886
REMARK INTER + INTRA:          -7.807
REMARK INTER:                  -6.510
REMARK INTRA:                  -1.296
REMARK UNBOUND:                -0.987
REMARK SMILES CCCCCCCCCCCCCCCCCC(=O)[O-]
REMARK SMILES IDX 10 1 11 2 12 3 13 4 14 5 15 6 16 7 17 8 18 9 19 10 20 11
REMARK SMILES IDX 9 12 8 13 7 14 6 15 5 16 4 17 3 18 2 19 1 20
REMARK H PARENT
REMARK Flexibility Score: inf
ROOT
ATOM      1  C   UNL     1      11.291  12.453  -0.514  1.00  0.00     0.000 C 
ENDROOT
BRANCH   1   2
ATOM      2  C   UNL     1      11.684  13.902  -0.852  1.00  0.00     0.000 C 
BRANCH   2   3
ATOM      3  C   UNL     1      12.209  14.120  -2.283  1.00  0.00     0.000 C 
BRANCH   3   4
ATOM      4  C   UNL     1      13.744  14.146  -2.362  1.00  0.00     0.000 C 
BRANCH   4   5
ATOM      5  C   UNL     1      14.391  14.903  -1.186  1.00  0.00     0.000 C 
BRANCH   5   6
ATOM      6  C   UNL     1      14.635  16.407  -1.424  1.00  0.00     0.000 C 
BRANCH   6   7
ATOM      7  C   UNL     1      14.099  17.341  -0.319  1.00  0.00     0.006 C 
BRANCH   7   8
ATOM      8  C   UNL     1      12.569  17.488  -0.301  1.00  0.00     0.053 C 
BRANCH   8   9
ATOM      9  C   UNL     1      12.032  17.578   1.094  1.00  0.00     0.041 C 
ATOM     10  O   UNL     1      10.839  17.931   1.292  1.00  0.00    -0.550 OA
ATOM     11  O   UNL     1      12.838  17.241   2.174  1.00  0.00    -0.550 OA
ENDBRANCH   8   9
ENDBRANCH   7   8
ENDBRANCH   6   7
ENDBRANCH   5   6
ENDBRANCH   4   5
ENDBRANCH   3   4
ENDBRANCH   2   3
ENDBRANCH   1   2
BRANCH   1  12
ATOM     12  C   UNL     1      10.032  11.983  -1.263  1.00  0.00     0.000 C 
BRANCH  12  13
ATOM     13  C   UNL     1      10.269  10.691  -2.061  1.00  0.00    -0.000 C 
BRANCH  13  14
ATOM     14  C   UNL     1      11.521   9.931  -1.589  1.00  0.00    -0.000 C 
BRANCH  14  15
ATOM     15  C   UNL     1      11.551   8.478  -2.091  1.00  0.00    -0.000 C 
BRANCH  15  16
ATOM     16  C   UNL     1      10.414   7.626  -1.502  1.00  0.00    -0.000 C 
BRANCH  16  17
ATOM     17  C   UNL     1      10.474   6.162  -1.986  1.00  0.00    -0.000 C 
BRANCH  17  18
ATOM     18  C   UNL     1      10.650   5.143  -0.847  1.00  0.00    -0.000 C 
BRANCH  18  19
ATOM     19  C   UNL     1      12.113   4.973  -0.417  1.00  0.00    -0.003 C 
ATOM     20  C   UNL     1      12.946   4.346  -1.531  1.00  0.00     0.004 C 
ENDBRANCH  18  19
ENDBRANCH  17  18
ENDBRANCH  16  17
ENDBRANCH  15  16
ENDBRANCH  14  15
ENDBRANCH  13  14
ENDBRANCH  12  13
ENDBRANCH   1  12
TORSDOF 16
ENDMDL
MODEL 9
REMARK VINA RESULT:    -3.497      2.432      4.653
REMARK INTER + INTRA:          -7.755
REMARK INTER:                  -5.944
REMARK INTRA:                  -1.811
REMARK UNBOUND:                -0.987
REMARK SMILES CCCCCCCCCCCCCCCCCC(=O)[O-]
REMARK SMILES IDX 10 1 11 2 12 3 13 4 14 5 15 6 16 7 17 8 18 9 19 10 20 11
REMARK SMILES IDX 9 12 8 13 7 14 6 15 5 16 4 17 3 18 2 19 1 20
REMARK H PARENT
REMARK Flexibility Score: inf
ROOT
ATOM      1  C   UNL     1       9.736   7.694  -1.406  1.00  0.00     0.000 C 
ENDROOT
BRANCH   1   2
ATOM      2  C   UNL     1       9.206   6.383  -2.014  1.00  0.00     0.000 C 
BRANCH   2   3
ATOM      3  C   UNL     1      10.164   5.181  -1.914  1.00  0.00     0.000 C 
BRANCH   3   4
ATOM      4  C   UNL     1      11.010   5.194  -0.631  1.00  0.00     0.000 C 
BRANCH   4   5
ATOM      5  C   UNL     1      12.496   4.880  -0.890  1.00  0.00     0.000 C 
BRANCH   5   6
ATOM      6  C   UNL     1      12.881   4.689  -2.371  1.00  0.00     0.000 C 
BRANCH   6   7
ATOM      7  C   UNL     1      13.247   3.245  -2.773  1.00  0.00     0.006 C 
BRANCH   7   8
ATOM      8  C   UNL     1      14.731   3.039  -3.113  1.00  0.00     0.053 C 
BRANCH   8   9
ATOM      9  C   UNL     1      15.486   2.426  -1.974  1.00  0.00     0.041 C 
ATOM     10  O   UNL     1      15.801   3.124  -0.974  1.00  0.00    -0.550 OA
ATOM     11  O   UNL     1      15.813   1.075  -2.002  1.00  0.00    -0.550 OA
ENDBRANCH   8   9
ENDBRANCH   7   8
ENDBRANCH   6   7
ENDBRANCH   5   6
ENDBRANCH   4   5
ENDBRANCH   3   4
ENDBRANCH   2   3
ENDBRANCH   1   2
BRANCH   1  12
ATOM     12  C   UNL     1      10.701   8.440  -2.342  1.00  0.00     0.000 C 
BRANCH  12  13
ATOM     13  C   UNL     1      11.956   8.945  -1.613  1.00  0.00    -0.000 C 
BRANCH  13  14
ATOM     14  C   UNL     1      12.556  10.199  -2.274  1.00  0.00    -0.000 C 
BRANCH  14  15
ATOM     15  C   UNL     1      11.549  11.357  -2.362  1.00  0.00    -0.000 C 
BRANCH  15  16
ATOM     16  C   UNL     1      10.954  11.727  -0.992  1.00  0.00    -0.000 C 
BRANCH  16  17
ATOM     17  C   UNL     1       9.530  12.311  -1.116  1.00  0.00    -0.000 C 
BRANCH  17  18
ATOM     18  C   UNL     1       8.814  11.918  -2.419  1.00  0.00    -0.000 C 
BRANCH  18  19
ATOM     19  C   UNL     1       7.321  11.630  -2.217  1.00  0.00    -0.003 C 
ATOM     20  C   UNL     1       7.082  10.155  -1.904  1.00  0.00     0.004 C 
ENDBRANCH  18  19
ENDBRANCH  17  18
ENDBRANCH  16  17
ENDBRANCH  15  16
ENDBRANCH  14  15
ENDBRANCH  13  14
ENDBRANCH  12  13
ENDBRANCH   1  12
TORSDOF 16
ENDMDL
