MODEL 1
REMARK VINA RESULT:    -4.281      0.000      0.000
REMARK INTER + INTRA:          -4.281
REMARK INTER:                  -4.281
REMARK INTRA:                   0.000
REMARK UNBOUND:                 0.000
REMARK SMILES C=C1CC[C@H]2C[C@@H]1C2(C)C
REMARK SMILES IDX 9 1 8 2 5 3 4 4 3 5 2 6 1 7 7 8 6 9 10 10
REMARK H PARENT
REMARK Flexibility Score: inf
ROOT
ATOM      1  C   UNL     1       5.546   8.396  11.910  1.00  0.00     0.012 C 
ATOM      2  C   UNL     1       5.468   7.411  13.110  1.00  0.00    -0.026 C 
ATOM      3  C   UNL     1       5.856   5.929  12.881  1.00  0.00    -0.004 C 
ATOM      4  C   UNL     1       7.045   5.808  11.875  1.00  0.00     0.008 C 
ATOM      5  C   UNL     1       8.265   6.726  12.267  1.00  0.00     0.031 C 
ATOM      6  C   UNL     1       7.940   7.654  13.448  1.00  0.00    -0.074 C 
ATOM      7  C   UNL     1       8.794   8.606  13.839  1.00  0.00     0.008 C 
ATOM      8  C   UNL     1       6.607   7.438  14.156  1.00  0.00     0.021 C 
ATOM      9  C   UNL     1       6.471   5.912  14.291  1.00  0.00     0.012 C 
ATOM     10  C   UNL     1       4.072   7.551  13.767  1.00  0.00     0.012 C 
ENDROOT
TORSDOF 0
ENDMDL
MODEL 2
REMARK VINA RESULT:    -3.901      8.319     10.473
REMARK INTER + INTRA:          -3.901
REMARK INTER:                  -3.901
REMARK INTRA:                   0.000
REMARK UNBOUND:                 0.000
REMARK SMILES C=C1CC[C@H]2C[C@@H]1C2(C)C
REMARK SMILES IDX 9 1 8 2 5 3 4 4 3 5 2 6 1 7 7 8 6 9 10 10
REMARK H PARENT
REMARK Flexibility Score: inf
ROOT
ATOM      1  C   UNL     1       0.186  13.261  15.323  1.00  0.00     0.012 C 
ATOM      2  C   UNL     1       1.312  13.960  16.134  1.00  0.00    -0.026 C 
ATOM      3  C   UNL     1       1.092  15.418  16.609  1.00  0.00    -0.004 C 
ATOM      4  C   UNL     1      -0.398  15.656  17.016  1.00  0.00     0.008 C 
ATOM      5  C   UNL     1      -0.928  14.574  18.032  1.00  0.00     0.031 C 
ATOM      6  C   UNL     1       0.084  13.439  18.256  1.00  0.00    -0.074 C 
ATOM      7  C   UNL     1      -0.234  12.356  18.973  1.00  0.00     0.008 C 
ATOM      8  C   UNL     1       1.465  13.606  17.632  1.00  0.00     0.021 C 
ATOM      9  C   UNL     1       1.849  15.071  17.902  1.00  0.00     0.012 C 
ATOM     10  C   UNL     1       2.644  13.797  15.360  1.00  0.00     0.012 C 
ENDROOT
TORSDOF 0
ENDMDL
MODEL 3
REMARK VINA RESULT:    -3.851      8.051      9.971
REMARK INTER + INTRA:          -3.851
REMARK INTER:                  -3.851
REMARK INTRA:                   0.000
REMARK UNBOUND:                 0.000
REMARK SMILES C=C1CC[C@H]2C[C@@H]1C2(C)C
REMARK SMILES IDX 9 1 8 2 5 3 4 4 3 5 2 6 1 7 7 8 6 9 10 10
REMARK H PARENT
REMARK Flexibility Score: inf
ROOT
ATOM      1  C   UNL     1       2.143  14.258  18.515  1.00  0.00     0.012 C 
ATOM      2  C   UNL     1       0.931  13.616  17.786  1.00  0.00    -0.026 C 
ATOM      3  C   UNL     1      -0.209  14.538  17.284  1.00  0.00    -0.004 C 
ATOM      4  C   UNL     1       0.358  15.898  16.763  1.00  0.00     0.008 C 
ATOM      5  C   UNL     1       1.523  15.707  15.718  1.00  0.00     0.031 C 
ATOM      6  C   UNL     1       1.948  14.237  15.581  1.00  0.00    -0.074 C 
ATOM      7  C   UNL     1       3.013  13.887  14.851  1.00  0.00     0.008 C 
ATOM      8  C   UNL     1       1.101  13.198  16.307  1.00  0.00     0.021 C 
ATOM      9  C   UNL     1      -0.354  13.625  16.055  1.00  0.00     0.012 C 
ATOM     10  C   UNL     1       0.394  12.455  18.660  1.00  0.00     0.012 C 
ENDROOT
TORSDOF 0
ENDMDL
MODEL 4
REMARK VINA RESULT:    -3.848      8.903     10.544
REMARK INTER + INTRA:          -3.848
REMARK INTER:                  -3.848
REMARK INTRA:                   0.000
REMARK UNBOUND:                 0.000
REMARK SMILES C=C1CC[C@H]2C[C@@H]1C2(C)C
REMARK SMILES IDX 9 1 8 2 5 3 4 4 3 5 2 6 1 7 7 8 6 9 10 10
REMARK H PARENT
REMARK Flexibility Score: inf
ROOT
ATOM      1  C   UNL     1      -0.967  14.712  18.220  1.00  0.00     0.012 C 
ATOM      2  C   UNL     1       0.246  13.879  17.722  1.00  0.00    -0.026 C 
ATOM      3  C   UNL     1       0.370  13.579  16.207  1.00  0.00    -0.004 C 
ATOM      4  C   UNL     1      -0.122  14.791  15.352  1.00  0.00     0.008 C 
ATOM      5  C   UNL     1       0.552  16.149  15.784  1.00  0.00     0.031 C 
ATOM      6  C   UNL     1       1.405  15.998  17.054  1.00  0.00    -0.074 C 
ATOM      7  C   UNL     1       1.945  17.062  17.659  1.00  0.00     0.008 C 
ATOM      8  C   UNL     1       1.615  14.585  17.587  1.00  0.00     0.021 C 
ATOM      9  C   UNL     1       1.895  13.728  16.342  1.00  0.00     0.012 C 
ATOM     10  C   UNL     1       0.339  12.591  18.577  1.00  0.00     0.012 C 
ENDROOT
TORSDOF 0
ENDMDL
MODEL 5
REMARK VINA RESULT:    -3.839      8.388     10.355
REMARK INTER + INTRA:          -3.839
REMARK INTER:                  -3.839
REMARK INTRA:                   0.000
REMARK UNBOUND:                 0.000
REMARK SMILES C=C1CC[C@H]2C[C@@H]1C2(C)C
REMARK SMILES IDX 9 1 8 2 5 3 4 4 3 5 2 6 1 7 7 8 6 9 10 10
REMARK H PARENT
REMARK Flexibility Score: inf
ROOT
ATOM      1  C   UNL     1      -0.635  15.489  15.466  1.00  0.00     0.012 C 
ATOM      2  C   UNL     1       0.631  15.600  16.359  1.00  0.00    -0.026 C 
ATOM      3  C   UNL     1       0.532  15.173  17.845  1.00  0.00    -0.004 C 
ATOM      4  C   UNL     1      -0.411  13.938  18.013  1.00  0.00     0.008 C 
ATOM      5  C   UNL     1      -0.039  12.756  17.040  1.00  0.00     0.031 C 
ATOM      6  C   UNL     1       1.054  13.151  16.034  1.00  0.00    -0.074 C 
ATOM      7  C   UNL     1       1.408  12.333  15.037  1.00  0.00     0.008 C 
ATOM      8  C   UNL     1       1.719  14.509  16.228  1.00  0.00     0.021 C 
ATOM      9  C   UNL     1       1.963  14.620  17.742  1.00  0.00     0.012 C 
ATOM     10  C   UNL     1       1.216  17.026  16.204  1.00  0.00     0.012 C 
ENDROOT
TORSDOF 0
ENDMDL
MODEL 6
REMARK VINA RESULT:    -3.838     10.845     12.022
REMARK INTER + INTRA:          -3.838
REMARK INTER:                  -3.838
REMARK INTRA:                   0.000
REMARK UNBOUND:                 0.000
REMARK SMILES C=C1CC[C@H]2C[C@@H]1C2(C)C
REMARK SMILES IDX 9 1 8 2 5 3 4 4 3 5 2 6 1 7 7 8 6 9 10 10
REMARK H PARENT
REMARK Flexibility Score: inf
ROOT
ATOM      1  C   UNL     1       1.638  18.237  16.420  1.00  0.00     0.012 C 
ATOM      2  C   UNL     1       1.015  16.850  16.104  1.00  0.00    -0.026 C 
ATOM      3  C   UNL     1      -0.500  16.768  15.790  1.00  0.00    -0.004 C 
ATOM      4  C   UNL     1      -0.971  18.016  14.976  1.00  0.00     0.008 C 
ATOM      5  C   UNL     1      -0.077  18.284  13.706  1.00  0.00     0.031 C 
ATOM      6  C   UNL     1       1.153  17.363  13.655  1.00  0.00    -0.074 C 
ATOM      7  C   UNL     1       2.107  17.529  12.733  1.00  0.00     0.008 C 
ATOM      8  C   UNL     1       1.233  16.251  14.695  1.00  0.00     0.021 C 
ATOM      9  C   UNL     1      -0.188  15.667  14.763  1.00  0.00     0.012 C 
ATOM     10  C   UNL     1       1.429  15.862  17.225  1.00  0.00     0.012 C 
ENDROOT
TORSDOF 0
ENDMDL
MODEL 7
REMARK VINA RESULT:    -3.828      9.195     11.043
REMARK INTER + INTRA:          -3.828
REMARK INTER:                  -3.828
REMARK INTRA:                   0.000
REMARK UNBOUND:                 0.000
REMARK SMILES C=C1CC[C@H]2C[C@@H]1C2(C)C
REMARK SMILES IDX 9 1 8 2 5 3 4 4 3 5 2 6 1 7 7 8 6 9 10 10
REMARK H PARENT
REMARK Flexibility Score: inf
ROOT
ATOM      1  C   UNL     1       2.258  14.421  15.472  1.00  0.00     0.012 C 
ATOM      2  C   UNL     1       0.991  14.339  16.366  1.00  0.00    -0.026 C 
ATOM      3  C   UNL     1       1.057  14.909  17.805  1.00  0.00    -0.004 C 
ATOM      4  C   UNL     1       1.942  16.196  17.858  1.00  0.00     0.008 C 
ATOM      5  C   UNL     1       1.525  17.262  16.775  1.00  0.00     0.031 C 
ATOM      6  C   UNL     1       0.460  16.723  15.806  1.00  0.00    -0.074 C 
ATOM      7  C   UNL     1       0.078  17.425  14.734  1.00  0.00     0.008 C 
ATOM      8  C   UNL     1      -0.145  15.361  16.126  1.00  0.00     0.021 C 
ATOM      9  C   UNL     1      -0.396  15.384  17.643  1.00  0.00     0.012 C 
ATOM     10  C   UNL     1       0.472  12.879  16.345  1.00  0.00     0.012 C 
ENDROOT
TORSDOF 0
ENDMDL
MODEL 8
REMARK VINA RESULT:    -2.768      9.244     11.129
REMARK INTER + INTRA:          -2.768
REMARK INTER:                  -2.768
REMARK INTRA:                   0.000
REMARK UNBOUND:                 0.000
REMARK SMILES C=C1CC[C@H]2C[C@@H]1C2(C)C
REMARK SMILES IDX 9 1 8 2 5 3 4 4 3 5 2 6 1 7 7 8 6 9 10 10
REMARK H PARENT
REMARK Flexibility Score: inf
ROOT
ATOM      1  C   UNL     1       1.875  16.780  17.714  1.00  0.00     0.012 C 
ATOM      2  C   UNL     1       1.142  16.557  16.363  1.00  0.00    -0.026 C 
ATOM      3  C   UNL     1       1.625  15.415  15.433  1.00  0.00    -0.004 C 
ATOM      4  C   UNL     1       2.085  14.173  16.263  1.00  0.00     0.008 C 
ATOM      5  C   UNL     1       1.004  13.715  17.315  1.00  0.00     0.031 C 
ATOM      6  C   UNL     1      -0.176  14.696  17.403  1.00  0.00    -0.074 C 
ATOM      7  C   UNL     1      -1.125  14.559  18.336  1.00  0.00     0.008 C 
ATOM      8  C   UNL     1      -0.220  15.824  16.379  1.00  0.00     0.021 C 
ATOM      9  C   UNL     1       0.159  15.164  15.043  1.00  0.00     0.012 C 
ATOM     10  C   UNL     1       1.062  17.914  15.620  1.00  0.00     0.012 C 
ENDROOT
TORSDOF 0
ENDMDL
