MODEL 1
REMARK VINA RESULT:    -4.350      0.000      0.000
REMARK INTER + INTRA:          -5.384
REMARK INTER:                  -5.240
REMARK INTRA:                  -0.144
REMARK UNBOUND:                -0.144
REMARK SMILES Oc1cc(O)c2cc(O)c(-c3ccc(O)c(O)c3)[o+]c2c1
REMARK SMILES IDX 10 1 19 2 20 3 21 4 2 5 3 6 4 7 6 8 7 9 8 10 11 11 12 12
REMARK SMILES IDX 13 13 14 14 18 15 16 16 15 17 17 19 9 21 1 23 5 25
REMARK H PARENT 15 18 17 20 9 22 1 24 5 26
REMARK Flexibility Score: inf
ROOT
ATOM      1  C   UNL     1      16.276  36.678  11.855  1.00  0.00     0.402 A 
ATOM      2  O   UNL     1      16.495  36.240  13.092  1.00  0.00    -0.202 OA
ATOM      3  C   UNL     1      16.568  34.951  13.407  1.00  0.00     0.368 A 
ATOM      4  C   UNL     1      16.805  34.587  14.735  1.00  0.00     0.162 A 
ATOM      5  C   UNL     1      16.890  33.242  15.094  1.00  0.00     0.128 A 
ATOM      6  C   UNL     1      16.739  32.250  14.118  1.00  0.00     0.093 A 
ATOM      7  C   UNL     1      16.504  32.588  12.780  1.00  0.00     0.136 A 
ATOM      8  C   UNL     1      16.412  33.955  12.412  1.00  0.00     0.125 A 
ATOM      9  C   UNL     1      16.166  34.386  11.099  1.00  0.00     0.078 A 
ATOM     10  C   UNL     1      16.085  35.753  10.813  1.00  0.00     0.223 A 
ENDROOT
BRANCH   1  11
ATOM     11  C   UNL     1      16.226  38.142  11.629  1.00  0.00     0.087 A 
ATOM     12  C   UNL     1      17.125  38.730  10.725  1.00  0.00     0.022 A 
ATOM     13  C   UNL     1      17.084  40.105  10.481  1.00  0.00     0.051 A 
ATOM     14  C   UNL     1      16.138  40.910  11.123  1.00  0.00     0.157 A 
ATOM     15  C   UNL     1      15.262  38.949  12.257  1.00  0.00     0.068 A 
ATOM     16  C   UNL     1      15.218  40.329  12.012  1.00  0.00     0.158 A 
BRANCH  14  17
ATOM     17  O   UNL     1      16.122  42.279  10.861  1.00  0.00    -0.504 OA
ATOM     18  H   UNL     1      16.477  42.665   9.994  1.00  0.00     0.293 HD
ENDBRANCH  14  17
BRANCH  16  19
ATOM     19  O   UNL     1      14.262  41.123  12.645  1.00  0.00    -0.504 OA
ATOM     20  H   UNL     1      13.354  41.293  12.228  1.00  0.00     0.293 HD
ENDBRANCH  16  19
ENDBRANCH   1  11
BRANCH  10  21
ATOM     21  O   UNL     1      15.789  36.181   9.519  1.00  0.00    -0.500 OA
ATOM     22  H   UNL     1      15.508  35.530   8.794  1.00  0.00     0.294 HD
ENDBRANCH  10  21
BRANCH   5  23
ATOM     23  O   UNL     1      17.125  32.900  16.424  1.00  0.00    -0.507 OA
ATOM     24  H   UNL     1      16.504  32.278  16.930  1.00  0.00     0.293 HD
ENDBRANCH   5  23
BRANCH   7  25
ATOM     25  O   UNL     1      16.368  31.539  11.866  1.00  0.00    -0.507 OA
ATOM     26  H   UNL     1      17.138  31.106  11.377  1.00  0.00     0.293 HD
ENDBRANCH   7  25
TORSDOF 6
ENDMDL
MODEL 2
REMARK VINA RESULT:    -2.993      5.084      6.676
REMARK INTER + INTRA:          -3.749
REMARK INTER:                  -3.451
REMARK INTRA:                  -0.298
REMARK UNBOUND:                -0.144
REMARK SMILES Oc1cc(O)c2cc(O)c(-c3ccc(O)c(O)c3)[o+]c2c1
REMARK SMILES IDX 10 1 19 2 20 3 21 4 2 5 3 6 4 7 6 8 7 9 8 10 11 11 12 12
REMARK SMILES IDX 13 13 14 14 18 15 16 16 15 17 17 19 9 21 1 23 5 25
REMARK H PARENT 15 18 17 20 9 22 1 24 5 26
REMARK Flexibility Score: inf
ROOT
ATOM      1  C   UNL     1      12.279  35.074  13.508  1.00  0.00     0.402 A 
ATOM      2  O   UNL     1      13.058  36.143  13.368  1.00  0.00    -0.202 OA
ATOM      3  C   UNL     1      14.170  36.145  12.640  1.00  0.00     0.368 A 
ATOM      4  C   UNL     1      14.921  37.319  12.550  1.00  0.00     0.162 A 
ATOM      5  C   UNL     1      16.091  37.352  11.791  1.00  0.00     0.128 A 
ATOM      6  C   UNL     1      16.515  36.202  11.114  1.00  0.00     0.093 A 
ATOM      7  C   UNL     1      15.779  35.013  11.187  1.00  0.00     0.136 A 
ATOM      8  C   UNL     1      14.590  34.975  11.961  1.00  0.00     0.125 A 
ATOM      9  C   UNL     1      13.797  33.826  12.102  1.00  0.00     0.078 A 
ATOM     10  C   UNL     1      12.640  33.864  12.886  1.00  0.00     0.223 A 
ENDROOT
BRANCH   1  11
ATOM     11  C   UNL     1      11.058  35.201  14.338  1.00  0.00     0.087 A 
ATOM     12  C   UNL     1       9.804  35.270  13.711  1.00  0.00     0.022 A 
ATOM     13  C   UNL     1       8.637  35.371  14.473  1.00  0.00     0.051 A 
ATOM     14  C   UNL     1       8.703  35.387  15.870  1.00  0.00     0.157 A 
ATOM     15  C   UNL     1      11.121  35.196  15.742  1.00  0.00     0.068 A 
ATOM     16  C   UNL     1       9.951  35.295  16.509  1.00  0.00     0.158 A 
BRANCH  14  17
ATOM     17  O   UNL     1       7.523  35.490  16.603  1.00  0.00    -0.504 OA
ATOM     18  H   UNL     1       7.496  35.910  17.524  1.00  0.00     0.293 HD
ENDBRANCH  14  17
BRANCH  16  19
ATOM     19  O   UNL     1      10.024  35.296  17.901  1.00  0.00    -0.504 OA
ATOM     20  H   UNL     1       9.795  36.120  18.444  1.00  0.00     0.293 HD
ENDBRANCH  16  19
ENDBRANCH   1  11
BRANCH  10  21
ATOM     21  O   UNL     1      11.879  32.709  13.069  1.00  0.00    -0.500 OA
ATOM     22  H   UNL     1      10.867  32.722  13.004  1.00  0.00     0.294 HD
ENDBRANCH  10  21
BRANCH   5  23
ATOM     23  O   UNL     1      16.828  38.532  11.714  1.00  0.00    -0.507 OA
ATOM     24  H   UNL     1      16.710  39.182  10.945  1.00  0.00     0.293 HD
ENDBRANCH   5  23
BRANCH   7  25
ATOM     25  O   UNL     1      16.266  33.910  10.480  1.00  0.00    -0.507 OA
ATOM     26  H   UNL     1      16.035  32.951  10.690  1.00  0.00     0.293 HD
ENDBRANCH   7  25
TORSDOF 6
ENDMDL
MODEL 3
REMARK VINA RESULT:    -2.946      2.746      8.183
REMARK INTER + INTRA:          -3.693
REMARK INTER:                  -3.446
REMARK INTRA:                  -0.246
REMARK UNBOUND:                -0.144
REMARK SMILES Oc1cc(O)c2cc(O)c(-c3ccc(O)c(O)c3)[o+]c2c1
REMARK SMILES IDX 10 1 19 2 20 3 21 4 2 5 3 6 4 7 6 8 7 9 8 10 11 11 12 12
REMARK SMILES IDX 13 13 14 14 18 15 16 16 15 17 17 19 9 21 1 23 5 25
REMARK H PARENT 15 18 17 20 9 22 1 24 5 26
REMARK Flexibility Score: inf
ROOT
ATOM      1  C   UNL     1      16.332  39.976  11.412  1.00  0.00     0.402 A 
ATOM      2  O   UNL     1      15.977  40.746  10.386  1.00  0.00    -0.202 OA
ATOM      3  C   UNL     1      16.067  42.071  10.405  1.00  0.00     0.368 A 
ATOM      4  C   UNL     1      15.672  42.795   9.276  1.00  0.00     0.162 A 
ATOM      5  C   UNL     1      15.758  44.187   9.265  1.00  0.00     0.128 A 
ATOM      6  C   UNL     1      16.244  44.864  10.390  1.00  0.00     0.093 A 
ATOM      7  C   UNL     1      16.648  44.162  11.532  1.00  0.00     0.136 A 
ATOM      8  C   UNL     1      16.558  42.746  11.548  1.00  0.00     0.125 A 
ATOM      9  C   UNL     1      16.927  41.962  12.653  1.00  0.00     0.078 A 
ATOM     10  C   UNL     1      16.807  40.570  12.595  1.00  0.00     0.223 A 
ENDROOT
BRANCH   1  11
ATOM     11  C   UNL     1      16.195  38.508  11.266  1.00  0.00     0.087 A 
ATOM     12  C   UNL     1      17.095  37.810  10.444  1.00  0.00     0.022 A 
ATOM     13  C   UNL     1      16.997  36.423  10.307  1.00  0.00     0.051 A 
ATOM     14  C   UNL     1      16.012  35.712  10.998  1.00  0.00     0.157 A 
ATOM     15  C   UNL     1      15.219  37.788  11.976  1.00  0.00     0.068 A 
ATOM     16  C   UNL     1      15.121  36.396  11.841  1.00  0.00     0.158 A 
BRANCH  14  17
ATOM     17  O   UNL     1      15.938  34.328  10.840  1.00  0.00    -0.504 OA
ATOM     18  H   UNL     1      15.150  33.879  10.391  1.00  0.00     0.293 HD
ENDBRANCH  14  17
BRANCH  16  19
ATOM     19  O   UNL     1      14.145  35.690  12.545  1.00  0.00    -0.504 OA
ATOM     20  H   UNL     1      13.173  35.701  12.259  1.00  0.00     0.293 HD
ENDBRANCH  16  19
ENDBRANCH   1  11
BRANCH  10  21
ATOM     21  O   UNL     1      17.125  39.793  13.710  1.00  0.00    -0.500 OA
ATOM     22  H   UNL     1      17.952  39.975  14.267  1.00  0.00     0.294 HD
ENDBRANCH  10  21
BRANCH   5  23
ATOM     23  O   UNL     1      15.358  44.891   8.131  1.00  0.00    -0.507 OA
ATOM     24  H   UNL     1      14.906  45.796   8.200  1.00  0.00     0.293 HD
ENDBRANCH   5  23
BRANCH   7  25
ATOM     25  O   UNL     1      17.125  44.911  12.612  1.00  0.00    -0.507 OA
ATOM     26  H   UNL     1      18.102  45.064  12.812  1.00  0.00     0.293 HD
ENDBRANCH   7  25
TORSDOF 6
ENDMDL
MODEL 4
REMARK VINA RESULT:    -2.642     20.896     22.275
REMARK INTER + INTRA:          -3.326
REMARK INTER:                  -3.047
REMARK INTRA:                  -0.279
REMARK UNBOUND:                -0.144
REMARK SMILES Oc1cc(O)c2cc(O)c(-c3ccc(O)c(O)c3)[o+]c2c1
REMARK SMILES IDX 10 1 19 2 20 3 21 4 2 5 3 6 4 7 6 8 7 9 8 10 11 11 12 12
REMARK SMILES IDX 13 13 14 14 18 15 16 16 15 17 17 19 9 21 1 23 5 25
REMARK H PARENT 15 18 17 20 9 22 1 24 5 26
REMARK Flexibility Score: inf
ROOT
ATOM      1  C   UNL     1      -1.590  41.704  24.168  1.00  0.00     0.402 A 
ATOM      2  O   UNL     1      -2.043  40.738  24.963  1.00  0.00    -0.202 OA
ATOM      3  C   UNL     1      -2.035  39.452  24.626  1.00  0.00     0.368 A 
ATOM      4  C   UNL     1      -2.529  38.509  25.530  1.00  0.00     0.162 A 
ATOM      5  C   UNL     1      -2.531  37.153  25.206  1.00  0.00     0.128 A 
ATOM      6  C   UNL     1      -2.032  36.733  23.967  1.00  0.00     0.093 A 
ATOM      7  C   UNL     1      -1.529  37.658  23.044  1.00  0.00     0.136 A 
ATOM      8  C   UNL     1      -1.530  39.039  23.369  1.00  0.00     0.125 A 
ATOM      9  C   UNL     1      -1.058  40.036  22.502  1.00  0.00     0.078 A 
ATOM     10  C   UNL     1      -1.095  41.379  22.891  1.00  0.00     0.223 A 
ENDROOT
BRANCH   1  11
ATOM     11  C   UNL     1      -1.643  43.100  24.661  1.00  0.00     0.087 A 
ATOM     12  C   UNL     1      -2.890  43.719  24.843  1.00  0.00     0.022 A 
ATOM     13  C   UNL     1      -2.966  45.029  25.325  1.00  0.00     0.051 A 
ATOM     14  C   UNL     1      -1.801  45.732  25.647  1.00  0.00     0.157 A 
ATOM     15  C   UNL     1      -0.475  43.801  25.005  1.00  0.00     0.068 A 
ATOM     16  C   UNL     1      -0.549  45.115  25.491  1.00  0.00     0.158 A 
BRANCH  14  17
ATOM     17  O   UNL     1      -1.908  47.037  26.124  1.00  0.00    -0.504 OA
ATOM     18  H   UNL     1      -2.703  47.626  25.909  1.00  0.00     0.293 HD
ENDBRANCH  14  17
BRANCH  16  19
ATOM     19  O   UNL     1       0.616  45.806  25.824  1.00  0.00    -0.504 OA
ATOM     20  H   UNL     1       0.749  46.776  25.566  1.00  0.00     0.293 HD
ENDBRANCH  16  19
ENDBRANCH   1  11
BRANCH  10  21
ATOM     21  O   UNL     1      -0.674  42.376  22.010  1.00  0.00    -0.500 OA
ATOM     22  H   UNL     1      -1.331  42.884  21.428  1.00  0.00     0.294 HD
ENDBRANCH  10  21
BRANCH   5  23
ATOM     23  O   UNL     1      -3.029  36.228  26.121  1.00  0.00    -0.507 OA
ATOM     24  H   UNL     1      -3.885  35.715  25.943  1.00  0.00     0.293 HD
ENDBRANCH   5  23
BRANCH   7  25
ATOM     25  O   UNL     1      -1.045  37.158  21.831  1.00  0.00    -0.507 OA
ATOM     26  H   UNL     1      -0.637  37.725  21.103  1.00  0.00     0.293 HD
ENDBRANCH   7  25
TORSDOF 6
ENDMDL
MODEL 5
REMARK VINA RESULT:    -2.304      2.198      4.005
REMARK INTER + INTRA:          -2.919
REMARK INTER:                  -2.877
REMARK INTRA:                  -0.042
REMARK UNBOUND:                -0.144
REMARK SMILES Oc1cc(O)c2cc(O)c(-c3ccc(O)c(O)c3)[o+]c2c1
REMARK SMILES IDX 10 1 19 2 20 3 21 4 2 5 3 6 4 7 6 8 7 9 8 10 11 11 12 12
REMARK SMILES IDX 13 13 14 14 18 15 16 16 15 17 17 19 9 21 1 23 5 25
REMARK H PARENT 15 18 17 20 9 22 1 24 5 26
REMARK Flexibility Score: inf
ROOT
ATOM      1  C   UNL     1      16.367  39.601  11.486  1.00  0.00     0.402 A 
ATOM      2  O   UNL     1      16.008  38.645  10.633  1.00  0.00    -0.202 OA
ATOM      3  C   UNL     1      15.905  37.365  10.974  1.00  0.00     0.368 A 
ATOM      4  C   UNL     1      15.517  36.433  10.007  1.00  0.00     0.162 A 
ATOM      5  C   UNL     1      15.397  35.083  10.337  1.00  0.00     0.128 A 
ATOM      6  C   UNL     1      15.665  34.659  11.643  1.00  0.00     0.093 A 
ATOM      7  C   UNL     1      16.053  35.572  12.631  1.00  0.00     0.136 A 
ATOM      8  C   UNL     1      16.180  36.946  12.298  1.00  0.00     0.125 A 
ATOM      9  C   UNL     1      16.576  37.929  13.219  1.00  0.00     0.078 A 
ATOM     10  C   UNL     1      16.682  39.264  12.816  1.00  0.00     0.223 A 
ENDROOT
BRANCH   1  11
ATOM     11  C   UNL     1      16.437  40.995  10.989  1.00  0.00     0.087 A 
ATOM     12  C   UNL     1      17.064  41.257   9.761  1.00  0.00     0.022 A 
ATOM     13  C   UNL     1      17.125  42.561   9.262  1.00  0.00     0.051 A 
ATOM     14  C   UNL     1      16.548  43.618   9.973  1.00  0.00     0.157 A 
ATOM     15  C   UNL     1      15.838  42.055  11.691  1.00  0.00     0.068 A 
ATOM     16  C   UNL     1      15.897  43.364  11.192  1.00  0.00     0.158 A 
BRANCH  14  17
ATOM     17  O   UNL     1      16.625  44.908   9.451  1.00  0.00    -0.504 OA
ATOM     18  H   UNL     1      16.051  45.209   8.672  1.00  0.00     0.293 HD
ENDBRANCH  14  17
BRANCH  16  19
ATOM     19  O   UNL     1      15.306  44.411  11.898  1.00  0.00    -0.504 OA
ATOM     20  H   UNL     1      15.850  45.022  12.495  1.00  0.00     0.293 HD
ENDBRANCH  16  19
ENDBRANCH   1  11
BRANCH  10  21
ATOM     21  O   UNL     1      17.125  40.234  13.716  1.00  0.00    -0.500 OA
ATOM     22  H   UNL     1      18.021  40.157  14.184  1.00  0.00     0.294 HD
ENDBRANCH  10  21
BRANCH   5  23
ATOM     23  O   UNL     1      15.011  34.169   9.358  1.00  0.00    -0.507 OA
ATOM     24  H   UNL     1      15.644  33.453   9.022  1.00  0.00     0.293 HD
ENDBRANCH   5  23
BRANCH   7  25
ATOM     25  O   UNL     1      16.298  35.069  13.912  1.00  0.00    -0.507 OA
ATOM     26  H   UNL     1      16.876  34.266  14.108  1.00  0.00     0.293 HD
ENDBRANCH   7  25
TORSDOF 6
ENDMDL
MODEL 6
REMARK VINA RESULT:    -2.284      3.535      8.797
REMARK INTER + INTRA:          -2.896
REMARK INTER:                  -3.167
REMARK INTRA:                   0.271
REMARK UNBOUND:                -0.144
REMARK SMILES Oc1cc(O)c2cc(O)c(-c3ccc(O)c(O)c3)[o+]c2c1
REMARK SMILES IDX 10 1 19 2 20 3 21 4 2 5 3 6 4 7 6 8 7 9 8 10 11 11 12 12
REMARK SMILES IDX 13 13 14 14 18 15 16 16 15 17 17 19 9 21 1 23 5 25
REMARK H PARENT 15 18 17 20 9 22 1 24 5 26
REMARK Flexibility Score: inf
ROOT
ATOM      1  C   UNL     1      16.282  42.026  11.029  1.00  0.00     0.402 A 
ATOM      2  O   UNL     1      16.092  42.627  12.200  1.00  0.00    -0.202 OA
ATOM      3  C   UNL     1      16.063  43.948  12.346  1.00  0.00     0.368 A 
ATOM      4  C   UNL     1      15.854  44.487  13.618  1.00  0.00     0.162 A 
ATOM      5  C   UNL     1      15.815  45.869  13.801  1.00  0.00     0.128 A 
ATOM      6  C   UNL     1      15.985  46.722  12.704  1.00  0.00     0.093 A 
ATOM      7  C   UNL     1      16.193  46.207  11.419  1.00  0.00     0.136 A 
ATOM      8  C   UNL     1      16.237  44.801  11.230  1.00  0.00     0.125 A 
ATOM      9  C   UNL     1      16.454  44.197   9.981  1.00  0.00     0.078 A 
ATOM     10  C   UNL     1      16.489  42.803   9.874  1.00  0.00     0.223 A 
ENDROOT
BRANCH   1  11
ATOM     11  C   UNL     1      16.284  40.545  10.993  1.00  0.00     0.087 A 
ATOM     12  C   UNL     1      17.092  39.879  10.059  1.00  0.00     0.022 A 
ATOM     13  C   UNL     1      17.125  38.483  10.020  1.00  0.00     0.051 A 
ATOM     14  C   UNL     1      16.364  37.732  10.920  1.00  0.00     0.157 A 
ATOM     15  C   UNL     1      15.536  39.788  11.912  1.00  0.00     0.068 A 
ATOM     16  C   UNL     1      15.568  38.387  11.875  1.00  0.00     0.158 A 
BRANCH  14  17
ATOM     17  O   UNL     1      16.416  36.340  10.856  1.00  0.00    -0.504 OA
ATOM     18  H   UNL     1      16.620  35.848   9.995  1.00  0.00     0.293 HD
ENDBRANCH  14  17
BRANCH  16  19
ATOM     19  O   UNL     1      14.818  37.644  12.787  1.00  0.00    -0.504 OA
ATOM     20  H   UNL     1      14.257  38.092  13.501  1.00  0.00     0.293 HD
ENDBRANCH  16  19
ENDBRANCH   1  11
BRANCH  10  21
ATOM     21  O   UNL     1      16.755  42.202   8.643  1.00  0.00    -0.500 OA
ATOM     22  H   UNL     1      16.342  42.543   7.783  1.00  0.00     0.294 HD
ENDBRANCH  10  21
BRANCH   5  23
ATOM     23  O   UNL     1      15.607  46.388  15.077  1.00  0.00    -0.507 OA
ATOM     24  H   UNL     1      14.679  46.458  15.476  1.00  0.00     0.293 HD
ENDBRANCH   5  23
BRANCH   7  25
ATOM     25  O   UNL     1      16.350  47.124  10.375  1.00  0.00    -0.507 OA
ATOM     26  H   UNL     1      16.204  48.119  10.464  1.00  0.00     0.293 HD
ENDBRANCH   7  25
TORSDOF 6
ENDMDL
MODEL 7
REMARK VINA RESULT:    -1.601      3.193      9.183
REMARK INTER + INTRA:          -2.072
REMARK INTER:                  -2.492
REMARK INTRA:                   0.420
REMARK UNBOUND:                -0.144
REMARK SMILES Oc1cc(O)c2cc(O)c(-c3ccc(O)c(O)c3)[o+]c2c1
REMARK SMILES IDX 10 1 19 2 20 3 21 4 2 5 3 6 4 7 6 8 7 9 8 10 11 11 12 12
REMARK SMILES IDX 13 13 14 14 18 15 16 16 15 17 17 19 9 21 1 23 5 25
REMARK H PARENT 15 18 17 20 9 22 1 24 5 26
REMARK Flexibility Score: inf
ROOT
ATOM      1  C   UNL     1      16.416  41.692  10.953  1.00  0.00     0.402 A 
ATOM      2  O   UNL     1      16.056  41.923   9.694  1.00  0.00    -0.202 OA
ATOM      3  C   UNL     1      16.056  43.133   9.146  1.00  0.00     0.368 A 
ATOM      4  C   UNL     1      15.663  43.276   7.812  1.00  0.00     0.162 A 
ATOM      5  C   UNL     1      15.656  44.533   7.209  1.00  0.00     0.128 A 
ATOM      6  C   UNL     1      16.046  45.660   7.943  1.00  0.00     0.093 A 
ATOM      7  C   UNL     1      16.444  45.544   9.280  1.00  0.00     0.136 A 
ATOM      8  C   UNL     1      16.449  44.266   9.898  1.00  0.00     0.125 A 
ATOM      9  C   UNL     1      16.820  44.057  11.235  1.00  0.00     0.078 A 
ATOM     10  C   UNL     1      16.796  42.768  11.776  1.00  0.00     0.223 A 
ENDROOT
BRANCH   1  11
ATOM     11  C   UNL     1      16.384  40.295  11.446  1.00  0.00     0.087 A 
ATOM     12  C   UNL     1      17.038  39.973  12.646  1.00  0.00     0.022 A 
ATOM     13  C   UNL     1      17.006  38.666  13.141  1.00  0.00     0.051 A 
ATOM     14  C   UNL     1      16.309  37.668  12.455  1.00  0.00     0.157 A 
ATOM     15  C   UNL     1      15.665  39.294  10.770  1.00  0.00     0.068 A 
ATOM     16  C   UNL     1      15.630  37.983  11.265  1.00  0.00     0.158 A 
BRANCH  14  17
ATOM     17  O   UNL     1      16.295  36.373  12.972  1.00  0.00    -0.504 OA
ATOM     18  H   UNL     1      16.901  35.645  12.615  1.00  0.00     0.293 HD
ENDBRANCH  14  17
BRANCH  16  19
ATOM     19  O   UNL     1      14.920  36.995  10.584  1.00  0.00    -0.504 OA
ATOM     20  H   UNL     1      14.089  36.571  10.979  1.00  0.00     0.293 HD
ENDBRANCH  16  19
ENDBRANCH   1  11
BRANCH  10  21
ATOM     21  O   UNL     1      17.116  42.566  13.119  1.00  0.00    -0.500 OA
ATOM     22  H   UNL     1      18.027  42.808  13.492  1.00  0.00     0.294 HD
ENDBRANCH  10  21
BRANCH   5  23
ATOM     23  O   UNL     1      15.261  44.655   5.878  1.00  0.00    -0.507 OA
ATOM     24  H   UNL     1      15.053  43.842   5.310  1.00  0.00     0.293 HD
ENDBRANCH   5  23
BRANCH   7  25
ATOM     25  O   UNL     1      16.822  46.715   9.943  1.00  0.00    -0.507 OA
ATOM     26  H   UNL     1      16.470  47.635   9.721  1.00  0.00     0.293 HD
ENDBRANCH   7  25
TORSDOF 6
ENDMDL
