MODEL 1
REMARK VINA RESULT:    -4.864      0.000      0.000
REMARK INTER + INTRA:         -15.952
REMARK INTER:                 -12.257
REMARK INTRA:                  -3.695
REMARK UNBOUND:                -3.695
REMARK SMILES CCCCCCCCCCCCCCCCCCCCCCCCCCCC(=O)[O-]
REMARK SMILES IDX 15 1 16 2 17 3 18 4 19 5 20 6 21 7 22 8 23 9 24 10 25 11
REMARK SMILES IDX 26 12 27 13 28 14 29 15 30 16 14 17 13 18 12 19 11 20 10 21
REMARK SMILES IDX 9 22 8 23 7 24 6 25 5 26 4 27 3 28 2 29 1 30
REMARK H PARENT
REMARK Flexibility Score: inf
ROOT
ATOM      1  C   UNL     1       6.112  79.374  36.774  1.00  0.00     0.000 C 
ENDROOT
BRANCH   1   2
ATOM      2  C   UNL     1       6.087  80.209  38.070  1.00  0.00     0.000 C 
BRANCH   2   3
ATOM      3  C   UNL     1       5.501  79.441  39.273  1.00  0.00     0.000 C 
BRANCH   3   4
ATOM      4  C   UNL     1       6.493  78.483  39.962  1.00  0.00     0.000 C 
BRANCH   4   5
ATOM      5  C   UNL     1       6.302  76.992  39.639  1.00  0.00     0.000 C 
BRANCH   5   6
ATOM      6  C   UNL     1       4.855  76.642  39.258  1.00  0.00     0.000 C 
BRANCH   6   7
ATOM      7  C   UNL     1       4.815  75.477  38.257  1.00  0.00     0.000 C 
BRANCH   7   8
ATOM      8  C   UNL     1       3.901  74.333  38.723  1.00  0.00     0.000 C 
BRANCH   8   9
ATOM      9  C   UNL     1       4.480  72.946  38.398  1.00  0.00     0.000 C 
BRANCH   9  10
ATOM     10  C   UNL     1       5.168  72.288  39.607  1.00  0.00     0.000 C 
BRANCH  10  11
ATOM     11  C   UNL     1       6.631  72.734  39.800  1.00  0.00     0.000 C 
BRANCH  11  12
ATOM     12  C   UNL     1       7.393  72.830  38.466  1.00  0.00     0.006 C 
BRANCH  12  13
ATOM     13  C   UNL     1       8.588  71.870  38.408  1.00  0.00     0.053 C 
BRANCH  13  14
ATOM     14  C   UNL     1       9.557  72.252  37.332  1.00  0.00     0.041 C 
ATOM     15  O   UNL     1       9.310  73.224  36.570  1.00  0.00    -0.550 OA
ATOM     16  O   UNL     1      10.714  71.508  37.142  1.00  0.00    -0.550 OA
ENDBRANCH  13  14
ENDBRANCH  12  13
ENDBRANCH  11  12
ENDBRANCH  10  11
ENDBRANCH   9  10
ENDBRANCH   8   9
ENDBRANCH   7   8
ENDBRANCH   6   7
ENDBRANCH   5   6
ENDBRANCH   4   5
ENDBRANCH   3   4
ENDBRANCH   2   3
ENDBRANCH   1   2
BRANCH   1  17
ATOM     17  C   UNL     1       7.526  79.204  36.196  1.00  0.00     0.000 C 
BRANCH  17  18
ATOM     18  C   UNL     1       8.198  77.890  36.637  1.00  0.00     0.000 C 
BRANCH  18  19
ATOM     19  C   UNL     1       9.647  78.100  37.112  1.00  0.00     0.000 C 
BRANCH  19  20
ATOM     20  C   UNL     1       9.788  78.676  38.536  1.00  0.00     0.000 C 
BRANCH  20  21
ATOM     21  C   UNL     1      10.288  80.133  38.612  1.00  0.00     0.000 C 
BRANCH  21  22
ATOM     22  C   UNL     1       9.539  81.023  39.620  1.00  0.00    -0.000 C 
BRANCH  22  23
ATOM     23  C   UNL     1      10.487  81.745  40.591  1.00  0.00    -0.000 C 
BRANCH  23  24
ATOM     24  C   UNL     1      11.813  80.995  40.793  1.00  0.00    -0.000 C 
BRANCH  24  25
ATOM     25  C   UNL     1      11.999  80.498  42.238  1.00  0.00    -0.000 C 
BRANCH  25  26
ATOM     26  C   UNL     1      12.144  81.664  43.239  1.00  0.00    -0.000 C 
BRANCH  26  27
ATOM     27  C   UNL     1      11.355  81.453  44.542  1.00  0.00    -0.000 C 
BRANCH  27  28
ATOM     28  C   UNL     1      10.093  80.599  44.345  1.00  0.00    -0.000 C 
BRANCH  28  29
ATOM     29  C   UNL     1       8.800  81.417  44.484  1.00  0.00    -0.003 C 
ATOM     30  C   UNL     1       7.941  81.384  43.220  1.00  0.00     0.004 C 
ENDBRANCH  28  29
ENDBRANCH  27  28
ENDBRANCH  26  27
ENDBRANCH  25  26
ENDBRANCH  24  25
ENDBRANCH  23  24
ENDBRANCH  22  23
ENDBRANCH  21  22
ENDBRANCH  20  21
ENDBRANCH  19  20
ENDBRANCH  18  19
ENDBRANCH  17  18
ENDBRANCH   1  17
TORSDOF 26
ENDMDL
MODEL 2
REMARK VINA RESULT:    -4.820      3.528      8.794
REMARK INTER + INTRA:         -15.841
REMARK INTER:                 -12.871
REMARK INTRA:                  -2.970
REMARK UNBOUND:                -3.695
REMARK SMILES CCCCCCCCCCCCCCCCCCCCCCCCCCCC(=O)[O-]
REMARK SMILES IDX 15 1 16 2 17 3 18 4 19 5 20 6 21 7 22 8 23 9 24 10 25 11
REMARK SMILES IDX 26 12 27 13 28 14 29 15 30 16 14 17 13 18 12 19 11 20 10 21
REMARK SMILES IDX 9 22 8 23 7 24 6 25 5 26 4 27 3 28 2 29 1 30
REMARK H PARENT
REMARK Flexibility Score: inf
ROOT
ATOM      1  C   UNL     1       9.603  76.153  36.630  1.00  0.00     0.000 C 
ENDROOT
BRANCH   1   2
ATOM      2  C   UNL     1       9.862  77.632  36.280  1.00  0.00     0.000 C 
BRANCH   2   3
ATOM      3  C   UNL     1       8.583  78.493  36.311  1.00  0.00     0.000 C 
BRANCH   3   4
ATOM      4  C   UNL     1       8.516  79.493  37.483  1.00  0.00     0.000 C 
BRANCH   4   5
ATOM      5  C   UNL     1       9.616  79.336  38.546  1.00  0.00     0.000 C 
BRANCH   5   6
ATOM      6  C   UNL     1      10.697  80.425  38.455  1.00  0.00     0.000 C 
BRANCH   6   7
ATOM      7  C   UNL     1      11.369  80.651  39.818  1.00  0.00     0.000 C 
BRANCH   7   8
ATOM      8  C   UNL     1      10.624  79.948  40.964  1.00  0.00     0.000 C 
BRANCH   8   9
ATOM      9  C   UNL     1      10.362  80.882  42.157  1.00  0.00     0.000 C 
BRANCH   9  10
ATOM     10  C   UNL     1       8.873  81.234  42.324  1.00  0.00     0.000 C 
BRANCH  10  11
ATOM     11  C   UNL     1       8.631  82.467  43.219  1.00  0.00     0.000 C 
BRANCH  11  12
ATOM     12  C   UNL     1       7.821  82.122  44.481  1.00  0.00     0.006 C 
BRANCH  12  13
ATOM     13  C   UNL     1       8.276  80.805  45.123  1.00  0.00     0.053 C 
BRANCH  13  14
ATOM     14  C   UNL     1       7.366  80.386  46.237  1.00  0.00     0.041 C 
ATOM     15  O   UNL     1       7.139  81.166  47.200  1.00  0.00    -0.550 OA
ATOM     16  O   UNL     1       6.803  79.117  46.233  1.00  0.00    -0.550 OA
ENDBRANCH  13  14
ENDBRANCH  12  13
ENDBRANCH  11  12
ENDBRANCH  10  11
ENDBRANCH   9  10
ENDBRANCH   8   9
ENDBRANCH   7   8
ENDBRANCH   6   7
ENDBRANCH   5   6
ENDBRANCH   4   5
ENDBRANCH   3   4
ENDBRANCH   2   3
ENDBRANCH   1   2
BRANCH   1  17
ATOM     17  C   UNL     1       8.144  75.877  37.026  1.00  0.00     0.000 C 
BRANCH  17  18
ATOM     18  C   UNL     1       7.688  74.449  36.670  1.00  0.00     0.000 C 
BRANCH  18  19
ATOM     19  C   UNL     1       8.848  73.438  36.686  1.00  0.00     0.000 C 
BRANCH  19  20
ATOM     20  C   UNL     1       8.584  72.158  37.507  1.00  0.00     0.000 C 
BRANCH  20  21
ATOM     21  C   UNL     1       7.104  71.740  37.620  1.00  0.00     0.000 C 
BRANCH  21  22
ATOM     22  C   UNL     1       6.760  70.906  38.868  1.00  0.00    -0.000 C 
BRANCH  22  23
ATOM     23  C   UNL     1       5.313  71.119  39.342  1.00  0.00    -0.000 C 
BRANCH  23  24
ATOM     24  C   UNL     1       4.948  72.605  39.481  1.00  0.00    -0.000 C 
BRANCH  24  25
ATOM     25  C   UNL     1       5.919  73.371  40.399  1.00  0.00    -0.000 C 
BRANCH  25  26
ATOM     26  C   UNL     1       6.192  74.802  39.891  1.00  0.00    -0.000 C 
BRANCH  26  27
ATOM     27  C   UNL     1       4.958  75.476  39.268  1.00  0.00    -0.000 C 
BRANCH  27  28
ATOM     28  C   UNL     1       5.216  76.936  38.863  1.00  0.00    -0.000 C 
BRANCH  28  29
ATOM     29  C   UNL     1       5.997  77.716  39.932  1.00  0.00    -0.003 C 
ATOM     30  C   UNL     1       5.290  79.002  40.360  1.00  0.00     0.004 C 
ENDBRANCH  28  29
ENDBRANCH  27  28
ENDBRANCH  26  27
ENDBRANCH  25  26
ENDBRANCH  24  25
ENDBRANCH  23  24
ENDBRANCH  22  23
ENDBRANCH  21  22
ENDBRANCH  20  21
ENDBRANCH  19  20
ENDBRANCH  18  19
ENDBRANCH  17  18
ENDBRANCH   1  17
TORSDOF 26
ENDMDL
MODEL 3
REMARK VINA RESULT:    -4.819      3.200      8.181
REMARK INTER + INTRA:         -15.839
REMARK INTER:                 -11.926
REMARK INTRA:                  -3.913
REMARK UNBOUND:                -3.695
REMARK SMILES CCCCCCCCCCCCCCCCCCCCCCCCCCCC(=O)[O-]
REMARK SMILES IDX 15 1 16 2 17 3 18 4 19 5 20 6 21 7 22 8 23 9 24 10 25 11
REMARK SMILES IDX 26 12 27 13 28 14 29 15 30 16 14 17 13 18 12 19 11 20 10 21
REMARK SMILES IDX 9 22 8 23 7 24 6 25 5 26 4 27 3 28 2 29 1 30
REMARK H PARENT
REMARK Flexibility Score: inf
ROOT
ATOM      1  C   UNL     1       6.666  73.668  36.434  1.00  0.00     0.000 C 
ENDROOT
BRANCH   1   2
ATOM      2  C   UNL     1       7.930  74.340  37.007  1.00  0.00     0.000 C 
BRANCH   2   3
ATOM      3  C   UNL     1       7.920  75.875  36.854  1.00  0.00     0.000 C 
BRANCH   3   4
ATOM      4  C   UNL     1       9.321  76.513  36.753  1.00  0.00     0.000 C 
BRANCH   4   5
ATOM      5  C   UNL     1       9.357  77.937  36.172  1.00  0.00     0.000 C 
BRANCH   5   6
ATOM      6  C   UNL     1       8.869  79.002  37.167  1.00  0.00     0.000 C 
BRANCH   6   7
ATOM      7  C   UNL     1       9.710  78.982  38.453  1.00  0.00     0.000 C 
BRANCH   7   8
ATOM      8  C   UNL     1      10.439  80.313  38.699  1.00  0.00     0.000 C 
BRANCH   8   9
ATOM      9  C   UNL     1       9.550  81.350  39.405  1.00  0.00     0.000 C 
BRANCH   9  10
ATOM     10  C   UNL     1      10.153  81.853  40.728  1.00  0.00     0.000 C 
BRANCH  10  11
ATOM     11  C   UNL     1      11.660  81.554  40.869  1.00  0.00     0.000 C 
BRANCH  11  12
ATOM     12  C   UNL     1      12.019  81.005  42.261  1.00  0.00     0.006 C 
BRANCH  12  13
ATOM     13  C   UNL     1      10.952  80.044  42.801  1.00  0.00     0.053 C 
BRANCH  13  14
ATOM     14  C   UNL     1      10.467  80.455  44.157  1.00  0.00     0.041 C 
ATOM     15  O   UNL     1      10.494  79.640  45.116  1.00  0.00    -0.550 OA
ATOM     16  O   UNL     1       9.945  81.728  44.352  1.00  0.00    -0.550 OA
ENDBRANCH  13  14
ENDBRANCH  12  13
ENDBRANCH  11  12
ENDBRANCH  10  11
ENDBRANCH   9  10
ENDBRANCH   8   9
ENDBRANCH   7   8
ENDBRANCH   6   7
ENDBRANCH   5   6
ENDBRANCH   4   5
ENDBRANCH   3   4
ENDBRANCH   2   3
ENDBRANCH   1   2
BRANCH   1  17
ATOM     17  C   UNL     1       6.765  72.135  36.399  1.00  0.00     0.000 C 
BRANCH  17  18
ATOM     18  C   UNL     1       5.498  71.441  36.934  1.00  0.00     0.000 C 
BRANCH  18  19
ATOM     19  C   UNL     1       5.705  70.834  38.334  1.00  0.00     0.000 C 
BRANCH  19  20
ATOM     20  C   UNL     1       5.242  71.726  39.504  1.00  0.00     0.000 C 
BRANCH  20  21
ATOM     21  C   UNL     1       6.325  72.647  40.101  1.00  0.00     0.000 C 
BRANCH  21  22
ATOM     22  C   UNL     1       5.988  74.149  40.068  1.00  0.00    -0.000 C 
BRANCH  22  23
ATOM     23  C   UNL     1       4.548  74.422  39.601  1.00  0.00    -0.000 C 
BRANCH  23  24
ATOM     24  C   UNL     1       4.403  75.776  38.889  1.00  0.00    -0.000 C 
BRANCH  24  25
ATOM     25  C   UNL     1       5.382  76.836  39.426  1.00  0.00    -0.000 C 
BRANCH  25  26
ATOM     26  C   UNL     1       5.502  78.049  38.479  1.00  0.00    -0.000 C 
BRANCH  26  27
ATOM     27  C   UNL     1       5.568  79.396  39.218  1.00  0.00    -0.000 C 
BRANCH  27  28
ATOM     28  C   UNL     1       6.584  79.396  40.371  1.00  0.00    -0.000 C 
BRANCH  28  29
ATOM     29  C   UNL     1       5.957  79.814  41.710  1.00  0.00    -0.003 C 
ATOM     30  C   UNL     1       4.468  79.480  41.795  1.00  0.00     0.004 C 
ENDBRANCH  28  29
ENDBRANCH  27  28
ENDBRANCH  26  27
ENDBRANCH  25  26
ENDBRANCH  24  25
ENDBRANCH  23  24
ENDBRANCH  22  23
ENDBRANCH  21  22
ENDBRANCH  20  21
ENDBRANCH  19  20
ENDBRANCH  18  19
ENDBRANCH  17  18
ENDBRANCH   1  17
TORSDOF 26
ENDMDL
MODEL 4
REMARK VINA RESULT:    -4.741      3.108      9.085
REMARK INTER + INTRA:         -15.643
REMARK INTER:                 -11.580
REMARK INTRA:                  -4.063
REMARK UNBOUND:                -3.695
REMARK SMILES CCCCCCCCCCCCCCCCCCCCCCCCCCCC(=O)[O-]
REMARK SMILES IDX 15 1 16 2 17 3 18 4 19 5 20 6 21 7 22 8 23 9 24 10 25 11
REMARK SMILES IDX 26 12 27 13 28 14 29 15 30 16 14 17 13 18 12 19 11 20 10 21
REMARK SMILES IDX 9 22 8 23 7 24 6 25 5 26 4 27 3 28 2 29 1 30
REMARK H PARENT
REMARK Flexibility Score: inf
ROOT
ATOM      1  C   UNL     1       5.822  79.797  38.229  1.00  0.00     0.000 C 
ENDROOT
BRANCH   1   2
ATOM      2  C   UNL     1       6.077  79.073  36.892  1.00  0.00     0.000 C 
BRANCH   2   3
ATOM      3  C   UNL     1       7.519  79.253  36.373  1.00  0.00     0.000 C 
BRANCH   3   4
ATOM      4  C   UNL     1       8.390  77.984  36.460  1.00  0.00     0.000 C 
BRANCH   4   5
ATOM      5  C   UNL     1       9.680  78.125  37.286  1.00  0.00     0.000 C 
BRANCH   5   6
ATOM      6  C   UNL     1       9.673  79.358  38.202  1.00  0.00     0.000 C 
BRANCH   6   7
ATOM      7  C   UNL     1       9.343  78.967  39.651  1.00  0.00     0.000 C 
BRANCH   7   8
ATOM      8  C   UNL     1       9.477  80.149  40.624  1.00  0.00     0.000 C 
BRANCH   8   9
ATOM      9  C   UNL     1      10.623  81.100  40.243  1.00  0.00     0.000 C 
BRANCH   9  10
ATOM     10  C   UNL     1      11.988  80.638  40.782  1.00  0.00     0.000 C 
BRANCH  10  11
ATOM     11  C   UNL     1      12.001  80.414  42.308  1.00  0.00     0.000 C 
BRANCH  11  12
ATOM     12  C   UNL     1      12.409  81.681  43.081  1.00  0.00     0.006 C 
BRANCH  12  13
ATOM     13  C   UNL     1      11.701  81.789  44.437  1.00  0.00     0.053 C 
BRANCH  13  14
ATOM     14  C   UNL     1      10.268  81.358  44.353  1.00  0.00     0.041 C 
ATOM     15  O   UNL     1       9.889  80.299  44.918  1.00  0.00    -0.550 OA
ATOM     16  O   UNL     1       9.361  82.104  43.613  1.00  0.00    -0.550 OA
ENDBRANCH  13  14
ENDBRANCH  12  13
ENDBRANCH  11  12
ENDBRANCH  10  11
ENDBRANCH   9  10
ENDBRANCH   8   9
ENDBRANCH   7   8
ENDBRANCH   6   7
ENDBRANCH   5   6
ENDBRANCH   4   5
ENDBRANCH   3   4
ENDBRANCH   2   3
ENDBRANCH   1   2
BRANCH   1  17
ATOM     17  C   UNL     1       5.590  78.831  39.401  1.00  0.00     0.000 C 
BRANCH  17  18
ATOM     18  C   UNL     1       5.453  77.364  38.949  1.00  0.00     0.000 C 
BRANCH  18  19
ATOM     19  C   UNL     1       6.591  76.474  39.482  1.00  0.00     0.000 C 
BRANCH  19  20
ATOM     20  C   UNL     1       6.250  74.973  39.581  1.00  0.00     0.000 C 
BRANCH  20  21
ATOM     21  C   UNL     1       4.745  74.642  39.666  1.00  0.00     0.000 C 
BRANCH  21  22
ATOM     22  C   UNL     1       4.227  73.698  38.565  1.00  0.00    -0.000 C 
BRANCH  22  23
ATOM     23  C   UNL     1       4.667  74.133  37.157  1.00  0.00    -0.000 C 
BRANCH  23  24
ATOM     24  C   UNL     1       5.342  72.999  36.370  1.00  0.00    -0.000 C 
BRANCH  24  25
ATOM     25  C   UNL     1       5.079  71.613  36.986  1.00  0.00    -0.000 C 
BRANCH  25  26
ATOM     26  C   UNL     1       6.388  70.881  37.349  1.00  0.00    -0.000 C 
BRANCH  26  27
ATOM     27  C   UNL     1       6.848  71.131  38.795  1.00  0.00    -0.000 C 
BRANCH  27  28
ATOM     28  C   UNL     1       8.122  71.987  38.876  1.00  0.00    -0.000 C 
BRANCH  28  29
ATOM     29  C   UNL     1       8.872  72.058  37.536  1.00  0.00    -0.003 C 
ATOM     30  C   UNL     1       8.833  73.452  36.910  1.00  0.00     0.004 C 
ENDBRANCH  28  29
ENDBRANCH  27  28
ENDBRANCH  26  27
ENDBRANCH  25  26
ENDBRANCH  24  25
ENDBRANCH  23  24
ENDBRANCH  22  23
ENDBRANCH  21  22
ENDBRANCH  20  21
ENDBRANCH  19  20
ENDBRANCH  18  19
ENDBRANCH  17  18
ENDBRANCH   1  17
TORSDOF 26
ENDMDL
MODEL 5
REMARK VINA RESULT:    -4.663      3.544      6.254
REMARK INTER + INTRA:         -15.446
REMARK INTER:                 -11.422
REMARK INTRA:                  -4.024
REMARK UNBOUND:                -3.695
REMARK SMILES CCCCCCCCCCCCCCCCCCCCCCCCCCCC(=O)[O-]
REMARK SMILES IDX 15 1 16 2 17 3 18 4 19 5 20 6 21 7 22 8 23 9 24 10 25 11
REMARK SMILES IDX 26 12 27 13 28 14 29 15 30 16 14 17 13 18 12 19 11 20 10 21
REMARK SMILES IDX 9 22 8 23 7 24 6 25 5 26 4 27 3 28 2 29 1 30
REMARK H PARENT
REMARK Flexibility Score: inf
ROOT
ATOM      1  C   UNL     1       6.929  73.777  36.244  1.00  0.00     0.000 C 
ENDROOT
BRANCH   1   2
ATOM      2  C   UNL     1       8.420  73.731  36.633  1.00  0.00     0.000 C 
BRANCH   2   3
ATOM      3  C   UNL     1       8.975  72.295  36.731  1.00  0.00     0.000 C 
BRANCH   3   4
ATOM      4  C   UNL     1       9.413  71.878  38.150  1.00  0.00     0.000 C 
BRANCH   4   5
ATOM      5  C   UNL     1       8.288  71.817  39.197  1.00  0.00     0.000 C 
BRANCH   5   6
ATOM      6  C   UNL     1       7.193  70.798  38.842  1.00  0.00     0.000 C 
BRANCH   6   7
ATOM      7  C   UNL     1       5.795  71.377  39.105  1.00  0.00     0.000 C 
BRANCH   7   8
ATOM      8  C   UNL     1       4.837  71.162  37.921  1.00  0.00     0.000 C 
BRANCH   8   9
ATOM      9  C   UNL     1       5.541  70.557  36.696  1.00  0.00     0.000 C 
BRANCH   9  10
ATOM     10  C   UNL     1       4.975  69.182  36.300  1.00  0.00     0.000 C 
BRANCH  10  11
ATOM     11  C   UNL     1       4.230  68.471  37.449  1.00  0.00     0.000 C 
BRANCH  11  12
ATOM     12  C   UNL     1       5.137  67.490  38.214  1.00  0.00     0.006 C 
BRANCH  12  13
ATOM     13  C   UNL     1       4.630  67.217  39.636  1.00  0.00     0.053 C 
BRANCH  13  14
ATOM     14  C   UNL     1       3.586  66.144  39.658  1.00  0.00     0.041 C 
ATOM     15  O   UNL     1       2.421  66.399  40.060  1.00  0.00    -0.550 OA
ATOM     16  O   UNL     1       3.912  64.849  39.275  1.00  0.00    -0.550 OA
ENDBRANCH  13  14
ENDBRANCH  12  13
ENDBRANCH  11  12
ENDBRANCH  10  11
ENDBRANCH   9  10
ENDBRANCH   8   9
ENDBRANCH   7   8
ENDBRANCH   6   7
ENDBRANCH   5   6
ENDBRANCH   4   5
ENDBRANCH   3   4
ENDBRANCH   2   3
ENDBRANCH   1   2
BRANCH   1  17
ATOM     17  C   UNL     1       6.125  74.793  37.072  1.00  0.00     0.000 C 
BRANCH  17  18
ATOM     18  C   UNL     1       6.711  75.017  38.478  1.00  0.00     0.000 C 
BRANCH  18  19
ATOM     19  C   UNL     1       5.634  75.384  39.515  1.00  0.00     0.000 C 
BRANCH  19  20
ATOM     20  C   UNL     1       4.659  76.496  39.073  1.00  0.00     0.000 C 
BRANCH  20  21
ATOM     21  C   UNL     1       5.033  77.921  39.531  1.00  0.00     0.000 C 
BRANCH  21  22
ATOM     22  C   UNL     1       6.222  78.550  38.782  1.00  0.00    -0.000 C 
BRANCH  22  23
ATOM     23  C   UNL     1       6.070  78.468  37.254  1.00  0.00    -0.000 C 
BRANCH  23  24
ATOM     24  C   UNL     1       7.368  78.818  36.510  1.00  0.00    -0.000 C 
BRANCH  24  25
ATOM     25  C   UNL     1       8.506  77.824  36.805  1.00  0.00    -0.000 C 
BRANCH  25  26
ATOM     26  C   UNL     1       9.780  78.532  37.313  1.00  0.00    -0.000 C 
BRANCH  26  27
ATOM     27  C   UNL     1       9.489  79.815  38.110  1.00  0.00    -0.000 C 
BRANCH  27  28
ATOM     28  C   UNL     1      10.746  80.406  38.768  1.00  0.00    -0.000 C 
BRANCH  28  29
ATOM     29  C   UNL     1      10.736  80.259  40.297  1.00  0.00    -0.003 C 
ATOM     30  C   UNL     1      11.860  81.044  40.974  1.00  0.00     0.004 C 
ENDBRANCH  28  29
ENDBRANCH  27  28
ENDBRANCH  26  27
ENDBRANCH  25  26
ENDBRANCH  24  25
ENDBRANCH  23  24
ENDBRANCH  22  23
ENDBRANCH  21  22
ENDBRANCH  20  21
ENDBRANCH  19  20
ENDBRANCH  18  19
ENDBRANCH  17  18
ENDBRANCH   1  17
TORSDOF 26
ENDMDL
MODEL 6
REMARK VINA RESULT:    -4.642      3.129      8.690
REMARK INTER + INTRA:         -15.392
REMARK INTER:                 -11.851
REMARK INTRA:                  -3.541
REMARK UNBOUND:                -3.695
REMARK SMILES CCCCCCCCCCCCCCCCCCCCCCCCCCCC(=O)[O-]
REMARK SMILES IDX 15 1 16 2 17 3 18 4 19 5 20 6 21 7 22 8 23 9 24 10 25 11
REMARK SMILES IDX 26 12 27 13 28 14 29 15 30 16 14 17 13 18 12 19 11 20 10 21
REMARK SMILES IDX 9 22 8 23 7 24 6 25 5 26 4 27 3 28 2 29 1 30
REMARK H PARENT
REMARK Flexibility Score: inf
ROOT
ATOM      1  C   UNL     1       4.933  76.955  39.257  1.00  0.00     0.000 C 
ENDROOT
BRANCH   1   2
ATOM      2  C   UNL     1       5.633  78.210  39.815  1.00  0.00     0.000 C 
BRANCH   2   3
ATOM      3  C   UNL     1       5.213  79.508  39.095  1.00  0.00     0.000 C 
BRANCH   3   4
ATOM      4  C   UNL     1       6.255  80.045  38.093  1.00  0.00     0.000 C 
BRANCH   4   5
ATOM      5  C   UNL     1       6.300  79.321  36.736  1.00  0.00     0.000 C 
BRANCH   5   6
ATOM      6  C   UNL     1       7.716  78.876  36.341  1.00  0.00     0.000 C 
BRANCH   6   7
ATOM      7  C   UNL     1       8.494  78.362  37.563  1.00  0.00     0.000 C 
BRANCH   7   8
ATOM      8  C   UNL     1       9.948  78.859  37.586  1.00  0.00     0.000 C 
BRANCH   8   9
ATOM      9  C   UNL     1      10.144  80.068  38.515  1.00  0.00     0.000 C 
BRANCH   9  10
ATOM     10  C   UNL     1       9.587  79.830  39.930  1.00  0.00     0.000 C 
BRANCH  10  11
ATOM     11  C   UNL     1      10.683  79.661  41.002  1.00  0.00     0.000 C 
BRANCH  11  12
ATOM     12  C   UNL     1      10.847  80.919  41.873  1.00  0.00     0.006 C 
BRANCH  12  13
ATOM     13  C   UNL     1       9.524  81.670  42.065  1.00  0.00     0.053 C 
BRANCH  13  14
ATOM     14  C   UNL     1       8.814  81.237  43.311  1.00  0.00     0.041 C 
ATOM     15  O   UNL     1       7.556  81.214  43.350  1.00  0.00    -0.550 OA
ATOM     16  O   UNL     1       9.542  80.899  44.444  1.00  0.00    -0.550 OA
ENDBRANCH  13  14
ENDBRANCH  12  13
ENDBRANCH  11  12
ENDBRANCH  10  11
ENDBRANCH   9  10
ENDBRANCH   8   9
ENDBRANCH   7   8
ENDBRANCH   6   7
ENDBRANCH   5   6
ENDBRANCH   4   5
ENDBRANCH   3   4
ENDBRANCH   2   3
ENDBRANCH   1   2
BRANCH   1  17
ATOM     17  C   UNL     1       5.920  75.869  38.802  1.00  0.00     0.000 C 
BRANCH  17  18
ATOM     18  C   UNL     1       5.926  75.668  37.275  1.00  0.00     0.000 C 
BRANCH  18  19
ATOM     19  C   UNL     1       5.250  74.351  36.851  1.00  0.00     0.000 C 
BRANCH  19  20
ATOM     20  C   UNL     1       4.260  73.768  37.880  1.00  0.00     0.000 C 
BRANCH  20  21
ATOM     21  C   UNL     1       4.100  72.234  37.847  1.00  0.00     0.000 C 
BRANCH  21  22
ATOM     22  C   UNL     1       5.289  71.447  38.426  1.00  0.00    -0.000 C 
BRANCH  22  23
ATOM     23  C   UNL     1       5.893  72.118  39.671  1.00  0.00    -0.000 C 
BRANCH  23  24
ATOM     24  C   UNL     1       7.371  72.492  39.483  1.00  0.00    -0.000 C 
BRANCH  24  25
ATOM     25  C   UNL     1       8.070  71.629  38.417  1.00  0.00    -0.000 C 
BRANCH  25  26
ATOM     26  C   UNL     1       8.403  72.435  37.144  1.00  0.00    -0.000 C 
BRANCH  26  27
ATOM     27  C   UNL     1       9.883  72.843  37.047  1.00  0.00    -0.000 C 
BRANCH  27  28
ATOM     28  C   UNL     1      10.840  71.644  37.149  1.00  0.00    -0.000 C 
BRANCH  28  29
ATOM     29  C   UNL     1      12.037  71.921  38.071  1.00  0.00    -0.003 C 
ATOM     30  C   UNL     1      13.085  72.827  37.423  1.00  0.00     0.004 C 
ENDBRANCH  28  29
ENDBRANCH  27  28
ENDBRANCH  26  27
ENDBRANCH  25  26
ENDBRANCH  24  25
ENDBRANCH  23  24
ENDBRANCH  22  23
ENDBRANCH  21  22
ENDBRANCH  20  21
ENDBRANCH  19  20
ENDBRANCH  18  19
ENDBRANCH  17  18
ENDBRANCH   1  17
TORSDOF 26
ENDMDL
MODEL 7
REMARK VINA RESULT:    -4.625      1.842      3.679
REMARK INTER + INTRA:         -15.350
REMARK INTER:                 -11.227
REMARK INTRA:                  -4.123
REMARK UNBOUND:                -3.695
REMARK SMILES CCCCCCCCCCCCCCCCCCCCCCCCCCCC(=O)[O-]
REMARK SMILES IDX 15 1 16 2 17 3 18 4 19 5 20 6 21 7 22 8 23 9 24 10 25 11
REMARK SMILES IDX 26 12 27 13 28 14 29 15 30 16 14 17 13 18 12 19 11 20 10 21
REMARK SMILES IDX 9 22 8 23 7 24 6 25 5 26 4 27 3 28 2 29 1 30
REMARK H PARENT
REMARK Flexibility Score: inf
ROOT
ATOM      1  C   UNL     1       5.307  79.260  39.052  1.00  0.00     0.000 C 
ENDROOT
BRANCH   1   2
ATOM      2  C   UNL     1       5.983  80.258  38.091  1.00  0.00     0.000 C 
BRANCH   2   3
ATOM      3  C   UNL     1       5.970  79.785  36.622  1.00  0.00     0.000 C 
BRANCH   3   4
ATOM      4  C   UNL     1       7.260  79.068  36.174  1.00  0.00     0.000 C 
BRANCH   4   5
ATOM      5  C   UNL     1       8.441  79.160  37.155  1.00  0.00     0.000 C 
BRANCH   5   6
ATOM      6  C   UNL     1       8.810  77.804  37.777  1.00  0.00     0.000 C 
BRANCH   6   7
ATOM      7  C   UNL     1       8.750  76.682  36.728  1.00  0.00     0.000 C 
BRANCH   7   8
ATOM      8  C   UNL     1       7.786  75.554  37.128  1.00  0.00     0.000 C 
BRANCH   8   9
ATOM      9  C   UNL     1       6.766  75.998  38.189  1.00  0.00     0.000 C 
BRANCH   9  10
ATOM     10  C   UNL     1       5.314  75.936  37.685  1.00  0.00     0.000 C 
BRANCH  10  11
ATOM     11  C   UNL     1       4.282  75.710  38.809  1.00  0.00     0.000 C 
BRANCH  11  12
ATOM     12  C   UNL     1       4.546  74.412  39.591  1.00  0.00     0.006 C 
BRANCH  12  13
ATOM     13  C   UNL     1       4.597  73.181  38.677  1.00  0.00     0.053 C 
BRANCH  13  14
ATOM     14  C   UNL     1       5.565  72.154  39.181  1.00  0.00     0.041 C 
ATOM     15  O   UNL     1       5.147  71.054  39.630  1.00  0.00    -0.550 OA
ATOM     16  O   UNL     1       6.926  72.428  39.193  1.00  0.00    -0.550 OA
ENDBRANCH  13  14
ENDBRANCH  12  13
ENDBRANCH  11  12
ENDBRANCH  10  11
ENDBRANCH   9  10
ENDBRANCH   8   9
ENDBRANCH   7   8
ENDBRANCH   6   7
ENDBRANCH   5   6
ENDBRANCH   4   5
ENDBRANCH   3   4
ENDBRANCH   2   3
ENDBRANCH   1   2
BRANCH   1  17
ATOM     17  C   UNL     1       6.171  78.932  40.280  1.00  0.00     0.000 C 
BRANCH  17  18
ATOM     18  C   UNL     1       7.037  80.121  40.738  1.00  0.00     0.000 C 
BRANCH  18  19
ATOM     19  C   UNL     1       8.535  79.772  40.796  1.00  0.00     0.000 C 
BRANCH  19  20
ATOM     20  C   UNL     1       9.478  80.869  40.258  1.00  0.00     0.000 C 
BRANCH  20  21
ATOM     21  C   UNL     1      10.984  80.603  40.464  1.00  0.00     0.000 C 
BRANCH  21  22
ATOM     22  C   UNL     1      11.725  81.678  41.280  1.00  0.00    -0.000 C 
BRANCH  22  23
ATOM     23  C   UNL     1      12.173  81.169  42.660  1.00  0.00    -0.000 C 
BRANCH  23  24
ATOM     24  C   UNL     1      11.024  80.537  43.461  1.00  0.00    -0.000 C 
BRANCH  24  25
ATOM     25  C   UNL     1      10.335  81.542  44.402  1.00  0.00    -0.000 C 
BRANCH  25  26
ATOM     26  C   UNL     1       9.215  82.330  43.691  1.00  0.00    -0.000 C 
BRANCH  26  27
ATOM     27  C   UNL     1       7.874  82.303  44.444  1.00  0.00    -0.000 C 
BRANCH  27  28
ATOM     28  C   UNL     1       7.476  80.891  44.902  1.00  0.00    -0.000 C 
BRANCH  28  29
ATOM     29  C   UNL     1       7.216  80.813  46.414  1.00  0.00    -0.003 C 
ATOM     30  C   UNL     1       6.454  79.550  46.818  1.00  0.00     0.004 C 
ENDBRANCH  28  29
ENDBRANCH  27  28
ENDBRANCH  26  27
ENDBRANCH  25  26
ENDBRANCH  24  25
ENDBRANCH  23  24
ENDBRANCH  22  23
ENDBRANCH  21  22
ENDBRANCH  20  21
ENDBRANCH  19  20
ENDBRANCH  18  19
ENDBRANCH  17  18
ENDBRANCH   1  17
TORSDOF 26
ENDMDL
MODEL 8
REMARK VINA RESULT:    -4.567      3.334      8.977
REMARK INTER + INTRA:         -15.204
REMARK INTER:                 -12.145
REMARK INTRA:                  -3.059
REMARK UNBOUND:                -3.695
REMARK SMILES CCCCCCCCCCCCCCCCCCCCCCCCCCCC(=O)[O-]
REMARK SMILES IDX 15 1 16 2 17 3 18 4 19 5 20 6 21 7 22 8 23 9 24 10 25 11
REMARK SMILES IDX 26 12 27 13 28 14 29 15 30 16 14 17 13 18 12 19 11 20 10 21
REMARK SMILES IDX 9 22 8 23 7 24 6 25 5 26 4 27 3 28 2 29 1 30
REMARK H PARENT
REMARK Flexibility Score: inf
ROOT
ATOM      1  C   UNL     1       8.883  77.850  36.877  1.00  0.00     0.000 C 
ENDROOT
BRANCH   1   2
ATOM      2  C   UNL     1       9.752  78.279  38.076  1.00  0.00     0.000 C 
BRANCH   2   3
ATOM      3  C   UNL     1      10.100  79.782  38.064  1.00  0.00     0.000 C 
BRANCH   3   4
ATOM      4  C   UNL     1      10.175  80.428  39.462  1.00  0.00     0.000 C 
BRANCH   4   5
ATOM      5  C   UNL     1      11.580  80.491  40.085  1.00  0.00     0.000 C 
BRANCH   5   6
ATOM      6  C   UNL     1      11.582  80.186  41.591  1.00  0.00     0.000 C 
BRANCH   6   7
ATOM      7  C   UNL     1      12.363  81.256  42.370  1.00  0.00     0.000 C 
BRANCH   7   8
ATOM      8  C   UNL     1      11.600  82.587  42.466  1.00  0.00     0.000 C 
BRANCH   8   9
ATOM      9  C   UNL     1      10.088  82.388  42.662  1.00  0.00     0.000 C 
BRANCH   9  10
ATOM     10  C   UNL     1       9.683  82.314  44.145  1.00  0.00     0.000 C 
BRANCH  10  11
ATOM     11  C   UNL     1       8.978  80.995  44.524  1.00  0.00     0.000 C 
BRANCH  11  12
ATOM     12  C   UNL     1       7.549  81.226  45.045  1.00  0.00     0.006 C 
BRANCH  12  13
ATOM     13  C   UNL     1       7.397  80.834  46.520  1.00  0.00     0.053 C 
BRANCH  13  14
ATOM     14  C   UNL     1       7.201  79.358  46.687  1.00  0.00     0.041 C 
ATOM     15  O   UNL     1       8.166  78.623  47.025  1.00  0.00    -0.550 OA
ATOM     16  O   UNL     1       5.961  78.789  46.427  1.00  0.00    -0.550 OA
ENDBRANCH  13  14
ENDBRANCH  12  13
ENDBRANCH  11  12
ENDBRANCH  10  11
ENDBRANCH   9  10
ENDBRANCH   8   9
ENDBRANCH   7   8
ENDBRANCH   6   7
ENDBRANCH   5   6
ENDBRANCH   4   5
ENDBRANCH   3   4
ENDBRANCH   2   3
ENDBRANCH   1   2
BRANCH   1  17
ATOM     17  C   UNL     1       8.114  79.021  36.245  1.00  0.00     0.000 C 
BRANCH  17  18
ATOM     18  C   UNL     1       6.596  78.944  36.495  1.00  0.00     0.000 C 
BRANCH  18  19
ATOM     19  C   UNL     1       6.138  79.872  37.634  1.00  0.00     0.000 C 
BRANCH  19  20
ATOM     20  C   UNL     1       6.419  79.343  39.056  1.00  0.00     0.000 C 
BRANCH  20  21
ATOM     21  C   UNL     1       5.242  78.611  39.732  1.00  0.00     0.000 C 
BRANCH  21  22
ATOM     22  C   UNL     1       5.420  77.087  39.867  1.00  0.00    -0.000 C 
BRANCH  22  23
ATOM     23  C   UNL     1       4.464  76.297  38.958  1.00  0.00    -0.000 C 
BRANCH  23  24
ATOM     24  C   UNL     1       5.202  75.500  37.871  1.00  0.00    -0.000 C 
BRANCH  24  25
ATOM     25  C   UNL     1       6.716  75.399  38.137  1.00  0.00    -0.000 C 
BRANCH  25  26
ATOM     26  C   UNL     1       7.414  74.433  37.156  1.00  0.00    -0.000 C 
BRANCH  26  27
ATOM     27  C   UNL     1       6.945  72.975  37.297  1.00  0.00    -0.000 C 
BRANCH  27  28
ATOM     28  C   UNL     1       7.391  72.330  38.619  1.00  0.00    -0.000 C 
BRANCH  28  29
ATOM     29  C   UNL     1       6.279  72.332  39.680  1.00  0.00    -0.003 C 
ATOM     30  C   UNL     1       5.190  71.297  39.397  1.00  0.00     0.004 C 
ENDBRANCH  28  29
ENDBRANCH  27  28
ENDBRANCH  26  27
ENDBRANCH  25  26
ENDBRANCH  24  25
ENDBRANCH  23  24
ENDBRANCH  22  23
ENDBRANCH  21  22
ENDBRANCH  20  21
ENDBRANCH  19  20
ENDBRANCH  18  19
ENDBRANCH  17  18
ENDBRANCH   1  17
TORSDOF 26
ENDMDL
MODEL 9
REMARK VINA RESULT:    -4.533      1.530      2.059
REMARK INTER + INTRA:         -15.117
REMARK INTER:                 -11.318
REMARK INTRA:                  -3.799
REMARK UNBOUND:                -3.695
REMARK SMILES CCCCCCCCCCCCCCCCCCCCCCCCCCCC(=O)[O-]
REMARK SMILES IDX 15 1 16 2 17 3 18 4 19 5 20 6 21 7 22 8 23 9 24 10 25 11
REMARK SMILES IDX 26 12 27 13 28 14 29 15 30 16 14 17 13 18 12 19 11 20 10 21
REMARK SMILES IDX 9 22 8 23 7 24 6 25 5 26 4 27 3 28 2 29 1 30
REMARK H PARENT
REMARK Flexibility Score: inf
ROOT
ATOM      1  C   UNL     1       6.223  79.277  36.878  1.00  0.00     0.000 C 
ENDROOT
BRANCH   1   2
ATOM      2  C   UNL     1       5.963  80.160  38.114  1.00  0.00     0.000 C 
BRANCH   2   3
ATOM      3  C   UNL     1       5.254  79.405  39.258  1.00  0.00     0.000 C 
BRANCH   3   4
ATOM      4  C   UNL     1       6.027  78.179  39.786  1.00  0.00     0.000 C 
BRANCH   4   5
ATOM      5  C   UNL     1       5.358  76.818  39.530  1.00  0.00     0.000 C 
BRANCH   5   6
ATOM      6  C   UNL     1       6.106  75.968  38.492  1.00  0.00     0.000 C 
BRANCH   6   7
ATOM      7  C   UNL     1       5.124  75.280  37.531  1.00  0.00     0.000 C 
BRANCH   7   8
ATOM      8  C   UNL     1       4.153  74.336  38.259  1.00  0.00     0.000 C 
BRANCH   8   9
ATOM      9  C   UNL     1       3.680  73.175  37.370  1.00  0.00     0.000 C 
BRANCH   9  10
ATOM     10  C   UNL     1       4.730  72.757  36.325  1.00  0.00     0.000 C 
BRANCH  10  11
ATOM     11  C   UNL     1       5.630  71.594  36.791  1.00  0.00     0.000 C 
BRANCH  11  12
ATOM     12  C   UNL     1       7.120  71.864  36.519  1.00  0.00     0.006 C 
BRANCH  12  13
ATOM     13  C   UNL     1       7.753  72.766  37.585  1.00  0.00     0.053 C 
BRANCH  13  14
ATOM     14  C   UNL     1       7.646  72.169  38.955  1.00  0.00     0.041 C 
ATOM     15  O   UNL     1       8.178  71.056  39.206  1.00  0.00    -0.550 OA
ATOM     16  O   UNL     1       6.920  72.822  39.942  1.00  0.00    -0.550 OA
ENDBRANCH  13  14
ENDBRANCH  12  13
ENDBRANCH  11  12
ENDBRANCH  10  11
ENDBRANCH   9  10
ENDBRANCH   8   9
ENDBRANCH   7   8
ENDBRANCH   6   7
ENDBRANCH   5   6
ENDBRANCH   4   5
ENDBRANCH   3   4
ENDBRANCH   2   3
ENDBRANCH   1   2
BRANCH   1  17
ATOM     17  C   UNL     1       7.669  79.371  36.365  1.00  0.00     0.000 C 
BRANCH  17  18
ATOM     18  C   UNL     1       8.455  78.059  36.545  1.00  0.00     0.000 C 
BRANCH  18  19
ATOM     19  C   UNL     1       9.225  78.010  37.877  1.00  0.00     0.000 C 
BRANCH  19  20
ATOM     20  C   UNL     1       9.794  79.365  38.348  1.00  0.00     0.000 C 
BRANCH  20  21
ATOM     21  C   UNL     1       9.448  79.757  39.799  1.00  0.00     0.000 C 
BRANCH  21  22
ATOM     22  C   UNL     1      10.536  79.425  40.837  1.00  0.00    -0.000 C 
BRANCH  22  23
ATOM     23  C   UNL     1      11.644  80.489  40.894  1.00  0.00    -0.000 C 
BRANCH  23  24
ATOM     24  C   UNL     1      12.039  80.857  42.332  1.00  0.00    -0.000 C 
BRANCH  24  25
ATOM     25  C   UNL     1      11.006  80.380  43.370  1.00  0.00    -0.000 C 
BRANCH  25  26
ATOM     26  C   UNL     1      10.166  81.545  43.932  1.00  0.00    -0.000 C 
BRANCH  26  27
ATOM     27  C   UNL     1       8.906  81.846  43.103  1.00  0.00    -0.000 C 
BRANCH  27  28
ATOM     28  C   UNL     1       7.616  81.353  43.777  1.00  0.00    -0.000 C 
BRANCH  28  29
ATOM     29  C   UNL     1       7.658  81.494  45.306  1.00  0.00    -0.003 C 
ATOM     30  C   UNL     1       7.377  80.176  46.029  1.00  0.00     0.004 C 
ENDBRANCH  28  29
ENDBRANCH  27  28
ENDBRANCH  26  27
ENDBRANCH  25  26
ENDBRANCH  24  25
ENDBRANCH  23  24
ENDBRANCH  22  23
ENDBRANCH  21  22
ENDBRANCH  20  21
ENDBRANCH  19  20
ENDBRANCH  18  19
ENDBRANCH  17  18
ENDBRANCH   1  17
TORSDOF 26
ENDMDL
