MODEL 1
REMARK VINA RESULT:    -4.231      0.000      0.000
REMARK INTER + INTRA:         -10.039
REMARK INTER:                  -7.694
REMARK INTRA:                  -2.345
REMARK UNBOUND:                -2.345
REMARK SMILES CCCCCCCCCCCCCCCC(=O)[O-]
REMARK SMILES IDX 9 1 10 2 11 3 12 4 13 5 14 6 15 7 16 8 17 9 18 10 8 11 7 12
REMARK SMILES IDX 6 13 5 14 4 15 3 16 2 17 1 18
REMARK H PARENT
REMARK Flexibility Score: inf
ROOT
ATOM      1  C   UNL     1     115.739 121.494 133.799  1.00  0.00     0.000 C 
ENDROOT
BRANCH   1   2
ATOM      2  C   UNL     1     117.060 120.796 133.441  1.00  0.00     0.000 C 
BRANCH   2   3
ATOM      3  C   UNL     1     117.485 121.049 131.984  1.00  0.00     0.000 C 
BRANCH   3   4
ATOM      4  C   UNL     1     117.114 122.470 131.510  1.00  0.00     0.000 C 
BRANCH   4   5
ATOM      5  C   UNL     1     117.657 122.814 130.112  1.00  0.00     0.000 C 
BRANCH   5   6
ATOM      6  C   UNL     1     116.549 123.175 129.112  1.00  0.00     0.006 C 
BRANCH   6   7
ATOM      7  C   UNL     1     115.742 124.381 129.599  1.00  0.00     0.053 C 
BRANCH   7   8
ATOM      8  C   UNL     1     116.134 125.611 128.843  1.00  0.00     0.041 C 
ATOM      9  O   UNL     1     115.626 126.725 129.137  1.00  0.00    -0.550 OA
ATOM     10  O   UNL     1     117.097 125.537 127.846  1.00  0.00    -0.550 OA
ENDBRANCH   7   8
ENDBRANCH   6   7
ENDBRANCH   5   6
ENDBRANCH   4   5
ENDBRANCH   3   4
ENDBRANCH   2   3
ENDBRANCH   1   2
BRANCH   1  11
ATOM     11  C   UNL     1     114.591 120.494 134.026  1.00  0.00     0.000 C 
BRANCH  11  12
ATOM     12  C   UNL     1     113.756 120.258 132.757  1.00  0.00    -0.000 C 
BRANCH  12  13
ATOM     13  C   UNL     1     113.565 121.541 131.928  1.00  0.00    -0.000 C 
BRANCH  13  14
ATOM     14  C   UNL     1     113.763 121.310 130.421  1.00  0.00    -0.000 C 
BRANCH  14  15
ATOM     15  C   UNL     1     114.427 119.957 130.114  1.00  0.00    -0.000 C 
BRANCH  15  16
ATOM     16  C   UNL     1     114.434 119.633 128.612  1.00  0.00    -0.000 C 
BRANCH  16  17
ATOM     17  C   UNL     1     115.638 118.776 128.197  1.00  0.00    -0.003 C 
ATOM     18  C   UNL     1     116.934 119.325 128.791  1.00  0.00     0.004 C 
ENDBRANCH  16  17
ENDBRANCH  15  16
ENDBRANCH  14  15
ENDBRANCH  13  14
ENDBRANCH  12  13
ENDBRANCH  11  12
ENDBRANCH   1  11
TORSDOF 14
ENDMDL
MODEL 2
REMARK VINA RESULT:    -4.214      1.040      2.060
REMARK INTER + INTRA:         -10.008
REMARK INTER:                  -7.771
REMARK INTRA:                  -2.238
REMARK UNBOUND:                -2.345
REMARK SMILES CCCCCCCCCCCCCCCC(=O)[O-]
REMARK SMILES IDX 9 1 10 2 11 3 12 4 13 5 14 6 15 7 16 8 17 9 18 10 8 11 7 12
REMARK SMILES IDX 6 13 5 14 4 15 3 16 2 17 1 18
REMARK H PARENT
REMARK Flexibility Score: inf
ROOT
ATOM      1  C   UNL     1     117.786 120.488 132.867  1.00  0.00     0.000 C 
ENDROOT
BRANCH   1   2
ATOM      2  C   UNL     1     117.439 121.302 131.610  1.00  0.00     0.000 C 
BRANCH   2   3
ATOM      3  C   UNL     1     117.044 122.752 131.936  1.00  0.00     0.000 C 
BRANCH   3   4
ATOM      4  C   UNL     1     116.450 123.480 130.712  1.00  0.00     0.000 C 
BRANCH   4   5
ATOM      5  C   UNL     1     117.351 123.425 129.466  1.00  0.00     0.000 C 
BRANCH   5   6
ATOM      6  C   UNL     1     116.630 123.871 128.186  1.00  0.00     0.006 C 
BRANCH   6   7
ATOM      7  C   UNL     1     117.357 125.047 127.528  1.00  0.00     0.053 C 
BRANCH   7   8
ATOM      8  C   UNL     1     117.236 126.275 128.375  1.00  0.00     0.041 C 
ATOM      9  O   UNL     1     116.105 126.782 128.599  1.00  0.00    -0.550 OA
ATOM     10  O   UNL     1     118.366 126.832 128.957  1.00  0.00    -0.550 OA
ENDBRANCH   7   8
ENDBRANCH   6   7
ENDBRANCH   5   6
ENDBRANCH   4   5
ENDBRANCH   3   4
ENDBRANCH   2   3
ENDBRANCH   1   2
BRANCH   1  11
ATOM     11  C   UNL     1     116.913 120.874 134.073  1.00  0.00     0.000 C 
BRANCH  11  12
ATOM     12  C   UNL     1     115.708 119.936 134.253  1.00  0.00    -0.000 C 
BRANCH  12  13
ATOM     13  C   UNL     1     114.365 120.643 133.996  1.00  0.00    -0.000 C 
BRANCH  13  14
ATOM     14  C   UNL     1     113.774 120.312 132.616  1.00  0.00    -0.000 C 
BRANCH  14  15
ATOM     15  C   UNL     1     113.505 121.570 131.773  1.00  0.00    -0.000 C 
BRANCH  15  16
ATOM     16  C   UNL     1     113.736 121.333 130.272  1.00  0.00    -0.000 C 
BRANCH  16  17
ATOM     17  C   UNL     1     114.466 120.013 129.988  1.00  0.00    -0.003 C 
ATOM     18  C   UNL     1     115.343 120.127 128.743  1.00  0.00     0.004 C 
ENDBRANCH  16  17
ENDBRANCH  15  16
ENDBRANCH  14  15
ENDBRANCH  13  14
ENDBRANCH  12  13
ENDBRANCH  11  12
ENDBRANCH   1  11
TORSDOF 14
ENDMDL
MODEL 3
REMARK VINA RESULT:    -4.203      1.565      2.270
REMARK INTER + INTRA:          -9.989
REMARK INTER:                  -7.793
REMARK INTRA:                  -2.195
REMARK UNBOUND:                -2.345
REMARK SMILES CCCCCCCCCCCCCCCC(=O)[O-]
REMARK SMILES IDX 9 1 10 2 11 3 12 4 13 5 14 6 15 7 16 8 17 9 18 10 8 11 7 12
REMARK SMILES IDX 6 13 5 14 4 15 3 16 2 17 1 18
REMARK H PARENT
REMARK Flexibility Score: inf
ROOT
ATOM      1  C   UNL     1     115.661 119.951 134.610  1.00  0.00     0.000 C 
ENDROOT
BRANCH   1   2
ATOM      2  C   UNL     1     116.967 120.318 133.888  1.00  0.00     0.000 C 
BRANCH   2   3
ATOM      3  C   UNL     1     116.940 121.743 133.307  1.00  0.00     0.000 C 
BRANCH   3   4
ATOM      4  C   UNL     1     117.357 121.771 131.821  1.00  0.00     0.000 C 
BRANCH   4   5
ATOM      5  C   UNL     1     117.128 123.134 131.144  1.00  0.00     0.000 C 
BRANCH   5   6
ATOM      6  C   UNL     1     115.809 123.796 131.565  1.00  0.00     0.006 C 
BRANCH   6   7
ATOM      7  C   UNL     1     115.918 125.322 131.508  1.00  0.00     0.053 C 
BRANCH   7   8
ATOM      8  C   UNL     1     116.735 125.744 130.327  1.00  0.00     0.041 C 
ATOM      9  O   UNL     1     116.278 125.613 129.161  1.00  0.00    -0.550 OA
ATOM     10  O   UNL     1     117.980 126.327 130.516  1.00  0.00    -0.550 OA
ENDBRANCH   7   8
ENDBRANCH   6   7
ENDBRANCH   5   6
ENDBRANCH   4   5
ENDBRANCH   3   4
ENDBRANCH   2   3
ENDBRANCH   1   2
BRANCH   1  11
ATOM     11  C   UNL     1     114.461 120.768 134.101  1.00  0.00     0.000 C 
BRANCH  11  12
ATOM     12  C   UNL     1     113.690 120.048 132.982  1.00  0.00    -0.000 C 
BRANCH  12  13
ATOM     13  C   UNL     1     113.660 120.856 131.672  1.00  0.00    -0.000 C 
BRANCH  13  14
ATOM     14  C   UNL     1     114.336 120.120 130.504  1.00  0.00    -0.000 C 
BRANCH  14  15
ATOM     15  C   UNL     1     113.927 120.685 129.133  1.00  0.00    -0.000 C 
BRANCH  15  16
ATOM     16  C   UNL     1     114.922 121.731 128.608  1.00  0.00    -0.000 C 
BRANCH  16  17
ATOM     17  C   UNL     1     114.235 123.029 128.160  1.00  0.00    -0.003 C 
ATOM     18  C   UNL     1     113.021 123.337 129.033  1.00  0.00     0.004 C 
ENDBRANCH  16  17
ENDBRANCH  15  16
ENDBRANCH  14  15
ENDBRANCH  13  14
ENDBRANCH  12  13
ENDBRANCH  11  12
ENDBRANCH   1  11
TORSDOF 14
ENDMDL
MODEL 4
REMARK VINA RESULT:    -4.195      1.533      3.150
REMARK INTER + INTRA:          -9.974
REMARK INTER:                  -8.055
REMARK INTRA:                  -1.919
REMARK UNBOUND:                -2.345
REMARK SMILES CCCCCCCCCCCCCCCC(=O)[O-]
REMARK SMILES IDX 9 1 10 2 11 3 12 4 13 5 14 6 15 7 16 8 17 9 18 10 8 11 7 12
REMARK SMILES IDX 6 13 5 14 4 15 3 16 2 17 1 18
REMARK H PARENT
REMARK Flexibility Score: inf
ROOT
ATOM      1  C   UNL     1     117.638 122.211 131.866  1.00  0.00     0.000 C 
ENDROOT
BRANCH   1   2
ATOM      2  C   UNL     1     116.411 123.134 131.802  1.00  0.00     0.000 C 
BRANCH   2   3
ATOM      3  C   UNL     1     116.722 124.486 131.138  1.00  0.00     0.000 C 
BRANCH   3   4
ATOM      4  C   UNL     1     115.867 124.724 129.876  1.00  0.00     0.000 C 
BRANCH   4   5
ATOM      5  C   UNL     1     116.095 123.676 128.772  1.00  0.00     0.000 C 
BRANCH   5   6
ATOM      6  C   UNL     1     117.401 123.901 127.996  1.00  0.00     0.006 C 
BRANCH   6   7
ATOM      7  C   UNL     1     117.496 125.341 127.486  1.00  0.00     0.053 C 
BRANCH   7   8
ATOM      8  C   UNL     1     118.844 125.915 127.790  1.00  0.00     0.041 C 
ATOM      9  O   UNL     1     119.887 125.296 127.451  1.00  0.00    -0.550 OA
ATOM     10  O   UNL     1     118.950 127.156 128.402  1.00  0.00    -0.550 OA
ENDBRANCH   7   8
ENDBRANCH   6   7
ENDBRANCH   5   6
ENDBRANCH   4   5
ENDBRANCH   3   4
ENDBRANCH   2   3
ENDBRANCH   1   2
BRANCH   1  11
ATOM     11  C   UNL     1     117.308 120.839 132.479  1.00  0.00     0.000 C 
BRANCH  11  12
ATOM     12  C   UNL     1     116.812 120.945 133.930  1.00  0.00    -0.000 C 
BRANCH  12  13
ATOM     13  C   UNL     1     115.637 119.995 134.223  1.00  0.00    -0.000 C 
BRANCH  13  14
ATOM     14  C   UNL     1     114.270 120.632 133.928  1.00  0.00    -0.000 C 
BRANCH  14  15
ATOM     15  C   UNL     1     113.701 120.204 132.564  1.00  0.00    -0.000 C 
BRANCH  15  16
ATOM     16  C   UNL     1     113.418 121.400 131.643  1.00  0.00    -0.000 C 
BRANCH  16  17
ATOM     17  C   UNL     1     113.825 121.134 130.187  1.00  0.00    -0.003 C 
ATOM     18  C   UNL     1     114.670 119.868 130.075  1.00  0.00     0.004 C 
ENDBRANCH  16  17
ENDBRANCH  15  16
ENDBRANCH  14  15
ENDBRANCH  13  14
ENDBRANCH  12  13
ENDBRANCH  11  12
ENDBRANCH   1  11
TORSDOF 14
ENDMDL
MODEL 5
REMARK VINA RESULT:    -4.169      1.635      3.735
REMARK INTER + INTRA:          -9.926
REMARK INTER:                  -7.589
REMARK INTRA:                  -2.336
REMARK UNBOUND:                -2.345
REMARK SMILES CCCCCCCCCCCCCCCC(=O)[O-]
REMARK SMILES IDX 9 1 10 2 11 3 12 4 13 5 14 6 15 7 16 8 17 9 18 10 8 11 7 12
REMARK SMILES IDX 6 13 5 14 4 15 3 16 2 17 1 18
REMARK H PARENT
REMARK Flexibility Score: inf
ROOT
ATOM      1  C   UNL     1     113.331 122.846 130.664  1.00  0.00     0.000 C 
ENDROOT
BRANCH   1   2
ATOM      2  C   UNL     1     114.357 123.733 131.387  1.00  0.00     0.000 C 
BRANCH   2   3
ATOM      3  C   UNL     1     115.335 124.417 130.415  1.00  0.00     0.000 C 
BRANCH   3   4
ATOM      4  C   UNL     1     116.804 124.248 130.856  1.00  0.00     0.000 C 
BRANCH   4   5
ATOM      5  C   UNL     1     117.736 123.783 129.723  1.00  0.00     0.000 C 
BRANCH   5   6
ATOM      6  C   UNL     1     117.092 123.898 128.334  1.00  0.00     0.006 C 
BRANCH   6   7
ATOM      7  C   UNL     1     117.923 124.799 127.416  1.00  0.00     0.053 C 
BRANCH   7   8
ATOM      8  C   UNL     1     117.949 126.199 127.943  1.00  0.00     0.041 C 
ATOM      9  O   UNL     1     119.042 126.812 128.061  1.00  0.00    -0.550 OA
ATOM     10  O   UNL     1     116.762 126.846 128.257  1.00  0.00    -0.550 OA
ENDBRANCH   7   8
ENDBRANCH   6   7
ENDBRANCH   5   6
ENDBRANCH   4   5
ENDBRANCH   3   4
ENDBRANCH   2   3
ENDBRANCH   1   2
BRANCH   1  11
ATOM     11  C   UNL     1     113.685 122.630 129.183  1.00  0.00     0.000 C 
BRANCH  11  12
ATOM     12  C   UNL     1     114.013 121.162 128.863  1.00  0.00    -0.000 C 
BRANCH  12  13
ATOM     13  C   UNL     1     114.491 120.380 130.100  1.00  0.00    -0.000 C 
BRANCH  13  14
ATOM     14  C   UNL     1     116.022 120.346 130.227  1.00  0.00    -0.000 C 
BRANCH  14  15
ATOM     15  C   UNL     1     116.504 120.665 131.652  1.00  0.00    -0.000 C 
BRANCH  15  16
ATOM     16  C   UNL     1     115.364 120.628 132.681  1.00  0.00    -0.000 C 
BRANCH  16  17
ATOM     17  C   UNL     1     115.845 120.929 134.108  1.00  0.00    -0.003 C 
ATOM     18  C   UNL     1     116.048 119.642 134.903  1.00  0.00     0.004 C 
ENDBRANCH  16  17
ENDBRANCH  15  16
ENDBRANCH  14  15
ENDBRANCH  13  14
ENDBRANCH  12  13
ENDBRANCH  11  12
ENDBRANCH   1  11
TORSDOF 14
ENDMDL
MODEL 6
REMARK VINA RESULT:    -4.167      2.919      5.333
REMARK INTER + INTRA:          -9.923
REMARK INTER:                  -7.705
REMARK INTRA:                  -2.218
REMARK UNBOUND:                -2.345
REMARK SMILES CCCCCCCCCCCCCCCC(=O)[O-]
REMARK SMILES IDX 9 1 10 2 11 3 12 4 13 5 14 6 15 7 16 8 17 9 18 10 8 11 7 12
REMARK SMILES IDX 6 13 5 14 4 15 3 16 2 17 1 18
REMARK H PARENT
REMARK Flexibility Score: inf
ROOT
ATOM      1  C   UNL     1     113.767 123.166 129.718  1.00  0.00     0.000 C 
ENDROOT
BRANCH   1   2
ATOM      2  C   UNL     1     114.516 123.622 130.980  1.00  0.00     0.000 C 
BRANCH   2   3
ATOM      3  C   UNL     1     114.746 122.474 131.978  1.00  0.00     0.000 C 
BRANCH   3   4
ATOM      4  C   UNL     1     113.628 121.412 131.908  1.00  0.00     0.000 C 
BRANCH   4   5
ATOM      5  C   UNL     1     113.770 120.299 132.962  1.00  0.00     0.000 C 
BRANCH   5   6
ATOM      6  C   UNL     1     114.450 120.780 134.251  1.00  0.00     0.006 C 
BRANCH   6   7
ATOM      7  C   UNL     1     115.614 119.863 134.633  1.00  0.00     0.053 C 
BRANCH   7   8
ATOM      8  C   UNL     1     116.921 120.555 134.406  1.00  0.00     0.041 C 
ATOM      9  O   UNL     1     117.544 121.068 135.373  1.00  0.00    -0.550 OA
ATOM     10  O   UNL     1     117.476 120.592 133.135  1.00  0.00    -0.550 OA
ENDBRANCH   7   8
ENDBRANCH   6   7
ENDBRANCH   5   6
ENDBRANCH   4   5
ENDBRANCH   3   4
ENDBRANCH   2   3
ENDBRANCH   1   2
BRANCH   1  11
ATOM     11  C   UNL     1     114.669 123.159 128.472  1.00  0.00     0.000 C 
BRANCH  11  12
ATOM     12  C   UNL     1     115.926 124.025 128.650  1.00  0.00    -0.000 C 
BRANCH  12  13
ATOM     13  C   UNL     1     117.224 123.250 128.356  1.00  0.00    -0.000 C 
BRANCH  13  14
ATOM     14  C   UNL     1     117.389 122.009 129.247  1.00  0.00    -0.000 C 
BRANCH  14  15
ATOM     15  C   UNL     1     117.926 120.793 128.472  1.00  0.00    -0.000 C 
BRANCH  15  16
ATOM     16  C   UNL     1     117.024 119.558 128.618  1.00  0.00    -0.000 C 
BRANCH  16  17
ATOM     17  C   UNL     1     115.855 119.789 129.586  1.00  0.00    -0.003 C 
ATOM     18  C   UNL     1     114.522 119.432 128.933  1.00  0.00     0.004 C 
ENDBRANCH  16  17
ENDBRANCH  15  16
ENDBRANCH  14  15
ENDBRANCH  13  14
ENDBRANCH  12  13
ENDBRANCH  11  12
ENDBRANCH   1  11
TORSDOF 14
ENDMDL
MODEL 7
REMARK VINA RESULT:    -4.149      2.108      4.219
REMARK INTER + INTRA:          -9.890
REMARK INTER:                  -8.081
REMARK INTRA:                  -1.810
REMARK UNBOUND:                -2.345
REMARK SMILES CCCCCCCCCCCCCCCC(=O)[O-]
REMARK SMILES IDX 9 1 10 2 11 3 12 4 13 5 14 6 15 7 16 8 17 9 18 10 8 11 7 12
REMARK SMILES IDX 6 13 5 14 4 15 3 16 2 17 1 18
REMARK H PARENT
REMARK Flexibility Score: inf
ROOT
ATOM      1  C   UNL     1     115.768 123.431 130.227  1.00  0.00     0.000 C 
ENDROOT
BRANCH   1   2
ATOM      2  C   UNL     1     115.729 124.464 129.089  1.00  0.00     0.000 C 
BRANCH   2   3
ATOM      3  C   UNL     1     116.622 124.068 127.901  1.00  0.00     0.000 C 
BRANCH   3   4
ATOM      4  C   UNL     1     117.576 125.208 127.488  1.00  0.00     0.000 C 
BRANCH   4   5
ATOM      5  C   UNL     1     117.341 126.518 128.261  1.00  0.00     0.000 C 
BRANCH   5   6
ATOM      6  C   UNL     1     118.565 126.958 129.077  1.00  0.00     0.006 C 
BRANCH   6   7
ATOM      7  C   UNL     1     118.405 126.580 130.552  1.00  0.00     0.053 C 
BRANCH   7   8
ATOM      8  C   UNL     1     117.380 127.451 131.207  1.00  0.00     0.041 C 
ATOM      9  O   UNL     1     116.319 126.949 131.663  1.00  0.00    -0.550 OA
ATOM     10  O   UNL     1     117.617 128.810 131.359  1.00  0.00    -0.550 OA
ENDBRANCH   7   8
ENDBRANCH   6   7
ENDBRANCH   5   6
ENDBRANCH   4   5
ENDBRANCH   3   4
ENDBRANCH   2   3
ENDBRANCH   1   2
BRANCH   1  11
ATOM     11  C   UNL     1     114.757 123.749 131.342  1.00  0.00     0.000 C 
BRANCH  11  12
ATOM     12  C   UNL     1     113.550 122.797 131.333  1.00  0.00    -0.000 C 
BRANCH  12  13
ATOM     13  C   UNL     1     113.796 121.539 130.480  1.00  0.00    -0.000 C 
BRANCH  13  14
ATOM     14  C   UNL     1     114.054 120.286 131.330  1.00  0.00    -0.000 C 
BRANCH  14  15
ATOM     15  C   UNL     1     113.730 120.505 132.818  1.00  0.00    -0.000 C 
BRANCH  15  16
ATOM     16  C   UNL     1     114.889 120.093 133.739  1.00  0.00    -0.000 C 
BRANCH  16  17
ATOM     17  C   UNL     1     115.792 121.276 134.119  1.00  0.00    -0.003 C 
ATOM     18  C   UNL     1     116.987 121.381 133.174  1.00  0.00     0.004 C 
ENDBRANCH  16  17
ENDBRANCH  15  16
ENDBRANCH  14  15
ENDBRANCH  13  14
ENDBRANCH  12  13
ENDBRANCH  11  12
ENDBRANCH   1  11
TORSDOF 14
ENDMDL
MODEL 8
REMARK VINA RESULT:    -4.132      1.572      3.612
REMARK INTER + INTRA:          -9.859
REMARK INTER:                  -7.645
REMARK INTRA:                  -2.213
REMARK UNBOUND:                -2.345
REMARK SMILES CCCCCCCCCCCCCCCC(=O)[O-]
REMARK SMILES IDX 9 1 10 2 11 3 12 4 13 5 14 6 15 7 16 8 17 9 18 10 8 11 7 12
REMARK SMILES IDX 6 13 5 14 4 15 3 16 2 17 1 18
REMARK H PARENT
REMARK Flexibility Score: inf
ROOT
ATOM      1  C   UNL     1     114.418 120.227 130.299  1.00  0.00     0.000 C 
ENDROOT
BRANCH   1   2
ATOM      2  C   UNL     1     114.568 121.177 129.099  1.00  0.00     0.000 C 
BRANCH   2   3
ATOM      3  C   UNL     1     113.616 122.383 129.179  1.00  0.00     0.000 C 
BRANCH   3   4
ATOM      4  C   UNL     1     114.317 123.701 128.789  1.00  0.00     0.000 C 
BRANCH   4   5
ATOM      5  C   UNL     1     115.773 123.511 128.328  1.00  0.00     0.000 C 
BRANCH   5   6
ATOM      6  C   UNL     1     116.597 124.804 128.402  1.00  0.00     0.006 C 
BRANCH   6   7
ATOM      7  C   UNL     1     115.891 125.857 129.262  1.00  0.00     0.053 C 
BRANCH   7   8
ATOM      8  C   UNL     1     116.847 126.453 130.246  1.00  0.00     0.041 C 
ATOM      9  O   UNL     1     116.516 126.582 131.454  1.00  0.00    -0.550 OA
ATOM     10  O   UNL     1     118.122 126.822 129.841  1.00  0.00    -0.550 OA
ENDBRANCH   7   8
ENDBRANCH   6   7
ENDBRANCH   5   6
ENDBRANCH   4   5
ENDBRANCH   3   4
ENDBRANCH   2   3
ENDBRANCH   1   2
BRANCH   1  11
ATOM     11  C   UNL     1     113.733 120.904 131.499  1.00  0.00     0.000 C 
BRANCH  11  12
ATOM     12  C   UNL     1     113.697 120.001 132.743  1.00  0.00    -0.000 C 
BRANCH  12  13
ATOM     13  C   UNL     1     114.388 120.645 133.959  1.00  0.00    -0.000 C 
BRANCH  13  14
ATOM     14  C   UNL     1     115.782 120.057 134.231  1.00  0.00    -0.000 C 
BRANCH  14  15
ATOM     15  C   UNL     1     116.916 121.012 133.821  1.00  0.00    -0.000 C 
BRANCH  15  16
ATOM     16  C   UNL     1     117.685 120.517 132.587  1.00  0.00    -0.000 C 
BRANCH  16  17
ATOM     17  C   UNL     1     117.586 121.486 131.400  1.00  0.00    -0.003 C 
ATOM     18  C   UNL     1     116.914 122.794 131.813  1.00  0.00     0.004 C 
ENDBRANCH  16  17
ENDBRANCH  15  16
ENDBRANCH  14  15
ENDBRANCH  13  14
ENDBRANCH  12  13
ENDBRANCH  11  12
ENDBRANCH   1  11
TORSDOF 14
ENDMDL
MODEL 9
REMARK VINA RESULT:    -4.130      1.297      3.605
REMARK INTER + INTRA:          -9.855
REMARK INTER:                  -7.623
REMARK INTRA:                  -2.232
REMARK UNBOUND:                -2.345
REMARK SMILES CCCCCCCCCCCCCCCC(=O)[O-]
REMARK SMILES IDX 9 1 10 2 11 3 12 4 13 5 14 6 15 7 16 8 17 9 18 10 8 11 7 12
REMARK SMILES IDX 6 13 5 14 4 15 3 16 2 17 1 18
REMARK H PARENT
REMARK Flexibility Score: inf
ROOT
ATOM      1  C   UNL     1     113.757 120.059 132.669  1.00  0.00     0.000 C 
ENDROOT
BRANCH   1   2
ATOM      2  C   UNL     1     113.860 120.942 131.415  1.00  0.00     0.000 C 
BRANCH   2   3
ATOM      3  C   UNL     1     114.210 120.134 130.153  1.00  0.00     0.000 C 
BRANCH   3   4
ATOM      4  C   UNL     1     114.761 121.031 129.025  1.00  0.00     0.000 C 
BRANCH   4   5
ATOM      5  C   UNL     1     113.808 122.171 128.624  1.00  0.00     0.000 C 
BRANCH   5   6
ATOM      6  C   UNL     1     114.431 123.562 128.806  1.00  0.00     0.006 C 
BRANCH   6   7
ATOM      7  C   UNL     1     115.819 123.631 128.164  1.00  0.00     0.053 C 
BRANCH   7   8
ATOM      8  C   UNL     1     116.442 124.969 128.410  1.00  0.00     0.041 C 
ATOM      9  O   UNL     1     117.451 125.330 127.748  1.00  0.00    -0.550 OA
ATOM     10  O   UNL     1     115.880 125.838 129.334  1.00  0.00    -0.550 OA
ENDBRANCH   7   8
ENDBRANCH   6   7
ENDBRANCH   5   6
ENDBRANCH   4   5
ENDBRANCH   3   4
ENDBRANCH   2   3
ENDBRANCH   1   2
BRANCH   1  11
ATOM     11  C   UNL     1     114.299 120.762 133.926  1.00  0.00     0.000 C 
BRANCH  11  12
ATOM     12  C   UNL     1     115.420 119.964 134.611  1.00  0.00    -0.000 C 
BRANCH  12  13
ATOM     13  C   UNL     1     116.770 120.704 134.591  1.00  0.00    -0.000 C 
BRANCH  13  14
ATOM     14  C   UNL     1     117.927 119.816 134.106  1.00  0.00    -0.000 C 
BRANCH  14  15
ATOM     15  C   UNL     1     118.572 120.341 132.811  1.00  0.00    -0.000 C 
BRANCH  15  16
ATOM     16  C   UNL     1     117.540 120.599 131.702  1.00  0.00    -0.000 C 
BRANCH  16  17
ATOM     17  C   UNL     1     117.710 121.976 131.044  1.00  0.00    -0.003 C 
ATOM     18  C   UNL     1     116.803 123.014 131.700  1.00  0.00     0.004 C 
ENDBRANCH  16  17
ENDBRANCH  15  16
ENDBRANCH  14  15
ENDBRANCH  13  14
ENDBRANCH  12  13
ENDBRANCH  11  12
ENDBRANCH   1  11
TORSDOF 14
ENDMDL
