MODEL 1
REMARK VINA RESULT:    -3.832      0.000      0.000
REMARK INTER + INTRA:          -9.805
REMARK INTER:                  -7.417
REMARK INTRA:                  -2.389
REMARK UNBOUND:                -2.389
REMARK SMILES CCCCCCCCCCCCCCCCCC(=O)[O-]
REMARK SMILES IDX 10 1 11 2 12 3 13 4 14 5 15 6 16 7 17 8 18 9 19 10 20 11
REMARK SMILES IDX 9 12 8 13 7 14 6 15 5 16 4 17 3 18 2 19 1 20
REMARK H PARENT
REMARK Flexibility Score: inf
ROOT
ATOM      1  C   UNL     1      33.880  16.097 -18.245  1.00  0.00     0.000 C 
ENDROOT
BRANCH   1   2
ATOM      2  C   UNL     1      34.023  17.624 -18.362  1.00  0.00     0.000 C 
BRANCH   2   3
ATOM      3  C   UNL     1      32.712  18.309 -18.785  1.00  0.00     0.000 C 
BRANCH   3   4
ATOM      4  C   UNL     1      31.480  17.412 -18.573  1.00  0.00     0.000 C 
BRANCH   4   5
ATOM      5  C   UNL     1      30.609  17.293 -19.835  1.00  0.00     0.000 C 
BRANCH   5   6
ATOM      6  C   UNL     1      29.171  17.789 -19.609  1.00  0.00     0.000 C 
BRANCH   6   7
ATOM      7  C   UNL     1      28.935  18.286 -18.172  1.00  0.00     0.006 C 
BRANCH   7   8
ATOM      8  C   UNL     1      27.445  18.313 -17.807  1.00  0.00     0.053 C 
BRANCH   8   9
ATOM      9  C   UNL     1      26.880  19.700 -17.876  1.00  0.00     0.041 C 
ATOM     10  O   UNL     1      26.261  20.181 -16.891  1.00  0.00    -0.550 OA
ATOM     11  O   UNL     1      27.065  20.470 -19.017  1.00  0.00    -0.550 OA
ENDBRANCH   8   9
ENDBRANCH   7   8
ENDBRANCH   6   7
ENDBRANCH   5   6
ENDBRANCH   4   5
ENDBRANCH   3   4
ENDBRANCH   2   3
ENDBRANCH   1   2
BRANCH   1  12
ATOM     12  C   UNL     1      34.602  15.530 -17.011  1.00  0.00     0.000 C 
BRANCH  12  13
ATOM     13  C   UNL     1      33.844  14.356 -16.370  1.00  0.00    -0.000 C 
BRANCH  13  14
ATOM     14  C   UNL     1      32.411  14.209 -16.911  1.00  0.00    -0.000 C 
BRANCH  14  15
ATOM     15  C   UNL     1      31.504  13.384 -15.981  1.00  0.00    -0.000 C 
BRANCH  15  16
ATOM     16  C   UNL     1      30.407  14.188 -15.253  1.00  0.00    -0.000 C 
BRANCH  16  17
ATOM     17  C   UNL     1      29.667  15.225 -16.121  1.00  0.00    -0.000 C 
BRANCH  17  18
ATOM     18  C   UNL     1      28.142  15.036 -16.197  1.00  0.00    -0.000 C 
BRANCH  18  19
ATOM     19  C   UNL     1      27.653  14.702 -17.614  1.00  0.00    -0.003 C 
ATOM     20  C   UNL     1      28.803  14.217 -18.492  1.00  0.00     0.004 C 
ENDBRANCH  18  19
ENDBRANCH  17  18
ENDBRANCH  16  17
ENDBRANCH  15  16
ENDBRANCH  14  15
ENDBRANCH  13  14
ENDBRANCH  12  13
ENDBRANCH   1  12
TORSDOF 16
ENDMDL
MODEL 2
REMARK VINA RESULT:    -3.785      2.263      4.842
REMARK INTER + INTRA:          -9.714
REMARK INTER:                  -7.843
REMARK INTRA:                  -1.870
REMARK UNBOUND:                -2.389
REMARK SMILES CCCCCCCCCCCCCCCCCC(=O)[O-]
REMARK SMILES IDX 10 1 11 2 12 3 13 4 14 5 15 6 16 7 17 8 18 9 19 10 20 11
REMARK SMILES IDX 9 12 8 13 7 14 6 15 5 16 4 17 3 18 2 19 1 20
REMARK H PARENT
REMARK Flexibility Score: inf
ROOT
ATOM      1  C   UNL     1      34.231  15.837 -18.011  1.00  0.00     0.000 C 
ENDROOT
BRANCH   1   2
ATOM      2  C   UNL     1      34.487  15.101 -16.685  1.00  0.00     0.000 C 
BRANCH   2   3
ATOM      3  C   UNL     1      33.324  14.175 -16.290  1.00  0.00     0.000 C 
BRANCH   3   4
ATOM      4  C   UNL     1      32.373  13.885 -17.464  1.00  0.00     0.000 C 
BRANCH   4   5
ATOM      5  C   UNL     1      30.973  14.488 -17.257  1.00  0.00     0.000 C 
BRANCH   5   6
ATOM      6  C   UNL     1      30.620  14.663 -15.771  1.00  0.00     0.000 C 
BRANCH   6   7
ATOM      7  C   UNL     1      29.834  13.469 -15.203  1.00  0.00     0.006 C 
BRANCH   7   8
ATOM      8  C   UNL     1      28.674  13.052 -16.117  1.00  0.00     0.053 C 
BRANCH   8   9
ATOM      9  C   UNL     1      27.377  13.665 -15.684  1.00  0.00     0.041 C 
ATOM     10  O   UNL     1      26.510  12.964 -15.097  1.00  0.00    -0.550 OA
ATOM     11  O   UNL     1      27.138  15.016 -15.901  1.00  0.00    -0.550 OA
ENDBRANCH   8   9
ENDBRANCH   7   8
ENDBRANCH   6   7
ENDBRANCH   5   6
ENDBRANCH   4   5
ENDBRANCH   3   4
ENDBRANCH   2   3
ENDBRANCH   1   2
BRANCH   1  12
ATOM     12  C   UNL     1      34.627  17.322 -17.947  1.00  0.00     0.000 C 
BRANCH  12  13
ATOM     13  C   UNL     1      33.581  18.243 -18.597  1.00  0.00    -0.000 C 
BRANCH  13  14
ATOM     14  C   UNL     1      32.446  17.459 -19.280  1.00  0.00    -0.000 C 
BRANCH  14  15
ATOM     15  C   UNL     1      31.066  17.749 -18.663  1.00  0.00    -0.000 C 
BRANCH  15  16
ATOM     16  C   UNL     1      29.860  17.375 -19.550  1.00  0.00    -0.000 C 
BRANCH  16  17
ATOM     17  C   UNL     1      28.493  17.390 -18.839  1.00  0.00    -0.000 C 
BRANCH  17  18
ATOM     18  C   UNL     1      28.420  18.287 -17.591  1.00  0.00    -0.000 C 
BRANCH  18  19
ATOM     19  C   UNL     1      27.211  19.233 -17.607  1.00  0.00    -0.003 C 
ATOM     20  C   UNL     1      27.111  19.976 -18.936  1.00  0.00     0.004 C 
ENDBRANCH  18  19
ENDBRANCH  17  18
ENDBRANCH  16  17
ENDBRANCH  15  16
ENDBRANCH  14  15
ENDBRANCH  13  14
ENDBRANCH  12  13
ENDBRANCH   1  12
TORSDOF 16
ENDMDL
MODEL 3
REMARK VINA RESULT:    -3.728      1.209      4.221
REMARK INTER + INTRA:          -9.603
REMARK INTER:                  -7.004
REMARK INTRA:                  -2.600
REMARK UNBOUND:                -2.389
REMARK SMILES CCCCCCCCCCCCCCCCCC(=O)[O-]
REMARK SMILES IDX 10 1 11 2 12 3 13 4 14 5 15 6 16 7 17 8 18 9 19 10 20 11
REMARK SMILES IDX 9 12 8 13 7 14 6 15 5 16 4 17 3 18 2 19 1 20
REMARK H PARENT
REMARK Flexibility Score: inf
ROOT
ATOM      1  C   UNL     1      31.133  12.955 -15.885  1.00  0.00     0.000 C 
ENDROOT
BRANCH   1   2
ATOM      2  C   UNL     1      30.001  13.548 -15.028  1.00  0.00     0.000 C 
BRANCH   2   3
ATOM      3  C   UNL     1      29.677  15.003 -15.405  1.00  0.00     0.000 C 
BRANCH   3   4
ATOM      4  C   UNL     1      28.263  15.162 -15.991  1.00  0.00     0.000 C 
BRANCH   4   5
ATOM      5  C   UNL     1      28.090  16.472 -16.778  1.00  0.00     0.000 C 
BRANCH   5   6
ATOM      6  C   UNL     1      27.568  16.239 -18.205  1.00  0.00     0.000 C 
BRANCH   6   7
ATOM      7  C   UNL     1      27.826  17.437 -19.135  1.00  0.00     0.006 C 
BRANCH   7   8
ATOM      8  C   UNL     1      28.198  18.706 -18.354  1.00  0.00     0.053 C 
BRANCH   8   9
ATOM      9  C   UNL     1      27.091  19.716 -18.376  1.00  0.00     0.041 C 
ATOM     10  O   UNL     1      26.171  19.665 -17.518  1.00  0.00    -0.550 OA
ATOM     11  O   UNL     1      27.094  20.730 -19.324  1.00  0.00    -0.550 OA
ENDBRANCH   8   9
ENDBRANCH   7   8
ENDBRANCH   6   7
ENDBRANCH   5   6
ENDBRANCH   4   5
ENDBRANCH   3   4
ENDBRANCH   2   3
ENDBRANCH   1   2
BRANCH   1  12
ATOM     12  C   UNL     1      32.275  13.957 -16.127  1.00  0.00     0.000 C 
BRANCH  12  13
ATOM     13  C   UNL     1      32.607  14.126 -17.619  1.00  0.00    -0.000 C 
BRANCH  13  14
ATOM     14  C   UNL     1      31.366  13.996 -18.520  1.00  0.00    -0.000 C 
BRANCH  14  15
ATOM     15  C   UNL     1      31.030  15.302 -19.263  1.00  0.00    -0.000 C 
BRANCH  15  16
ATOM     16  C   UNL     1      31.341  16.597 -18.485  1.00  0.00    -0.000 C 
BRANCH  16  17
ATOM     17  C   UNL     1      32.110  17.672 -19.278  1.00  0.00    -0.000 C 
BRANCH  17  18
ATOM     18  C   UNL     1      33.265  18.341 -18.513  1.00  0.00    -0.000 C 
BRANCH  18  19
ATOM     19  C   UNL     1      34.433  17.381 -18.240  1.00  0.00    -0.003 C 
ATOM     20  C   UNL     1      34.775  16.564 -19.482  1.00  0.00     0.004 C 
ENDBRANCH  18  19
ENDBRANCH  17  18
ENDBRANCH  16  17
ENDBRANCH  15  16
ENDBRANCH  14  15
ENDBRANCH  13  14
ENDBRANCH  12  13
ENDBRANCH   1  12
TORSDOF 16
ENDMDL
MODEL 4
REMARK VINA RESULT:    -3.686      1.547      3.067
REMARK INTER + INTRA:          -9.523
REMARK INTER:                  -7.468
REMARK INTRA:                  -2.055
REMARK UNBOUND:                -2.389
REMARK SMILES CCCCCCCCCCCCCCCCCC(=O)[O-]
REMARK SMILES IDX 10 1 11 2 12 3 13 4 14 5 15 6 16 7 17 8 18 9 19 10 20 11
REMARK SMILES IDX 9 12 8 13 7 14 6 15 5 16 4 17 3 18 2 19 1 20
REMARK H PARENT
REMARK Flexibility Score: inf
ROOT
ATOM      1  C   UNL     1      32.754  17.404 -19.540  1.00  0.00     0.000 C 
ENDROOT
BRANCH   1   2
ATOM      2  C   UNL     1      31.253  17.590 -19.256  1.00  0.00     0.000 C 
BRANCH   2   3
ATOM      3  C   UNL     1      30.699  16.528 -18.291  1.00  0.00     0.000 C 
BRANCH   3   4
ATOM      4  C   UNL     1      29.163  16.447 -18.318  1.00  0.00     0.000 C 
BRANCH   4   5
ATOM      5  C   UNL     1      28.532  16.689 -16.936  1.00  0.00     0.000 C 
BRANCH   5   6
ATOM      6  C   UNL     1      28.137  18.159 -16.718  1.00  0.00     0.000 C 
BRANCH   6   7
ATOM      7  C   UNL     1      27.876  18.906 -18.038  1.00  0.00     0.006 C 
BRANCH   7   8
ATOM      8  C   UNL     1      26.444  19.452 -18.121  1.00  0.00     0.053 C 
BRANCH   8   9
ATOM      9  C   UNL     1      25.438  18.352 -18.283  1.00  0.00     0.041 C 
ATOM     10  O   UNL     1      24.377  18.360 -17.605  1.00  0.00    -0.550 OA
ATOM     11  O   UNL     1      25.661  17.336 -19.204  1.00  0.00    -0.550 OA
ENDBRANCH   8   9
ENDBRANCH   7   8
ENDBRANCH   6   7
ENDBRANCH   5   6
ENDBRANCH   4   5
ENDBRANCH   3   4
ENDBRANCH   2   3
ENDBRANCH   1   2
BRANCH   1  12
ATOM     12  C   UNL     1      33.641  18.169 -18.543  1.00  0.00     0.000 C 
BRANCH  12  13
ATOM     13  C   UNL     1      34.714  17.276 -17.900  1.00  0.00    -0.000 C 
BRANCH  13  14
ATOM     14  C   UNL     1      34.352  15.782 -17.955  1.00  0.00    -0.000 C 
BRANCH  14  15
ATOM     15  C   UNL     1      34.666  15.044 -16.641  1.00  0.00    -0.000 C 
BRANCH  15  16
ATOM     16  C   UNL     1      33.825  13.776 -16.384  1.00  0.00    -0.000 C 
BRANCH  16  17
ATOM     17  C   UNL     1      32.696  13.519 -17.402  1.00  0.00    -0.000 C 
BRANCH  17  18
ATOM     18  C   UNL     1      31.327  13.186 -16.782  1.00  0.00    -0.000 C 
BRANCH  18  19
ATOM     19  C   UNL     1      30.954  14.124 -15.625  1.00  0.00    -0.003 C 
ATOM     20  C   UNL     1      29.611  13.735 -15.013  1.00  0.00     0.004 C 
ENDBRANCH  18  19
ENDBRANCH  17  18
ENDBRANCH  16  17
ENDBRANCH  15  16
ENDBRANCH  14  15
ENDBRANCH  13  14
ENDBRANCH  12  13
ENDBRANCH   1  12
TORSDOF 16
ENDMDL
MODEL 5
REMARK VINA RESULT:    -3.585      0.998      4.068
REMARK INTER + INTRA:          -9.327
REMARK INTER:                  -6.954
REMARK INTRA:                  -2.374
REMARK UNBOUND:                -2.389
REMARK SMILES CCCCCCCCCCCCCCCCCC(=O)[O-]
REMARK SMILES IDX 10 1 11 2 12 3 13 4 14 5 15 6 16 7 17 8 18 9 19 10 20 11
REMARK SMILES IDX 9 12 8 13 7 14 6 15 5 16 4 17 3 18 2 19 1 20
REMARK H PARENT
REMARK Flexibility Score: inf
ROOT
ATOM      1  C   UNL     1      30.363  14.320 -15.485  1.00  0.00     0.000 C 
ENDROOT
BRANCH   1   2
ATOM      2  C   UNL     1      29.273  14.904 -16.401  1.00  0.00     0.000 C 
BRANCH   2   3
ATOM      3  C   UNL     1      29.338  14.338 -17.830  1.00  0.00     0.000 C 
BRANCH   3   4
ATOM      4  C   UNL     1      30.115  15.252 -18.793  1.00  0.00     0.000 C 
BRANCH   4   5
ATOM      5  C   UNL     1      30.444  16.622 -18.176  1.00  0.00     0.000 C 
BRANCH   5   6
ATOM      6  C   UNL     1      29.897  17.792 -19.012  1.00  0.00     0.000 C 
BRANCH   6   7
ATOM      7  C   UNL     1      28.362  17.776 -19.121  1.00  0.00     0.006 C 
BRANCH   7   8
ATOM      8  C   UNL     1      27.685  18.246 -17.827  1.00  0.00     0.053 C 
BRANCH   8   9
ATOM      9  C   UNL     1      26.990  19.561 -18.009  1.00  0.00     0.041 C 
ATOM     10  O   UNL     1      26.258  20.022 -17.094  1.00  0.00    -0.550 OA
ATOM     11  O   UNL     1      27.175  20.290 -19.177  1.00  0.00    -0.550 OA
ENDBRANCH   8   9
ENDBRANCH   7   8
ENDBRANCH   6   7
ENDBRANCH   5   6
ENDBRANCH   4   5
ENDBRANCH   3   4
ENDBRANCH   2   3
ENDBRANCH   1   2
BRANCH   1  12
ATOM     12  C   UNL     1      30.913  12.981 -16.004  1.00  0.00     0.000 C 
BRANCH  12  13
ATOM     13  C   UNL     1      32.397  13.062 -16.398  1.00  0.00    -0.000 C 
BRANCH  13  14
ATOM     14  C   UNL     1      33.042  14.401 -15.999  1.00  0.00    -0.000 C 
BRANCH  14  15
ATOM     15  C   UNL     1      34.393  14.643 -16.696  1.00  0.00    -0.000 C 
BRANCH  15  16
ATOM     16  C   UNL     1      34.460  14.192 -18.170  1.00  0.00    -0.000 C 
BRANCH  16  17
ATOM     17  C   UNL     1      33.887  15.195 -19.191  1.00  0.00    -0.000 C 
BRANCH  17  18
ATOM     18  C   UNL     1      34.630  16.541 -19.265  1.00  0.00    -0.000 C 
BRANCH  18  19
ATOM     19  C   UNL     1      33.696  17.720 -19.577  1.00  0.00    -0.003 C 
ATOM     20  C   UNL     1      33.509  18.613 -18.354  1.00  0.00     0.004 C 
ENDBRANCH  18  19
ENDBRANCH  17  18
ENDBRANCH  16  17
ENDBRANCH  15  16
ENDBRANCH  14  15
ENDBRANCH  13  14
ENDBRANCH  12  13
ENDBRANCH   1  12
TORSDOF 16
ENDMDL
MODEL 6
REMARK VINA RESULT:    -3.545      1.883      4.482
REMARK INTER + INTRA:          -9.250
REMARK INTER:                  -7.594
REMARK INTRA:                  -1.656
REMARK UNBOUND:                -2.389
REMARK SMILES CCCCCCCCCCCCCCCCCC(=O)[O-]
REMARK SMILES IDX 10 1 11 2 12 3 13 4 14 5 15 6 16 7 17 8 18 9 19 10 20 11
REMARK SMILES IDX 9 12 8 13 7 14 6 15 5 16 4 17 3 18 2 19 1 20
REMARK H PARENT
REMARK Flexibility Score: inf
ROOT
ATOM      1  C   UNL     1      28.519  16.341 -16.390  1.00  0.00     0.000 C 
ENDROOT
BRANCH   1   2
ATOM      2  C   UNL     1      28.958  16.565 -17.848  1.00  0.00     0.000 C 
BRANCH   2   3
ATOM      3  C   UNL     1      28.989  18.054 -18.233  1.00  0.00     0.000 C 
BRANCH   3   4
ATOM      4  C   UNL     1      27.950  18.886 -17.461  1.00  0.00     0.000 C 
BRANCH   4   5
ATOM      5  C   UNL     1      27.159  19.840 -18.372  1.00  0.00     0.000 C 
BRANCH   5   6
ATOM      6  C   UNL     1      26.949  19.269 -19.784  1.00  0.00     0.000 C 
BRANCH   6   7
ATOM      7  C   UNL     1      25.571  18.607 -19.958  1.00  0.00     0.006 C 
BRANCH   7   8
ATOM      8  C   UNL     1      25.604  17.107 -19.634  1.00  0.00     0.053 C 
BRANCH   8   9
ATOM      9  C   UNL     1      24.988  16.813 -18.300  1.00  0.00     0.041 C 
ATOM     10  O   UNL     1      25.281  15.753 -17.687  1.00  0.00    -0.550 OA
ATOM     11  O   UNL     1      24.113  17.724 -17.722  1.00  0.00    -0.550 OA
ENDBRANCH   8   9
ENDBRANCH   7   8
ENDBRANCH   6   7
ENDBRANCH   5   6
ENDBRANCH   4   5
ENDBRANCH   3   4
ENDBRANCH   2   3
ENDBRANCH   1   2
BRANCH   1  12
ATOM     12  C   UNL     1      29.266  15.175 -15.722  1.00  0.00     0.000 C 
BRANCH  12  13
ATOM     13  C   UNL     1      30.508  14.735 -16.516  1.00  0.00    -0.000 C 
BRANCH  13  14
ATOM     14  C   UNL     1      31.529  13.981 -15.647  1.00  0.00    -0.000 C 
BRANCH  14  15
ATOM     15  C   UNL     1      32.787  13.566 -16.431  1.00  0.00    -0.000 C 
BRANCH  15  16
ATOM     16  C   UNL     1      33.937  14.595 -16.418  1.00  0.00    -0.000 C 
BRANCH  16  17
ATOM     17  C   UNL     1      34.326  15.161 -17.798  1.00  0.00    -0.000 C 
BRANCH  17  18
ATOM     18  C   UNL     1      33.423  16.296 -18.312  1.00  0.00    -0.000 C 
BRANCH  18  19
ATOM     19  C   UNL     1      34.173  17.625 -18.479  1.00  0.00    -0.003 C 
ATOM     20  C   UNL     1      33.218  18.812 -18.387  1.00  0.00     0.004 C 
ENDBRANCH  18  19
ENDBRANCH  17  18
ENDBRANCH  16  17
ENDBRANCH  15  16
ENDBRANCH  14  15
ENDBRANCH  13  14
ENDBRANCH  12  13
ENDBRANCH   1  12
TORSDOF 16
ENDMDL
MODEL 7
REMARK VINA RESULT:    -3.441      2.500      3.937
REMARK INTER + INTRA:          -9.049
REMARK INTER:                  -6.602
REMARK INTRA:                  -2.446
REMARK UNBOUND:                -2.389
REMARK SMILES CCCCCCCCCCCCCCCCCC(=O)[O-]
REMARK SMILES IDX 10 1 11 2 12 3 13 4 14 5 15 6 16 7 17 8 18 9 19 10 20 11
REMARK SMILES IDX 9 12 8 13 7 14 6 15 5 16 4 17 3 18 2 19 1 20
REMARK H PARENT
REMARK Flexibility Score: inf
ROOT
ATOM      1  C   UNL     1      33.301  17.499 -20.012  1.00  0.00     0.000 C 
ENDROOT
BRANCH   1   2
ATOM      2  C   UNL     1      31.796  17.194 -20.103  1.00  0.00     0.000 C 
BRANCH   2   3
ATOM      3  C   UNL     1      31.070  17.402 -18.763  1.00  0.00     0.000 C 
BRANCH   3   4
ATOM      4  C   UNL     1      29.620  16.888 -18.790  1.00  0.00     0.000 C 
BRANCH   4   5
ATOM      5  C   UNL     1      28.702  17.651 -17.820  1.00  0.00     0.000 C 
BRANCH   5   6
ATOM      6  C   UNL     1      27.766  16.716 -17.036  1.00  0.00     0.000 C 
BRANCH   6   7
ATOM      7  C   UNL     1      28.491  15.957 -15.911  1.00  0.00     0.006 C 
BRANCH   7   8
ATOM      8  C   UNL     1      28.405  14.435 -16.091  1.00  0.00     0.053 C 
BRANCH   8   9
ATOM      9  C   UNL     1      26.985  13.968 -16.203  1.00  0.00     0.041 C 
ATOM     10  O   UNL     1      26.628  13.257 -17.179  1.00  0.00    -0.550 OA
ATOM     11  O   UNL     1      26.066  14.294 -15.214  1.00  0.00    -0.550 OA
ENDBRANCH   8   9
ENDBRANCH   7   8
ENDBRANCH   6   7
ENDBRANCH   5   6
ENDBRANCH   4   5
ENDBRANCH   3   4
ENDBRANCH   2   3
ENDBRANCH   1   2
BRANCH   1  12
ATOM     12  C   UNL     1      33.686  18.173 -18.684  1.00  0.00     0.000 C 
BRANCH  12  13
ATOM     13  C   UNL     1      34.700  17.350 -17.873  1.00  0.00    -0.000 C 
BRANCH  13  14
ATOM     14  C   UNL     1      34.458  15.834 -17.988  1.00  0.00    -0.000 C 
BRANCH  14  15
ATOM     15  C   UNL     1      34.607  15.103 -16.641  1.00  0.00    -0.000 C 
BRANCH  15  16
ATOM     16  C   UNL     1      33.517  14.054 -16.341  1.00  0.00    -0.000 C 
BRANCH  16  17
ATOM     17  C   UNL     1      32.107  14.406 -16.855  1.00  0.00    -0.000 C 
BRANCH  17  18
ATOM     18  C   UNL     1      31.463  13.343 -17.763  1.00  0.00    -0.000 C 
BRANCH  18  19
ATOM     19  C   UNL     1      31.762  13.572 -19.252  1.00  0.00    -0.003 C 
ATOM     20  C   UNL     1      30.474  13.643 -20.067  1.00  0.00     0.004 C 
ENDBRANCH  18  19
ENDBRANCH  17  18
ENDBRANCH  16  17
ENDBRANCH  15  16
ENDBRANCH  14  15
ENDBRANCH  13  14
ENDBRANCH  12  13
ENDBRANCH   1  12
TORSDOF 16
ENDMDL
MODEL 8
REMARK VINA RESULT:    -3.378      1.287      4.788
REMARK INTER + INTRA:          -8.925
REMARK INTER:                  -6.422
REMARK INTRA:                  -2.504
REMARK UNBOUND:                -2.389
REMARK SMILES CCCCCCCCCCCCCCCCCC(=O)[O-]
REMARK SMILES IDX 10 1 11 2 12 3 13 4 14 5 15 6 16 7 17 8 18 9 19 10 20 11
REMARK SMILES IDX 9 12 8 13 7 14 6 15 5 16 4 17 3 18 2 19 1 20
REMARK H PARENT
REMARK Flexibility Score: inf
ROOT
ATOM      1  C   UNL     1      30.888  14.489 -16.498  1.00  0.00     0.000 C 
ENDROOT
BRANCH   1   2
ATOM      2  C   UNL     1      29.701  15.006 -15.668  1.00  0.00     0.000 C 
BRANCH   2   3
ATOM      3  C   UNL     1      28.534  14.004 -15.622  1.00  0.00     0.000 C 
BRANCH   3   4
ATOM      4  C   UNL     1      27.266  14.540 -16.310  1.00  0.00     0.000 C 
BRANCH   4   5
ATOM      5  C   UNL     1      27.226  14.218 -17.813  1.00  0.00     0.000 C 
BRANCH   5   6
ATOM      6  C   UNL     1      26.720  15.400 -18.657  1.00  0.00     0.000 C 
BRANCH   6   7
ATOM      7  C   UNL     1      26.709  16.725 -17.875  1.00  0.00     0.006 C 
BRANCH   7   8
ATOM      8  C   UNL     1      26.562  17.941 -18.799  1.00  0.00     0.053 C 
BRANCH   8   9
ATOM      9  C   UNL     1      27.269  19.144 -18.253  1.00  0.00     0.041 C 
ATOM     10  O   UNL     1      27.997  19.041 -17.230  1.00  0.00    -0.550 OA
ATOM     11  O   UNL     1      27.148  20.372 -18.891  1.00  0.00    -0.550 OA
ENDBRANCH   8   9
ENDBRANCH   7   8
ENDBRANCH   6   7
ENDBRANCH   5   6
ENDBRANCH   4   5
ENDBRANCH   3   4
ENDBRANCH   2   3
ENDBRANCH   1   2
BRANCH   1  12
ATOM     12  C   UNL     1      30.887  15.039 -17.935  1.00  0.00     0.000 C 
BRANCH  12  13
ATOM     13  C   UNL     1      30.290  16.453 -18.027  1.00  0.00    -0.000 C 
BRANCH  13  14
ATOM     14  C   UNL     1      30.936  17.297 -19.140  1.00  0.00    -0.000 C 
BRANCH  14  15
ATOM     15  C   UNL     1      32.276  17.923 -18.711  1.00  0.00    -0.000 C 
BRANCH  15  16
ATOM     16  C   UNL     1      33.462  17.643 -19.657  1.00  0.00    -0.000 C 
BRANCH  16  17
ATOM     17  C   UNL     1      34.564  16.734 -19.079  1.00  0.00    -0.000 C 
BRANCH  17  18
ATOM     18  C   UNL     1      34.604  16.661 -17.542  1.00  0.00    -0.000 C 
BRANCH  18  19
ATOM     19  C   UNL     1      34.550  15.220 -17.014  1.00  0.00    -0.003 C 
ATOM     20  C   UNL     1      34.444  14.217 -18.160  1.00  0.00     0.004 C 
ENDBRANCH  18  19
ENDBRANCH  17  18
ENDBRANCH  16  17
ENDBRANCH  15  16
ENDBRANCH  14  15
ENDBRANCH  13  14
ENDBRANCH  12  13
ENDBRANCH   1  12
TORSDOF 16
ENDMDL
MODEL 9
REMARK VINA RESULT:    -3.261      2.364      5.767
REMARK INTER + INTRA:          -8.700
REMARK INTER:                  -6.465
REMARK INTRA:                  -2.235
REMARK UNBOUND:                -2.389
REMARK SMILES CCCCCCCCCCCCCCCCCC(=O)[O-]
REMARK SMILES IDX 10 1 11 2 12 3 13 4 14 5 15 6 16 7 17 8 18 9 19 10 20 11
REMARK SMILES IDX 9 12 8 13 7 14 6 15 5 16 4 17 3 18 2 19 1 20
REMARK H PARENT
REMARK Flexibility Score: inf
ROOT
ATOM      1  C   UNL     1      29.007  15.439 -15.865  1.00  0.00     0.000 C 
ENDROOT
BRANCH   1   2
ATOM      2  C   UNL     1      29.825  14.281 -15.267  1.00  0.00     0.000 C 
BRANCH   2   3
ATOM      3  C   UNL     1      31.308  14.335 -15.674  1.00  0.00     0.000 C 
BRANCH   3   4
ATOM      4  C   UNL     1      31.692  13.218 -16.660  1.00  0.00     0.000 C 
BRANCH   4   5
ATOM      5  C   UNL     1      32.518  13.736 -17.850  1.00  0.00     0.000 C 
BRANCH   5   6
ATOM      6  C   UNL     1      32.836  15.236 -17.739  1.00  0.00     0.000 C 
BRANCH   6   7
ATOM      7  C   UNL     1      34.255  15.579 -18.225  1.00  0.00     0.006 C 
BRANCH   7   8
ATOM      8  C   UNL     1      34.634  17.036 -17.924  1.00  0.00     0.053 C 
BRANCH   8   9
ATOM      9  C   UNL     1      33.880  17.997 -18.793  1.00  0.00     0.041 C 
ATOM     10  O   UNL     1      33.883  17.856 -20.044  1.00  0.00    -0.550 OA
ATOM     11  O   UNL     1      33.151  19.030 -18.218  1.00  0.00    -0.550 OA
ENDBRANCH   8   9
ENDBRANCH   7   8
ENDBRANCH   6   7
ENDBRANCH   5   6
ENDBRANCH   4   5
ENDBRANCH   3   4
ENDBRANCH   2   3
ENDBRANCH   1   2
BRANCH   1  12
ATOM     12  C   UNL     1      27.790  14.947 -16.667  1.00  0.00     0.000 C 
BRANCH  12  13
ATOM     13  C   UNL     1      28.185  14.305 -18.007  1.00  0.00    -0.000 C 
BRANCH  13  14
ATOM     14  C   UNL     1      29.215  15.143 -18.785  1.00  0.00    -0.000 C 
BRANCH  14  15
ATOM     15  C   UNL     1      28.573  15.997 -19.894  1.00  0.00    -0.000 C 
BRANCH  15  16
ATOM     16  C   UNL     1      28.918  17.500 -19.847  1.00  0.00    -0.000 C 
BRANCH  16  17
ATOM     17  C   UNL     1      29.407  18.019 -18.480  1.00  0.00    -0.000 C 
BRANCH  17  18
ATOM     18  C   UNL     1      28.315  18.650 -17.598  1.00  0.00    -0.000 C 
BRANCH  18  19
ATOM     19  C   UNL     1      27.021  18.943 -18.371  1.00  0.00    -0.003 C 
ATOM     20  C   UNL     1      27.042  20.349 -18.966  1.00  0.00     0.004 C 
ENDBRANCH  18  19
ENDBRANCH  17  18
ENDBRANCH  16  17
ENDBRANCH  15  16
ENDBRANCH  14  15
ENDBRANCH  13  14
ENDBRANCH  12  13
ENDBRANCH   1  12
TORSDOF 16
ENDMDL
