MODEL 1
REMARK VINA RESULT:     3.531      0.000      0.000
REMARK INTER + INTRA:           7.798
REMARK INTER:                   8.072
REMARK INTRA:                  -0.274
REMARK UNBOUND:                -0.274
REMARK SMILES CCCCCCCCCCCCCCCCCCCCCCCC(=O)[O-]
REMARK SMILES IDX 13 1 14 2 15 3 16 4 17 5 18 6 19 7 20 8 21 9 22 10 23 11
REMARK SMILES IDX 24 12 25 13 26 14 12 15 11 16 10 17 9 18 8 19 7 20 6 21 5 22
REMARK SMILES IDX 4 23 3 24 2 25 1 26
REMARK H PARENT
REMARK Flexibility Score: inf
ROOT
ATOM      1  C   UNL     1       5.123 -39.439  22.275  1.00  0.00     0.000 C 
ENDROOT
BRANCH   1   2
ATOM      2  C   UNL     1       4.771 -40.435  23.394  1.00  0.00     0.000 C 
BRANCH   2   3
ATOM      3  C   UNL     1       4.776 -39.788  24.787  1.00  0.00     0.000 C 
BRANCH   3   4
ATOM      4  C   UNL     1       4.896 -38.260  24.676  1.00  0.00     0.000 C 
BRANCH   4   5
ATOM      5  C   UNL     1       4.812 -37.562  26.043  1.00  0.00     0.000 C 
BRANCH   5   6
ATOM      6  C   UNL     1       6.026 -36.657  26.320  1.00  0.00     0.000 C 
BRANCH   6   7
ATOM      7  C   UNL     1       5.982 -35.351  25.510  1.00  0.00     0.000 C 
BRANCH   7   8
ATOM      8  C   UNL     1       6.112 -35.590  23.998  1.00  0.00     0.000 C 
BRANCH   8   9
ATOM      9  C   UNL     1       5.447 -34.455  23.205  1.00  0.00     0.000 C 
BRANCH   9  10
ATOM     10  C   UNL     1       5.766 -34.511  21.703  1.00  0.00     0.006 C 
BRANCH  10  11
ATOM     11  C   UNL     1       4.834 -33.627  20.863  1.00  0.00     0.053 C 
BRANCH  11  12
ATOM     12  C   UNL     1       3.434 -33.692  21.386  1.00  0.00     0.041 C 
ATOM     13  O   UNL     1       2.716 -32.657  21.408  1.00  0.00    -0.550 OA
ATOM     14  O   UNL     1       2.925 -34.892  21.869  1.00  0.00    -0.550 OA
ENDBRANCH  11  12
ENDBRANCH  10  11
ENDBRANCH   9  10
ENDBRANCH   8   9
ENDBRANCH   7   8
ENDBRANCH   6   7
ENDBRANCH   5   6
ENDBRANCH   4   5
ENDBRANCH   3   4
ENDBRANCH   2   3
ENDBRANCH   1   2
BRANCH   1  15
ATOM     15  C   UNL     1       5.913 -40.090  21.128  1.00  0.00     0.000 C 
BRANCH  15  16
ATOM     16  C   UNL     1       6.032 -39.160  19.901  1.00  0.00     0.000 C 
BRANCH  16  17
ATOM     17  C   UNL     1       4.742 -38.379  19.591  1.00  0.00     0.000 C 
BRANCH  17  18
ATOM     18  C   UNL     1       4.894 -36.867  19.808  1.00  0.00    -0.000 C 
BRANCH  18  19
ATOM     19  C   UNL     1       5.448 -36.144  18.571  1.00  0.00    -0.000 C 
BRANCH  19  20
ATOM     20  C   UNL     1       4.542 -34.995  18.102  1.00  0.00    -0.000 C 
BRANCH  20  21
ATOM     21  C   UNL     1       3.290 -35.543  17.400  1.00  0.00    -0.000 C 
BRANCH  21  22
ATOM     22  C   UNL     1       3.456 -35.662  15.874  1.00  0.00    -0.000 C 
BRANCH  22  23
ATOM     23  C   UNL     1       2.255 -36.283  15.136  1.00  0.00    -0.000 C 
BRANCH  23  24
ATOM     24  C   UNL     1       2.614 -37.100  13.878  1.00  0.00    -0.000 C 
BRANCH  24  25
ATOM     25  C   UNL     1       4.063 -37.632  13.876  1.00  0.00    -0.003 C 
ATOM     26  C   UNL     1       4.155 -39.091  14.322  1.00  0.00     0.004 C 
ENDBRANCH  24  25
ENDBRANCH  23  24
ENDBRANCH  22  23
ENDBRANCH  21  22
ENDBRANCH  20  21
ENDBRANCH  19  20
ENDBRANCH  18  19
ENDBRANCH  17  18
ENDBRANCH  16  17
ENDBRANCH  15  16
ENDBRANCH   1  15
TORSDOF 22
ENDMDL
MODEL 2
REMARK VINA RESULT:     3.584      1.457      3.970
REMARK INTER + INTRA:           7.919
REMARK INTER:                   7.507
REMARK INTRA:                   0.413
REMARK UNBOUND:                -0.274
REMARK SMILES CCCCCCCCCCCCCCCCCCCCCCCC(=O)[O-]
REMARK SMILES IDX 13 1 14 2 15 3 16 4 17 5 18 6 19 7 20 8 21 9 22 10 23 11
REMARK SMILES IDX 24 12 25 13 26 14 12 15 11 16 10 17 9 18 8 19 7 20 6 21 5 22
REMARK SMILES IDX 4 23 3 24 2 25 1 26
REMARK H PARENT
REMARK Flexibility Score: inf
ROOT
ATOM      1  C   UNL     1       6.008 -34.126  23.338  1.00  0.00     0.000 C 
ENDROOT
BRANCH   1   2
ATOM      2  C   UNL     1       6.099 -35.588  22.867  1.00  0.00     0.000 C 
BRANCH   2   3
ATOM      3  C   UNL     1       6.084 -36.588  24.033  1.00  0.00     0.000 C 
BRANCH   3   4
ATOM      4  C   UNL     1       6.046 -35.851  25.381  1.00  0.00     0.000 C 
BRANCH   4   5
ATOM      5  C   UNL     1       5.614 -36.765  26.539  1.00  0.00     0.000 C 
BRANCH   5   6
ATOM      6  C   UNL     1       4.427 -37.670  26.165  1.00  0.00     0.000 C 
BRANCH   6   7
ATOM      7  C   UNL     1       4.577 -38.286  24.764  1.00  0.00     0.000 C 
BRANCH   7   8
ATOM      8  C   UNL     1       4.479 -39.819  24.781  1.00  0.00     0.000 C 
BRANCH   8   9
ATOM      9  C   UNL     1       5.348 -40.435  23.674  1.00  0.00     0.000 C 
BRANCH   9  10
ATOM     10  C   UNL     1       4.772 -40.209  22.268  1.00  0.00     0.006 C 
BRANCH  10  11
ATOM     11  C   UNL     1       5.698 -39.379  21.370  1.00  0.00     0.053 C 
BRANCH  11  12
ATOM     12  C   UNL     1       4.932 -38.292  20.685  1.00  0.00     0.041 C 
ATOM     13  O   UNL     1       5.087 -38.087  19.451  1.00  0.00    -0.550 OA
ATOM     14  O   UNL     1       4.058 -37.490  21.410  1.00  0.00    -0.550 OA
ENDBRANCH  11  12
ENDBRANCH  10  11
ENDBRANCH   9  10
ENDBRANCH   8   9
ENDBRANCH   7   8
ENDBRANCH   6   7
ENDBRANCH   5   6
ENDBRANCH   4   5
ENDBRANCH   3   4
ENDBRANCH   2   3
ENDBRANCH   1   2
BRANCH   1  15
ATOM     15  C   UNL     1       4.980 -33.308  22.537  1.00  0.00     0.000 C 
BRANCH  15  16
ATOM     16  C   UNL     1       3.951 -34.208  21.819  1.00  0.00     0.000 C 
BRANCH  16  17
ATOM     17  C   UNL     1       3.920 -34.014  20.293  1.00  0.00     0.000 C 
BRANCH  17  18
ATOM     18  C   UNL     1       4.641 -35.137  19.534  1.00  0.00    -0.000 C 
BRANCH  18  19
ATOM     19  C   UNL     1       4.762 -34.852  18.029  1.00  0.00    -0.000 C 
BRANCH  19  20
ATOM     20  C   UNL     1       3.522 -35.298  17.241  1.00  0.00    -0.000 C 
BRANCH  20  21
ATOM     21  C   UNL     1       3.909 -36.286  16.130  1.00  0.00    -0.000 C 
BRANCH  21  22
ATOM     22  C   UNL     1       3.274 -35.944  14.769  1.00  0.00    -0.000 C 
BRANCH  22  23
ATOM     23  C   UNL     1       2.635 -37.136  14.032  1.00  0.00    -0.000 C 
BRANCH  23  24
ATOM     24  C   UNL     1       3.180 -38.520  14.436  1.00  0.00    -0.000 C 
BRANCH  24  25
ATOM     25  C   UNL     1       4.611 -38.797  13.929  1.00  0.00    -0.003 C 
ATOM     26  C   UNL     1       5.008 -40.268  14.057  1.00  0.00     0.004 C 
ENDBRANCH  24  25
ENDBRANCH  23  24
ENDBRANCH  22  23
ENDBRANCH  21  22
ENDBRANCH  20  21
ENDBRANCH  19  20
ENDBRANCH  18  19
ENDBRANCH  17  18
ENDBRANCH  16  17
ENDBRANCH  15  16
ENDBRANCH   1  15
TORSDOF 22
ENDMDL
MODEL 3
REMARK VINA RESULT:     3.780      2.613      7.672
REMARK INTER + INTRA:           8.367
REMARK INTER:                   8.882
REMARK INTRA:                  -0.515
REMARK UNBOUND:                -0.274
REMARK SMILES CCCCCCCCCCCCCCCCCCCCCCCC(=O)[O-]
REMARK SMILES IDX 13 1 14 2 15 3 16 4 17 5 18 6 19 7 20 8 21 9 22 10 23 11
REMARK SMILES IDX 24 12 25 13 26 14 12 15 11 16 10 17 9 18 8 19 7 20 6 21 5 22
REMARK SMILES IDX 4 23 3 24 2 25 1 26
REMARK H PARENT
REMARK Flexibility Score: inf
ROOT
ATOM      1  C   UNL     1       5.573 -36.018  23.454  1.00  0.00     0.000 C 
ENDROOT
BRANCH   1   2
ATOM      2  C   UNL     1       6.104 -34.585  23.635  1.00  0.00     0.000 C 
BRANCH   2   3
ATOM      3  C   UNL     1       5.672 -33.646  22.499  1.00  0.00     0.000 C 
BRANCH   3   4
ATOM      4  C   UNL     1       4.140 -33.550  22.425  1.00  0.00     0.000 C 
BRANCH   4   5
ATOM      5  C   UNL     1       3.556 -34.351  21.250  1.00  0.00     0.000 C 
BRANCH   5   6
ATOM      6  C   UNL     1       4.149 -33.928  19.894  1.00  0.00     0.000 C 
BRANCH   6   7
ATOM      7  C   UNL     1       4.805 -35.101  19.149  1.00  0.00     0.000 C 
BRANCH   7   8
ATOM      8  C   UNL     1       4.748 -34.936  17.623  1.00  0.00     0.000 C 
BRANCH   8   9
ATOM      9  C   UNL     1       3.905 -36.050  16.983  1.00  0.00     0.000 C 
BRANCH   9  10
ATOM     10  C   UNL     1       2.847 -35.512  16.008  1.00  0.00     0.006 C 
BRANCH  10  11
ATOM     11  C   UNL     1       2.407 -36.554  14.971  1.00  0.00     0.053 C 
BRANCH  11  12
ATOM     12  C   UNL     1       3.575 -37.372  14.519  1.00  0.00     0.041 C 
ATOM     13  O   UNL     1       4.515 -36.835  13.875  1.00  0.00    -0.550 OA
ATOM     14  O   UNL     1       3.619 -38.735  14.792  1.00  0.00    -0.550 OA
ENDBRANCH  11  12
ENDBRANCH  10  11
ENDBRANCH   9  10
ENDBRANCH   8   9
ENDBRANCH   7   8
ENDBRANCH   6   7
ENDBRANCH   5   6
ENDBRANCH   4   5
ENDBRANCH   3   4
ENDBRANCH   2   3
ENDBRANCH   1   2
BRANCH   1  15
ATOM     15  C   UNL     1       5.893 -36.598  22.066  1.00  0.00     0.000 C 
BRANCH  15  16
ATOM     16  C   UNL     1       4.748 -37.483  21.526  1.00  0.00     0.000 C 
BRANCH  16  17
ATOM     17  C   UNL     1       5.075 -38.166  20.186  1.00  0.00     0.000 C 
BRANCH  17  18
ATOM     18  C   UNL     1       5.664 -39.573  20.362  1.00  0.00    -0.000 C 
BRANCH  18  19
ATOM     19  C   UNL     1       5.906 -39.935  21.836  1.00  0.00    -0.000 C 
BRANCH  19  20
ATOM     20  C   UNL     1       4.600 -40.183  22.606  1.00  0.00    -0.000 C 
BRANCH  20  21
ATOM     21  C   UNL     1       4.859 -40.211  24.120  1.00  0.00    -0.000 C 
BRANCH  21  22
ATOM     22  C   UNL     1       5.050 -38.808  24.726  1.00  0.00    -0.000 C 
BRANCH  22  23
ATOM     23  C   UNL     1       4.391 -38.600  26.103  1.00  0.00    -0.000 C 
BRANCH  23  24
ATOM     24  C   UNL     1       3.756 -37.211  26.319  1.00  0.00    -0.000 C 
BRANCH  24  25
ATOM     25  C   UNL     1       2.554 -37.222  27.288  1.00  0.00    -0.003 C 
ATOM     26  C   UNL     1       1.615 -38.403  27.048  1.00  0.00     0.004 C 
ENDBRANCH  24  25
ENDBRANCH  23  24
ENDBRANCH  22  23
ENDBRANCH  21  22
ENDBRANCH  20  21
ENDBRANCH  19  20
ENDBRANCH  18  19
ENDBRANCH  17  18
ENDBRANCH  16  17
ENDBRANCH  15  16
ENDBRANCH   1  15
TORSDOF 22
ENDMDL
MODEL 4
REMARK VINA RESULT:     4.544      2.643      7.307
REMARK INTER + INTRA:          10.113
REMARK INTER:                  10.363
REMARK INTRA:                  -0.250
REMARK UNBOUND:                -0.274
REMARK SMILES CCCCCCCCCCCCCCCCCCCCCCCC(=O)[O-]
REMARK SMILES IDX 13 1 14 2 15 3 16 4 17 5 18 6 19 7 20 8 21 9 22 10 23 11
REMARK SMILES IDX 24 12 25 13 26 14 12 15 11 16 10 17 9 18 8 19 7 20 6 21 5 22
REMARK SMILES IDX 4 23 3 24 2 25 1 26
REMARK H PARENT
REMARK Flexibility Score: inf
ROOT
ATOM      1  C   UNL     1       4.730 -34.339  23.255  1.00  0.00     0.000 C 
ENDROOT
BRANCH   1   2
ATOM      2  C   UNL     1       4.783 -33.014  22.475  1.00  0.00     0.000 C 
BRANCH   2   3
ATOM      3  C   UNL     1       3.513 -32.761  21.649  1.00  0.00     0.000 C 
BRANCH   3   4
ATOM      4  C   UNL     1       3.151 -34.001  20.815  1.00  0.00     0.000 C 
BRANCH   4   5
ATOM      5  C   UNL     1       4.390 -34.796  20.375  1.00  0.00     0.000 C 
BRANCH   5   6
ATOM      6  C   UNL     1       5.162 -34.104  19.237  1.00  0.00     0.000 C 
BRANCH   6   7
ATOM      7  C   UNL     1       5.273 -34.986  17.982  1.00  0.00     0.000 C 
BRANCH   7   8
ATOM      8  C   UNL     1       3.923 -35.587  17.563  1.00  0.00     0.000 C 
BRANCH   8   9
ATOM      9  C   UNL     1       3.734 -35.498  16.041  1.00  0.00     0.000 C 
BRANCH   9  10
ATOM     10  C   UNL     1       2.618 -36.419  15.524  1.00  0.00     0.006 C 
BRANCH  10  11
ATOM     11  C   UNL     1       2.910 -36.985  14.128  1.00  0.00     0.053 C 
BRANCH  11  12
ATOM     12  C   UNL     1       3.930 -38.076  14.206  1.00  0.00     0.041 C 
ATOM     13  O   UNL     1       3.597 -39.230  14.588  1.00  0.00    -0.550 OA
ATOM     14  O   UNL     1       5.255 -37.818  13.876  1.00  0.00    -0.550 OA
ENDBRANCH  11  12
ENDBRANCH  10  11
ENDBRANCH   9  10
ENDBRANCH   8   9
ENDBRANCH   7   8
ENDBRANCH   6   7
ENDBRANCH   5   6
ENDBRANCH   4   5
ENDBRANCH   3   4
ENDBRANCH   2   3
ENDBRANCH   1   2
BRANCH   1  15
ATOM     15  C   UNL     1       6.122 -34.959  23.466  1.00  0.00     0.000 C 
BRANCH  15  16
ATOM     16  C   UNL     1       6.058 -36.269  24.281  1.00  0.00     0.000 C 
BRANCH  16  17
ATOM     17  C   UNL     1       5.210 -36.160  25.560  1.00  0.00     0.000 C 
BRANCH  17  18
ATOM     18  C   UNL     1       4.259 -37.350  25.749  1.00  0.00    -0.000 C 
BRANCH  18  19
ATOM     19  C   UNL     1       5.003 -38.689  25.880  1.00  0.00    -0.000 C 
BRANCH  19  20
ATOM     20  C   UNL     1       4.468 -39.759  24.917  1.00  0.00    -0.000 C 
BRANCH  20  21
ATOM     21  C   UNL     1       5.510 -40.089  23.837  1.00  0.00    -0.000 C 
BRANCH  21  22
ATOM     22  C   UNL     1       4.995 -39.843  22.407  1.00  0.00    -0.000 C 
BRANCH  22  23
ATOM     23  C   UNL     1       5.989 -40.206  21.287  1.00  0.00    -0.000 C 
BRANCH  23  24
ATOM     24  C   UNL     1       5.690 -39.565  19.917  1.00  0.00    -0.000 C 
BRANCH  24  25
ATOM     25  C   UNL     1       4.812 -38.298  20.003  1.00  0.00    -0.003 C 
ATOM     26  C   UNL     1       5.450 -37.195  20.847  1.00  0.00     0.004 C 
ENDBRANCH  24  25
ENDBRANCH  23  24
ENDBRANCH  22  23
ENDBRANCH  21  22
ENDBRANCH  20  21
ENDBRANCH  19  20
ENDBRANCH  18  19
ENDBRANCH  17  18
ENDBRANCH  16  17
ENDBRANCH  15  16
ENDBRANCH   1  15
TORSDOF 22
ENDMDL
MODEL 5
REMARK VINA RESULT:     4.847      2.492      7.685
REMARK INTER + INTRA:          10.808
REMARK INTER:                  11.603
REMARK INTRA:                  -0.795
REMARK UNBOUND:                -0.274
REMARK SMILES CCCCCCCCCCCCCCCCCCCCCCCC(=O)[O-]
REMARK SMILES IDX 13 1 14 2 15 3 16 4 17 5 18 6 19 7 20 8 21 9 22 10 23 11
REMARK SMILES IDX 24 12 25 13 26 14 12 15 11 16 10 17 9 18 8 19 7 20 6 21 5 22
REMARK SMILES IDX 4 23 3 24 2 25 1 26
REMARK H PARENT
REMARK Flexibility Score: inf
ROOT
ATOM      1  C   UNL     1       5.275 -33.224  23.290  1.00  0.00     0.000 C 
ENDROOT
BRANCH   1   2
ATOM      2  C   UNL     1       4.227 -34.017  22.490  1.00  0.00     0.000 C 
BRANCH   2   3
ATOM      3  C   UNL     1       4.286 -33.724  20.983  1.00  0.00     0.000 C 
BRANCH   3   4
ATOM      4  C   UNL     1       4.891 -34.913  20.221  1.00  0.00     0.000 C 
BRANCH   4   5
ATOM      5  C   UNL     1       5.639 -34.479  18.951  1.00  0.00     0.000 C 
BRANCH   5   6
ATOM      6  C   UNL     1       4.694 -34.258  17.756  1.00  0.00     0.000 C 
BRANCH   6   7
ATOM      7  C   UNL     1       3.928 -35.534  17.370  1.00  0.00     0.000 C 
BRANCH   7   8
ATOM      8  C   UNL     1       2.603 -35.232  16.653  1.00  0.00     0.000 C 
BRANCH   8   9
ATOM      9  C   UNL     1       2.512 -35.998  15.324  1.00  0.00     0.000 C 
BRANCH   9  10
ATOM     10  C   UNL     1       3.889 -36.397  14.771  1.00  0.00     0.006 C 
BRANCH  10  11
ATOM     11  C   UNL     1       3.834 -37.642  13.876  1.00  0.00     0.053 C 
BRANCH  11  12
ATOM     12  C   UNL     1       3.940 -38.887  14.699  1.00  0.00     0.041 C 
ATOM     13  O   UNL     1       4.707 -39.820  14.342  1.00  0.00    -0.550 OA
ATOM     14  O   UNL     1       3.178 -39.027  15.853  1.00  0.00    -0.550 OA
ENDBRANCH  11  12
ENDBRANCH  10  11
ENDBRANCH   9  10
ENDBRANCH   8   9
ENDBRANCH   7   8
ENDBRANCH   6   7
ENDBRANCH   5   6
ENDBRANCH   4   5
ENDBRANCH   3   4
ENDBRANCH   2   3
ENDBRANCH   1   2
BRANCH   1  15
ATOM     15  C   UNL     1       6.111 -34.117  24.222  1.00  0.00     0.000 C 
BRANCH  15  16
ATOM     16  C   UNL     1       5.981 -35.614  23.865  1.00  0.00     0.000 C 
BRANCH  16  17
ATOM     17  C   UNL     1       5.929 -36.539  25.094  1.00  0.00     0.000 C 
BRANCH  17  18
ATOM     18  C   UNL     1       4.496 -36.901  25.508  1.00  0.00    -0.000 C 
BRANCH  18  19
ATOM     19  C   UNL     1       4.445 -38.069  26.506  1.00  0.00    -0.000 C 
BRANCH  19  20
ATOM     20  C   UNL     1       4.850 -39.408  25.872  1.00  0.00    -0.000 C 
BRANCH  20  21
ATOM     21  C   UNL     1       5.035 -39.256  24.354  1.00  0.00    -0.000 C 
BRANCH  21  22
ATOM     22  C   UNL     1       5.094 -40.606  23.615  1.00  0.00    -0.000 C 
BRANCH  22  23
ATOM     23  C   UNL     1       4.611 -40.569  22.153  1.00  0.00    -0.000 C 
BRANCH  23  24
ATOM     24  C   UNL     1       5.570 -39.871  21.167  1.00  0.00    -0.000 C 
BRANCH  24  25
ATOM     25  C   UNL     1       5.344 -38.348  21.055  1.00  0.00    -0.003 C 
ATOM     26  C   UNL     1       5.172 -37.883  19.609  1.00  0.00     0.004 C 
ENDBRANCH  24  25
ENDBRANCH  23  24
ENDBRANCH  22  23
ENDBRANCH  21  22
ENDBRANCH  20  21
ENDBRANCH  19  20
ENDBRANCH  18  19
ENDBRANCH  17  18
ENDBRANCH  16  17
ENDBRANCH  15  16
ENDBRANCH   1  15
TORSDOF 22
ENDMDL
MODEL 6
REMARK VINA RESULT:     5.698      2.448      4.288
REMARK INTER + INTRA:          12.751
REMARK INTER:                  11.512
REMARK INTRA:                   1.239
REMARK UNBOUND:                -0.274
REMARK SMILES CCCCCCCCCCCCCCCCCCCCCCCC(=O)[O-]
REMARK SMILES IDX 13 1 14 2 15 3 16 4 17 5 18 6 19 7 20 8 21 9 22 10 23 11
REMARK SMILES IDX 24 12 25 13 26 14 12 15 11 16 10 17 9 18 8 19 7 20 6 21 5 22
REMARK SMILES IDX 4 23 3 24 2 25 1 26
REMARK H PARENT
REMARK Flexibility Score: inf
ROOT
ATOM      1  C   UNL     1       3.212 -35.962  22.023  1.00  0.00     0.000 C 
ENDROOT
BRANCH   1   2
ATOM      2  C   UNL     1       3.055 -34.449  21.790  1.00  0.00     0.000 C 
BRANCH   2   3
ATOM      3  C   UNL     1       4.376 -33.769  21.399  1.00  0.00     0.000 C 
BRANCH   3   4
ATOM      4  C   UNL     1       4.996 -33.051  22.608  1.00  0.00     0.000 C 
BRANCH   4   5
ATOM      5  C   UNL     1       6.124 -33.865  23.261  1.00  0.00     0.000 C 
BRANCH   5   6
ATOM      6  C   UNL     1       6.124 -35.338  22.815  1.00  0.00     0.000 C 
BRANCH   6   7
ATOM      7  C   UNL     1       5.963 -36.309  23.996  1.00  0.00     0.000 C 
BRANCH   7   8
ATOM      8  C   UNL     1       6.068 -35.604  25.357  1.00  0.00     0.000 C 
BRANCH   8   9
ATOM      9  C   UNL     1       4.892 -35.990  26.266  1.00  0.00     0.000 C 
BRANCH   9  10
ATOM     10  C   UNL     1       4.659 -37.508  26.327  1.00  0.00     0.006 C 
BRANCH  10  11
ATOM     11  C   UNL     1       3.220 -37.905  25.969  1.00  0.00     0.053 C 
BRANCH  11  12
ATOM     12  C   UNL     1       2.317 -37.728  27.147  1.00  0.00     0.041 C 
ATOM     13  O   UNL     1       2.261 -36.620  27.744  1.00  0.00    -0.550 OA
ATOM     14  O   UNL     1       1.547 -38.793  27.603  1.00  0.00    -0.550 OA
ENDBRANCH  11  12
ENDBRANCH  10  11
ENDBRANCH   9  10
ENDBRANCH   8   9
ENDBRANCH   7   8
ENDBRANCH   6   7
ENDBRANCH   5   6
ENDBRANCH   4   5
ENDBRANCH   3   4
ENDBRANCH   2   3
ENDBRANCH   1   2
BRANCH   1  15
ATOM     15  C   UNL     1       4.548 -36.508  21.492  1.00  0.00     0.000 C 
BRANCH  15  16
ATOM     16  C   UNL     1       4.347 -37.662  20.486  1.00  0.00     0.000 C 
BRANCH  16  17
ATOM     17  C   UNL     1       4.905 -37.363  19.083  1.00  0.00     0.000 C 
BRANCH  17  18
ATOM     18  C   UNL     1       5.008 -35.859  18.791  1.00  0.00    -0.000 C 
BRANCH  18  19
ATOM     19  C   UNL     1       3.659 -35.239  18.394  1.00  0.00    -0.000 C 
BRANCH  19  20
ATOM     20  C   UNL     1       3.521 -35.043  16.877  1.00  0.00    -0.000 C 
BRANCH  20  21
ATOM     21  C   UNL     1       3.750 -36.368  16.135  1.00  0.00    -0.000 C 
BRANCH  21  22
ATOM     22  C   UNL     1       3.504 -36.261  14.618  1.00  0.00    -0.000 C 
BRANCH  22  23
ATOM     23  C   UNL     1       3.186 -37.594  13.916  1.00  0.00    -0.000 C 
BRANCH  23  24
ATOM     24  C   UNL     1       3.778 -38.846  14.593  1.00  0.00    -0.000 C 
BRANCH  24  25
ATOM     25  C   UNL     1       5.031 -39.402  13.882  1.00  0.00    -0.003 C 
ATOM     26  C   UNL     1       5.106 -40.928  13.930  1.00  0.00     0.004 C 
ENDBRANCH  24  25
ENDBRANCH  23  24
ENDBRANCH  22  23
ENDBRANCH  21  22
ENDBRANCH  20  21
ENDBRANCH  19  20
ENDBRANCH  18  19
ENDBRANCH  17  18
ENDBRANCH  16  17
ENDBRANCH  15  16
ENDBRANCH   1  15
TORSDOF 22
ENDMDL
MODEL 7
REMARK VINA RESULT:     5.712      3.007      4.224
REMARK INTER + INTRA:          12.785
REMARK INTER:                  12.598
REMARK INTRA:                   0.186
REMARK UNBOUND:                -0.274
REMARK SMILES CCCCCCCCCCCCCCCCCCCCCCCC(=O)[O-]
REMARK SMILES IDX 13 1 14 2 15 3 16 4 17 5 18 6 19 7 20 8 21 9 22 10 23 11
REMARK SMILES IDX 24 12 25 13 26 14 12 15 11 16 10 17 9 18 8 19 7 20 6 21 5 22
REMARK SMILES IDX 4 23 3 24 2 25 1 26
REMARK H PARENT
REMARK Flexibility Score: inf
ROOT
ATOM      1  C   UNL     1       5.195 -39.437  22.465  1.00  0.00     0.000 C 
ENDROOT
BRANCH   1   2
ATOM      2  C   UNL     1       5.935 -38.145  22.852  1.00  0.00     0.000 C 
BRANCH   2   3
ATOM      3  C   UNL     1       4.980 -37.017  23.271  1.00  0.00     0.000 C 
BRANCH   3   4
ATOM      4  C   UNL     1       5.766 -35.751  23.647  1.00  0.00     0.000 C 
BRANCH   4   5
ATOM      5  C   UNL     1       5.705 -35.445  25.152  1.00  0.00     0.000 C 
BRANCH   5   6
ATOM      6  C   UNL     1       5.883 -36.705  26.018  1.00  0.00     0.000 C 
BRANCH   6   7
ATOM      7  C   UNL     1       4.649 -37.622  25.980  1.00  0.00     0.000 C 
BRANCH   7   8
ATOM      8  C   UNL     1       3.345 -36.868  26.284  1.00  0.00     0.000 C 
BRANCH   8   9
ATOM      9  C   UNL     1       2.653 -37.450  27.526  1.00  0.00     0.000 C 
BRANCH   9  10
ATOM     10  C   UNL     1       1.685 -36.458  28.187  1.00  0.00     0.006 C 
BRANCH  10  11
ATOM     11  C   UNL     1       2.341 -35.108  28.509  1.00  0.00     0.053 C 
BRANCH  11  12
ATOM     12  C   UNL     1       1.604 -34.414  29.610  1.00  0.00     0.041 C 
ATOM     13  O   UNL     1       0.500 -33.852  29.379  1.00  0.00    -0.550 OA
ATOM     14  O   UNL     1       2.144 -34.368  30.890  1.00  0.00    -0.550 OA
ENDBRANCH  11  12
ENDBRANCH  10  11
ENDBRANCH   9  10
ENDBRANCH   8   9
ENDBRANCH   7   8
ENDBRANCH   6   7
ENDBRANCH   5   6
ENDBRANCH   4   5
ENDBRANCH   3   4
ENDBRANCH   2   3
ENDBRANCH   1   2
BRANCH   1  15
ATOM     15  C   UNL     1       5.868 -40.181  21.299  1.00  0.00     0.000 C 
BRANCH  15  16
ATOM     16  C   UNL     1       5.746 -39.408  19.968  1.00  0.00     0.000 C 
BRANCH  16  17
ATOM     17  C   UNL     1       4.632 -38.346  19.970  1.00  0.00     0.000 C 
BRANCH  17  18
ATOM     18  C   UNL     1       5.125 -36.965  19.515  1.00  0.00    -0.000 C 
BRANCH  18  19
ATOM     19  C   UNL     1       4.444 -35.814  20.273  1.00  0.00    -0.000 C 
BRANCH  19  20
ATOM     20  C   UNL     1       4.743 -34.440  19.656  1.00  0.00    -0.000 C 
BRANCH  20  21
ATOM     21  C   UNL     1       4.840 -34.541  18.126  1.00  0.00    -0.000 C 
BRANCH  21  22
ATOM     22  C   UNL     1       3.699 -35.364  17.502  1.00  0.00    -0.000 C 
BRANCH  22  23
ATOM     23  C   UNL     1       4.024 -35.995  16.135  1.00  0.00    -0.000 C 
BRANCH  23  24
ATOM     24  C   UNL     1       2.798 -36.340  15.267  1.00  0.00    -0.000 C 
BRANCH  24  25
ATOM     25  C   UNL     1       3.152 -37.076  13.956  1.00  0.00    -0.003 C 
ATOM     26  C   UNL     1       3.964 -38.348  14.196  1.00  0.00     0.004 C 
ENDBRANCH  24  25
ENDBRANCH  23  24
ENDBRANCH  22  23
ENDBRANCH  21  22
ENDBRANCH  20  21
ENDBRANCH  19  20
ENDBRANCH  18  19
ENDBRANCH  17  18
ENDBRANCH  16  17
ENDBRANCH  15  16
ENDBRANCH   1  15
TORSDOF 22
ENDMDL
