MODEL 1
REMARK VINA RESULT:    -5.035      0.000      0.000
REMARK INTER + INTRA:         -15.004
REMARK INTER:                 -11.511
REMARK INTRA:                  -3.493
REMARK UNBOUND:                -3.493
REMARK SMILES CCCCCCCCCCCCCCCCCCCCCCCC(=O)[O-]
REMARK SMILES IDX 13 1 14 2 15 3 16 4 17 5 18 6 19 7 20 8 21 9 22 10 23 11
REMARK SMILES IDX 24 12 25 13 26 14 12 15 11 16 10 17 9 18 8 19 7 20 6 21 5 22
REMARK SMILES IDX 4 23 3 24 2 25 1 26
REMARK H PARENT
REMARK Flexibility Score: inf
ROOT
ATOM      1  C   UNL     1      26.011  18.203 -12.746  1.00  0.00     0.000 C 
ENDROOT
BRANCH   1   2
ATOM      2  C   UNL     1      25.496  18.801 -14.064  1.00  0.00     0.000 C 
BRANCH   2   3
ATOM      3  C   UNL     1      24.359  17.974 -14.687  1.00  0.00     0.000 C 
BRANCH   3   4
ATOM      4  C   UNL     1      22.980  18.313 -14.090  1.00  0.00     0.000 C 
BRANCH   4   5
ATOM      5  C   UNL     1      22.252  17.130 -13.424  1.00  0.00     0.000 C 
BRANCH   5   6
ATOM      6  C   UNL     1      22.103  17.301 -11.901  1.00  0.00     0.000 C 
BRANCH   6   7
ATOM      7  C   UNL     1      21.853  15.967 -11.180  1.00  0.00     0.000 C 
BRANCH   7   8
ATOM      8  C   UNL     1      21.046  16.142  -9.881  1.00  0.00     0.000 C 
BRANCH   8   9
ATOM      9  C   UNL     1      21.944  16.187  -8.634  1.00  0.00     0.000 C 
BRANCH   9  10
ATOM     10  C   UNL     1      22.099  17.608  -8.070  1.00  0.00     0.006 C 
BRANCH  10  11
ATOM     11  C   UNL     1      20.829  18.046  -7.335  1.00  0.00     0.053 C 
BRANCH  11  12
ATOM     12  C   UNL     1      21.177  18.764  -6.069  1.00  0.00     0.041 C 
ATOM     13  O   UNL     1      20.589  18.474  -4.993  1.00  0.00    -0.550 OA
ATOM     14  O   UNL     1      22.119  19.785  -6.085  1.00  0.00    -0.550 OA
ENDBRANCH  11  12
ENDBRANCH  10  11
ENDBRANCH   9  10
ENDBRANCH   8   9
ENDBRANCH   7   8
ENDBRANCH   6   7
ENDBRANCH   5   6
ENDBRANCH   4   5
ENDBRANCH   3   4
ENDBRANCH   2   3
ENDBRANCH   1   2
BRANCH   1  15
ATOM     15  C   UNL     1      25.511  18.961 -11.506  1.00  0.00     0.000 C 
BRANCH  15  16
ATOM     16  C   UNL     1      25.015  17.983 -10.431  1.00  0.00     0.000 C 
BRANCH  16  17
ATOM     17  C   UNL     1      25.552  16.558 -10.629  1.00  0.00     0.000 C 
BRANCH  17  18
ATOM     18  C   UNL     1      25.537  15.730  -9.334  1.00  0.00    -0.000 C 
BRANCH  18  19
ATOM     19  C   UNL     1      26.938  15.186  -9.016  1.00  0.00    -0.000 C 
BRANCH  19  20
ATOM     20  C   UNL     1      27.858  15.138 -10.246  1.00  0.00    -0.000 C 
BRANCH  20  21
ATOM     21  C   UNL     1      28.972  14.085 -10.116  1.00  0.00    -0.000 C 
BRANCH  21  22
ATOM     22  C   UNL     1      29.003  13.125 -11.317  1.00  0.00    -0.000 C 
BRANCH  22  23
ATOM     23  C   UNL     1      27.597  12.638 -11.712  1.00  0.00    -0.000 C 
BRANCH  23  24
ATOM     24  C   UNL     1      27.245  12.980 -13.172  1.00  0.00    -0.000 C 
BRANCH  24  25
ATOM     25  C   UNL     1      26.064  13.957 -13.317  1.00  0.00    -0.003 C 
ATOM     26  C   UNL     1      24.854  13.546 -12.476  1.00  0.00     0.004 C 
ENDBRANCH  24  25
ENDBRANCH  23  24
ENDBRANCH  22  23
ENDBRANCH  21  22
ENDBRANCH  20  21
ENDBRANCH  19  20
ENDBRANCH  18  19
ENDBRANCH  17  18
ENDBRANCH  16  17
ENDBRANCH  15  16
ENDBRANCH   1  15
TORSDOF 22
ENDMDL
MODEL 2
REMARK VINA RESULT:    -5.030      3.387      4.942
REMARK INTER + INTRA:         -14.991
REMARK INTER:                 -10.548
REMARK INTRA:                  -4.443
REMARK UNBOUND:                -3.493
REMARK SMILES CCCCCCCCCCCCCCCCCCCCCCCC(=O)[O-]
REMARK SMILES IDX 13 1 14 2 15 3 16 4 17 5 18 6 19 7 20 8 21 9 22 10 23 11
REMARK SMILES IDX 24 12 25 13 26 14 12 15 11 16 10 17 9 18 8 19 7 20 6 21 5 22
REMARK SMILES IDX 4 23 3 24 2 25 1 26
REMARK H PARENT
REMARK Flexibility Score: inf
ROOT
ATOM      1  C   UNL     1      25.213  18.506 -11.031  1.00  0.00     0.000 C 
ENDROOT
BRANCH   1   2
ATOM      2  C   UNL     1      26.438  18.474 -11.959  1.00  0.00     0.000 C 
BRANCH   2   3
ATOM      3  C   UNL     1      26.406  17.291 -12.942  1.00  0.00     0.000 C 
BRANCH   3   4
ATOM      4  C   UNL     1      26.394  17.741 -14.416  1.00  0.00     0.000 C 
BRANCH   4   5
ATOM      5  C   UNL     1      26.274  16.599 -15.442  1.00  0.00     0.000 C 
BRANCH   5   6
ATOM      6  C   UNL     1      24.829  16.097 -15.613  1.00  0.00     0.000 C 
BRANCH   6   7
ATOM      7  C   UNL     1      23.794  17.228 -15.494  1.00  0.00     0.000 C 
BRANCH   7   8
ATOM      8  C   UNL     1      22.850  17.038 -14.292  1.00  0.00     0.000 C 
BRANCH   8   9
ATOM      9  C   UNL     1      22.437  18.374 -13.654  1.00  0.00     0.000 C 
BRANCH   9  10
ATOM     10  C   UNL     1      23.362  19.532 -14.057  1.00  0.00     0.006 C 
BRANCH  10  11
ATOM     11  C   UNL     1      23.013  20.805 -13.282  1.00  0.00     0.053 C 
BRANCH  11  12
ATOM     12  C   UNL     1      22.747  21.937 -14.224  1.00  0.00     0.041 C 
ATOM     13  O   UNL     1      22.351  21.707 -15.398  1.00  0.00    -0.550 OA
ATOM     14  O   UNL     1      22.980  23.247 -13.821  1.00  0.00    -0.550 OA
ENDBRANCH  11  12
ENDBRANCH  10  11
ENDBRANCH   9  10
ENDBRANCH   8   9
ENDBRANCH   7   8
ENDBRANCH   6   7
ENDBRANCH   5   6
ENDBRANCH   4   5
ENDBRANCH   3   4
ENDBRANCH   2   3
ENDBRANCH   1   2
BRANCH   1  15
ATOM     15  C   UNL     1      24.570  17.124 -10.836  1.00  0.00     0.000 C 
BRANCH  15  16
ATOM     16  C   UNL     1      25.028  16.491  -9.514  1.00  0.00     0.000 C 
BRANCH  16  17
ATOM     17  C   UNL     1      24.780  14.976  -9.461  1.00  0.00     0.000 C 
BRANCH  17  18
ATOM     18  C   UNL     1      23.982  14.460 -10.668  1.00  0.00    -0.000 C 
BRANCH  18  19
ATOM     19  C   UNL     1      24.725  13.307 -11.362  1.00  0.00    -0.000 C 
BRANCH  19  20
ATOM     20  C   UNL     1      25.170  13.653 -12.791  1.00  0.00    -0.000 C 
BRANCH  20  21
ATOM     21  C   UNL     1      26.693  13.830 -12.915  1.00  0.00    -0.000 C 
BRANCH  21  22
ATOM     22  C   UNL     1      27.463  12.608 -12.387  1.00  0.00    -0.000 C 
BRANCH  22  23
ATOM     23  C   UNL     1      28.599  13.004 -11.427  1.00  0.00    -0.000 C 
BRANCH  23  24
ATOM     24  C   UNL     1      28.089  13.306 -10.006  1.00  0.00    -0.000 C 
BRANCH  24  25
ATOM     25  C   UNL     1      28.642  14.613  -9.409  1.00  0.00    -0.003 C 
ATOM     26  C   UNL     1      28.660  15.760 -10.422  1.00  0.00     0.004 C 
ENDBRANCH  24  25
ENDBRANCH  23  24
ENDBRANCH  22  23
ENDBRANCH  21  22
ENDBRANCH  20  21
ENDBRANCH  19  20
ENDBRANCH  18  19
ENDBRANCH  17  18
ENDBRANCH  16  17
ENDBRANCH  15  16
ENDBRANCH   1  15
TORSDOF 22
ENDMDL
MODEL 3
REMARK VINA RESULT:    -5.007      1.726      4.922
REMARK INTER + INTRA:         -14.940
REMARK INTER:                 -11.546
REMARK INTRA:                  -3.395
REMARK UNBOUND:                -3.493
REMARK SMILES CCCCCCCCCCCCCCCCCCCCCCCC(=O)[O-]
REMARK SMILES IDX 13 1 14 2 15 3 16 4 17 5 18 6 19 7 20 8 21 9 22 10 23 11
REMARK SMILES IDX 24 12 25 13 26 14 12 15 11 16 10 17 9 18 8 19 7 20 6 21 5 22
REMARK SMILES IDX 4 23 3 24 2 25 1 26
REMARK H PARENT
REMARK Flexibility Score: inf
ROOT
ATOM      1  C   UNL     1      28.036  13.131  -7.921  1.00  0.00     0.000 C 
ENDROOT
BRANCH   1   2
ATOM      2  C   UNL     1      26.919  12.190  -8.398  1.00  0.00     0.000 C 
BRANCH   2   3
ATOM      3  C   UNL     1      25.822  11.986  -7.339  1.00  0.00     0.000 C 
BRANCH   3   4
ATOM      4  C   UNL     1      24.419  12.361  -7.854  1.00  0.00     0.000 C 
BRANCH   4   5
ATOM      5  C   UNL     1      24.401  13.117  -9.196  1.00  0.00     0.000 C 
BRANCH   5   6
ATOM      6  C   UNL     1      24.148  14.626  -9.028  1.00  0.00     0.000 C 
BRANCH   6   7
ATOM      7  C   UNL     1      22.665  14.954  -8.794  1.00  0.00     0.000 C 
BRANCH   7   8
ATOM      8  C   UNL     1      22.290  16.366  -9.279  1.00  0.00     0.000 C 
BRANCH   8   9
ATOM      9  C   UNL     1      22.546  17.441  -8.211  1.00  0.00     0.000 C 
BRANCH   9  10
ATOM     10  C   UNL     1      21.246  17.989  -7.603  1.00  0.00     0.006 C 
BRANCH  10  11
ATOM     11  C   UNL     1      21.474  18.467  -6.166  1.00  0.00     0.053 C 
BRANCH  11  12
ATOM     12  C   UNL     1      20.186  18.466  -5.402  1.00  0.00     0.041 C 
ATOM     13  O   UNL     1      20.194  18.368  -4.146  1.00  0.00    -0.550 OA
ATOM     14  O   UNL     1      18.975  18.526  -6.081  1.00  0.00    -0.550 OA
ENDBRANCH  11  12
ENDBRANCH  10  11
ENDBRANCH   9  10
ENDBRANCH   8   9
ENDBRANCH   7   8
ENDBRANCH   6   7
ENDBRANCH   5   6
ENDBRANCH   4   5
ENDBRANCH   3   4
ENDBRANCH   2   3
ENDBRANCH   1   2
BRANCH   1  15
ATOM     15  C   UNL     1      27.814  14.592  -8.346  1.00  0.00     0.000 C 
BRANCH  15  16
ATOM     16  C   UNL     1      27.781  14.715  -9.877  1.00  0.00     0.000 C 
BRANCH  16  17
ATOM     17  C   UNL     1      29.059  14.188 -10.545  1.00  0.00     0.000 C 
BRANCH  17  18
ATOM     18  C   UNL     1      28.799  12.986 -11.465  1.00  0.00    -0.000 C 
BRANCH  18  19
ATOM     19  C   UNL     1      27.331  12.951 -11.917  1.00  0.00    -0.000 C 
BRANCH  19  20
ATOM     20  C   UNL     1      27.173  12.940 -13.446  1.00  0.00    -0.000 C 
BRANCH  20  21
ATOM     21  C   UNL     1      25.787  13.427 -13.905  1.00  0.00    -0.000 C 
BRANCH  21  22
ATOM     22  C   UNL     1      24.933  13.932 -12.731  1.00  0.00    -0.000 C 
BRANCH  22  23
ATOM     23  C   UNL     1      24.543  15.413 -12.887  1.00  0.00    -0.000 C 
BRANCH  23  24
ATOM     24  C   UNL     1      25.674  16.367 -12.461  1.00  0.00    -0.000 C 
BRANCH  24  25
ATOM     25  C   UNL     1      25.318  17.257 -11.256  1.00  0.00    -0.003 C 
ATOM     26  C   UNL     1      25.616  18.736 -11.509  1.00  0.00     0.004 C 
ENDBRANCH  24  25
ENDBRANCH  23  24
ENDBRANCH  22  23
ENDBRANCH  21  22
ENDBRANCH  20  21
ENDBRANCH  19  20
ENDBRANCH  18  19
ENDBRANCH  17  18
ENDBRANCH  16  17
ENDBRANCH  15  16
ENDBRANCH   1  15
TORSDOF 22
ENDMDL
MODEL 4
REMARK VINA RESULT:    -4.993      1.765      5.131
REMARK INTER + INTRA:         -14.908
REMARK INTER:                 -10.820
REMARK INTRA:                  -4.088
REMARK UNBOUND:                -3.493
REMARK SMILES CCCCCCCCCCCCCCCCCCCCCCCC(=O)[O-]
REMARK SMILES IDX 13 1 14 2 15 3 16 4 17 5 18 6 19 7 20 8 21 9 22 10 23 11
REMARK SMILES IDX 24 12 25 13 26 14 12 15 11 16 10 17 9 18 8 19 7 20 6 21 5 22
REMARK SMILES IDX 4 23 3 24 2 25 1 26
REMARK H PARENT
REMARK Flexibility Score: inf
ROOT
ATOM      1  C   UNL     1      28.552  15.091 -10.205  1.00  0.00     0.000 C 
ENDROOT
BRANCH   1   2
ATOM      2  C   UNL     1      27.130  15.451  -9.745  1.00  0.00     0.000 C 
BRANCH   2   3
ATOM      3  C   UNL     1      26.278  16.061 -10.871  1.00  0.00     0.000 C 
BRANCH   3   4
ATOM      4  C   UNL     1      27.106  16.920 -11.846  1.00  0.00     0.000 C 
BRANCH   4   5
ATOM      5  C   UNL     1      26.453  18.255 -12.251  1.00  0.00     0.000 C 
BRANCH   5   6
ATOM      6  C   UNL     1      25.221  18.602 -11.395  1.00  0.00     0.000 C 
BRANCH   6   7
ATOM      7  C   UNL     1      24.147  19.363 -12.189  1.00  0.00     0.000 C 
BRANCH   7   8
ATOM      8  C   UNL     1      22.793  18.631 -12.199  1.00  0.00     0.000 C 
BRANCH   8   9
ATOM      9  C   UNL     1      22.950  17.108 -12.337  1.00  0.00     0.000 C 
BRANCH   9  10
ATOM     10  C   UNL     1      22.212  16.337 -11.232  1.00  0.00     0.006 C 
BRANCH  10  11
ATOM     11  C   UNL     1      21.766  17.281 -10.112  1.00  0.00     0.053 C 
BRANCH  11  12
ATOM     12  C   UNL     1      22.565  17.037  -8.871  1.00  0.00     0.041 C 
ATOM     13  O   UNL     1      23.440  16.131  -8.847  1.00  0.00    -0.550 OA
ATOM     14  O   UNL     1      22.313  17.780  -7.723  1.00  0.00    -0.550 OA
ENDBRANCH  11  12
ENDBRANCH  10  11
ENDBRANCH   9  10
ENDBRANCH   8   9
ENDBRANCH   7   8
ENDBRANCH   6   7
ENDBRANCH   5   6
ENDBRANCH   4   5
ENDBRANCH   3   4
ENDBRANCH   2   3
ENDBRANCH   1   2
BRANCH   1  15
ATOM     15  C   UNL     1      28.819  13.577 -10.200  1.00  0.00     0.000 C 
BRANCH  15  16
ATOM     16  C   UNL     1      28.757  13.008 -11.625  1.00  0.00     0.000 C 
BRANCH  16  17
ATOM     17  C   UNL     1      27.330  12.635 -12.056  1.00  0.00     0.000 C 
BRANCH  17  18
ATOM     18  C   UNL     1      27.013  13.058 -13.498  1.00  0.00    -0.000 C 
BRANCH  18  19
ATOM     19  C   UNL     1      25.517  13.369 -13.661  1.00  0.00    -0.000 C 
BRANCH  19  20
ATOM     20  C   UNL     1      25.252  14.783 -14.202  1.00  0.00    -0.000 C 
BRANCH  20  21
ATOM     21  C   UNL     1      26.378  15.291 -15.119  1.00  0.00    -0.000 C 
BRANCH  21  22
ATOM     22  C   UNL     1      25.836  16.133 -16.287  1.00  0.00    -0.000 C 
BRANCH  22  23
ATOM     23  C   UNL     1      24.391  16.605 -16.044  1.00  0.00    -0.000 C 
BRANCH  23  24
ATOM     24  C   UNL     1      24.320  18.078 -15.602  1.00  0.00    -0.000 C 
BRANCH  24  25
ATOM     25  C   UNL     1      25.536  18.918 -16.036  1.00  0.00    -0.003 C 
ATOM     26  C   UNL     1      25.269  19.725 -17.308  1.00  0.00     0.004 C 
ENDBRANCH  24  25
ENDBRANCH  23  24
ENDBRANCH  22  23
ENDBRANCH  21  22
ENDBRANCH  20  21
ENDBRANCH  19  20
ENDBRANCH  18  19
ENDBRANCH  17  18
ENDBRANCH  16  17
ENDBRANCH  15  16
ENDBRANCH   1  15
TORSDOF 22
ENDMDL
MODEL 5
REMARK VINA RESULT:    -4.985      1.997      3.183
REMARK INTER + INTRA:         -14.889
REMARK INTER:                 -11.159
REMARK INTRA:                  -3.730
REMARK UNBOUND:                -3.493
REMARK SMILES CCCCCCCCCCCCCCCCCCCCCCCC(=O)[O-]
REMARK SMILES IDX 13 1 14 2 15 3 16 4 17 5 18 6 19 7 20 8 21 9 22 10 23 11
REMARK SMILES IDX 24 12 25 13 26 14 12 15 11 16 10 17 9 18 8 19 7 20 6 21 5 22
REMARK SMILES IDX 4 23 3 24 2 25 1 26
REMARK H PARENT
REMARK Flexibility Score: inf
ROOT
ATOM      1  C   UNL     1      24.818  17.888 -10.333  1.00  0.00     0.000 C 
ENDROOT
BRANCH   1   2
ATOM      2  C   UNL     1      24.506  17.155  -9.018  1.00  0.00     0.000 C 
BRANCH   2   3
ATOM      3  C   UNL     1      24.443  15.628  -9.191  1.00  0.00     0.000 C 
BRANCH   3   4
ATOM      4  C   UNL     1      23.038  15.055  -8.926  1.00  0.00     0.000 C 
BRANCH   4   5
ATOM      5  C   UNL     1      22.128  14.965 -10.165  1.00  0.00     0.000 C 
BRANCH   5   6
ATOM      6  C   UNL     1      21.429  16.296 -10.493  1.00  0.00     0.000 C 
BRANCH   6   7
ATOM      7  C   UNL     1      20.508  16.773  -9.358  1.00  0.00     0.000 C 
BRANCH   7   8
ATOM      8  C   UNL     1      20.956  18.120  -8.762  1.00  0.00     0.000 C 
BRANCH   8   9
ATOM      9  C   UNL     1      21.373  18.000  -7.288  1.00  0.00     0.000 C 
BRANCH   9  10
ATOM     10  C   UNL     1      20.615  18.979  -6.378  1.00  0.00     0.006 C 
BRANCH  10  11
ATOM     11  C   UNL     1      19.912  20.059  -7.205  1.00  0.00     0.053 C 
BRANCH  11  12
ATOM     12  C   UNL     1      18.493  20.220  -6.759  1.00  0.00     0.041 C 
ATOM     13  O   UNL     1      17.551  19.758  -7.457  1.00  0.00    -0.550 OA
ATOM     14  O   UNL     1      18.205  20.922  -5.594  1.00  0.00    -0.550 OA
ENDBRANCH  11  12
ENDBRANCH  10  11
ENDBRANCH   9  10
ENDBRANCH   8   9
ENDBRANCH   7   8
ENDBRANCH   6   7
ENDBRANCH   5   6
ENDBRANCH   4   5
ENDBRANCH   3   4
ENDBRANCH   2   3
ENDBRANCH   1   2
BRANCH   1  15
ATOM     15  C   UNL     1      25.239  16.939 -11.466  1.00  0.00     0.000 C 
BRANCH  15  16
ATOM     16  C   UNL     1      26.727  17.117 -11.802  1.00  0.00     0.000 C 
BRANCH  16  17
ATOM     17  C   UNL     1      27.555  15.852 -11.533  1.00  0.00     0.000 C 
BRANCH  17  18
ATOM     18  C   UNL     1      28.529  16.016 -10.356  1.00  0.00    -0.000 C 
BRANCH  18  19
ATOM     19  C   UNL     1      29.467  14.804 -10.250  1.00  0.00    -0.000 C 
BRANCH  19  20
ATOM     20  C   UNL     1      28.760  13.469 -10.534  1.00  0.00    -0.000 C 
BRANCH  20  21
ATOM     21  C   UNL     1      28.017  12.915  -9.306  1.00  0.00    -0.000 C 
BRANCH  21  22
ATOM     22  C   UNL     1      26.580  12.485  -9.644  1.00  0.00    -0.000 C 
BRANCH  22  23
ATOM     23  C   UNL     1      26.338  12.405 -11.163  1.00  0.00    -0.000 C 
BRANCH  23  24
ATOM     24  C   UNL     1      25.091  13.196 -11.601  1.00  0.00    -0.000 C 
BRANCH  24  25
ATOM     25  C   UNL     1      25.091  13.585 -13.091  1.00  0.00    -0.003 C 
ATOM     26  C   UNL     1      26.391  13.198 -13.800  1.00  0.00     0.004 C 
ENDBRANCH  24  25
ENDBRANCH  23  24
ENDBRANCH  22  23
ENDBRANCH  21  22
ENDBRANCH  20  21
ENDBRANCH  19  20
ENDBRANCH  18  19
ENDBRANCH  17  18
ENDBRANCH  16  17
ENDBRANCH  15  16
ENDBRANCH   1  15
TORSDOF 22
ENDMDL
MODEL 6
REMARK VINA RESULT:    -4.943      2.801      5.840
REMARK INTER + INTRA:         -14.793
REMARK INTER:                 -10.478
REMARK INTRA:                  -4.315
REMARK UNBOUND:                -3.493
REMARK SMILES CCCCCCCCCCCCCCCCCCCCCCCC(=O)[O-]
REMARK SMILES IDX 13 1 14 2 15 3 16 4 17 5 18 6 19 7 20 8 21 9 22 10 23 11
REMARK SMILES IDX 24 12 25 13 26 14 12 15 11 16 10 17 9 18 8 19 7 20 6 21 5 22
REMARK SMILES IDX 4 23 3 24 2 25 1 26
REMARK H PARENT
REMARK Flexibility Score: inf
ROOT
ATOM      1  C   UNL     1      26.110  14.185 -14.160  1.00  0.00     0.000 C 
ENDROOT
BRANCH   1   2
ATOM      2  C   UNL     1      26.913  12.984 -13.634  1.00  0.00     0.000 C 
BRANCH   2   3
ATOM      3  C   UNL     1      27.127  13.034 -12.112  1.00  0.00     0.000 C 
BRANCH   3   4
ATOM      4  C   UNL     1      28.616  12.994 -11.719  1.00  0.00     0.000 C 
BRANCH   4   5
ATOM      5  C   UNL     1      28.930  13.533 -10.310  1.00  0.00     0.000 C 
BRANCH   5   6
ATOM      6  C   UNL     1      28.249  12.723  -9.194  1.00  0.00     0.000 C 
BRANCH   6   7
ATOM      7  C   UNL     1      27.303  13.580  -8.337  1.00  0.00     0.000 C 
BRANCH   7   8
ATOM      8  C   UNL     1      27.350  15.070  -8.720  1.00  0.00     0.000 C 
BRANCH   8   9
ATOM      9  C   UNL     1      26.052  15.546  -9.392  1.00  0.00     0.000 C 
BRANCH   9  10
ATOM     10  C   UNL     1      24.962  14.462  -9.402  1.00  0.00     0.006 C 
BRANCH  10  11
ATOM     11  C   UNL     1      23.567  15.092  -9.442  1.00  0.00     0.053 C 
BRANCH  11  12
ATOM     12  C   UNL     1      22.549  14.085  -9.879  1.00  0.00     0.041 C 
ATOM     13  O   UNL     1      21.616  14.421 -10.655  1.00  0.00    -0.550 OA
ATOM     14  O   UNL     1      22.606  12.784  -9.393  1.00  0.00    -0.550 OA
ENDBRANCH  11  12
ENDBRANCH  10  11
ENDBRANCH   9  10
ENDBRANCH   8   9
ENDBRANCH   7   8
ENDBRANCH   6   7
ENDBRANCH   5   6
ENDBRANCH   4   5
ENDBRANCH   3   4
ENDBRANCH   2   3
ENDBRANCH   1   2
BRANCH   1  15
ATOM     15  C   UNL     1      25.082  14.711 -13.145  1.00  0.00     0.000 C 
BRANCH  15  16
ATOM     16  C   UNL     1      24.146  15.738 -13.799  1.00  0.00     0.000 C 
BRANCH  16  17
ATOM     17  C   UNL     1      23.335  16.544 -12.774  1.00  0.00     0.000 C 
BRANCH  17  18
ATOM     18  C   UNL     1      23.780  18.011 -12.681  1.00  0.00    -0.000 C 
BRANCH  18  19
ATOM     19  C   UNL     1      24.542  18.270 -11.372  1.00  0.00    -0.000 C 
BRANCH  19  20
ATOM     20  C   UNL     1      25.978  18.767 -11.600  1.00  0.00    -0.000 C 
BRANCH  20  21
ATOM     21  C   UNL     1      26.892  17.691 -12.211  1.00  0.00    -0.000 C 
BRANCH  21  22
ATOM     22  C   UNL     1      27.636  18.202 -13.456  1.00  0.00    -0.000 C 
BRANCH  22  23
ATOM     23  C   UNL     1      27.025  17.663 -14.763  1.00  0.00    -0.000 C 
BRANCH  23  24
ATOM     24  C   UNL     1      26.511  18.789 -15.679  1.00  0.00    -0.000 C 
BRANCH  24  25
ATOM     25  C   UNL     1      25.032  18.637 -16.083  1.00  0.00    -0.003 C 
ATOM     26  C   UNL     1      24.803  17.471 -17.047  1.00  0.00     0.004 C 
ENDBRANCH  24  25
ENDBRANCH  23  24
ENDBRANCH  22  23
ENDBRANCH  21  22
ENDBRANCH  20  21
ENDBRANCH  19  20
ENDBRANCH  18  19
ENDBRANCH  17  18
ENDBRANCH  16  17
ENDBRANCH  15  16
ENDBRANCH   1  15
TORSDOF 22
ENDMDL
MODEL 7
REMARK VINA RESULT:    -4.913      1.552      4.616
REMARK INTER + INTRA:         -14.724
REMARK INTER:                 -11.521
REMARK INTRA:                  -3.203
REMARK UNBOUND:                -3.493
REMARK SMILES CCCCCCCCCCCCCCCCCCCCCCCC(=O)[O-]
REMARK SMILES IDX 13 1 14 2 15 3 16 4 17 5 18 6 19 7 20 8 21 9 22 10 23 11
REMARK SMILES IDX 24 12 25 13 26 14 12 15 11 16 10 17 9 18 8 19 7 20 6 21 5 22
REMARK SMILES IDX 4 23 3 24 2 25 1 26
REMARK H PARENT
REMARK Flexibility Score: inf
ROOT
ATOM      1  C   UNL     1      27.816  15.060 -10.169  1.00  0.00     0.000 C 
ENDROOT
BRANCH   1   2
ATOM      2  C   UNL     1      26.792  15.246  -9.038  1.00  0.00     0.000 C 
BRANCH   2   3
ATOM      3  C   UNL     1      25.531  14.386  -9.230  1.00  0.00     0.000 C 
BRANCH   3   4
ATOM      4  C   UNL     1      24.249  15.229  -9.363  1.00  0.00     0.000 C 
BRANCH   4   5
ATOM      5  C   UNL     1      24.347  16.656  -8.791  1.00  0.00     0.000 C 
BRANCH   5   6
ATOM      6  C   UNL     1      23.010  17.416  -8.847  1.00  0.00     0.000 C 
BRANCH   6   7
ATOM      7  C   UNL     1      21.813  16.534  -8.458  1.00  0.00     0.000 C 
BRANCH   7   8
ATOM      8  C   UNL     1      20.466  17.150  -8.878  1.00  0.00     0.000 C 
BRANCH   8   9
ATOM      9  C   UNL     1      19.338  16.830  -7.884  1.00  0.00     0.000 C 
BRANCH   9  10
ATOM     10  C   UNL     1      18.708  18.094  -7.280  1.00  0.00     0.006 C 
BRANCH  10  11
ATOM     11  C   UNL     1      19.643  19.297  -7.435  1.00  0.00     0.053 C 
BRANCH  11  12
ATOM     12  C   UNL     1      20.288  19.632  -6.127  1.00  0.00     0.041 C 
ATOM     13  O   UNL     1      20.111  20.764  -5.603  1.00  0.00    -0.550 OA
ATOM     14  O   UNL     1      21.124  18.710  -5.508  1.00  0.00    -0.550 OA
ENDBRANCH  11  12
ENDBRANCH  10  11
ENDBRANCH   9  10
ENDBRANCH   8   9
ENDBRANCH   7   8
ENDBRANCH   6   7
ENDBRANCH   5   6
ENDBRANCH   4   5
ENDBRANCH   3   4
ENDBRANCH   2   3
ENDBRANCH   1   2
BRANCH   1  15
ATOM     15  C   UNL     1      28.682  13.802  -9.993  1.00  0.00     0.000 C 
BRANCH  15  16
ATOM     16  C   UNL     1      28.771  13.013 -11.308  1.00  0.00     0.000 C 
BRANCH  16  17
ATOM     17  C   UNL     1      27.393  12.705 -11.912  1.00  0.00     0.000 C 
BRANCH  17  18
ATOM     18  C   UNL     1      27.392  12.751 -13.448  1.00  0.00    -0.000 C 
BRANCH  18  19
ATOM     19  C   UNL     1      26.155  13.497 -13.972  1.00  0.00    -0.000 C 
BRANCH  19  20
ATOM     20  C   UNL     1      25.202  13.942 -12.851  1.00  0.00    -0.000 C 
BRANCH  20  21
ATOM     21  C   UNL     1      24.761  15.409 -12.992  1.00  0.00    -0.000 C 
BRANCH  21  22
ATOM     22  C   UNL     1      25.889  16.304 -13.531  1.00  0.00    -0.000 C 
BRANCH  22  23
ATOM     23  C   UNL     1      26.683  16.986 -12.402  1.00  0.00    -0.000 C 
BRANCH  23  24
ATOM     24  C   UNL     1      26.437  18.505 -12.346  1.00  0.00    -0.000 C 
BRANCH  24  25
ATOM     25  C   UNL     1      25.291  18.917 -11.402  1.00  0.00    -0.003 C 
ATOM     26  C   UNL     1      24.007  19.270 -12.155  1.00  0.00     0.004 C 
ENDBRANCH  24  25
ENDBRANCH  23  24
ENDBRANCH  22  23
ENDBRANCH  21  22
ENDBRANCH  20  21
ENDBRANCH  19  20
ENDBRANCH  18  19
ENDBRANCH  17  18
ENDBRANCH  16  17
ENDBRANCH  15  16
ENDBRANCH   1  15
TORSDOF 22
ENDMDL
MODEL 8
REMARK VINA RESULT:    -4.845      1.337      3.172
REMARK INTER + INTRA:         -14.569
REMARK INTER:                 -10.653
REMARK INTRA:                  -3.916
REMARK UNBOUND:                -3.493
REMARK SMILES CCCCCCCCCCCCCCCCCCCCCCCC(=O)[O-]
REMARK SMILES IDX 13 1 14 2 15 3 16 4 17 5 18 6 19 7 20 8 21 9 22 10 23 11
REMARK SMILES IDX 24 12 25 13 26 14 12 15 11 16 10 17 9 18 8 19 7 20 6 21 5 22
REMARK SMILES IDX 4 23 3 24 2 25 1 26
REMARK H PARENT
REMARK Flexibility Score: inf
ROOT
ATOM      1  C   UNL     1      26.324  18.198 -12.109  1.00  0.00     0.000 C 
ENDROOT
BRANCH   1   2
ATOM      2  C   UNL     1      25.235  18.952 -11.330  1.00  0.00     0.000 C 
BRANCH   2   3
ATOM      3  C   UNL     1      24.038  19.345 -12.212  1.00  0.00     0.000 C 
BRANCH   3   4
ATOM      4  C   UNL     1      22.828  18.409 -12.028  1.00  0.00     0.000 C 
BRANCH   4   5
ATOM      5  C   UNL     1      23.090  17.176 -11.144  1.00  0.00     0.000 C 
BRANCH   5   6
ATOM      6  C   UNL     1      21.795  16.529 -10.621  1.00  0.00     0.000 C 
BRANCH   6   7
ATOM      7  C   UNL     1      21.171  17.316  -9.457  1.00  0.00     0.000 C 
BRANCH   7   8
ATOM      8  C   UNL     1      21.749  16.905  -8.091  1.00  0.00     0.000 C 
BRANCH   8   9
ATOM      9  C   UNL     1      22.878  17.838  -7.625  1.00  0.00     0.000 C 
BRANCH   9  10
ATOM     10  C   UNL     1      22.434  18.786  -6.500  1.00  0.00     0.006 C 
BRANCH  10  11
ATOM     11  C   UNL     1      20.994  18.486  -6.071  1.00  0.00     0.053 C 
BRANCH  11  12
ATOM     12  C   UNL     1      20.109  19.660  -6.350  1.00  0.00     0.041 C 
ATOM     13  O   UNL     1      19.343  20.105  -5.455  1.00  0.00    -0.550 OA
ATOM     14  O   UNL     1      20.097  20.237  -7.615  1.00  0.00    -0.550 OA
ENDBRANCH  11  12
ENDBRANCH  10  11
ENDBRANCH   9  10
ENDBRANCH   8   9
ENDBRANCH   7   8
ENDBRANCH   6   7
ENDBRANCH   5   6
ENDBRANCH   4   5
ENDBRANCH   3   4
ENDBRANCH   2   3
ENDBRANCH   1   2
BRANCH   1  15
ATOM     15  C   UNL     1      26.115  18.244 -13.631  1.00  0.00     0.000 C 
BRANCH  15  16
ATOM     16  C   UNL     1      26.151  16.831 -14.230  1.00  0.00     0.000 C 
BRANCH  16  17
ATOM     17  C   UNL     1      26.043  15.729 -13.165  1.00  0.00     0.000 C 
BRANCH  17  18
ATOM     18  C   UNL     1      25.526  14.399 -13.734  1.00  0.00    -0.000 C 
BRANCH  18  19
ATOM     19  C   UNL     1      25.321  13.368 -12.613  1.00  0.00    -0.000 C 
BRANCH  19  20
ATOM     20  C   UNL     1      24.361  13.854 -11.517  1.00  0.00    -0.000 C 
BRANCH  20  21
ATOM     21  C   UNL     1      24.790  13.409 -10.108  1.00  0.00    -0.000 C 
BRANCH  21  22
ATOM     22  C   UNL     1      24.815  14.582  -9.113  1.00  0.00    -0.000 C 
BRANCH  22  23
ATOM     23  C   UNL     1      25.893  15.623  -9.466  1.00  0.00    -0.000 C 
BRANCH  23  24
ATOM     24  C   UNL     1      27.304  15.174  -9.044  1.00  0.00    -0.000 C 
BRANCH  24  25
ATOM     25  C   UNL     1      28.336  15.201 -10.188  1.00  0.00    -0.003 C 
ATOM     26  C   UNL     1      28.593  13.814 -10.780  1.00  0.00     0.004 C 
ENDBRANCH  24  25
ENDBRANCH  23  24
ENDBRANCH  22  23
ENDBRANCH  21  22
ENDBRANCH  20  21
ENDBRANCH  19  20
ENDBRANCH  18  19
ENDBRANCH  17  18
ENDBRANCH  16  17
ENDBRANCH  15  16
ENDBRANCH   1  15
TORSDOF 22
ENDMDL
MODEL 9
REMARK VINA RESULT:    -4.844      3.237      6.288
REMARK INTER + INTRA:         -14.568
REMARK INTER:                 -10.221
REMARK INTRA:                  -4.346
REMARK UNBOUND:                -3.493
REMARK SMILES CCCCCCCCCCCCCCCCCCCCCCCC(=O)[O-]
REMARK SMILES IDX 13 1 14 2 15 3 16 4 17 5 18 6 19 7 20 8 21 9 22 10 23 11
REMARK SMILES IDX 24 12 25 13 26 14 12 15 11 16 10 17 9 18 8 19 7 20 6 21 5 22
REMARK SMILES IDX 4 23 3 24 2 25 1 26
REMARK H PARENT
REMARK Flexibility Score: inf
ROOT
ATOM      1  C   UNL     1      27.113  12.743 -11.920  1.00  0.00     0.000 C 
ENDROOT
BRANCH   1   2
ATOM      2  C   UNL     1      26.500  13.522 -13.094  1.00  0.00     0.000 C 
BRANCH   2   3
ATOM      3  C   UNL     1      25.105  14.083 -12.769  1.00  0.00     0.000 C 
BRANCH   3   4
ATOM      4  C   UNL     1      25.051  15.621 -12.833  1.00  0.00     0.000 C 
BRANCH   4   5
ATOM      5  C   UNL     1      26.423  16.321 -12.815  1.00  0.00     0.000 C 
BRANCH   5   6
ATOM      6  C   UNL     1      26.470  17.522 -11.855  1.00  0.00     0.000 C 
BRANCH   6   7
ATOM      7  C   UNL     1      25.087  17.874 -11.283  1.00  0.00     0.000 C 
BRANCH   7   8
ATOM      8  C   UNL     1      24.558  19.222 -11.806  1.00  0.00     0.000 C 
BRANCH   8   9
ATOM      9  C   UNL     1      23.233  19.076 -12.571  1.00  0.00     0.000 C 
BRANCH   9  10
ATOM     10  C   UNL     1      23.329  19.583 -14.018  1.00  0.00     0.006 C 
BRANCH  10  11
ATOM     11  C   UNL     1      24.306  18.730 -14.831  1.00  0.00     0.053 C 
BRANCH  11  12
ATOM     12  C   UNL     1      25.510  19.533 -15.215  1.00  0.00     0.041 C 
ATOM     13  O   UNL     1      25.400  20.763 -15.460  1.00  0.00    -0.550 OA
ATOM     14  O   UNL     1      26.747  18.913 -15.346  1.00  0.00    -0.550 OA
ENDBRANCH  11  12
ENDBRANCH  10  11
ENDBRANCH   9  10
ENDBRANCH   8   9
ENDBRANCH   7   8
ENDBRANCH   6   7
ENDBRANCH   5   6
ENDBRANCH   4   5
ENDBRANCH   3   4
ENDBRANCH   2   3
ENDBRANCH   1   2
BRANCH   1  15
ATOM     15  C   UNL     1      28.620  12.997 -11.753  1.00  0.00     0.000 C 
BRANCH  15  16
ATOM     16  C   UNL     1      28.949  13.388 -10.305  1.00  0.00     0.000 C 
BRANCH  16  17
ATOM     17  C   UNL     1      28.462  14.799  -9.943  1.00  0.00     0.000 C 
BRANCH  17  18
ATOM     18  C   UNL     1      27.532  14.813  -8.720  1.00  0.00    -0.000 C 
BRANCH  18  19
ATOM     19  C   UNL     1      26.122  15.282  -9.111  1.00  0.00    -0.000 C 
BRANCH  19  20
ATOM     20  C   UNL     1      25.099  14.137  -9.158  1.00  0.00    -0.000 C 
BRANCH  20  21
ATOM     21  C   UNL     1      23.690  14.577  -8.726  1.00  0.00    -0.000 C 
BRANCH  21  22
ATOM     22  C   UNL     1      22.624  14.215  -9.774  1.00  0.00    -0.000 C 
BRANCH  22  23
ATOM     23  C   UNL     1      22.264  15.409 -10.677  1.00  0.00    -0.000 C 
BRANCH  23  24
ATOM     24  C   UNL     1      21.178  16.307 -10.057  1.00  0.00    -0.000 C 
BRANCH  24  25
ATOM     25  C   UNL     1      21.719  17.624  -9.468  1.00  0.00    -0.003 C 
ATOM     26  C   UNL     1      21.734  17.620  -7.938  1.00  0.00     0.004 C 
ENDBRANCH  24  25
ENDBRANCH  23  24
ENDBRANCH  22  23
ENDBRANCH  21  22
ENDBRANCH  20  21
ENDBRANCH  19  20
ENDBRANCH  18  19
ENDBRANCH  17  18
ENDBRANCH  16  17
ENDBRANCH  15  16
ENDBRANCH   1  15
TORSDOF 22
ENDMDL
