MODEL 1
REMARK VINA RESULT:    -5.933      0.000      0.000
REMARK INTER + INTRA:          -7.706
REMARK INTER:                  -7.321
REMARK INTRA:                  -0.385
REMARK UNBOUND:                -0.385
REMARK SMILES Oc1cc(O)c2cc(O)c(-c3cc(O)c(O)c(O)c3)[o+]c2c1
REMARK SMILES IDX 10 1 20 2 21 3 22 4 2 5 3 6 4 7 6 8 7 9 8 10 11 11 12 12
REMARK SMILES IDX 13 13 19 14 15 15 17 16 14 17 16 19 18 21 9 23 1 25 5 27
REMARK H PARENT 14 18 16 20 18 22 9 24 1 26 5 28
REMARK Flexibility Score: inf
ROOT
ATOM      1  C   UNL     1      49.306 -40.644  30.641  1.00  0.00     0.402 A 
ATOM      2  O   UNL     1      48.856 -41.809  30.181  1.00  0.00    -0.202 OA
ATOM      3  C   UNL     1      47.625 -42.255  30.403  1.00  0.00     0.368 A 
ATOM      4  C   UNL     1      47.245 -43.493  29.878  1.00  0.00     0.162 A 
ATOM      5  C   UNL     1      45.960 -43.989  30.098  1.00  0.00     0.128 A 
ATOM      6  C   UNL     1      45.044 -43.242  30.848  1.00  0.00     0.093 A 
ATOM      7  C   UNL     1      45.400 -41.998  31.385  1.00  0.00     0.136 A 
ATOM      8  C   UNL     1      46.706 -41.490  31.161  1.00  0.00     0.125 A 
ATOM      9  C   UNL     1      47.145 -40.248  31.648  1.00  0.00     0.078 A 
ATOM     10  C   UNL     1      48.447 -39.811  31.383  1.00  0.00     0.223 A 
ENDROOT
BRANCH   1  11
ATOM     11  C   UNL     1      50.704 -40.262  30.335  1.00  0.00     0.091 A 
ATOM     12  C   UNL     1      51.760 -40.601  31.198  1.00  0.00     0.068 A 
ATOM     13  C   UNL     1      53.080 -40.250  30.879  1.00  0.00     0.162 A 
ATOM     14  C   UNL     1      50.989 -39.596  29.134  1.00  0.00     0.068 A 
ATOM     15  C   UNL     1      53.352 -39.563  29.685  1.00  0.00     0.200 A 
ATOM     16  C   UNL     1      52.305 -39.240  28.812  1.00  0.00     0.162 A 
BRANCH  13  17
ATOM     17  O   UNL     1      54.120 -40.585  31.743  1.00  0.00    -0.504 OA
ATOM     18  H   UNL     1      55.079 -40.649  31.422  1.00  0.00     0.293 HD
ENDBRANCH  13  17
BRANCH  15  19
ATOM     19  O   UNL     1      54.656 -39.198  29.348  1.00  0.00    -0.502 OA
ATOM     20  H   UNL     1      54.948 -38.230  29.291  1.00  0.00     0.293 HD
ENDBRANCH  15  19
BRANCH  16  21
ATOM     21  O   UNL     1      52.582 -38.566  27.624  1.00  0.00    -0.504 OA
ATOM     22  H   UNL     1      52.242 -37.626  27.456  1.00  0.00     0.293 HD
ENDBRANCH  16  21
ENDBRANCH   1  11
BRANCH  10  23
ATOM     23  O   UNL     1      48.868 -38.557  31.824  1.00  0.00    -0.500 OA
ATOM     24  H   UNL     1      48.666 -38.227  32.761  1.00  0.00     0.294 HD
ENDBRANCH  10  23
BRANCH   5  25
ATOM     25  O   UNL     1      45.600 -45.226  29.567  1.00  0.00    -0.507 OA
ATOM     26  H   UNL     1      44.686 -45.629  29.736  1.00  0.00     0.293 HD
ENDBRANCH   5  25
BRANCH   7  27
ATOM     27  O   UNL     1      44.430 -41.315  32.125  1.00  0.00    -0.507 OA
ATOM     28  H   UNL     1      43.453 -41.565  32.153  1.00  0.00     0.293 HD
ENDBRANCH   7  27
TORSDOF 7
ENDMDL
MODEL 2
REMARK VINA RESULT:    -5.876      0.088      1.790
REMARK INTER + INTRA:          -7.635
REMARK INTER:                  -7.256
REMARK INTRA:                  -0.379
REMARK UNBOUND:                -0.385
REMARK SMILES Oc1cc(O)c2cc(O)c(-c3cc(O)c(O)c(O)c3)[o+]c2c1
REMARK SMILES IDX 10 1 20 2 21 3 22 4 2 5 3 6 4 7 6 8 7 9 8 10 11 11 12 12
REMARK SMILES IDX 13 13 19 14 15 15 17 16 14 17 16 19 18 21 9 23 1 25 5 27
REMARK H PARENT 14 18 16 20 18 22 9 24 1 26 5 28
REMARK Flexibility Score: inf
ROOT
ATOM      1  C   UNL     1      49.340 -40.609  30.584  1.00  0.00     0.402 A 
ATOM      2  O   UNL     1      48.878 -41.778  30.146  1.00  0.00    -0.202 OA
ATOM      3  C   UNL     1      47.646 -42.211  30.387  1.00  0.00     0.368 A 
ATOM      4  C   UNL     1      47.252 -43.455  29.885  1.00  0.00     0.162 A 
ATOM      5  C   UNL     1      45.966 -43.938  30.124  1.00  0.00     0.128 A 
ATOM      6  C   UNL     1      45.063 -43.173  30.872  1.00  0.00     0.093 A 
ATOM      7  C   UNL     1      45.432 -41.925  31.386  1.00  0.00     0.136 A 
ATOM      8  C   UNL     1      46.740 -41.429  31.142  1.00  0.00     0.125 A 
ATOM      9  C   UNL     1      47.191 -40.183  31.605  1.00  0.00     0.078 A 
ATOM     10  C   UNL     1      48.494 -39.759  31.321  1.00  0.00     0.223 A 
ENDROOT
BRANCH   1  11
ATOM     11  C   UNL     1      50.737 -40.241  30.259  1.00  0.00     0.091 A 
ATOM     12  C   UNL     1      51.049 -39.503  29.104  1.00  0.00     0.068 A 
ATOM     13  C   UNL     1      52.376 -39.146  28.826  1.00  0.00     0.162 A 
ATOM     14  C   UNL     1      51.766 -40.588  31.148  1.00  0.00     0.068 A 
ATOM     15  C   UNL     1      53.402 -39.518  29.710  1.00  0.00     0.200 A 
ATOM     16  C   UNL     1      53.094 -40.236  30.872  1.00  0.00     0.162 A 
BRANCH  13  17
ATOM     17  O   UNL     1      52.677 -38.419  27.675  1.00  0.00    -0.504 OA
ATOM     18  H   UNL     1      52.785 -37.412  27.696  1.00  0.00     0.293 HD
ENDBRANCH  13  17
BRANCH  15  19
ATOM     19  O   UNL     1      54.730 -39.178  29.451  1.00  0.00    -0.502 OA
ATOM     20  H   UNL     1      55.053 -38.933  28.523  1.00  0.00     0.293 HD
ENDBRANCH  15  19
BRANCH  16  21
ATOM     21  O   UNL     1      54.114 -40.595  31.751  1.00  0.00    -0.504 OA
ATOM     22  H   UNL     1      53.978 -40.585  32.755  1.00  0.00     0.293 HD
ENDBRANCH  16  21
ENDBRANCH   1  11
BRANCH  10  23
ATOM     23  O   UNL     1      48.928 -38.501  31.739  1.00  0.00    -0.500 OA
ATOM     24  H   UNL     1      49.743 -38.388  32.330  1.00  0.00     0.294 HD
ENDBRANCH  10  23
BRANCH   5  25
ATOM     25  O   UNL     1      45.593 -45.181  29.616  1.00  0.00    -0.507 OA
ATOM     26  H   UNL     1      45.744 -45.422  28.643  1.00  0.00     0.293 HD
ENDBRANCH   5  25
BRANCH   7  27
ATOM     27  O   UNL     1      44.474 -41.224  32.125  1.00  0.00    -0.507 OA
ATOM     28  H   UNL     1      43.753 -40.645  31.720  1.00  0.00     0.293 HD
ENDBRANCH   7  27
TORSDOF 7
ENDMDL
MODEL 3
REMARK VINA RESULT:    -5.682      1.227      7.230
REMARK INTER + INTRA:          -7.396
REMARK INTER:                  -7.156
REMARK INTRA:                  -0.240
REMARK UNBOUND:                -0.385
REMARK SMILES Oc1cc(O)c2cc(O)c(-c3cc(O)c(O)c(O)c3)[o+]c2c1
REMARK SMILES IDX 10 1 20 2 21 3 22 4 2 5 3 6 4 7 6 8 7 9 8 10 11 11 12 12
REMARK SMILES IDX 13 13 19 14 15 15 17 16 14 17 16 19 18 21 9 23 1 25 5 27
REMARK H PARENT 14 18 16 20 18 22 9 24 1 26 5 28
REMARK Flexibility Score: inf
ROOT
ATOM      1  C   UNL     1      49.314 -41.326  30.608  1.00  0.00     0.402 A 
ATOM      2  O   UNL     1      49.489 -40.273  29.813  1.00  0.00    -0.202 OA
ATOM      3  C   UNL     1      50.670 -39.700  29.611  1.00  0.00     0.368 A 
ATOM      4  C   UNL     1      50.752 -38.596  28.758  1.00  0.00     0.162 A 
ATOM      5  C   UNL     1      51.978 -37.971  28.529  1.00  0.00     0.128 A 
ATOM      6  C   UNL     1      53.133 -38.452  29.156  1.00  0.00     0.093 A 
ATOM      7  C   UNL     1      53.078 -39.557  30.015  1.00  0.00     0.136 A 
ATOM      8  C   UNL     1      51.832 -40.196  30.249  1.00  0.00     0.125 A 
ATOM      9  C   UNL     1      51.684 -41.317  31.082  1.00  0.00     0.078 A 
ATOM     10  C   UNL     1      50.424 -41.897  31.260  1.00  0.00     0.223 A 
ENDROOT
BRANCH   1  11
ATOM     11  C   UNL     1      47.945 -41.870  30.761  1.00  0.00     0.091 A 
ATOM     12  C   UNL     1      46.929 -41.126  31.385  1.00  0.00     0.068 A 
ATOM     13  C   UNL     1      45.633 -41.650  31.499  1.00  0.00     0.162 A 
ATOM     14  C   UNL     1      47.640 -43.130  30.225  1.00  0.00     0.068 A 
ATOM     15  C   UNL     1      45.343 -42.922  30.980  1.00  0.00     0.200 A 
ATOM     16  C   UNL     1      46.348 -43.658  30.340  1.00  0.00     0.162 A 
BRANCH  13  17
ATOM     17  O   UNL     1      44.632 -40.907  32.125  1.00  0.00    -0.504 OA
ATOM     18  H   UNL     1      43.979 -40.343  31.595  1.00  0.00     0.293 HD
ENDBRANCH  13  17
BRANCH  15  19
ATOM     19  O   UNL     1      44.062 -43.465  31.087  1.00  0.00    -0.502 OA
ATOM     20  H   UNL     1      43.869 -44.437  30.873  1.00  0.00     0.293 HD
ENDBRANCH  15  19
BRANCH  16  21
ATOM     21  O   UNL     1      46.052 -44.917  29.817  1.00  0.00    -0.504 OA
ATOM     22  H   UNL     1      45.376 -45.037  29.072  1.00  0.00     0.293 HD
ENDBRANCH  16  21
ENDBRANCH   1  11
BRANCH  10  23
ATOM     23  O   UNL     1      50.284 -43.039  32.048  1.00  0.00    -0.500 OA
ATOM     24  H   UNL     1      50.954 -43.798  32.010  1.00  0.00     0.294 HD
ENDBRANCH  10  23
BRANCH   5  25
ATOM     25  O   UNL     1      52.040 -36.871  27.676  1.00  0.00    -0.507 OA
ATOM     26  H   UNL     1      52.617 -36.879  26.842  1.00  0.00     0.293 HD
ENDBRANCH   5  25
BRANCH   7  27
ATOM     27  O   UNL     1      54.274 -39.974  30.606  1.00  0.00    -0.507 OA
ATOM     28  H   UNL     1      54.486 -40.930  30.852  1.00  0.00     0.293 HD
ENDBRANCH   7  27
TORSDOF 7
ENDMDL
MODEL 4
REMARK VINA RESULT:    -5.626      1.289      1.572
REMARK INTER + INTRA:          -7.326
REMARK INTER:                  -7.457
REMARK INTRA:                   0.131
REMARK UNBOUND:                -0.385
REMARK SMILES Oc1cc(O)c2cc(O)c(-c3cc(O)c(O)c(O)c3)[o+]c2c1
REMARK SMILES IDX 10 1 20 2 21 3 22 4 2 5 3 6 4 7 6 8 7 9 8 10 11 11 12 12
REMARK SMILES IDX 13 13 19 14 15 15 17 16 14 17 16 19 18 21 9 23 1 25 5 27
REMARK H PARENT 14 18 16 20 18 22 9 24 1 26 5 28
REMARK Flexibility Score: inf
ROOT
ATOM      1  C   UNL     1      49.298 -39.610  29.971  1.00  0.00     0.402 A 
ATOM      2  O   UNL     1      48.982 -40.882  29.739  1.00  0.00    -0.202 OA
ATOM      3  C   UNL     1      47.860 -41.445  30.172  1.00  0.00     0.368 A 
ATOM      4  C   UNL     1      47.617 -42.790  29.878  1.00  0.00     0.162 A 
ATOM      5  C   UNL     1      46.449 -43.410  30.322  1.00  0.00     0.128 A 
ATOM      6  C   UNL     1      45.514 -42.681  31.066  1.00  0.00     0.093 A 
ATOM      7  C   UNL     1      45.733 -41.333  31.374  1.00  0.00     0.136 A 
ATOM      8  C   UNL     1      46.920 -40.699  30.922  1.00  0.00     0.125 A 
ATOM      9  C   UNL     1      47.216 -39.349  31.170  1.00  0.00     0.078 A 
ATOM     10  C   UNL     1      48.405 -38.792  30.688  1.00  0.00     0.223 A 
ENDROOT
BRANCH   1  11
ATOM     11  C   UNL     1      50.585 -39.100  29.444  1.00  0.00     0.091 A 
ATOM     12  C   UNL     1      51.741 -39.899  29.440  1.00  0.00     0.068 A 
ATOM     13  C   UNL     1      52.945 -39.405  28.916  1.00  0.00     0.162 A 
ATOM     14  C   UNL     1      50.640 -37.814  28.886  1.00  0.00     0.068 A 
ATOM     15  C   UNL     1      52.996 -38.108  28.381  1.00  0.00     0.200 A 
ATOM     16  C   UNL     1      51.841 -37.315  28.364  1.00  0.00     0.162 A 
BRANCH  13  17
ATOM     17  O   UNL     1      54.089 -40.202  28.922  1.00  0.00    -0.504 OA
ATOM     18  H   UNL     1      54.995 -39.835  28.658  1.00  0.00     0.293 HD
ENDBRANCH  13  17
BRANCH  15  19
ATOM     19  O   UNL     1      54.183 -37.593  27.859  1.00  0.00    -0.502 OA
ATOM     20  H   UNL     1      55.092 -37.897  28.186  1.00  0.00     0.293 HD
ENDBRANCH  15  19
BRANCH  16  21
ATOM     21  O   UNL     1      51.894 -36.031  27.824  1.00  0.00    -0.504 OA
ATOM     22  H   UNL     1      52.264 -35.861  26.896  1.00  0.00     0.293 HD
ENDBRANCH  16  21
ENDBRANCH   1  11
BRANCH  10  23
ATOM     23  O   UNL     1      48.678 -37.439  30.892  1.00  0.00    -0.500 OA
ATOM     24  H   UNL     1      48.947 -37.081  31.801  1.00  0.00     0.294 HD
ENDBRANCH  10  23
BRANCH   5  25
ATOM     25  O   UNL     1      46.225 -44.751  30.020  1.00  0.00    -0.507 OA
ATOM     26  H   UNL     1      45.382 -45.054  29.546  1.00  0.00     0.293 HD
ENDBRANCH   5  25
BRANCH   7  27
ATOM     27  O   UNL     1      44.754 -40.676  32.124  1.00  0.00    -0.507 OA
ATOM     28  H   UNL     1      44.806 -40.519  33.120  1.00  0.00     0.293 HD
ENDBRANCH   7  27
TORSDOF 7
ENDMDL
MODEL 5
REMARK VINA RESULT:    -5.589      1.235      7.231
REMARK INTER + INTRA:          -7.281
REMARK INTER:                  -7.040
REMARK INTRA:                  -0.240
REMARK UNBOUND:                -0.385
REMARK SMILES Oc1cc(O)c2cc(O)c(-c3cc(O)c(O)c(O)c3)[o+]c2c1
REMARK SMILES IDX 10 1 20 2 21 3 22 4 2 5 3 6 4 7 6 8 7 9 8 10 11 11 12 12
REMARK SMILES IDX 13 13 19 14 15 15 17 16 14 17 16 19 18 21 9 23 1 25 5 27
REMARK H PARENT 14 18 16 20 18 22 9 24 1 26 5 28
REMARK Flexibility Score: inf
ROOT
ATOM      1  C   UNL     1      49.340 -41.297  30.480  1.00  0.00     0.402 A 
ATOM      2  O   UNL     1      49.513 -40.232  29.700  1.00  0.00    -0.202 OA
ATOM      3  C   UNL     1      50.690 -39.643  29.521  1.00  0.00     0.368 A 
ATOM      4  C   UNL     1      50.771 -38.527  28.682  1.00  0.00     0.162 A 
ATOM      5  C   UNL     1      51.993 -37.886  28.477  1.00  0.00     0.128 A 
ATOM      6  C   UNL     1      53.144 -38.362  29.115  1.00  0.00     0.093 A 
ATOM      7  C   UNL     1      53.090 -39.477  29.959  1.00  0.00     0.136 A 
ATOM      8  C   UNL     1      51.849 -40.133  30.168  1.00  0.00     0.125 A 
ATOM      9  C   UNL     1      51.703 -41.266  30.985  1.00  0.00     0.078 A 
ATOM     10  C   UNL     1      50.447 -41.862  31.140  1.00  0.00     0.223 A 
ENDROOT
BRANCH   1  11
ATOM     11  C   UNL     1      47.975 -41.857  30.608  1.00  0.00     0.091 A 
ATOM     12  C   UNL     1      47.656 -43.128  30.099  1.00  0.00     0.068 A 
ATOM     13  C   UNL     1      46.363 -43.650  30.250  1.00  0.00     0.162 A 
ATOM     14  C   UNL     1      46.993 -41.131  31.299  1.00  0.00     0.068 A 
ATOM     15  C   UNL     1      45.381 -42.905  30.924  1.00  0.00     0.200 A 
ATOM     16  C   UNL     1      45.700 -41.647  31.450  1.00  0.00     0.162 A 
BRANCH  13  17
ATOM     17  O   UNL     1      46.054 -44.909  29.737  1.00  0.00    -0.504 OA
ATOM     18  H   UNL     1      45.601 -45.617  30.302  1.00  0.00     0.293 HD
ENDBRANCH  13  17
BRANCH  15  19
ATOM     19  O   UNL     1      44.087 -43.403  31.082  1.00  0.00    -0.502 OA
ATOM     20  H   UNL     1      43.396 -42.935  31.657  1.00  0.00     0.293 HD
ENDBRANCH  15  19
BRANCH  16  21
ATOM     21  O   UNL     1      44.724 -40.916  32.125  1.00  0.00    -0.504 OA
ATOM     22  H   UNL     1      44.054 -40.341  31.628  1.00  0.00     0.293 HD
ENDBRANCH  16  21
ENDBRANCH   1  11
BRANCH  10  23
ATOM     23  O   UNL     1      50.310 -43.015  31.912  1.00  0.00    -0.500 OA
ATOM     24  H   UNL     1      50.211 -43.931  31.490  1.00  0.00     0.294 HD
ENDBRANCH  10  23
BRANCH   5  25
ATOM     25  O   UNL     1      52.053 -36.775  27.638  1.00  0.00    -0.507 OA
ATOM     26  H   UNL     1      52.841 -36.137  27.660  1.00  0.00     0.293 HD
ENDBRANCH   5  25
BRANCH   7  27
ATOM     27  O   UNL     1      54.283 -39.888  30.561  1.00  0.00    -0.507 OA
ATOM     28  H   UNL     1      54.737 -40.772  30.383  1.00  0.00     0.293 HD
ENDBRANCH   7  27
TORSDOF 7
ENDMDL
MODEL 6
REMARK VINA RESULT:    -5.221      1.514      7.041
REMARK INTER + INTRA:          -6.826
REMARK INTER:                  -6.961
REMARK INTRA:                   0.135
REMARK UNBOUND:                -0.385
REMARK SMILES Oc1cc(O)c2cc(O)c(-c3cc(O)c(O)c(O)c3)[o+]c2c1
REMARK SMILES IDX 10 1 20 2 21 3 22 4 2 5 3 6 4 7 6 8 7 9 8 10 11 11 12 12
REMARK SMILES IDX 13 13 19 14 15 15 17 16 14 17 16 19 18 21 9 23 1 25 5 27
REMARK H PARENT 14 18 16 20 18 22 9 24 1 26 5 28
REMARK Flexibility Score: inf
ROOT
ATOM      1  C   UNL     1      48.799 -40.129  29.857  1.00  0.00     0.402 A 
ATOM      2  O   UNL     1      50.083 -40.481  29.861  1.00  0.00    -0.202 OA
ATOM      3  C   UNL     1      51.063 -39.666  29.488  1.00  0.00     0.368 A 
ATOM      4  C   UNL     1      52.382 -40.128  29.525  1.00  0.00     0.162 A 
ATOM      5  C   UNL     1      53.432 -39.296  29.137  1.00  0.00     0.128 A 
ATOM      6  C   UNL     1      53.165 -37.991  28.707  1.00  0.00     0.093 A 
ATOM      7  C   UNL     1      51.853 -37.504  28.661  1.00  0.00     0.136 A 
ATOM      8  C   UNL     1      50.782 -38.348  29.058  1.00  0.00     0.125 A 
ATOM      9  C   UNL     1      49.438 -37.940  29.058  1.00  0.00     0.078 A 
ATOM     10  C   UNL     1      48.436 -38.826  29.467  1.00  0.00     0.223 A 
ENDROOT
BRANCH   1  11
ATOM     11  C   UNL     1      47.796 -41.132  30.285  1.00  0.00     0.091 A 
ATOM     12  C   UNL     1      46.652 -40.758  31.009  1.00  0.00     0.068 A 
ATOM     13  C   UNL     1      45.703 -41.720  31.386  1.00  0.00     0.162 A 
ATOM     14  C   UNL     1      47.962 -42.475  29.913  1.00  0.00     0.068 A 
ATOM     15  C   UNL     1      45.889 -43.065  31.029  1.00  0.00     0.200 A 
ATOM     16  C   UNL     1      47.019 -43.439  30.289  1.00  0.00     0.162 A 
BRANCH  13  17
ATOM     17  O   UNL     1      44.573 -41.340  32.110  1.00  0.00    -0.504 OA
ATOM     18  H   UNL     1      43.821 -40.813  31.683  1.00  0.00     0.293 HD
ENDBRANCH  13  17
BRANCH  15  19
ATOM     19  O   UNL     1      44.962 -44.040  31.396  1.00  0.00    -0.502 OA
ATOM     20  H   UNL     1      44.528 -44.655  30.718  1.00  0.00     0.293 HD
ENDBRANCH  15  19
BRANCH  16  21
ATOM     21  O   UNL     1      47.195 -44.775  29.930  1.00  0.00    -0.504 OA
ATOM     22  H   UNL     1      46.686 -45.188  29.157  1.00  0.00     0.293 HD
ENDBRANCH  16  21
ENDBRANCH   1  11
BRANCH  10  23
ATOM     23  O   UNL     1      47.107 -38.407  29.513  1.00  0.00    -0.500 OA
ATOM     24  H   UNL     1      46.339 -39.069  29.512  1.00  0.00     0.294 HD
ENDBRANCH  10  23
BRANCH   5  25
ATOM     25  O   UNL     1      54.740 -39.775  29.180  1.00  0.00    -0.507 OA
ATOM     26  H   UNL     1      54.950 -40.756  29.035  1.00  0.00     0.293 HD
ENDBRANCH   5  25
BRANCH   7  27
ATOM     27  O   UNL     1      51.668 -36.192  28.218  1.00  0.00    -0.507 OA
ATOM     28  H   UNL     1      50.772 -35.786  27.992  1.00  0.00     0.293 HD
ENDBRANCH   7  27
TORSDOF 7
ENDMDL
MODEL 7
REMARK VINA RESULT:    -5.069      1.829      2.551
REMARK INTER + INTRA:          -6.638
REMARK INTER:                  -6.371
REMARK INTRA:                  -0.267
REMARK UNBOUND:                -0.385
REMARK SMILES Oc1cc(O)c2cc(O)c(-c3cc(O)c(O)c(O)c3)[o+]c2c1
REMARK SMILES IDX 10 1 20 2 21 3 22 4 2 5 3 6 4 7 6 8 7 9 8 10 11 11 12 12
REMARK SMILES IDX 13 13 19 14 15 15 17 16 14 17 16 19 18 21 9 23 1 25 5 27
REMARK H PARENT 14 18 16 20 18 22 9 24 1 26 5 28
REMARK Flexibility Score: inf
ROOT
ATOM      1  C   UNL     1      49.513 -39.959  29.796  1.00  0.00     0.402 A 
ATOM      2  O   UNL     1      48.589 -40.293  28.898  1.00  0.00    -0.202 OA
ATOM      3  C   UNL     1      47.476 -40.948  29.206  1.00  0.00     0.368 A 
ATOM      4  C   UNL     1      46.565 -41.257  28.191  1.00  0.00     0.162 A 
ATOM      5  C   UNL     1      45.389 -41.947  28.485  1.00  0.00     0.128 A 
ATOM      6  C   UNL     1      45.118 -42.333  29.802  1.00  0.00     0.093 A 
ATOM      7  C   UNL     1      46.014 -42.036  30.837  1.00  0.00     0.136 A 
ATOM      8  C   UNL     1      47.211 -41.332  30.542  1.00  0.00     0.125 A 
ATOM      9  C   UNL     1      48.158 -40.980  31.517  1.00  0.00     0.078 A 
ATOM     10  C   UNL     1      49.314 -40.281  31.151  1.00  0.00     0.223 A 
ENDROOT
BRANCH   1  11
ATOM     11  C   UNL     1      50.718 -39.238  29.326  1.00  0.00     0.091 A 
ATOM     12  C   UNL     1      50.647 -37.907  28.881  1.00  0.00     0.068 A 
ATOM     13  C   UNL     1      51.804 -37.234  28.461  1.00  0.00     0.162 A 
ATOM     14  C   UNL     1      51.967 -39.876  29.377  1.00  0.00     0.068 A 
ATOM     15  C   UNL     1      53.046 -37.890  28.494  1.00  0.00     0.200 A 
ATOM     16  C   UNL     1      53.125 -39.210  28.956  1.00  0.00     0.162 A 
BRANCH  13  17
ATOM     17  O   UNL     1      51.723 -35.916  28.015  1.00  0.00    -0.504 OA
ATOM     18  H   UNL     1      51.194 -35.216  28.521  1.00  0.00     0.293 HD
ENDBRANCH  13  17
BRANCH  15  19
ATOM     19  O   UNL     1      54.210 -37.243  28.077  1.00  0.00    -0.502 OA
ATOM     20  H   UNL     1      54.518 -37.257  27.112  1.00  0.00     0.293 HD
ENDBRANCH  15  19
BRANCH  16  21
ATOM     21  O   UNL     1      54.362 -39.853  28.996  1.00  0.00    -0.504 OA
ATOM     22  H   UNL     1      54.532 -40.707  28.478  1.00  0.00     0.293 HD
ENDBRANCH  16  21
ENDBRANCH   1  11
BRANCH  10  23
ATOM     23  O   UNL     1      50.232 -39.888  32.125  1.00  0.00    -0.500 OA
ATOM     24  H   UNL     1      49.942 -39.401  32.965  1.00  0.00     0.294 HD
ENDBRANCH  10  23
BRANCH   5  25
ATOM     25  O   UNL     1      44.494 -42.245  27.459  1.00  0.00    -0.507 OA
ATOM     26  H   UNL     1      44.470 -43.162  27.028  1.00  0.00     0.293 HD
ENDBRANCH   5  25
BRANCH   7  27
ATOM     27  O   UNL     1      45.673 -42.459  32.125  1.00  0.00    -0.507 OA
ATOM     28  H   UNL     1      45.653 -41.859  32.936  1.00  0.00     0.293 HD
ENDBRANCH   7  27
TORSDOF 7
ENDMDL
MODEL 8
REMARK VINA RESULT:    -4.537      2.454      3.737
REMARK INTER + INTRA:          -5.982
REMARK INTER:                  -5.651
REMARK INTRA:                  -0.331
REMARK UNBOUND:                -0.385
REMARK SMILES Oc1cc(O)c2cc(O)c(-c3cc(O)c(O)c(O)c3)[o+]c2c1
REMARK SMILES IDX 10 1 20 2 21 3 22 4 2 5 3 6 4 7 6 8 7 9 8 10 11 11 12 12
REMARK SMILES IDX 13 13 19 14 15 15 17 16 14 17 16 19 18 21 9 23 1 25 5 27
REMARK H PARENT 14 18 16 20 18 22 9 24 1 26 5 28
REMARK Flexibility Score: inf
ROOT
ATOM      1  C   UNL     1      48.322 -40.783  30.222  1.00  0.00     0.402 A 
ATOM      2  O   UNL     1      47.137 -41.006  29.658  1.00  0.00    -0.202 OA
ATOM      3  C   UNL     1      46.605 -42.216  29.533  1.00  0.00     0.368 A 
ATOM      4  C   UNL     1      45.354 -42.349  28.923  1.00  0.00     0.162 A 
ATOM      5  C   UNL     1      44.772 -43.608  28.775  1.00  0.00     0.128 A 
ATOM      6  C   UNL     1      45.444 -44.745  29.239  1.00  0.00     0.093 A 
ATOM      7  C   UNL     1      46.697 -44.639  29.852  1.00  0.00     0.136 A 
ATOM      8  C   UNL     1      47.292 -43.359  30.007  1.00  0.00     0.125 A 
ATOM      9  C   UNL     1      48.538 -43.157  30.622  1.00  0.00     0.078 A 
ATOM     10  C   UNL     1      49.058 -41.864  30.743  1.00  0.00     0.223 A 
ENDROOT
BRANCH   1  11
ATOM     11  C   UNL     1      48.813 -39.388  30.293  1.00  0.00     0.091 A 
ATOM     12  C   UNL     1      49.851 -38.934  29.460  1.00  0.00     0.068 A 
ATOM     13  C   UNL     1      50.286 -37.603  29.527  1.00  0.00     0.162 A 
ATOM     14  C   UNL     1      48.195 -38.483  31.169  1.00  0.00     0.068 A 
ATOM     15  C   UNL     1      49.676 -36.711  30.425  1.00  0.00     0.200 A 
ATOM     16  C   UNL     1      48.629 -37.153  31.242  1.00  0.00     0.162 A 
BRANCH  13  17
ATOM     17  O   UNL     1      51.320 -37.164  28.702  1.00  0.00    -0.504 OA
ATOM     18  H   UNL     1      52.261 -37.032  29.053  1.00  0.00     0.293 HD
ENDBRANCH  13  17
BRANCH  15  19
ATOM     19  O   UNL     1      50.096 -35.383  30.512  1.00  0.00    -0.502 OA
ATOM     20  H   UNL     1      50.927 -35.048  30.039  1.00  0.00     0.293 HD
ENDBRANCH  15  19
BRANCH  16  21
ATOM     21  O   UNL     1      48.021 -36.261  32.125  1.00  0.00    -0.504 OA
ATOM     22  H   UNL     1      47.910 -36.481  33.108  1.00  0.00     0.293 HD
ENDBRANCH  16  21
ENDBRANCH   1  11
BRANCH  10  23
ATOM     23  O   UNL     1      50.273 -41.656  31.397  1.00  0.00    -0.500 OA
ATOM     24  H   UNL     1      50.314 -41.267  32.331  1.00  0.00     0.294 HD
ENDBRANCH  10  23
BRANCH   5  25
ATOM     25  O   UNL     1      43.524 -43.720  28.164  1.00  0.00    -0.507 OA
ATOM     26  H   UNL     1      43.071 -42.921  27.737  1.00  0.00     0.293 HD
ENDBRANCH   5  25
BRANCH   7  27
ATOM     27  O   UNL     1      47.305 -45.821  30.285  1.00  0.00    -0.507 OA
ATOM     28  H   UNL     1      47.883 -46.412  29.705  1.00  0.00     0.293 HD
ENDBRANCH   7  27
TORSDOF 7
ENDMDL
