MODEL 1
REMARK VINA RESULT:    -3.490      0.000      0.000
REMARK INTER + INTRA:          -4.402
REMARK INTER:                  -4.103
REMARK INTRA:                  -0.299
REMARK UNBOUND:                -0.299
REMARK SMILES O=c1cc(-c2ccc(O)c(O)c2)oc2cc(O)cc(O)c12
REMARK SMILES IDX 4 1 3 2 2 3 1 4 21 5 19 6 18 7 16 8 15 9 14 10 13 11 5 12
REMARK SMILES IDX 6 13 7 14 8 15 12 16 10 17 9 18 11 20 20 22 17 24
REMARK H PARENT 9 19 11 21 20 23 17 25
REMARK Flexibility Score: inf
ROOT
ATOM      1  C   UNL     1     -37.422 -35.611 -33.721  1.00  0.00     0.138 A 
ATOM      2  C   UNL     1     -36.027 -35.744 -33.777  1.00  0.00     0.100 A 
ATOM      3  C   UNL     1     -35.398 -35.912 -35.011  1.00  0.00     0.197 A 
ATOM      4  O   UNL     1     -34.152 -36.084 -35.022  1.00  0.00    -0.289 OA
ATOM      5  C   UNL     1     -36.168 -35.911 -36.199  1.00  0.00     0.107 A 
ATOM      6  C   UNL     1     -35.631 -36.041 -37.516  1.00  0.00     0.134 A 
ATOM      7  C   UNL     1     -36.503 -36.125 -38.610  1.00  0.00     0.093 A 
ATOM      8  C   UNL     1     -37.883 -36.027 -38.442  1.00  0.00     0.123 A 
ATOM      9  C   UNL     1     -38.416 -35.850 -37.164  1.00  0.00     0.094 A 
ATOM     10  C   UNL     1     -37.575 -35.797 -36.050  1.00  0.00     0.146 A 
ATOM     11  O   UNL     1     -38.124 -35.646 -34.848  1.00  0.00    -0.456 OA
ENDROOT
BRANCH   1  12
ATOM     12  C   UNL     1     -38.143 -35.426 -32.436  1.00  0.00     0.021 A 
ATOM     13  C   UNL     1     -37.767 -36.119 -31.269  1.00  0.00     0.016 A 
ATOM     14  C   UNL     1     -38.470 -35.932 -30.077  1.00  0.00     0.051 A 
ATOM     15  C   UNL     1     -39.564 -35.060 -30.029  1.00  0.00     0.157 A 
ATOM     16  C   UNL     1     -39.251 -34.562 -32.384  1.00  0.00     0.062 A 
ATOM     17  C   UNL     1     -39.956 -34.373 -31.189  1.00  0.00     0.158 A 
BRANCH  15  18
ATOM     18  O   UNL     1     -40.263 -34.875 -28.837  1.00  0.00    -0.504 OA
ATOM     19  H   UNL     1     -40.117 -34.056 -28.258  1.00  0.00     0.293 HD
ENDBRANCH  15  18
BRANCH  17  20
ATOM     20  O   UNL     1     -41.044 -33.500 -31.177  1.00  0.00    -0.504 OA
ATOM     21  H   UNL     1     -41.976 -33.797 -31.439  1.00  0.00     0.293 HD
ENDBRANCH  17  20
ENDBRANCH   1  12
BRANCH   6  22
ATOM     22  O   UNL     1     -34.265 -36.068 -37.807  1.00  0.00    -0.507 OA
ATOM     23  H   UNL     1     -33.856 -35.812 -38.692  1.00  0.00     0.293 HD
ENDBRANCH   6  22
BRANCH   8  24
ATOM     24  O   UNL     1     -38.718 -36.099 -39.555  1.00  0.00    -0.508 OA
ATOM     25  H   UNL     1     -39.506 -35.473 -39.668  1.00  0.00     0.293 HD
ENDBRANCH   8  24
TORSDOF 5
ENDMDL
