MODEL 1
REMARK VINA RESULT:     7.058      0.000      0.000
REMARK INTER + INTRA:          11.441
REMARK INTER:                  12.009
REMARK INTRA:                  -0.569
REMARK UNBOUND:                -0.569
REMARK SMILES CCCCCCCCCCCCCC(=O)[O-]
REMARK SMILES IDX 8 1 9 2 10 3 11 4 12 5 13 6 14 7 15 8 16 9 7 10 6 11 5 12
REMARK SMILES IDX 4 13 3 14 2 15 1 16
REMARK H PARENT
REMARK Flexibility Score: inf
ROOT
ATOM      1  C   UNL     1       3.598   7.187  -2.107  1.00  0.00     0.000 C 
ENDROOT
BRANCH   1   2
ATOM      2  C   UNL     1       2.786   7.625  -3.340  1.00  0.00     0.000 C 
BRANCH   2   3
ATOM      3  C   UNL     1       1.331   7.130  -3.302  1.00  0.00     0.000 C 
BRANCH   3   4
ATOM      4  C   UNL     1       0.360   8.063  -4.051  1.00  0.00     0.000 C 
BRANCH   4   5
ATOM      5  C   UNL     1       0.967   8.817  -5.252  1.00  0.00     0.006 C 
BRANCH   5   6
ATOM      6  C   UNL     1       0.211   8.624  -6.576  1.00  0.00     0.053 C 
BRANCH   6   7
ATOM      7  C   UNL     1       1.144   8.400  -7.727  1.00  0.00     0.041 C 
ATOM      8  O   UNL     1       0.723   7.869  -8.788  1.00  0.00    -0.550 OA
ATOM      9  O   UNL     1       2.468   8.810  -7.641  1.00  0.00    -0.550 OA
ENDBRANCH   6   7
ENDBRANCH   5   6
ENDBRANCH   4   5
ENDBRANCH   3   4
ENDBRANCH   2   3
ENDBRANCH   1   2
BRANCH   1  10
ATOM     10  C   UNL     1       5.086   7.592  -2.123  1.00  0.00     0.000 C 
BRANCH  10  11
ATOM     11  C   UNL     1       6.037   6.565  -2.770  1.00  0.00    -0.000 C 
BRANCH  11  12
ATOM     12  C   UNL     1       5.360   5.270  -3.259  1.00  0.00    -0.000 C 
BRANCH  12  13
ATOM     13  C   UNL     1       5.949   4.678  -4.554  1.00  0.00    -0.000 C 
BRANCH  13  14
ATOM     14  C   UNL     1       6.925   3.501  -4.351  1.00  0.00    -0.000 C 
BRANCH  14  15
ATOM     15  C   UNL     1       7.159   3.102  -2.884  1.00  0.00    -0.003 C 
ATOM     16  C   UNL     1       7.162   1.589  -2.671  1.00  0.00     0.004 C 
ENDBRANCH  14  15
ENDBRANCH  13  14
ENDBRANCH  12  13
ENDBRANCH  11  12
ENDBRANCH  10  11
ENDBRANCH   1  10
TORSDOF 12
ENDMDL
MODEL 2
REMARK VINA RESULT:     7.627      0.707      1.177
REMARK INTER + INTRA:          12.409
REMARK INTER:                  12.987
REMARK INTRA:                  -0.578
REMARK UNBOUND:                -0.569
REMARK SMILES CCCCCCCCCCCCCC(=O)[O-]
REMARK SMILES IDX 8 1 9 2 10 3 11 4 12 5 13 6 14 7 15 8 16 9 7 10 6 11 5 12
REMARK SMILES IDX 4 13 3 14 2 15 1 16
REMARK H PARENT
REMARK Flexibility Score: inf
ROOT
ATOM      1  C   UNL     1       2.857   7.576  -3.189  1.00  0.00     0.000 C 
ENDROOT
BRANCH   1   2
ATOM      2  C   UNL     1       1.506   6.876  -2.949  1.00  0.00     0.000 C 
BRANCH   2   3
ATOM      3  C   UNL     1       0.513   7.082  -4.104  1.00  0.00     0.000 C 
BRANCH   3   4
ATOM      4  C   UNL     1       0.218   8.567  -4.385  1.00  0.00     0.000 C 
BRANCH   4   5
ATOM      5  C   UNL     1       0.483   9.028  -5.833  1.00  0.00     0.006 C 
BRANCH   5   6
ATOM      6  C   UNL     1       1.895   8.720  -6.355  1.00  0.00     0.053 C 
BRANCH   6   7
ATOM      7  C   UNL     1       1.940   8.655  -7.851  1.00  0.00     0.041 C 
ATOM      8  O   UNL     1       0.936   8.255  -8.498  1.00  0.00    -0.550 OA
ATOM      9  O   UNL     1       3.077   9.070  -8.532  1.00  0.00    -0.550 OA
ENDBRANCH   6   7
ENDBRANCH   5   6
ENDBRANCH   4   5
ENDBRANCH   3   4
ENDBRANCH   2   3
ENDBRANCH   1   2
BRANCH   1  10
ATOM     10  C   UNL     1       3.898   7.400  -2.066  1.00  0.00     0.000 C 
BRANCH  10  11
ATOM     11  C   UNL     1       5.369   7.498  -2.516  1.00  0.00    -0.000 C 
BRANCH  11  12
ATOM     12  C   UNL     1       6.105   6.148  -2.631  1.00  0.00    -0.000 C 
BRANCH  12  13
ATOM     13  C   UNL     1       5.454   5.135  -3.593  1.00  0.00    -0.000 C 
BRANCH  13  14
ATOM     14  C   UNL     1       6.430   4.432  -4.560  1.00  0.00    -0.000 C 
BRANCH  14  15
ATOM     15  C   UNL     1       6.764   2.975  -4.195  1.00  0.00    -0.003 C 
ATOM     16  C   UNL     1       7.263   2.820  -2.759  1.00  0.00     0.004 C 
ENDBRANCH  14  15
ENDBRANCH  13  14
ENDBRANCH  12  13
ENDBRANCH  11  12
ENDBRANCH  10  11
ENDBRANCH   1  10
TORSDOF 12
ENDMDL
MODEL 3
REMARK VINA RESULT:     8.607      3.244      7.178
REMARK INTER + INTRA:          14.076
REMARK INTER:                  14.770
REMARK INTRA:                  -0.693
REMARK UNBOUND:                -0.569
REMARK SMILES CCCCCCCCCCCCCC(=O)[O-]
REMARK SMILES IDX 8 1 9 2 10 3 11 4 12 5 13 6 14 7 15 8 16 9 7 10 6 11 5 12
REMARK SMILES IDX 4 13 3 14 2 15 1 16
REMARK H PARENT
REMARK Flexibility Score: inf
ROOT
ATOM      1  C   UNL     1       2.628   7.688  -3.570  1.00  0.00     0.000 C 
ENDROOT
BRANCH   1   2
ATOM      2  C   UNL     1       3.435   7.022  -2.441  1.00  0.00     0.000 C 
BRANCH   2   3
ATOM      3  C   UNL     1       4.868   7.567  -2.330  1.00  0.00     0.000 C 
BRANCH   3   4
ATOM      4  C   UNL     1       5.941   6.501  -2.622  1.00  0.00     0.000 C 
BRANCH   4   5
ATOM      5  C   UNL     1       5.425   5.219  -3.308  1.00  0.00     0.006 C 
BRANCH   5   6
ATOM      6  C   UNL     1       6.436   4.546  -4.250  1.00  0.00     0.053 C 
BRANCH   6   7
ATOM      7  C   UNL     1       6.854   3.196  -3.753  1.00  0.00     0.041 C 
ATOM      8  O   UNL     1       7.166   3.035  -2.544  1.00  0.00    -0.550 OA
ATOM      9  O   UNL     1       6.865   2.108  -4.618  1.00  0.00    -0.550 OA
ENDBRANCH   6   7
ENDBRANCH   5   6
ENDBRANCH   4   5
ENDBRANCH   3   4
ENDBRANCH   2   3
ENDBRANCH   1   2
BRANCH   1  10
ATOM     10  C   UNL     1       1.113   7.402  -3.554  1.00  0.00     0.000 C 
BRANCH  10  11
ATOM     11  C   UNL     1       0.241   8.446  -4.279  1.00  0.00    -0.000 C 
BRANCH  11  12
ATOM     12  C   UNL     1       0.829   8.978  -5.601  1.00  0.00    -0.000 C 
BRANCH  12  13
ATOM     13  C   UNL     1       0.156   8.433  -6.876  1.00  0.00    -0.000 C 
BRANCH  13  14
ATOM     14  C   UNL     1       1.075   8.341  -8.112  1.00  0.00    -0.000 C 
BRANCH  14  15
ATOM     15  C   UNL     1       2.515   8.832  -7.884  1.00  0.00    -0.003 C 
ATOM     16  C   UNL     1       3.163   9.386  -9.152  1.00  0.00     0.004 C 
ENDBRANCH  14  15
ENDBRANCH  13  14
ENDBRANCH  12  13
ENDBRANCH  11  12
ENDBRANCH  10  11
ENDBRANCH   1  10
TORSDOF 12
ENDMDL
MODEL 4
REMARK VINA RESULT:     8.673      2.723      7.160
REMARK INTER + INTRA:          14.189
REMARK INTER:                  14.672
REMARK INTRA:                  -0.483
REMARK UNBOUND:                -0.569
REMARK SMILES CCCCCCCCCCCCCC(=O)[O-]
REMARK SMILES IDX 8 1 9 2 10 3 11 4 12 5 13 6 14 7 15 8 16 9 7 10 6 11 5 12
REMARK SMILES IDX 4 13 3 14 2 15 1 16
REMARK H PARENT
REMARK Flexibility Score: inf
ROOT
ATOM      1  C   UNL     1       1.372   6.936  -3.187  1.00  0.00     0.000 C 
ENDROOT
BRANCH   1   2
ATOM      2  C   UNL     1       2.755   7.611  -3.246  1.00  0.00     0.000 C 
BRANCH   2   3
ATOM      3  C   UNL     1       3.625   7.298  -2.019  1.00  0.00     0.000 C 
BRANCH   3   4
ATOM      4  C   UNL     1       5.110   7.649  -2.230  1.00  0.00     0.000 C 
BRANCH   4   5
ATOM      5  C   UNL     1       5.988   6.499  -2.766  1.00  0.00     0.006 C 
BRANCH   5   6
ATOM      6  C   UNL     1       5.204   5.293  -3.305  1.00  0.00     0.053 C 
BRANCH   6   7
ATOM      7  C   UNL     1       6.029   4.456  -4.234  1.00  0.00     0.041 C 
ATOM      8  O   UNL     1       6.024   4.690  -5.470  1.00  0.00    -0.550 OA
ATOM      9  O   UNL     1       6.831   3.439  -3.728  1.00  0.00    -0.550 OA
ENDBRANCH   6   7
ENDBRANCH   5   6
ENDBRANCH   4   5
ENDBRANCH   3   4
ENDBRANCH   2   3
ENDBRANCH   1   2
BRANCH   1  10
ATOM     10  C   UNL     1       0.406   7.316  -4.327  1.00  0.00     0.000 C 
BRANCH  10  11
ATOM     11  C   UNL     1       0.371   8.814  -4.685  1.00  0.00    -0.000 C 
BRANCH  11  12
ATOM     12  C   UNL     1       0.830   9.150  -6.118  1.00  0.00    -0.000 C 
BRANCH  12  13
ATOM     13  C   UNL     1       0.714   7.989  -7.126  1.00  0.00    -0.000 C 
BRANCH  13  14
ATOM     14  C   UNL     1       0.862   8.391  -8.607  1.00  0.00    -0.000 C 
BRANCH  14  15
ATOM     15  C   UNL     1      -0.454   8.772  -9.308  1.00  0.00    -0.003 C 
ATOM     16  C   UNL     1      -0.620   8.101 -10.670  1.00  0.00     0.004 C 
ENDBRANCH  14  15
ENDBRANCH  13  14
ENDBRANCH  12  13
ENDBRANCH  11  12
ENDBRANCH  10  11
ENDBRANCH   1  10
TORSDOF 12
ENDMDL
MODEL 5
REMARK VINA RESULT:     8.836      2.442      4.649
REMARK INTER + INTRA:          14.466
REMARK INTER:                  15.053
REMARK INTRA:                  -0.587
REMARK UNBOUND:                -0.569
REMARK SMILES CCCCCCCCCCCCCC(=O)[O-]
REMARK SMILES IDX 8 1 9 2 10 3 11 4 12 5 13 6 14 7 15 8 16 9 7 10 6 11 5 12
REMARK SMILES IDX 4 13 3 14 2 15 1 16
REMARK H PARENT
REMARK Flexibility Score: inf
ROOT
ATOM      1  C   UNL     1       0.997   8.759  -5.627  1.00  0.00     0.000 C 
ENDROOT
BRANCH   1   2
ATOM      2  C   UNL     1       0.274   8.710  -6.986  1.00  0.00     0.000 C 
BRANCH   2   3
ATOM      3  C   UNL     1       1.214   8.357  -8.150  1.00  0.00     0.000 C 
BRANCH   3   4
ATOM      4  C   UNL     1       2.631   8.933  -7.973  1.00  0.00     0.000 C 
BRANCH   4   5
ATOM      5  C   UNL     1       3.384   9.242  -9.284  1.00  0.00     0.006 C 
BRANCH   5   6
ATOM      6  C   UNL     1       2.670  10.237 -10.213  1.00  0.00     0.053 C 
BRANCH   6   7
ATOM      7  C   UNL     1       3.147  10.125 -11.629  1.00  0.00     0.041 C 
ATOM      8  O   UNL     1       3.894   9.171 -11.971  1.00  0.00    -0.550 OA
ATOM      9  O   UNL     1       2.738  11.054 -12.577  1.00  0.00    -0.550 OA
ENDBRANCH   6   7
ENDBRANCH   5   6
ENDBRANCH   4   5
ENDBRANCH   3   4
ENDBRANCH   2   3
ENDBRANCH   1   2
BRANCH   1  10
ATOM     10  C   UNL     1       0.253   8.079  -4.461  1.00  0.00     0.000 C 
BRANCH  10  11
ATOM     11  C   UNL     1       1.150   7.315  -3.468  1.00  0.00    -0.000 C 
BRANCH  11  12
ATOM     12  C   UNL     1       2.651   7.656  -3.553  1.00  0.00    -0.000 C 
BRANCH  12  13
ATOM     13  C   UNL     1       3.497   7.162  -2.363  1.00  0.00    -0.000 C 
BRANCH  13  14
ATOM     14  C   UNL     1       4.974   7.608  -2.381  1.00  0.00    -0.000 C 
BRANCH  14  15
ATOM     15  C   UNL     1       5.989   6.474  -2.607  1.00  0.00    -0.003 C 
ATOM     16  C   UNL     1       5.453   5.367  -3.513  1.00  0.00     0.004 C 
ENDBRANCH  14  15
ENDBRANCH  13  14
ENDBRANCH  12  13
ENDBRANCH  11  12
ENDBRANCH  10  11
ENDBRANCH   1  10
TORSDOF 12
ENDMDL
MODEL 6
REMARK VINA RESULT:     8.895      3.404      7.211
REMARK INTER + INTRA:          14.566
REMARK INTER:                  15.162
REMARK INTRA:                  -0.597
REMARK UNBOUND:                -0.569
REMARK SMILES CCCCCCCCCCCCCC(=O)[O-]
REMARK SMILES IDX 8 1 9 2 10 3 11 4 12 5 13 6 14 7 15 8 16 9 7 10 6 11 5 12
REMARK SMILES IDX 4 13 3 14 2 15 1 16
REMARK H PARENT
REMARK Flexibility Score: inf
ROOT
ATOM      1  C   UNL     1       3.710   7.299  -2.258  1.00  0.00     0.000 C 
ENDROOT
BRANCH   1   2
ATOM      2  C   UNL     1       5.210   7.633  -2.346  1.00  0.00     0.000 C 
BRANCH   2   3
ATOM      3  C   UNL     1       6.081   6.401  -2.638  1.00  0.00     0.000 C 
BRANCH   3   4
ATOM      4  C   UNL     1       5.279   5.228  -3.233  1.00  0.00     0.000 C 
BRANCH   4   5
ATOM      5  C   UNL     1       5.853   4.631  -4.535  1.00  0.00     0.006 C 
BRANCH   5   6
ATOM      6  C   UNL     1       7.138   3.809  -4.350  1.00  0.00     0.053 C 
BRANCH   6   7
ATOM      7  C   UNL     1       7.010   2.806  -3.245  1.00  0.00     0.041 C 
ATOM      8  O   UNL     1       6.423   1.711  -3.449  1.00  0.00    -0.550 OA
ATOM      9  O   UNL     1       7.568   3.066  -1.999  1.00  0.00    -0.550 OA
ENDBRANCH   6   7
ENDBRANCH   5   6
ENDBRANCH   4   5
ENDBRANCH   3   4
ENDBRANCH   2   3
ENDBRANCH   1   2
BRANCH   1  10
ATOM     10  C   UNL     1       2.893   7.601  -3.530  1.00  0.00     0.000 C 
BRANCH  10  11
ATOM     11  C   UNL     1       1.389   7.275  -3.436  1.00  0.00    -0.000 C 
BRANCH  11  12
ATOM     12  C   UNL     1       0.463   8.270  -4.162  1.00  0.00    -0.000 C 
BRANCH  12  13
ATOM     13  C   UNL     1       0.990   8.776  -5.519  1.00  0.00    -0.000 C 
BRANCH  13  14
ATOM     14  C   UNL     1       0.186   8.308  -6.749  1.00  0.00    -0.000 C 
BRANCH  14  15
ATOM     15  C   UNL     1       0.958   8.346  -8.080  1.00  0.00    -0.003 C 
ATOM     16  C   UNL     1       2.403   8.815  -7.917  1.00  0.00     0.004 C 
ENDBRANCH  14  15
ENDBRANCH  13  14
ENDBRANCH  12  13
ENDBRANCH  11  12
ENDBRANCH  10  11
ENDBRANCH   1  10
TORSDOF 12
ENDMDL
