MODEL 1
REMARK VINA RESULT:    -4.486      0.000      0.000
REMARK INTER + INTRA:         -10.752
REMARK INTER:                  -8.682
REMARK INTRA:                  -2.070
REMARK UNBOUND:                -2.070
REMARK SMILES CCCCCCCCCCCCCCCCCC(=O)[O-]
REMARK SMILES IDX 10 1 11 2 12 3 13 4 14 5 15 6 16 7 17 8 18 9 19 10 20 11
REMARK SMILES IDX 9 12 8 13 7 14 6 15 5 16 4 17 3 18 2 19 1 20
REMARK H PARENT
REMARK Flexibility Score: inf
ROOT
ATOM      1  C   UNL     1      41.585  25.187 225.551  1.00  0.00     0.000 C 
ENDROOT
BRANCH   1   2
ATOM      2  C   UNL     1      41.655  23.818 224.855  1.00  0.00     0.000 C 
BRANCH   2   3
ATOM      3  C   UNL     1      40.525  23.618 223.831  1.00  0.00     0.000 C 
BRANCH   3   4
ATOM      4  C   UNL     1      40.056  22.155 223.748  1.00  0.00     0.000 C 
BRANCH   4   5
ATOM      5  C   UNL     1      39.575  21.613 225.102  1.00  0.00     0.000 C 
BRANCH   5   6
ATOM      6  C   UNL     1      38.442  22.461 225.707  1.00  0.00     0.000 C 
BRANCH   6   7
ATOM      7  C   UNL     1      37.170  21.641 225.978  1.00  0.00     0.006 C 
BRANCH   7   8
ATOM      8  C   UNL     1      37.322  20.169 225.572  1.00  0.00     0.053 C 
BRANCH   8   9
ATOM      9  C   UNL     1      36.019  19.448 225.721  1.00  0.00     0.041 C 
ATOM     10  O   UNL     1      35.227  19.756 226.651  1.00  0.00    -0.550 OA
ATOM     11  O   UNL     1      35.698  18.406 224.861  1.00  0.00    -0.550 OA
ENDBRANCH   8   9
ENDBRANCH   7   8
ENDBRANCH   6   7
ENDBRANCH   5   6
ENDBRANCH   4   5
ENDBRANCH   3   4
ENDBRANCH   2   3
ENDBRANCH   1   2
BRANCH   1  12
ATOM     12  C   UNL     1      40.278  25.382 226.337  1.00  0.00     0.000 C 
BRANCH  12  13
ATOM     13  C   UNL     1      39.484  26.611 225.863  1.00  0.00    -0.000 C 
BRANCH  13  14
ATOM     14  C   UNL     1      38.414  26.258 224.819  1.00  0.00    -0.000 C 
BRANCH  14  15
ATOM     15  C   UNL     1      37.168  25.607 225.447  1.00  0.00    -0.000 C 
BRANCH  15  16
ATOM     16  C   UNL     1      36.234  24.992 224.393  1.00  0.00    -0.000 C 
BRANCH  16  17
ATOM     17  C   UNL     1      36.941  24.741 223.049  1.00  0.00    -0.000 C 
BRANCH  17  18
ATOM     18  C   UNL     1      36.138  23.791 222.135  1.00  0.00    -0.000 C 
BRANCH  18  19
ATOM     19  C   UNL     1      36.759  23.608 220.740  1.00  0.00    -0.003 C 
ATOM     20  C   UNL     1      35.827  24.035 219.607  1.00  0.00     0.004 C 
ENDBRANCH  18  19
ENDBRANCH  17  18
ENDBRANCH  16  17
ENDBRANCH  15  16
ENDBRANCH  14  15
ENDBRANCH  13  14
ENDBRANCH  12  13
ENDBRANCH   1  12
TORSDOF 16
ENDMDL
MODEL 2
REMARK VINA RESULT:    -4.351      1.820      4.609
REMARK INTER + INTRA:         -10.492
REMARK INTER:                  -7.704
REMARK INTRA:                  -2.788
REMARK UNBOUND:                -2.070
REMARK SMILES CCCCCCCCCCCCCCCCCC(=O)[O-]
REMARK SMILES IDX 10 1 11 2 12 3 13 4 14 5 15 6 16 7 17 8 18 9 19 10 20 11
REMARK SMILES IDX 9 12 8 13 7 14 6 15 5 16 4 17 3 18 2 19 1 20
REMARK H PARENT
REMARK Flexibility Score: inf
ROOT
ATOM      1  C   UNL     1      38.222  25.057 224.059  1.00  0.00     0.000 C 
ENDROOT
BRANCH   1   2
ATOM      2  C   UNL     1      37.886  24.997 225.558  1.00  0.00     0.000 C 
BRANCH   2   3
ATOM      3  C   UNL     1      37.657  23.560 226.055  1.00  0.00     0.000 C 
BRANCH   3   4
ATOM      4  C   UNL     1      38.586  23.184 227.223  1.00  0.00     0.000 C 
BRANCH   4   5
ATOM      5  C   UNL     1      39.028  21.713 227.172  1.00  0.00     0.000 C 
BRANCH   5   6
ATOM      6  C   UNL     1      38.719  21.052 225.817  1.00  0.00     0.000 C 
BRANCH   6   7
ATOM      7  C   UNL     1      38.107  19.650 225.970  1.00  0.00     0.006 C 
BRANCH   7   8
ATOM      8  C   UNL     1      37.276  19.508 227.252  1.00  0.00     0.053 C 
BRANCH   8   9
ATOM      9  C   UNL     1      36.262  18.417 227.099  1.00  0.00     0.041 C 
ATOM     10  O   UNL     1      36.190  17.496 227.954  1.00  0.00    -0.550 OA
ATOM     11  O   UNL     1      35.429  18.393 225.988  1.00  0.00    -0.550 OA
ENDBRANCH   8   9
ENDBRANCH   7   8
ENDBRANCH   6   7
ENDBRANCH   5   6
ENDBRANCH   4   5
ENDBRANCH   3   4
ENDBRANCH   2   3
ENDBRANCH   1   2
BRANCH   1  12
ATOM     12  C   UNL     1      38.165  23.676 223.387  1.00  0.00     0.000 C 
BRANCH  12  13
ATOM     13  C   UNL     1      39.360  23.426 222.452  1.00  0.00    -0.000 C 
BRANCH  13  14
ATOM     14  C   UNL     1      40.674  24.001 223.004  1.00  0.00    -0.000 C 
BRANCH  14  15
ATOM     15  C   UNL     1      41.477  22.967 223.814  1.00  0.00    -0.000 C 
BRANCH  15  16
ATOM     16  C   UNL     1      41.652  23.383 225.283  1.00  0.00    -0.000 C 
BRANCH  16  17
ATOM     17  C   UNL     1      42.139  24.836 225.433  1.00  0.00    -0.000 C 
BRANCH  17  18
ATOM     18  C   UNL     1      41.389  25.589 226.552  1.00  0.00    -0.000 C 
BRANCH  18  19
ATOM     19  C   UNL     1      41.197  27.088 226.262  1.00  0.00    -0.003 C 
ATOM     20  C   UNL     1      39.909  27.654 226.858  1.00  0.00     0.004 C 
ENDBRANCH  18  19
ENDBRANCH  17  18
ENDBRANCH  16  17
ENDBRANCH  15  16
ENDBRANCH  14  15
ENDBRANCH  13  14
ENDBRANCH  12  13
ENDBRANCH   1  12
TORSDOF 16
ENDMDL
MODEL 3
REMARK VINA RESULT:    -4.347      1.713      2.844
REMARK INTER + INTRA:         -10.484
REMARK INTER:                  -7.638
REMARK INTRA:                  -2.845
REMARK UNBOUND:                -2.070
REMARK SMILES CCCCCCCCCCCCCCCCCC(=O)[O-]
REMARK SMILES IDX 10 1 11 2 12 3 13 4 14 5 15 6 16 7 17 8 18 9 19 10 20 11
REMARK SMILES IDX 9 12 8 13 7 14 6 15 5 16 4 17 3 18 2 19 1 20
REMARK H PARENT
REMARK Flexibility Score: inf
ROOT
ATOM      1  C   UNL     1      41.595  23.234 224.100  1.00  0.00     0.000 C 
ENDROOT
BRANCH   1   2
ATOM      2  C   UNL     1      42.085  21.819 223.747  1.00  0.00     0.000 C 
BRANCH   2   3
ATOM      3  C   UNL     1      40.933  20.874 223.367  1.00  0.00     0.000 C 
BRANCH   3   4
ATOM      4  C   UNL     1      40.942  19.573 224.189  1.00  0.00     0.000 C 
BRANCH   4   5
ATOM      5  C   UNL     1      40.936  19.833 225.703  1.00  0.00     0.000 C 
BRANCH   5   6
ATOM      6  C   UNL     1      39.917  18.951 226.447  1.00  0.00     0.000 C 
BRANCH   6   7
ATOM      7  C   UNL     1      38.591  18.808 225.684  1.00  0.00     0.006 C 
BRANCH   7   8
ATOM      8  C   UNL     1      37.387  18.642 226.622  1.00  0.00     0.053 C 
BRANCH   8   9
ATOM      9  C   UNL     1      36.136  19.123 225.956  1.00  0.00     0.041 C 
ATOM     10  O   UNL     1      35.502  20.102 226.431  1.00  0.00    -0.550 OA
ATOM     11  O   UNL     1      35.645  18.462 224.838  1.00  0.00    -0.550 OA
ENDBRANCH   8   9
ENDBRANCH   7   8
ENDBRANCH   6   7
ENDBRANCH   5   6
ENDBRANCH   4   5
ENDBRANCH   3   4
ENDBRANCH   2   3
ENDBRANCH   1   2
BRANCH   1  12
ATOM     12  C   UNL     1      41.560  23.484 225.616  1.00  0.00     0.000 C 
BRANCH  12  13
ATOM     13  C   UNL     1      40.185  23.974 226.100  1.00  0.00    -0.000 C 
BRANCH  13  14
ATOM     14  C   UNL     1      39.440  22.920 226.933  1.00  0.00    -0.000 C 
BRANCH  14  15
ATOM     15  C   UNL     1      38.060  22.570 226.346  1.00  0.00    -0.000 C 
BRANCH  15  16
ATOM     16  C   UNL     1      38.110  22.352 224.826  1.00  0.00    -0.000 C 
BRANCH  16  17
ATOM     17  C   UNL     1      36.766  22.654 224.139  1.00  0.00    -0.000 C 
BRANCH  17  18
ATOM     18  C   UNL     1      36.292  24.100 224.395  1.00  0.00    -0.000 C 
BRANCH  18  19
ATOM     19  C   UNL     1      36.911  25.129 223.433  1.00  0.00    -0.003 C 
ATOM     20  C   UNL     1      37.961  26.017 224.099  1.00  0.00     0.004 C 
ENDBRANCH  18  19
ENDBRANCH  17  18
ENDBRANCH  16  17
ENDBRANCH  15  16
ENDBRANCH  14  15
ENDBRANCH  13  14
ENDBRANCH  12  13
ENDBRANCH   1  12
TORSDOF 16
ENDMDL
MODEL 4
REMARK VINA RESULT:    -4.333      1.632      4.047
REMARK INTER + INTRA:         -10.456
REMARK INTER:                  -7.583
REMARK INTRA:                  -2.873
REMARK UNBOUND:                -2.070
REMARK SMILES CCCCCCCCCCCCCCCCCC(=O)[O-]
REMARK SMILES IDX 10 1 11 2 12 3 13 4 14 5 15 6 16 7 17 8 18 9 19 10 20 11
REMARK SMILES IDX 9 12 8 13 7 14 6 15 5 16 4 17 3 18 2 19 1 20
REMARK H PARENT
REMARK Flexibility Score: inf
ROOT
ATOM      1  C   UNL     1      38.000  24.224 223.410  1.00  0.00     0.000 C 
ENDROOT
BRANCH   1   2
ATOM      2  C   UNL     1      36.671  23.606 223.876  1.00  0.00     0.000 C 
BRANCH   2   3
ATOM      3  C   UNL     1      36.852  22.203 224.478  1.00  0.00     0.000 C 
BRANCH   3   4
ATOM      4  C   UNL     1      38.324  21.883 224.797  1.00  0.00     0.000 C 
BRANCH   4   5
ATOM      5  C   UNL     1      38.533  21.481 226.265  1.00  0.00     0.000 C 
BRANCH   5   6
ATOM      6  C   UNL     1      39.209  20.106 226.408  1.00  0.00     0.000 C 
BRANCH   6   7
ATOM      7  C   UNL     1      38.456  18.997 225.657  1.00  0.00     0.006 C 
BRANCH   7   8
ATOM      8  C   UNL     1      37.287  18.423 226.471  1.00  0.00     0.053 C 
BRANCH   8   9
ATOM      9  C   UNL     1      35.984  18.946 225.953  1.00  0.00     0.041 C 
ATOM     10  O   UNL     1      35.510  18.507 224.872  1.00  0.00    -0.550 OA
ATOM     11  O   UNL     1      35.314  19.950 226.640  1.00  0.00    -0.550 OA
ENDBRANCH   8   9
ENDBRANCH   7   8
ENDBRANCH   6   7
ENDBRANCH   5   6
ENDBRANCH   4   5
ENDBRANCH   3   4
ENDBRANCH   2   3
ENDBRANCH   1   2
BRANCH   1  12
ATOM     12  C   UNL     1      38.222  25.636 223.975  1.00  0.00     0.000 C 
BRANCH  12  13
ATOM     13  C   UNL     1      37.827  25.747 225.457  1.00  0.00    -0.000 C 
BRANCH  13  14
ATOM     14  C   UNL     1      39.023  26.063 226.368  1.00  0.00    -0.000 C 
BRANCH  14  15
ATOM     15  C   UNL     1      39.543  24.819 227.112  1.00  0.00    -0.000 C 
BRANCH  15  16
ATOM     16  C   UNL     1      41.062  24.644 226.969  1.00  0.00    -0.000 C 
BRANCH  16  17
ATOM     17  C   UNL     1      41.592  25.147 225.614  1.00  0.00    -0.000 C 
BRANCH  17  18
ATOM     18  C   UNL     1      41.639  24.027 224.553  1.00  0.00    -0.000 C 
BRANCH  18  19
ATOM     19  C   UNL     1      41.874  22.627 225.147  1.00  0.00    -0.003 C 
ATOM     20  C   UNL     1      41.995  21.537 224.084  1.00  0.00     0.004 C 
ENDBRANCH  18  19
ENDBRANCH  17  18
ENDBRANCH  16  17
ENDBRANCH  15  16
ENDBRANCH  14  15
ENDBRANCH  13  14
ENDBRANCH  12  13
ENDBRANCH   1  12
TORSDOF 16
ENDMDL
MODEL 5
REMARK VINA RESULT:    -4.302      2.611      5.725
REMARK INTER + INTRA:         -10.396
REMARK INTER:                  -6.947
REMARK INTRA:                  -3.448
REMARK UNBOUND:                -2.070
REMARK SMILES CCCCCCCCCCCCCCCCCC(=O)[O-]
REMARK SMILES IDX 10 1 11 2 12 3 13 4 14 5 15 6 16 7 17 8 18 9 19 10 20 11
REMARK SMILES IDX 9 12 8 13 7 14 6 15 5 16 4 17 3 18 2 19 1 20
REMARK H PARENT
REMARK Flexibility Score: inf
ROOT
ATOM      1  C   UNL     1      38.885  23.966 227.343  1.00  0.00     0.000 C 
ENDROOT
BRANCH   1   2
ATOM      2  C   UNL     1      39.896  22.845 227.634  1.00  0.00     0.000 C 
BRANCH   2   3
ATOM      3  C   UNL     1      40.522  22.268 226.353  1.00  0.00     0.000 C 
BRANCH   3   4
ATOM      4  C   UNL     1      39.594  22.401 225.132  1.00  0.00     0.000 C 
BRANCH   4   5
ATOM      5  C   UNL     1      40.320  22.966 223.901  1.00  0.00     0.000 C 
BRANCH   5   6
ATOM      6  C   UNL     1      39.592  24.179 223.295  1.00  0.00     0.000 C 
BRANCH   6   7
ATOM      7  C   UNL     1      38.064  24.011 223.292  1.00  0.00     0.006 C 
BRANCH   7   8
ATOM      8  C   UNL     1      37.331  25.284 223.736  1.00  0.00     0.053 C 
BRANCH   8   9
ATOM      9  C   UNL     1      36.353  24.971 224.825  1.00  0.00     0.041 C 
ATOM     10  O   UNL     1      36.117  23.775 225.140  1.00  0.00    -0.550 OA
ATOM     11  O   UNL     1      35.668  25.998 225.461  1.00  0.00    -0.550 OA
ENDBRANCH   8   9
ENDBRANCH   7   8
ENDBRANCH   6   7
ENDBRANCH   5   6
ENDBRANCH   4   5
ENDBRANCH   3   4
ENDBRANCH   2   3
ENDBRANCH   1   2
BRANCH   1  12
ATOM     12  C   UNL     1      39.172  25.243 228.148  1.00  0.00     0.000 C 
BRANCH  12  13
ATOM     13  C   UNL     1      38.920  26.523 227.333  1.00  0.00    -0.000 C 
BRANCH  13  14
ATOM     14  C   UNL     1      39.788  26.599 226.067  1.00  0.00    -0.000 C 
BRANCH  14  15
ATOM     15  C   UNL     1      41.292  26.683 226.386  1.00  0.00    -0.000 C 
BRANCH  15  16
ATOM     16  C   UNL     1      42.084  25.514 225.781  1.00  0.00    -0.000 C 
BRANCH  16  17
ATOM     17  C   UNL     1      43.190  24.998 226.719  1.00  0.00    -0.000 C 
BRANCH  17  18
ATOM     18  C   UNL     1      42.930  25.379 228.192  1.00  0.00    -0.000 C 
BRANCH  18  19
ATOM     19  C   UNL     1      42.953  24.176 229.151  1.00  0.00    -0.003 C 
ATOM     20  C   UNL     1      43.635  22.946 228.555  1.00  0.00     0.004 C 
ENDBRANCH  18  19
ENDBRANCH  17  18
ENDBRANCH  16  17
ENDBRANCH  15  16
ENDBRANCH  14  15
ENDBRANCH  13  14
ENDBRANCH  12  13
ENDBRANCH   1  12
TORSDOF 16
ENDMDL
MODEL 6
REMARK VINA RESULT:    -4.290      2.626      5.755
REMARK INTER + INTRA:         -10.372
REMARK INTER:                  -8.065
REMARK INTRA:                  -2.308
REMARK UNBOUND:                -2.070
REMARK SMILES CCCCCCCCCCCCCCCCCC(=O)[O-]
REMARK SMILES IDX 10 1 11 2 12 3 13 4 14 5 15 6 16 7 17 8 18 9 19 10 20 11
REMARK SMILES IDX 9 12 8 13 7 14 6 15 5 16 4 17 3 18 2 19 1 20
REMARK H PARENT
REMARK Flexibility Score: inf
ROOT
ATOM      1  C   UNL     1      40.366  22.629 226.843  1.00  0.00     0.000 C 
ENDROOT
BRANCH   1   2
ATOM      2  C   UNL     1      41.726  22.645 226.124  1.00  0.00     0.000 C 
BRANCH   2   3
ATOM      3  C   UNL     1      41.719  23.535 224.870  1.00  0.00     0.000 C 
BRANCH   3   4
ATOM      4  C   UNL     1      41.679  22.717 223.566  1.00  0.00     0.000 C 
BRANCH   4   5
ATOM      5  C   UNL     1      40.353  22.886 222.807  1.00  0.00     0.000 C 
BRANCH   5   6
ATOM      6  C   UNL     1      39.554  24.112 223.284  1.00  0.00     0.000 C 
BRANCH   6   7
ATOM      7  C   UNL     1      38.118  23.755 223.700  1.00  0.00     0.006 C 
BRANCH   7   8
ATOM      8  C   UNL     1      37.618  24.606 224.875  1.00  0.00     0.053 C 
BRANCH   8   9
ATOM      9  C   UNL     1      36.157  24.897 224.726  1.00  0.00     0.041 C 
ATOM     10  O   UNL     1      35.457  24.228 223.921  1.00  0.00    -0.550 OA
ATOM     11  O   UNL     1      35.579  25.938 225.441  1.00  0.00    -0.550 OA
ENDBRANCH   8   9
ENDBRANCH   7   8
ENDBRANCH   6   7
ENDBRANCH   5   6
ENDBRANCH   4   5
ENDBRANCH   3   4
ENDBRANCH   2   3
ENDBRANCH   1   2
BRANCH   1  12
ATOM     12  C   UNL     1      39.442  21.513 226.330  1.00  0.00     0.000 C 
BRANCH  12  13
ATOM     13  C   UNL     1      38.046  21.564 226.973  1.00  0.00    -0.000 C 
BRANCH  13  14
ATOM     14  C   UNL     1      36.939  21.074 226.026  1.00  0.00    -0.000 C 
BRANCH  14  15
ATOM     15  C   UNL     1      36.030  20.017 226.678  1.00  0.00    -0.000 C 
BRANCH  15  16
ATOM     16  C   UNL     1      36.295  18.603 226.138  1.00  0.00    -0.000 C 
BRANCH  16  17
ATOM     17  C   UNL     1      36.540  17.576 227.258  1.00  0.00    -0.000 C 
BRANCH  17  18
ATOM     18  C   UNL     1      38.041  17.398 227.569  1.00  0.00    -0.000 C 
BRANCH  18  19
ATOM     19  C   UNL     1      38.964  17.839 226.419  1.00  0.00    -0.003 C 
ATOM     20  C   UNL     1      40.302  17.102 226.407  1.00  0.00     0.004 C 
ENDBRANCH  18  19
ENDBRANCH  17  18
ENDBRANCH  16  17
ENDBRANCH  15  16
ENDBRANCH  14  15
ENDBRANCH  13  14
ENDBRANCH  12  13
ENDBRANCH   1  12
TORSDOF 16
ENDMDL
MODEL 7
REMARK VINA RESULT:    -4.287      1.816      3.632
REMARK INTER + INTRA:         -10.368
REMARK INTER:                  -7.797
REMARK INTRA:                  -2.571
REMARK UNBOUND:                -2.070
REMARK SMILES CCCCCCCCCCCCCCCCCC(=O)[O-]
REMARK SMILES IDX 10 1 11 2 12 3 13 4 14 5 15 6 16 7 17 8 18 9 19 10 20 11
REMARK SMILES IDX 9 12 8 13 7 14 6 15 5 16 4 17 3 18 2 19 1 20
REMARK H PARENT
REMARK Flexibility Score: inf
ROOT
ATOM      1  C   UNL     1      38.318  25.066 226.757  1.00  0.00     0.000 C 
ENDROOT
BRANCH   1   2
ATOM      2  C   UNL     1      39.358  24.155 227.431  1.00  0.00     0.000 C 
BRANCH   2   3
ATOM      3  C   UNL     1      39.630  22.874 226.624  1.00  0.00     0.000 C 
BRANCH   3   4
ATOM      4  C   UNL     1      38.363  22.024 226.422  1.00  0.00     0.000 C 
BRANCH   4   5
ATOM      5  C   UNL     1      38.567  20.901 225.394  1.00  0.00     0.000 C 
BRANCH   5   6
ATOM      6  C   UNL     1      39.427  19.748 225.943  1.00  0.00     0.000 C 
BRANCH   6   7
ATOM      7  C   UNL     1      38.598  18.494 226.264  1.00  0.00     0.006 C 
BRANCH   7   8
ATOM      8  C   UNL     1      37.218  18.513 225.592  1.00  0.00     0.053 C 
BRANCH   8   9
ATOM      9  C   UNL     1      36.140  18.673 226.618  1.00  0.00     0.041 C 
ATOM     10  O   UNL     1      36.172  18.000 227.681  1.00  0.00    -0.550 OA
ATOM     11  O   UNL     1      35.076  19.533 226.379  1.00  0.00    -0.550 OA
ENDBRANCH   8   9
ENDBRANCH   7   8
ENDBRANCH   6   7
ENDBRANCH   5   6
ENDBRANCH   4   5
ENDBRANCH   3   4
ENDBRANCH   2   3
ENDBRANCH   1   2
BRANCH   1  12
ATOM     12  C   UNL     1      38.959  26.089 225.807  1.00  0.00     0.000 C 
BRANCH  12  13
ATOM     13  C   UNL     1      38.368  26.026 224.388  1.00  0.00    -0.000 C 
BRANCH  13  14
ATOM     14  C   UNL     1      37.495  24.781 224.165  1.00  0.00    -0.000 C 
BRANCH  14  15
ATOM     15  C   UNL     1      38.133  23.781 223.184  1.00  0.00    -0.000 C 
BRANCH  15  16
ATOM     16  C   UNL     1      39.643  24.008 223.017  1.00  0.00    -0.000 C 
BRANCH  16  17
ATOM     17  C   UNL     1      40.408  22.709 222.708  1.00  0.00    -0.000 C 
BRANCH  17  18
ATOM     18  C   UNL     1      41.625  22.513 223.637  1.00  0.00    -0.000 C 
BRANCH  18  19
ATOM     19  C   UNL     1      42.326  21.156 223.455  1.00  0.00    -0.003 C 
ATOM     20  C   UNL     1      41.444  20.112 222.772  1.00  0.00     0.004 C 
ENDBRANCH  18  19
ENDBRANCH  17  18
ENDBRANCH  16  17
ENDBRANCH  15  16
ENDBRANCH  14  15
ENDBRANCH  13  14
ENDBRANCH  12  13
ENDBRANCH   1  12
TORSDOF 16
ENDMDL
MODEL 8
REMARK VINA RESULT:    -4.243      1.630      2.480
REMARK INTER + INTRA:         -10.283
REMARK INTER:                  -7.588
REMARK INTRA:                  -2.695
REMARK UNBOUND:                -2.070
REMARK SMILES CCCCCCCCCCCCCCCCCC(=O)[O-]
REMARK SMILES IDX 10 1 11 2 12 3 13 4 14 5 15 6 16 7 17 8 18 9 19 10 20 11
REMARK SMILES IDX 9 12 8 13 7 14 6 15 5 16 4 17 3 18 2 19 1 20
REMARK H PARENT
REMARK Flexibility Score: inf
ROOT
ATOM      1  C   UNL     1      41.913  23.927 225.515  1.00  0.00     0.000 C 
ENDROOT
BRANCH   1   2
ATOM      2  C   UNL     1      41.255  24.037 224.129  1.00  0.00     0.000 C 
BRANCH   2   3
ATOM      3  C   UNL     1      40.214  22.934 223.881  1.00  0.00     0.000 C 
BRANCH   3   4
ATOM      4  C   UNL     1      40.414  21.716 224.800  1.00  0.00     0.000 C 
BRANCH   4   5
ATOM      5  C   UNL     1      39.085  21.143 225.316  1.00  0.00     0.000 C 
BRANCH   5   6
ATOM      6  C   UNL     1      38.924  21.310 226.838  1.00  0.00     0.000 C 
BRANCH   6   7
ATOM      7  C   UNL     1      37.833  20.397 227.420  1.00  0.00     0.006 C 
BRANCH   7   8
ATOM      8  C   UNL     1      36.502  20.517 226.665  1.00  0.00     0.053 C 
BRANCH   8   9
ATOM      9  C   UNL     1      35.881  19.168 226.482  1.00  0.00     0.041 C 
ATOM     10  O   UNL     1      35.788  18.376 227.456  1.00  0.00    -0.550 OA
ATOM     11  O   UNL     1      35.448  18.767 225.225  1.00  0.00    -0.550 OA
ENDBRANCH   8   9
ENDBRANCH   7   8
ENDBRANCH   6   7
ENDBRANCH   5   6
ENDBRANCH   4   5
ENDBRANCH   3   4
ENDBRANCH   2   3
ENDBRANCH   1   2
BRANCH   1  12
ATOM     12  C   UNL     1      42.655  25.211 225.919  1.00  0.00     0.000 C 
BRANCH  12  13
ATOM     13  C   UNL     1      41.860  26.057 226.929  1.00  0.00    -0.000 C 
BRANCH  13  14
ATOM     14  C   UNL     1      41.059  27.183 226.257  1.00  0.00    -0.000 C 
BRANCH  14  15
ATOM     15  C   UNL     1      39.564  27.143 226.623  1.00  0.00    -0.000 C 
BRANCH  15  16
ATOM     16  C   UNL     1      38.791  26.094 225.808  1.00  0.00    -0.000 C 
BRANCH  16  17
ATOM     17  C   UNL     1      38.208  24.972 226.686  1.00  0.00    -0.000 C 
BRANCH  17  18
ATOM     18  C   UNL     1      37.042  24.236 225.994  1.00  0.00    -0.000 C 
BRANCH  18  19
ATOM     19  C   UNL     1      36.963  24.494 224.479  1.00  0.00    -0.003 C 
ATOM     20  C   UNL     1      36.477  23.281 223.688  1.00  0.00     0.004 C 
ENDBRANCH  18  19
ENDBRANCH  17  18
ENDBRANCH  16  17
ENDBRANCH  15  16
ENDBRANCH  14  15
ENDBRANCH  13  14
ENDBRANCH  12  13
ENDBRANCH   1  12
TORSDOF 16
ENDMDL
MODEL 9
REMARK VINA RESULT:    -4.235      1.932      4.015
REMARK INTER + INTRA:         -10.267
REMARK INTER:                  -7.266
REMARK INTRA:                  -3.002
REMARK UNBOUND:                -2.070
REMARK SMILES CCCCCCCCCCCCCCCCCC(=O)[O-]
REMARK SMILES IDX 10 1 11 2 12 3 13 4 14 5 15 6 16 7 17 8 18 9 19 10 20 11
REMARK SMILES IDX 9 12 8 13 7 14 6 15 5 16 4 17 3 18 2 19 1 20
REMARK H PARENT
REMARK Flexibility Score: inf
ROOT
ATOM      1  C   UNL     1      40.392  23.886 223.005  1.00  0.00     0.000 C 
ENDROOT
BRANCH   1   2
ATOM      2  C   UNL     1      41.336  22.672 223.015  1.00  0.00     0.000 C 
BRANCH   2   3
ATOM      3  C   UNL     1      40.687  21.424 223.635  1.00  0.00     0.000 C 
BRANCH   3   4
ATOM      4  C   UNL     1      41.648  20.655 224.558  1.00  0.00     0.000 C 
BRANCH   4   5
ATOM      5  C   UNL     1      40.908  19.835 225.626  1.00  0.00     0.000 C 
BRANCH   5   6
ATOM      6  C   UNL     1      39.512  19.386 225.160  1.00  0.00     0.000 C 
BRANCH   6   7
ATOM      7  C   UNL     1      38.558  19.112 226.333  1.00  0.00     0.006 C 
BRANCH   7   8
ATOM      8  C   UNL     1      37.087  19.059 225.896  1.00  0.00     0.053 C 
BRANCH   8   9
ATOM      9  C   UNL     1      36.494  20.433 225.890  1.00  0.00     0.041 C 
ATOM     10  O   UNL     1      36.480  21.112 224.830  1.00  0.00    -0.550 OA
ATOM     11  O   UNL     1      35.999  20.982 227.066  1.00  0.00    -0.550 OA
ENDBRANCH   8   9
ENDBRANCH   7   8
ENDBRANCH   6   7
ENDBRANCH   5   6
ENDBRANCH   4   5
ENDBRANCH   3   4
ENDBRANCH   2   3
ENDBRANCH   1   2
BRANCH   1  12
ATOM     12  C   UNL     1      38.917  23.483 222.849  1.00  0.00     0.000 C 
BRANCH  12  13
ATOM     13  C   UNL     1      37.966  24.422 223.612  1.00  0.00    -0.000 C 
BRANCH  13  14
ATOM     14  C   UNL     1      38.714  25.419 224.510  1.00  0.00    -0.000 C 
BRANCH  14  15
ATOM     15  C   UNL     1      38.288  25.318 225.986  1.00  0.00    -0.000 C 
BRANCH  15  16
ATOM     16  C   UNL     1      38.036  23.866 226.423  1.00  0.00    -0.000 C 
BRANCH  16  17
ATOM     17  C   UNL     1      39.338  23.066 226.602  1.00  0.00    -0.000 C 
BRANCH  17  18
ATOM     18  C   UNL     1      40.462  23.914 227.234  1.00  0.00    -0.000 C 
BRANCH  18  19
ATOM     19  C   UNL     1      41.853  23.631 226.640  1.00  0.00    -0.003 C 
ATOM     20  C   UNL     1      42.458  24.839 225.926  1.00  0.00     0.004 C 
ENDBRANCH  18  19
ENDBRANCH  17  18
ENDBRANCH  16  17
ENDBRANCH  15  16
ENDBRANCH  14  15
ENDBRANCH  13  14
ENDBRANCH  12  13
ENDBRANCH   1  12
TORSDOF 16
ENDMDL
