MODEL 1
REMARK VINA RESULT:    -4.318      0.000      0.000
REMARK INTER + INTRA:          -5.092
REMARK INTER:                  -4.949
REMARK INTRA:                  -0.144
REMARK UNBOUND:                -0.144
REMARK SMILES O=C([O-])C=Cc1ccc(O)cc1
REMARK SMILES IDX 6 1 7 2 12 3 8 4 11 5 9 6 5 7 4 8 2 9 1 10 3 11 10 12
REMARK H PARENT 10 13
REMARK Flexibility Score: inf
ROOT
ATOM      1  C   UNL     1     -33.004 -56.741  67.809  1.00  0.00    -0.025 A 
ATOM      2  C   UNL     1     -32.631 -57.376  66.612  1.00  0.00     0.012 A 
ATOM      3  C   UNL     1     -33.525 -57.525  68.860  1.00  0.00     0.012 A 
ATOM      4  C   UNL     1     -32.795 -58.755  66.456  1.00  0.00     0.047 A 
ATOM      5  C   UNL     1     -33.686 -58.904  68.699  1.00  0.00     0.047 A 
ATOM      6  C   UNL     1     -33.324 -59.522  67.497  1.00  0.00     0.115 A 
ENDROOT
BRANCH   1   7
ATOM      7  C   UNL     1     -32.802 -55.276  67.929  1.00  0.00     0.010 C 
ATOM      8  C   UNL     1     -31.694 -54.641  67.525  1.00  0.00     0.025 C 
BRANCH   8   9
ATOM      9  C   UNL     1     -31.532 -53.187  67.674  1.00  0.00     0.064 C 
ATOM     10  O   UNL     1     -31.774 -52.431  66.697  1.00  0.00    -0.545 OA
ATOM     11  O   UNL     1     -31.116 -52.630  68.878  1.00  0.00    -0.545 OA
ENDBRANCH   8   9
ENDBRANCH   1   7
BRANCH   6  12
ATOM     12  O   UNL     1     -33.483 -60.896  67.327  1.00  0.00    -0.508 OA
ATOM     13  H   UNL     1     -33.683 -61.297  66.418  1.00  0.00     0.293 HD
ENDBRANCH   6  12
TORSDOF 3
ENDMDL
MODEL 2
REMARK VINA RESULT:    -4.291     18.925     20.046
REMARK INTER + INTRA:          -5.062
REMARK INTER:                  -4.926
REMARK INTRA:                  -0.136
REMARK UNBOUND:                -0.144
REMARK SMILES O=C([O-])C=Cc1ccc(O)cc1
REMARK SMILES IDX 6 1 7 2 12 3 8 4 11 5 9 6 5 7 4 8 2 9 1 10 3 11 10 12
REMARK H PARENT 10 13
REMARK Flexibility Score: inf
ROOT
ATOM      1  C   UNL     1     -20.883 -68.134  58.022  1.00  0.00    -0.025 A 
ATOM      2  C   UNL     1     -19.987 -67.110  58.374  1.00  0.00     0.012 A 
ATOM      3  C   UNL     1     -21.197 -69.121  58.980  1.00  0.00     0.012 A 
ATOM      4  C   UNL     1     -19.398 -67.083  59.642  1.00  0.00     0.047 A 
ATOM      5  C   UNL     1     -20.605 -69.090  60.246  1.00  0.00     0.047 A 
ATOM      6  C   UNL     1     -19.703 -68.073  60.579  1.00  0.00     0.115 A 
ENDROOT
BRANCH   1   7
ATOM      7  C   UNL     1     -21.490 -68.112  56.668  1.00  0.00     0.010 C 
ATOM      8  C   UNL     1     -21.013 -68.806  55.627  1.00  0.00     0.025 C 
BRANCH   8   9
ATOM      9  C   UNL     1     -21.642 -68.747  54.298  1.00  0.00     0.064 C 
ATOM     10  O   UNL     1     -22.830 -68.346  54.190  1.00  0.00    -0.545 OA
ATOM     11  O   UNL     1     -20.944 -69.125  53.156  1.00  0.00    -0.545 OA
ENDBRANCH   8   9
ENDBRANCH   1   7
BRANCH   6  12
ATOM     12  O   UNL     1     -19.107 -68.035  61.838  1.00  0.00    -0.508 OA
ATOM     13  H   UNL     1     -19.108 -68.844  62.449  1.00  0.00     0.293 HD
ENDBRANCH   6  12
TORSDOF 3
ENDMDL
MODEL 3
REMARK VINA RESULT:    -4.230     17.524     19.569
REMARK INTER + INTRA:          -4.992
REMARK INTER:                  -4.856
REMARK INTRA:                  -0.136
REMARK UNBOUND:                -0.144
REMARK SMILES O=C([O-])C=Cc1ccc(O)cc1
REMARK SMILES IDX 6 1 7 2 12 3 8 4 11 5 9 6 5 7 4 8 2 9 1 10 3 11 10 12
REMARK H PARENT 10 13
REMARK Flexibility Score: inf
ROOT
ATOM      1  C   UNL     1     -22.667 -68.547  56.834  1.00  0.00    -0.025 A 
ATOM      2  C   UNL     1     -23.951 -67.978  56.798  1.00  0.00     0.012 A 
ATOM      3  C   UNL     1     -22.213 -69.125  58.039  1.00  0.00     0.012 A 
ATOM      4  C   UNL     1     -24.756 -67.962  57.941  1.00  0.00     0.047 A 
ATOM      5  C   UNL     1     -23.022 -69.107  59.179  1.00  0.00     0.047 A 
ATOM      6  C   UNL     1     -24.294 -68.524  59.134  1.00  0.00     0.115 A 
ENDROOT
BRANCH   1   7
ATOM      7  C   UNL     1     -21.855 -68.548  55.592  1.00  0.00     0.010 C 
ATOM      8  C   UNL     1     -20.568 -68.182  55.543  1.00  0.00     0.025 C 
BRANCH   8   9
ATOM      9  C   UNL     1     -19.804 -68.189  54.285  1.00  0.00     0.064 C 
ATOM     10  O   UNL     1     -18.891 -67.341  54.107  1.00  0.00    -0.545 OA
ATOM     11  O   UNL     1     -20.073 -69.119  53.287  1.00  0.00    -0.545 OA
ENDBRANCH   8   9
ENDBRANCH   1   7
BRANCH   6  12
ATOM     12  O   UNL     1     -25.106 -68.499  60.266  1.00  0.00    -0.508 OA
ATOM     13  H   UNL     1     -24.985 -69.168  61.018  1.00  0.00     0.293 HD
ENDBRANCH   6  12
TORSDOF 3
ENDMDL
MODEL 4
REMARK VINA RESULT:    -4.137     16.184     17.632
REMARK INTER + INTRA:          -4.885
REMARK INTER:                  -4.749
REMARK INTRA:                  -0.136
REMARK UNBOUND:                -0.144
REMARK SMILES O=C([O-])C=Cc1ccc(O)cc1
REMARK SMILES IDX 6 1 7 2 12 3 8 4 11 5 9 6 5 7 4 8 2 9 1 10 3 11 10 12
REMARK H PARENT 10 13
REMARK Flexibility Score: inf
ROOT
ATOM      1  C   UNL     1     -28.421 -52.649  51.417  1.00  0.00    -0.025 A 
ATOM      2  C   UNL     1     -28.041 -51.318  51.172  1.00  0.00     0.012 A 
ATOM      3  C   UNL     1     -29.794 -52.967  51.457  1.00  0.00     0.012 A 
ATOM      4  C   UNL     1     -29.006 -50.322  50.996  1.00  0.00     0.047 A 
ATOM      5  C   UNL     1     -30.756 -51.967  51.279  1.00  0.00     0.047 A 
ATOM      6  C   UNL     1     -30.365 -50.643  51.051  1.00  0.00     0.115 A 
ENDROOT
BRANCH   1   7
ATOM      7  C   UNL     1     -27.359 -53.671  51.587  1.00  0.00     0.010 C 
ATOM      8  C   UNL     1     -27.283 -54.500  52.636  1.00  0.00     0.025 C 
BRANCH   8   9
ATOM      9  C   UNL     1     -26.205 -55.492  52.769  1.00  0.00     0.064 C 
ATOM     10  O   UNL     1     -25.894 -55.924  53.910  1.00  0.00    -0.545 OA
ATOM     11  O   UNL     1     -25.522 -55.963  51.653  1.00  0.00    -0.545 OA
ENDBRANCH   8   9
ENDBRANCH   1   7
BRANCH   6  12
ATOM     12  O   UNL     1     -31.316 -49.640  50.875  1.00  0.00    -0.508 OA
ATOM     13  H   UNL     1     -31.890 -49.596  50.041  1.00  0.00     0.293 HD
ENDBRANCH   6  12
TORSDOF 3
ENDMDL
MODEL 5
REMARK VINA RESULT:    -4.117     13.217     14.954
REMARK INTER + INTRA:          -4.863
REMARK INTER:                  -4.713
REMARK INTRA:                  -0.150
REMARK UNBOUND:                -0.144
REMARK SMILES O=C([O-])C=Cc1ccc(O)cc1
REMARK SMILES IDX 6 1 7 2 12 3 8 4 11 5 9 6 5 7 4 8 2 9 1 10 3 11 10 12
REMARK H PARENT 10 13
REMARK Flexibility Score: inf
ROOT
ATOM      1  C   UNL     1     -27.221 -53.914  54.898  1.00  0.00    -0.025 A 
ATOM      2  C   UNL     1     -26.785 -53.560  56.186  1.00  0.00     0.012 A 
ATOM      3  C   UNL     1     -26.954 -53.037  53.826  1.00  0.00     0.012 A 
ATOM      4  C   UNL     1     -26.120 -52.350  56.406  1.00  0.00     0.047 A 
ATOM      5  C   UNL     1     -26.288 -51.828  54.050  1.00  0.00     0.047 A 
ATOM      6  C   UNL     1     -25.872 -51.481  55.341  1.00  0.00     0.115 A 
ENDROOT
BRANCH   1   7
ATOM      7  C   UNL     1     -27.914 -55.213  54.715  1.00  0.00     0.010 C 
ATOM      8  C   UNL     1     -27.825 -56.233  55.578  1.00  0.00     0.025 C 
BRANCH   8   9
ATOM      9  C   UNL     1     -28.522 -57.509  55.349  1.00  0.00     0.064 C 
ATOM     10  O   UNL     1     -27.887 -58.591  55.451  1.00  0.00    -0.545 OA
ATOM     11  O   UNL     1     -29.874 -57.540  55.024  1.00  0.00    -0.545 OA
ENDBRANCH   8   9
ENDBRANCH   1   7
BRANCH   6  12
ATOM     12  O   UNL     1     -25.209 -50.278  55.575  1.00  0.00    -0.508 OA
ATOM     13  H   UNL     1     -25.299 -49.787  56.457  1.00  0.00     0.293 HD
ENDBRANCH   6  12
TORSDOF 3
ENDMDL
MODEL 6
REMARK VINA RESULT:    -4.050     16.709     17.981
REMARK INTER + INTRA:          -4.786
REMARK INTER:                  -4.632
REMARK INTRA:                  -0.154
REMARK UNBOUND:                -0.144
REMARK SMILES O=C([O-])C=Cc1ccc(O)cc1
REMARK SMILES IDX 6 1 7 2 12 3 8 4 11 5 9 6 5 7 4 8 2 9 1 10 3 11 10 12
REMARK H PARENT 10 13
REMARK Flexibility Score: inf
ROOT
ATOM      1  C   UNL     1     -23.009 -68.002  58.216  1.00  0.00    -0.025 A 
ATOM      2  C   UNL     1     -22.152 -66.898  58.069  1.00  0.00     0.012 A 
ATOM      3  C   UNL     1     -22.562 -69.115  58.957  1.00  0.00     0.012 A 
ATOM      4  C   UNL     1     -20.869 -66.912  58.626  1.00  0.00     0.047 A 
ATOM      5  C   UNL     1     -21.279 -69.125  59.513  1.00  0.00     0.047 A 
ATOM      6  C   UNL     1     -20.429 -68.025  59.347  1.00  0.00     0.115 A 
ENDROOT
BRANCH   1   7
ATOM      7  C   UNL     1     -24.363 -67.934  57.614  1.00  0.00     0.010 C 
ATOM      8  C   UNL     1     -24.878 -66.829  57.058  1.00  0.00     0.025 C 
BRANCH   8   9
ATOM      9  C   UNL     1     -26.232 -66.805  56.483  1.00  0.00     0.064 C 
ATOM     10  O   UNL     1     -27.100 -67.613  56.903  1.00  0.00    -0.545 OA
ATOM     11  O   UNL     1     -26.570 -65.902  55.481  1.00  0.00    -0.545 OA
ENDBRANCH   8   9
ENDBRANCH   1   7
BRANCH   6  12
ATOM     12  O   UNL     1     -19.148 -68.026  59.895  1.00  0.00    -0.508 OA
ATOM     13  H   UNL     1     -18.531 -68.824  59.795  1.00  0.00     0.293 HD
ENDBRANCH   6  12
TORSDOF 3
ENDMDL
MODEL 7
REMARK VINA RESULT:    -4.031     12.589     14.267
REMARK INTER + INTRA:          -4.764
REMARK INTER:                  -4.627
REMARK INTRA:                  -0.137
REMARK UNBOUND:                -0.144
REMARK SMILES O=C([O-])C=Cc1ccc(O)cc1
REMARK SMILES IDX 6 1 7 2 12 3 8 4 11 5 9 6 5 7 4 8 2 9 1 10 3 11 10 12
REMARK H PARENT 10 13
REMARK Flexibility Score: inf
ROOT
ATOM      1  C   UNL     1     -27.934 -54.209  55.624  1.00  0.00    -0.025 A 
ATOM      2  C   UNL     1     -27.889 -53.870  54.261  1.00  0.00     0.012 A 
ATOM      3  C   UNL     1     -27.122 -53.496  56.530  1.00  0.00     0.012 A 
ATOM      4  C   UNL     1     -27.036 -52.859  53.807  1.00  0.00     0.047 A 
ATOM      5  C   UNL     1     -26.271 -52.486  56.071  1.00  0.00     0.047 A 
ATOM      6  C   UNL     1     -26.224 -52.167  54.709  1.00  0.00     0.115 A 
ENDROOT
BRANCH   1   7
ATOM      7  C   UNL     1     -28.863 -55.282  56.058  1.00  0.00     0.010 C 
ATOM      8  C   UNL     1     -28.663 -56.584  55.816  1.00  0.00     0.025 C 
BRANCH   8   9
ATOM      9  C   UNL     1     -29.617 -57.614  56.257  1.00  0.00     0.064 C 
ATOM     10  O   UNL     1     -29.699 -58.698  55.623  1.00  0.00    -0.545 OA
ATOM     11  O   UNL     1     -30.432 -57.410  57.365  1.00  0.00    -0.545 OA
ENDBRANCH   8   9
ENDBRANCH   1   7
BRANCH   6  12
ATOM     12  O   UNL     1     -25.377 -51.163  54.242  1.00  0.00    -0.508 OA
ATOM     13  H   UNL     1     -25.279 -50.283  54.734  1.00  0.00     0.293 HD
ENDBRANCH   6  12
TORSDOF 3
ENDMDL
MODEL 8
REMARK VINA RESULT:    -4.007     17.237     18.449
REMARK INTER + INTRA:          -4.736
REMARK INTER:                  -4.599
REMARK INTRA:                  -0.137
REMARK UNBOUND:                -0.144
REMARK SMILES O=C([O-])C=Cc1ccc(O)cc1
REMARK SMILES IDX 6 1 7 2 12 3 8 4 11 5 9 6 5 7 4 8 2 9 1 10 3 11 10 12
REMARK H PARENT 10 13
REMARK Flexibility Score: inf
ROOT
ATOM      1  C   UNL     1     -21.530 -67.725  58.441  1.00  0.00    -0.025 A 
ATOM      2  C   UNL     1     -21.525 -68.919  59.181  1.00  0.00     0.012 A 
ATOM      3  C   UNL     1     -20.557 -66.744  58.725  1.00  0.00     0.012 A 
ATOM      4  C   UNL     1     -20.587 -69.122  60.199  1.00  0.00     0.047 A 
ATOM      5  C   UNL     1     -19.621 -66.952  59.743  1.00  0.00     0.047 A 
ATOM      6  C   UNL     1     -19.635 -68.140  60.483  1.00  0.00     0.115 A 
ENDROOT
BRANCH   1   7
ATOM      7  C   UNL     1     -22.539 -67.561  57.365  1.00  0.00     0.010 C 
ATOM      8  C   UNL     1     -23.789 -67.129  57.575  1.00  0.00     0.025 C 
BRANCH   8   9
ATOM      9  C   UNL     1     -24.760 -66.992  56.478  1.00  0.00     0.064 C 
ATOM     10  O   UNL     1     -24.348 -66.830  55.300  1.00  0.00    -0.545 OA
ATOM     11  O   UNL     1     -26.128 -67.039  56.720  1.00  0.00    -0.545 OA
ENDBRANCH   8   9
ENDBRANCH   1   7
BRANCH   6  12
ATOM     12  O   UNL     1     -18.708 -68.355  61.501  1.00  0.00    -0.508 OA
ATOM     13  H   UNL     1     -18.221 -67.585  61.944  1.00  0.00     0.293 HD
ENDBRANCH   6  12
TORSDOF 3
ENDMDL
MODEL 9
REMARK VINA RESULT:    -4.004     15.424     16.934
REMARK INTER + INTRA:          -4.733
REMARK INTER:                  -4.595
REMARK INTRA:                  -0.139
REMARK UNBOUND:                -0.144
REMARK SMILES O=C([O-])C=Cc1ccc(O)cc1
REMARK SMILES IDX 6 1 7 2 12 3 8 4 11 5 9 6 5 7 4 8 2 9 1 10 3 11 10 12
REMARK H PARENT 10 13
REMARK Flexibility Score: inf
ROOT
ATOM      1  C   UNL     1     -27.050 -53.507  52.406  1.00  0.00    -0.025 A 
ATOM      2  C   UNL     1     -26.647 -52.250  52.887  1.00  0.00     0.012 A 
ATOM      3  C   UNL     1     -28.018 -53.565  51.382  1.00  0.00     0.012 A 
ATOM      4  C   UNL     1     -27.213 -51.077  52.378  1.00  0.00     0.047 A 
ATOM      5  C   UNL     1     -28.581 -52.390  50.875  1.00  0.00     0.047 A 
ATOM      6  C   UNL     1     -28.182 -51.144  51.373  1.00  0.00     0.115 A 
ENDROOT
BRANCH   1   7
ATOM      7  C   UNL     1     -26.412 -54.722  52.972  1.00  0.00     0.010 C 
ATOM      8  C   UNL     1     -26.708 -55.226  54.178  1.00  0.00     0.025 C 
BRANCH   8   9
ATOM      9  C   UNL     1     -26.042 -56.428  54.703  1.00  0.00     0.064 C 
ATOM     10  O   UNL     1     -24.929 -56.779  54.232  1.00  0.00    -0.545 OA
ATOM     11  O   UNL     1     -26.622 -57.185  55.715  1.00  0.00    -0.545 OA
ENDBRANCH   8   9
ENDBRANCH   1   7
BRANCH   6  12
ATOM     12  O   UNL     1     -28.739 -49.967  50.876  1.00  0.00    -0.508 OA
ATOM     13  H   UNL     1     -28.968 -49.191  51.486  1.00  0.00     0.293 HD
ENDBRANCH   6  12
TORSDOF 3
ENDMDL
