MODEL 1
REMARK VINA RESULT:    -6.786      0.000      0.000
REMARK INTER + INTRA:          -8.261
REMARK INTER:                  -7.976
REMARK INTRA:                  -0.284
REMARK UNBOUND:                -0.284
REMARK SMILES O=c1cc(-c2ccc(O)c(O)c2)oc2cc(O)cc(O)c12
REMARK SMILES IDX 4 1 3 2 2 3 1 4 21 5 19 6 18 7 16 8 15 9 14 10 13 11 5 12
REMARK SMILES IDX 6 13 7 14 8 15 12 16 10 17 9 18 11 20 20 22 17 24
REMARK H PARENT 9 19 11 21 20 23 17 25
REMARK Flexibility Score: inf
ROOT
ATOM      1  C   UNL     1      -7.400 -39.175 -17.526  1.00  0.00     0.138 A 
ATOM      2  C   UNL     1      -7.503 -39.357 -16.138  1.00  0.00     0.100 A 
ATOM      3  C   UNL     1      -6.812 -40.405 -15.529  1.00  0.00     0.197 A 
ATOM      4  O   UNL     1      -6.913 -40.562 -14.282  1.00  0.00    -0.289 OA
ATOM      5  C   UNL     1      -6.023 -41.268 -16.315  1.00  0.00     0.107 A 
ATOM      6  C   UNL     1      -5.291 -42.352 -15.779  1.00  0.00     0.134 A 
ATOM      7  C   UNL     1      -4.532 -43.169 -16.633  1.00  0.00     0.093 A 
ATOM      8  C   UNL     1      -4.494 -42.922 -18.007  1.00  0.00     0.123 A 
ATOM      9  C   UNL     1      -5.218 -41.851 -18.543  1.00  0.00     0.094 A 
ATOM     10  C   UNL     1      -5.978 -41.026 -17.710  1.00  0.00     0.146 A 
ATOM     11  O   UNL     1      -6.655 -40.014 -18.243  1.00  0.00    -0.456 OA
ENDROOT
BRANCH   1  12
ATOM     12  C   UNL     1      -8.115 -38.079 -18.228  1.00  0.00     0.021 A 
ATOM     13  C   UNL     1      -8.633 -38.304 -19.515  1.00  0.00     0.016 A 
ATOM     14  C   UNL     1      -9.302 -37.286 -20.200  1.00  0.00     0.051 A 
ATOM     15  C   UNL     1      -9.456 -36.024 -19.614  1.00  0.00     0.157 A 
ATOM     16  C   UNL     1      -8.261 -36.802 -17.651  1.00  0.00     0.062 A 
ATOM     17  C   UNL     1      -8.932 -35.780 -18.339  1.00  0.00     0.158 A 
BRANCH  15  18
ATOM     18  O   UNL     1     -10.125 -35.007 -20.294  1.00  0.00    -0.504 OA
ATOM     19  H   UNL     1     -10.157 -34.978 -21.306  1.00  0.00     0.293 HD
ENDBRANCH  15  18
BRANCH  17  20
ATOM     20  O   UNL     1      -9.077 -34.519 -17.764  1.00  0.00    -0.504 OA
ATOM     21  H   UNL     1      -9.307 -34.406 -16.784  1.00  0.00     0.293 HD
ENDBRANCH  17  20
ENDBRANCH   1  12
BRANCH   6  22
ATOM     22  O   UNL     1      -5.309 -42.624 -14.411  1.00  0.00    -0.507 OA
ATOM     23  H   UNL     1      -4.468 -42.580 -13.847  1.00  0.00     0.293 HD
ENDBRANCH   6  22
BRANCH   8  24
ATOM     24  O   UNL     1      -3.734 -43.749 -18.831  1.00  0.00    -0.508 OA
ATOM     25  H   UNL     1      -4.169 -44.393 -19.482  1.00  0.00     0.293 HD
ENDBRANCH   8  24
TORSDOF 5
ENDMDL
MODEL 2
REMARK VINA RESULT:    -6.498      1.658      6.716
REMARK INTER + INTRA:          -7.922
REMARK INTER:                  -7.628
REMARK INTRA:                  -0.294
REMARK UNBOUND:                -0.284
REMARK SMILES O=c1cc(-c2ccc(O)c(O)c2)oc2cc(O)cc(O)c12
REMARK SMILES IDX 4 1 3 2 2 3 1 4 21 5 19 6 18 7 16 8 15 9 14 10 13 11 5 12
REMARK SMILES IDX 6 13 7 14 8 15 12 16 10 17 9 18 11 20 20 22 17 24
REMARK H PARENT 9 19 11 21 20 23 17 25
REMARK Flexibility Score: inf
ROOT
ATOM      1  C   UNL     1      -6.305 -40.074 -18.445  1.00  0.00     0.138 A 
ATOM      2  C   UNL     1      -6.728 -40.256 -17.118  1.00  0.00     0.100 A 
ATOM      3  C   UNL     1      -7.655 -39.371 -16.566  1.00  0.00     0.197 A 
ATOM      4  O   UNL     1      -8.028 -39.542 -15.373  1.00  0.00    -0.289 OA
ATOM      5  C   UNL     1      -8.151 -38.307 -17.344  1.00  0.00     0.107 A 
ATOM      6  C   UNL     1      -9.092 -37.367 -16.862  1.00  0.00     0.134 A 
ATOM      7  C   UNL     1      -9.532 -36.332 -17.701  1.00  0.00     0.093 A 
ATOM      8  C   UNL     1      -9.050 -36.218 -19.007  1.00  0.00     0.123 A 
ATOM      9  C   UNL     1      -8.118 -37.144 -19.488  1.00  0.00     0.094 A 
ATOM     10  C   UNL     1      -7.668 -38.183 -18.670  1.00  0.00     0.146 A 
ATOM     11  O   UNL     1      -6.784 -39.052 -19.151  1.00  0.00    -0.456 OA
ENDROOT
BRANCH   1  12
ATOM     12  C   UNL     1      -5.319 -40.982 -19.085  1.00  0.00     0.021 A 
ATOM     13  C   UNL     1      -4.655 -40.569 -20.252  1.00  0.00     0.016 A 
ATOM     14  C   UNL     1      -3.729 -41.408 -20.878  1.00  0.00     0.051 A 
ATOM     15  C   UNL     1      -3.459 -42.677 -20.352  1.00  0.00     0.157 A 
ATOM     16  C   UNL     1      -5.053 -42.266 -18.569  1.00  0.00     0.062 A 
ATOM     17  C   UNL     1      -4.124 -43.108 -19.198  1.00  0.00     0.158 A 
BRANCH  15  18
ATOM     18  O   UNL     1      -2.535 -43.516 -20.972  1.00  0.00    -0.504 OA
ATOM     19  H   UNL     1      -1.784 -43.147 -21.544  1.00  0.00     0.293 HD
ENDBRANCH  15  18
BRANCH  17  20
ATOM     20  O   UNL     1      -3.860 -44.376 -18.684  1.00  0.00    -0.504 OA
ATOM     21  H   UNL     1      -2.921 -44.755 -18.662  1.00  0.00     0.293 HD
ENDBRANCH  17  20
ENDBRANCH   1  12
BRANCH   6  22
ATOM     22  O   UNL     1      -9.593 -37.454 -15.563  1.00  0.00    -0.507 OA
ATOM     23  H   UNL     1     -10.571 -37.647 -15.380  1.00  0.00     0.293 HD
ENDBRANCH   6  22
BRANCH   8  24
ATOM     24  O   UNL     1      -9.503 -35.180 -19.818  1.00  0.00    -0.508 OA
ATOM     25  H   UNL     1      -9.163 -34.231 -19.703  1.00  0.00     0.293 HD
ENDBRANCH   8  24
TORSDOF 5
ENDMDL
MODEL 3
REMARK VINA RESULT:    -6.329      2.512      4.307
REMARK INTER + INTRA:          -7.723
REMARK INTER:                  -7.405
REMARK INTRA:                  -0.318
REMARK UNBOUND:                -0.284
REMARK SMILES O=c1cc(-c2ccc(O)c(O)c2)oc2cc(O)cc(O)c12
REMARK SMILES IDX 4 1 3 2 2 3 1 4 21 5 19 6 18 7 16 8 15 9 14 10 13 11 5 12
REMARK SMILES IDX 6 13 7 14 8 15 12 16 10 17 9 18 11 20 20 22 17 24
REMARK H PARENT 9 19 11 21 20 23 17 25
REMARK Flexibility Score: inf
ROOT
ATOM      1  C   UNL     1      -6.189 -40.498 -18.130  1.00  0.00     0.138 A 
ATOM      2  C   UNL     1      -5.596 -41.697 -17.705  1.00  0.00     0.100 A 
ATOM      3  C   UNL     1      -4.733 -42.379 -18.565  1.00  0.00     0.197 A 
ATOM      4  O   UNL     1      -4.206 -43.457 -18.175  1.00  0.00    -0.289 OA
ATOM      5  C   UNL     1      -4.472 -41.856 -19.847  1.00  0.00     0.107 A 
ATOM      6  C   UNL     1      -3.611 -42.482 -20.778  1.00  0.00     0.134 A 
ATOM      7  C   UNL     1      -3.408 -41.898 -22.038  1.00  0.00     0.093 A 
ATOM      8  C   UNL     1      -4.048 -40.706 -22.383  1.00  0.00     0.123 A 
ATOM      9  C   UNL     1      -4.901 -40.083 -21.466  1.00  0.00     0.094 A 
ATOM     10  C   UNL     1      -5.116 -40.647 -20.206  1.00  0.00     0.146 A 
ATOM     11  O   UNL     1      -5.930 -40.035 -19.351  1.00  0.00    -0.456 OA
ENDROOT
BRANCH   1  12
ATOM     12  C   UNL     1      -7.116 -39.730 -17.259  1.00  0.00     0.021 A 
ATOM     13  C   UNL     1      -7.527 -40.281 -16.033  1.00  0.00     0.016 A 
ATOM     14  C   UNL     1      -8.405 -39.583 -15.199  1.00  0.00     0.051 A 
ATOM     15  C   UNL     1      -8.893 -38.328 -15.582  1.00  0.00     0.157 A 
ATOM     16  C   UNL     1      -7.623 -38.473 -17.644  1.00  0.00     0.062 A 
ATOM     17  C   UNL     1      -8.504 -37.774 -16.807  1.00  0.00     0.158 A 
BRANCH  15  18
ATOM     18  O   UNL     1      -9.768 -37.627 -14.752  1.00  0.00    -0.504 OA
ATOM     19  H   UNL     1     -10.721 -37.937 -14.605  1.00  0.00     0.293 HD
ENDBRANCH  15  18
BRANCH  17  20
ATOM     20  O   UNL     1      -9.001 -36.529 -17.189  1.00  0.00    -0.504 OA
ATOM     21  H   UNL     1      -9.719 -36.057 -16.652  1.00  0.00     0.293 HD
ENDBRANCH  17  20
ENDBRANCH   1  12
BRANCH   6  22
ATOM     22  O   UNL     1      -2.957 -43.674 -20.463  1.00  0.00    -0.507 OA
ATOM     23  H   UNL     1      -3.307 -44.301 -19.747  1.00  0.00     0.293 HD
ENDBRANCH   6  22
BRANCH   8  24
ATOM     24  O   UNL     1      -3.829 -40.148 -23.641  1.00  0.00    -0.508 OA
ATOM     25  H   UNL     1      -3.598 -39.168 -23.753  1.00  0.00     0.293 HD
ENDBRANCH   8  24
TORSDOF 5
ENDMDL
MODEL 4
REMARK VINA RESULT:    -6.240      6.989     10.078
REMARK INTER + INTRA:          -7.619
REMARK INTER:                  -7.342
REMARK INTRA:                  -0.277
REMARK UNBOUND:                -0.284
REMARK SMILES O=c1cc(-c2ccc(O)c(O)c2)oc2cc(O)cc(O)c12
REMARK SMILES IDX 4 1 3 2 2 3 1 4 21 5 19 6 18 7 16 8 15 9 14 10 13 11 5 12
REMARK SMILES IDX 6 13 7 14 8 15 12 16 10 17 9 18 11 20 20 22 17 24
REMARK H PARENT 9 19 11 21 20 23 17 25
REMARK Flexibility Score: inf
ROOT
ATOM      1  C   UNL     1      -7.056 -39.847 -10.222  1.00  0.00     0.138 A 
ATOM      2  C   UNL     1      -8.186 -39.230 -10.782  1.00  0.00     0.100 A 
ATOM      3  C   UNL     1      -8.256 -37.837 -10.828  1.00  0.00     0.197 A 
ATOM      4  O   UNL     1      -9.277 -37.293 -11.331  1.00  0.00    -0.289 OA
ATOM      5  C   UNL     1      -7.194 -37.070 -10.310  1.00  0.00     0.107 A 
ATOM      6  C   UNL     1      -7.185 -35.655 -10.319  1.00  0.00     0.134 A 
ATOM      7  C   UNL     1      -6.089 -34.965  -9.778  1.00  0.00     0.093 A 
ATOM      8  C   UNL     1      -5.008 -35.659  -9.230  1.00  0.00     0.123 A 
ATOM      9  C   UNL     1      -5.013 -37.058  -9.219  1.00  0.00     0.094 A 
ATOM     10  C   UNL     1      -6.093 -37.765  -9.753  1.00  0.00     0.146 A 
ATOM     11  O   UNL     1      -6.073 -39.094  -9.732  1.00  0.00    -0.456 OA
ENDROOT
BRANCH   1  12
ATOM     12  C   UNL     1      -6.927 -41.325 -10.145  1.00  0.00     0.021 A 
ATOM     13  C   UNL     1      -6.517 -41.920  -8.939  1.00  0.00     0.016 A 
ATOM     14  C   UNL     1      -6.381 -43.308  -8.842  1.00  0.00     0.051 A 
ATOM     15  C   UNL     1      -6.642 -44.122  -9.952  1.00  0.00     0.157 A 
ATOM     16  C   UNL     1      -7.175 -42.149 -11.260  1.00  0.00     0.062 A 
ATOM     17  C   UNL     1      -7.036 -43.541 -11.163  1.00  0.00     0.158 A 
BRANCH  15  18
ATOM     18  O   UNL     1      -6.509 -45.506  -9.858  1.00  0.00    -0.504 OA
ATOM     19  H   UNL     1      -6.202 -46.064 -10.647  1.00  0.00     0.293 HD
ENDBRANCH  15  18
BRANCH  17  20
ATOM     20  O   UNL     1      -7.285 -44.354 -12.267  1.00  0.00    -0.504 OA
ATOM     21  H   UNL     1      -8.199 -44.758 -12.434  1.00  0.00     0.293 HD
ENDBRANCH  17  20
ENDBRANCH   1  12
BRANCH   6  22
ATOM     22  O   UNL     1      -8.250 -34.934 -10.858  1.00  0.00    -0.507 OA
ATOM     23  H   UNL     1      -8.827 -35.310 -11.602  1.00  0.00     0.293 HD
ENDBRANCH   6  22
BRANCH   8  24
ATOM     24  O   UNL     1      -3.934 -34.948  -8.700  1.00  0.00    -0.508 OA
ATOM     25  H   UNL     1      -3.021 -34.961  -9.140  1.00  0.00     0.293 HD
ENDBRANCH   8  24
TORSDOF 5
ENDMDL
MODEL 5
REMARK VINA RESULT:    -6.239      2.472      6.124
REMARK INTER + INTRA:          -7.618
REMARK INTER:                  -7.301
REMARK INTRA:                  -0.317
REMARK UNBOUND:                -0.284
REMARK SMILES O=c1cc(-c2ccc(O)c(O)c2)oc2cc(O)cc(O)c12
REMARK SMILES IDX 4 1 3 2 2 3 1 4 21 5 19 6 18 7 16 8 15 9 14 10 13 11 5 12
REMARK SMILES IDX 6 13 7 14 8 15 12 16 10 17 9 18 11 20 20 22 17 24
REMARK H PARENT 9 19 11 21 20 23 17 25
REMARK Flexibility Score: inf
ROOT
ATOM      1  C   UNL     1      -5.955 -39.960 -19.211  1.00  0.00     0.138 A 
ATOM      2  C   UNL     1      -6.715 -38.803 -19.451  1.00  0.00     0.100 A 
ATOM      3  C   UNL     1      -7.488 -38.264 -18.422  1.00  0.00     0.197 A 
ATOM      4  O   UNL     1      -8.168 -37.226 -18.647  1.00  0.00    -0.289 OA
ATOM      5  C   UNL     1      -7.498 -38.888 -17.159  1.00  0.00     0.107 A 
ATOM      6  C   UNL     1      -8.252 -38.407 -16.063  1.00  0.00     0.134 A 
ATOM      7  C   UNL     1      -8.211 -39.091 -14.838  1.00  0.00     0.093 A 
ATOM      8  C   UNL     1      -7.435 -40.243 -14.689  1.00  0.00     0.123 A 
ATOM      9  C   UNL     1      -6.688 -40.723 -15.771  1.00  0.00     0.094 A 
ATOM     10  C   UNL     1      -6.714 -40.056 -16.998  1.00  0.00     0.146 A 
ATOM     11  O   UNL     1      -5.994 -40.532 -18.010  1.00  0.00    -0.456 OA
ENDROOT
BRANCH   1  12
ATOM     12  C   UNL     1      -5.115 -40.579 -20.268  1.00  0.00     0.021 A 
ATOM     13  C   UNL     1      -5.217 -40.116 -21.591  1.00  0.00     0.016 A 
ATOM     14  C   UNL     1      -4.444 -40.687 -22.606  1.00  0.00     0.051 A 
ATOM     15  C   UNL     1      -3.563 -41.736 -22.316  1.00  0.00     0.157 A 
ATOM     16  C   UNL     1      -4.237 -41.644 -19.987  1.00  0.00     0.062 A 
ATOM     17  C   UNL     1      -3.462 -42.217 -21.005  1.00  0.00     0.158 A 
BRANCH  15  18
ATOM     18  O   UNL     1      -2.788 -42.307 -23.324  1.00  0.00    -0.504 OA
ATOM     19  H   UNL     1      -2.469 -43.267 -23.268  1.00  0.00     0.293 HD
ENDBRANCH  15  18
BRANCH  17  20
ATOM     20  O   UNL     1      -2.592 -43.269 -20.723  1.00  0.00    -0.504 OA
ATOM     21  H   UNL     1      -1.622 -43.105 -20.480  1.00  0.00     0.293 HD
ENDBRANCH  17  20
ENDBRANCH   1  12
BRANCH   6  22
ATOM     22  O   UNL     1      -9.037 -37.259 -16.180  1.00  0.00    -0.507 OA
ATOM     23  H   UNL     1      -9.850 -37.229 -16.785  1.00  0.00     0.293 HD
ENDBRANCH   6  22
BRANCH   8  24
ATOM     24  O   UNL     1      -7.414 -40.902 -13.462  1.00  0.00    -0.508 OA
ATOM     25  H   UNL     1      -7.607 -41.895 -13.392  1.00  0.00     0.293 HD
ENDBRANCH   8  24
TORSDOF 5
ENDMDL
MODEL 6
REMARK VINA RESULT:    -6.205      2.933      4.847
REMARK INTER + INTRA:          -7.577
REMARK INTER:                  -7.280
REMARK INTRA:                  -0.297
REMARK UNBOUND:                -0.284
REMARK SMILES O=c1cc(-c2ccc(O)c(O)c2)oc2cc(O)cc(O)c12
REMARK SMILES IDX 4 1 3 2 2 3 1 4 21 5 19 6 18 7 16 8 15 9 14 10 13 11 5 12
REMARK SMILES IDX 6 13 7 14 8 15 12 16 10 17 9 18 11 20 20 22 17 24
REMARK H PARENT 9 19 11 21 20 23 17 25
REMARK Flexibility Score: inf
ROOT
ATOM      1  C   UNL     1      -5.631 -40.313 -19.659  1.00  0.00     0.138 A 
ATOM      2  C   UNL     1      -5.263 -39.749 -20.892  1.00  0.00     0.100 A 
ATOM      3  C   UNL     1      -4.500 -40.498 -21.789  1.00  0.00     0.197 A 
ATOM      4  O   UNL     1      -4.173 -39.982 -22.893  1.00  0.00    -0.289 OA
ATOM      5  C   UNL     1      -4.106 -41.806 -21.445  1.00  0.00     0.107 A 
ATOM      6  C   UNL     1      -3.334 -42.632 -22.295  1.00  0.00     0.134 A 
ATOM      7  C   UNL     1      -2.979 -43.923 -21.875  1.00  0.00     0.093 A 
ATOM      8  C   UNL     1      -3.379 -44.401 -20.625  1.00  0.00     0.123 A 
ATOM      9  C   UNL     1      -4.142 -43.588 -19.780  1.00  0.00     0.094 A 
ATOM     10  C   UNL     1      -4.507 -42.300 -20.180  1.00  0.00     0.146 A 
ATOM     11  O   UNL     1      -5.234 -41.548 -19.360  1.00  0.00    -0.456 OA
ENDROOT
BRANCH   1  12
ATOM     12  C   UNL     1      -6.440 -39.563 -18.665  1.00  0.00     0.021 A 
ATOM     13  C   UNL     1      -6.809 -40.189 -17.462  1.00  0.00     0.016 A 
ATOM     14  C   UNL     1      -7.578 -39.508 -16.513  1.00  0.00     0.051 A 
ATOM     15  C   UNL     1      -7.997 -38.194 -16.757  1.00  0.00     0.157 A 
ATOM     16  C   UNL     1      -6.877 -38.246 -18.908  1.00  0.00     0.062 A 
ATOM     17  C   UNL     1      -7.649 -37.564 -17.957  1.00  0.00     0.158 A 
BRANCH  15  18
ATOM     18  O   UNL     1      -8.761 -37.511 -15.812  1.00  0.00    -0.504 OA
ATOM     19  H   UNL     1      -9.643 -37.077 -16.057  1.00  0.00     0.293 HD
ENDBRANCH  15  18
BRANCH  17  20
ATOM     20  O   UNL     1      -8.077 -36.260 -18.199  1.00  0.00    -0.504 OA
ATOM     21  H   UNL     1      -9.049 -35.993 -18.094  1.00  0.00     0.293 HD
ENDBRANCH  17  20
ENDBRANCH   1  12
BRANCH   6  22
ATOM     22  O   UNL     1      -2.919 -42.182 -23.549  1.00  0.00    -0.507 OA
ATOM     23  H   UNL     1      -2.487 -42.804 -24.223  1.00  0.00     0.293 HD
ENDBRANCH   6  22
BRANCH   8  24
ATOM     24  O   UNL     1      -3.012 -45.687 -20.233  1.00  0.00    -0.508 OA
ATOM     25  H   UNL     1      -3.693 -46.434 -20.164  1.00  0.00     0.293 HD
ENDBRANCH   8  24
TORSDOF 5
ENDMDL
MODEL 7
REMARK VINA RESULT:    -6.032      1.685      3.480
REMARK INTER + INTRA:          -7.374
REMARK INTER:                  -7.059
REMARK INTRA:                  -0.316
REMARK UNBOUND:                -0.284
REMARK SMILES O=c1cc(-c2ccc(O)c(O)c2)oc2cc(O)cc(O)c12
REMARK SMILES IDX 4 1 3 2 2 3 1 4 21 5 19 6 18 7 16 8 15 9 14 10 13 11 5 12
REMARK SMILES IDX 6 13 7 14 8 15 12 16 10 17 9 18 11 20 20 22 17 24
REMARK H PARENT 9 19 11 21 20 23 17 25
REMARK Flexibility Score: inf
ROOT
ATOM      1  C   UNL     1      -6.390 -40.861 -17.028  1.00  0.00     0.138 A 
ATOM      2  C   UNL     1      -5.670 -41.394 -18.110  1.00  0.00     0.100 A 
ATOM      3  C   UNL     1      -4.971 -42.591 -17.947  1.00  0.00     0.197 A 
ATOM      4  O   UNL     1      -4.325 -43.060 -18.924  1.00  0.00    -0.289 OA
ATOM      5  C   UNL     1      -4.994 -43.246 -16.700  1.00  0.00     0.107 A 
ATOM      6  C   UNL     1      -4.315 -44.462 -16.451  1.00  0.00     0.134 A 
ATOM      7  C   UNL     1      -4.384 -45.048 -15.178  1.00  0.00     0.093 A 
ATOM      8  C   UNL     1      -5.116 -44.444 -14.153  1.00  0.00     0.123 A 
ATOM      9  C   UNL     1      -5.789 -43.241 -14.394  1.00  0.00     0.094 A 
ATOM     10  C   UNL     1      -5.734 -42.641 -15.655  1.00  0.00     0.146 A 
ATOM     11  O   UNL     1      -6.383 -41.500 -15.860  1.00  0.00    -0.456 OA
ENDROOT
BRANCH   1  12
ATOM     12  C   UNL     1      -7.150 -39.591 -17.142  1.00  0.00     0.021 A 
ATOM     13  C   UNL     1      -6.941 -38.758 -18.254  1.00  0.00     0.016 A 
ATOM     14  C   UNL     1      -7.639 -37.553 -18.381  1.00  0.00     0.051 A 
ATOM     15  C   UNL     1      -8.549 -37.158 -17.394  1.00  0.00     0.157 A 
ATOM     16  C   UNL     1      -8.058 -39.180 -16.146  1.00  0.00     0.062 A 
ATOM     17  C   UNL     1      -8.756 -37.971 -16.273  1.00  0.00     0.158 A 
BRANCH  15  18
ATOM     18  O   UNL     1      -9.249 -35.958 -17.518  1.00  0.00    -0.504 OA
ATOM     19  H   UNL     1      -9.046 -35.163 -16.924  1.00  0.00     0.293 HD
ENDBRANCH  15  18
BRANCH  17  20
ATOM     20  O   UNL     1      -9.655 -37.568 -15.287  1.00  0.00    -0.504 OA
ATOM     21  H   UNL     1      -9.675 -38.008 -14.375  1.00  0.00     0.293 HD
ENDBRANCH  17  20
ENDBRANCH   1  12
BRANCH   6  22
ATOM     22  O   UNL     1      -3.575 -45.089 -17.454  1.00  0.00    -0.507 OA
ATOM     23  H   UNL     1      -2.869 -45.784 -17.240  1.00  0.00     0.293 HD
ENDBRANCH   6  22
BRANCH   8  24
ATOM     24  O   UNL     1      -5.168 -45.047 -12.899  1.00  0.00    -0.508 OA
ATOM     25  H   UNL     1      -4.725 -44.626 -12.090  1.00  0.00     0.293 HD
ENDBRANCH   8  24
TORSDOF 5
ENDMDL
MODEL 8
REMARK VINA RESULT:    -5.894      2.285      6.302
REMARK INTER + INTRA:          -7.212
REMARK INTER:                  -6.917
REMARK INTRA:                  -0.296
REMARK UNBOUND:                -0.284
REMARK SMILES O=c1cc(-c2ccc(O)c(O)c2)oc2cc(O)cc(O)c12
REMARK SMILES IDX 4 1 3 2 2 3 1 4 21 5 19 6 18 7 16 8 15 9 14 10 13 11 5 12
REMARK SMILES IDX 6 13 7 14 8 15 12 16 10 17 9 18 11 20 20 22 17 24
REMARK H PARENT 9 19 11 21 20 23 17 25
REMARK Flexibility Score: inf
ROOT
ATOM      1  C   UNL     1      -5.614 -40.825 -18.875  1.00  0.00     0.138 A 
ATOM      2  C   UNL     1      -5.605 -41.562 -17.679  1.00  0.00     0.100 A 
ATOM      3  C   UNL     1      -6.349 -41.111 -16.589  1.00  0.00     0.197 A 
ATOM      4  O   UNL     1      -6.333 -41.778 -15.519  1.00  0.00    -0.289 OA
ATOM      5  C   UNL     1      -7.096 -39.921 -16.700  1.00  0.00     0.107 A 
ATOM      6  C   UNL     1      -7.877 -39.395 -15.645  1.00  0.00     0.134 A 
ATOM      7  C   UNL     1      -8.589 -38.200 -15.836  1.00  0.00     0.093 A 
ATOM      8  C   UNL     1      -8.533 -37.524 -17.057  1.00  0.00     0.123 A 
ATOM      9  C   UNL     1      -7.761 -38.040 -18.104  1.00  0.00     0.094 A 
ATOM     10  C   UNL     1      -7.046 -39.229 -17.935  1.00  0.00     0.146 A 
ATOM     11  O   UNL     1      -6.322 -39.700 -18.945  1.00  0.00    -0.456 OA
ENDROOT
BRANCH   1  12
ATOM     12  C   UNL     1      -4.840 -41.256 -20.067  1.00  0.00     0.021 A 
ATOM     13  C   UNL     1      -5.066 -40.626 -21.302  1.00  0.00     0.016 A 
ATOM     14  C   UNL     1      -4.357 -41.018 -22.441  1.00  0.00     0.051 A 
ATOM     15  C   UNL     1      -3.417 -42.053 -22.365  1.00  0.00     0.157 A 
ATOM     16  C   UNL     1      -3.903 -42.307 -20.001  1.00  0.00     0.062 A 
ATOM     17  C   UNL     1      -3.193 -42.701 -21.144  1.00  0.00     0.158 A 
BRANCH  15  18
ATOM     18  O   UNL     1      -2.706 -42.446 -23.498  1.00  0.00    -0.504 OA
ATOM     19  H   UNL     1      -2.844 -43.356 -23.921  1.00  0.00     0.293 HD
ENDBRANCH  15  18
BRANCH  17  20
ATOM     20  O   UNL     1      -2.264 -43.738 -21.075  1.00  0.00    -0.504 OA
ATOM     21  H   UNL     1      -1.323 -43.586 -20.734  1.00  0.00     0.293 HD
ENDBRANCH  17  20
ENDBRANCH   1  12
BRANCH   6  22
ATOM     22  O   UNL     1      -7.953 -40.047 -14.414  1.00  0.00    -0.507 OA
ATOM     23  H   UNL     1      -7.798 -41.045 -14.328  1.00  0.00     0.293 HD
ENDBRANCH   6  22
BRANCH   8  24
ATOM     24  O   UNL     1      -9.248 -36.340 -17.219  1.00  0.00    -0.508 OA
ATOM     25  H   UNL     1      -9.141 -35.565 -16.575  1.00  0.00     0.293 HD
ENDBRANCH   8  24
TORSDOF 5
ENDMDL
