MODEL 1
REMARK VINA RESULT:    -3.985      0.000      0.000
REMARK INTER + INTRA:         -11.720
REMARK INTER:                  -9.109
REMARK INTRA:                  -2.611
REMARK UNBOUND:                -2.611
REMARK SMILES CCCCCCCCCCCCCCCCCCCCCCCC(=O)[O-]
REMARK SMILES IDX 13 1 14 2 15 3 16 4 17 5 18 6 19 7 20 8 21 9 22 10 23 11
REMARK SMILES IDX 24 12 25 13 26 14 12 15 11 16 10 17 9 18 8 19 7 20 6 21 5 22
REMARK SMILES IDX 4 23 3 24 2 25 1 26
REMARK H PARENT
REMARK Flexibility Score: inf
ROOT
ATOM      1  C   UNL     1     -43.458  27.301   2.138  1.00  0.00     0.000 C 
ENDROOT
BRANCH   1   2
ATOM      2  C   UNL     1     -43.600  28.214   3.367  1.00  0.00     0.000 C 
BRANCH   2   3
ATOM      3  C   UNL     1     -43.870  29.678   2.990  1.00  0.00     0.000 C 
BRANCH   3   4
ATOM      4  C   UNL     1     -45.288  29.843   2.423  1.00  0.00     0.000 C 
BRANCH   4   5
ATOM      5  C   UNL     1     -46.361  29.146   3.279  1.00  0.00     0.000 C 
BRANCH   5   6
ATOM      6  C   UNL     1     -46.667  29.833   4.623  1.00  0.00     0.000 C 
BRANCH   6   7
ATOM      7  C   UNL     1     -47.031  28.878   5.777  1.00  0.00     0.000 C 
BRANCH   7   8
ATOM      8  C   UNL     1     -46.608  27.414   5.533  1.00  0.00     0.000 C 
BRANCH   8   9
ATOM      9  C   UNL     1     -45.458  26.972   6.455  1.00  0.00     0.000 C 
BRANCH   9  10
ATOM     10  C   UNL     1     -45.394  27.795   7.759  1.00  0.00     0.006 C 
BRANCH  10  11
ATOM     11  C   UNL     1     -43.963  28.072   8.243  1.00  0.00     0.053 C 
BRANCH  11  12
ATOM     12  C   UNL     1     -43.107  28.679   7.175  1.00  0.00     0.041 C 
ATOM     13  O   UNL     1     -42.022  28.131   6.845  1.00  0.00    -0.550 OA
ATOM     14  O   UNL     1     -43.496  29.862   6.559  1.00  0.00    -0.550 OA
ENDBRANCH  11  12
ENDBRANCH  10  11
ENDBRANCH   9  10
ENDBRANCH   8   9
ENDBRANCH   7   8
ENDBRANCH   6   7
ENDBRANCH   5   6
ENDBRANCH   4   5
ENDBRANCH   3   4
ENDBRANCH   2   3
ENDBRANCH   1   2
BRANCH   1  15
ATOM     15  C   UNL     1     -42.565  27.911   1.047  1.00  0.00     0.000 C 
BRANCH  15  16
ATOM     16  C   UNL     1     -43.336  28.058  -0.273  1.00  0.00     0.000 C 
BRANCH  16  17
ATOM     17  C   UNL     1     -44.241  26.852  -0.573  1.00  0.00     0.000 C 
BRANCH  17  18
ATOM     18  C   UNL     1     -45.737  27.196  -0.470  1.00  0.00    -0.000 C 
BRANCH  18  19
ATOM     19  C   UNL     1     -46.622  26.270  -1.322  1.00  0.00    -0.000 C 
BRANCH  19  20
ATOM     20  C   UNL     1     -46.086  25.968  -2.737  1.00  0.00    -0.000 C 
BRANCH  20  21
ATOM     21  C   UNL     1     -46.762  26.760  -3.875  1.00  0.00    -0.000 C 
BRANCH  21  22
ATOM     22  C   UNL     1     -46.464  28.273  -3.878  1.00  0.00    -0.000 C 
BRANCH  22  23
ATOM     23  C   UNL     1     -46.667  28.976  -5.235  1.00  0.00    -0.000 C 
BRANCH  23  24
ATOM     24  C   UNL     1     -45.453  28.931  -6.180  1.00  0.00    -0.000 C 
BRANCH  24  25
ATOM     25  C   UNL     1     -45.738  28.166  -7.481  1.00  0.00    -0.003 C 
ATOM     26  C   UNL     1     -45.523  26.666  -7.295  1.00  0.00     0.004 C 
ENDBRANCH  24  25
ENDBRANCH  23  24
ENDBRANCH  22  23
ENDBRANCH  21  22
ENDBRANCH  20  21
ENDBRANCH  19  20
ENDBRANCH  18  19
ENDBRANCH  17  18
ENDBRANCH  16  17
ENDBRANCH  15  16
ENDBRANCH   1  15
TORSDOF 22
ENDMDL
MODEL 2
REMARK VINA RESULT:    -3.860      1.198      1.744
REMARK INTER + INTRA:         -11.436
REMARK INTER:                  -9.059
REMARK INTRA:                  -2.377
REMARK UNBOUND:                -2.611
REMARK SMILES CCCCCCCCCCCCCCCCCCCCCCCC(=O)[O-]
REMARK SMILES IDX 13 1 14 2 15 3 16 4 17 5 18 6 19 7 20 8 21 9 22 10 23 11
REMARK SMILES IDX 24 12 25 13 26 14 12 15 11 16 10 17 9 18 8 19 7 20 6 21 5 22
REMARK SMILES IDX 4 23 3 24 2 25 1 26
REMARK H PARENT
REMARK Flexibility Score: inf
ROOT
ATOM      1  C   UNL     1     -42.554  27.482   1.225  1.00  0.00     0.000 C 
ENDROOT
BRANCH   1   2
ATOM      2  C   UNL     1     -43.757  27.607   2.173  1.00  0.00     0.000 C 
BRANCH   2   3
ATOM      3  C   UNL     1     -43.507  28.595   3.322  1.00  0.00     0.000 C 
BRANCH   3   4
ATOM      4  C   UNL     1     -44.763  28.747   4.194  1.00  0.00     0.000 C 
BRANCH   4   5
ATOM      5  C   UNL     1     -45.410  27.398   4.555  1.00  0.00     0.000 C 
BRANCH   5   6
ATOM      6  C   UNL     1     -46.855  27.490   5.080  1.00  0.00     0.000 C 
BRANCH   6   7
ATOM      7  C   UNL     1     -46.989  27.933   6.550  1.00  0.00     0.000 C 
BRANCH   7   8
ATOM      8  C   UNL     1     -46.081  27.150   7.523  1.00  0.00     0.000 C 
BRANCH   8   9
ATOM      9  C   UNL     1     -45.508  28.041   8.639  1.00  0.00     0.000 C 
BRANCH   9  10
ATOM     10  C   UNL     1     -44.846  29.323   8.092  1.00  0.00     0.006 C 
BRANCH  10  11
ATOM     11  C   UNL     1     -43.593  29.750   8.872  1.00  0.00     0.053 C 
BRANCH  11  12
ATOM     12  C   UNL     1     -42.327  29.322   8.197  1.00  0.00     0.041 C 
ATOM     13  O   UNL     1     -42.372  28.610   7.159  1.00  0.00    -0.550 OA
ATOM     14  O   UNL     1     -41.097  29.691   8.727  1.00  0.00    -0.550 OA
ENDBRANCH  11  12
ENDBRANCH  10  11
ENDBRANCH   9  10
ENDBRANCH   8   9
ENDBRANCH   7   8
ENDBRANCH   6   7
ENDBRANCH   5   6
ENDBRANCH   4   5
ENDBRANCH   3   4
ENDBRANCH   2   3
ENDBRANCH   1   2
BRANCH   1  15
ATOM     15  C   UNL     1     -42.875  27.944  -0.204  1.00  0.00     0.000 C 
BRANCH  15  16
ATOM     16  C   UNL     1     -43.804  29.167  -0.190  1.00  0.00     0.000 C 
BRANCH  16  17
ATOM     17  C   UNL     1     -45.059  28.973  -1.055  1.00  0.00     0.000 C 
BRANCH  17  18
ATOM     18  C   UNL     1     -46.322  28.711  -0.216  1.00  0.00    -0.000 C 
BRANCH  18  19
ATOM     19  C   UNL     1     -46.736  27.229  -0.206  1.00  0.00    -0.000 C 
BRANCH  19  20
ATOM     20  C   UNL     1     -45.942  26.319  -1.165  1.00  0.00    -0.000 C 
BRANCH  20  21
ATOM     21  C   UNL     1     -46.709  25.868  -2.425  1.00  0.00    -0.000 C 
BRANCH  21  22
ATOM     22  C   UNL     1     -46.130  26.385  -3.756  1.00  0.00    -0.000 C 
BRANCH  22  23
ATOM     23  C   UNL     1     -46.646  27.769  -4.200  1.00  0.00    -0.000 C 
BRANCH  23  24
ATOM     24  C   UNL     1     -45.930  28.370  -5.422  1.00  0.00    -0.000 C 
BRANCH  24  25
ATOM     25  C   UNL     1     -46.447  27.806  -6.753  1.00  0.00    -0.003 C 
ATOM     26  C   UNL     1     -45.444  26.831  -7.364  1.00  0.00     0.004 C 
ENDBRANCH  24  25
ENDBRANCH  23  24
ENDBRANCH  22  23
ENDBRANCH  21  22
ENDBRANCH  20  21
ENDBRANCH  19  20
ENDBRANCH  18  19
ENDBRANCH  17  18
ENDBRANCH  16  17
ENDBRANCH  15  16
ENDBRANCH   1  15
TORSDOF 22
ENDMDL
MODEL 3
REMARK VINA RESULT:    -3.860      4.235     10.075
REMARK INTER + INTRA:         -11.435
REMARK INTER:                  -9.133
REMARK INTRA:                  -2.301
REMARK UNBOUND:                -2.611
REMARK SMILES CCCCCCCCCCCCCCCCCCCCCCCC(=O)[O-]
REMARK SMILES IDX 13 1 14 2 15 3 16 4 17 5 18 6 19 7 20 8 21 9 22 10 23 11
REMARK SMILES IDX 24 12 25 13 26 14 12 15 11 16 10 17 9 18 8 19 7 20 6 21 5 22
REMARK SMILES IDX 4 23 3 24 2 25 1 26
REMARK H PARENT
REMARK Flexibility Score: inf
ROOT
ATOM      1  C   UNL     1     -42.577  27.892   0.441  1.00  0.00     0.000 C 
ENDROOT
BRANCH   1   2
ATOM      2  C   UNL     1     -42.770  29.276  -0.199  1.00  0.00     0.000 C 
BRANCH   2   3
ATOM      3  C   UNL     1     -44.208  29.798  -0.060  1.00  0.00     0.000 C 
BRANCH   3   4
ATOM      4  C   UNL     1     -45.121  29.173  -1.125  1.00  0.00     0.000 C 
BRANCH   4   5
ATOM      5  C   UNL     1     -46.391  28.539  -0.530  1.00  0.00     0.000 C 
BRANCH   5   6
ATOM      6  C   UNL     1     -46.451  27.002  -0.615  1.00  0.00     0.000 C 
BRANCH   6   7
ATOM      7  C   UNL     1     -45.237  26.337  -1.292  1.00  0.00     0.000 C 
BRANCH   7   8
ATOM      8  C   UNL     1     -45.538  25.765  -2.693  1.00  0.00     0.000 C 
BRANCH   8   9
ATOM      9  C   UNL     1     -46.816  26.360  -3.310  1.00  0.00     0.000 C 
BRANCH   9  10
ATOM     10  C   UNL     1     -46.825  26.274  -4.851  1.00  0.00     0.006 C 
BRANCH  10  11
ATOM     11  C   UNL     1     -46.125  27.457  -5.537  1.00  0.00     0.053 C 
BRANCH  11  12
ATOM     12  C   UNL     1     -45.874  27.206  -6.992  1.00  0.00     0.041 C 
ATOM     13  O   UNL     1     -45.138  26.249  -7.351  1.00  0.00    -0.550 OA
ATOM     14  O   UNL     1     -46.434  28.042  -7.949  1.00  0.00    -0.550 OA
ENDBRANCH  11  12
ENDBRANCH  10  11
ENDBRANCH   9  10
ENDBRANCH   8   9
ENDBRANCH   7   8
ENDBRANCH   6   7
ENDBRANCH   5   6
ENDBRANCH   4   5
ENDBRANCH   3   4
ENDBRANCH   2   3
ENDBRANCH   1   2
BRANCH   1  15
ATOM     15  C   UNL     1     -43.349  27.736   1.761  1.00  0.00     0.000 C 
BRANCH  15  16
ATOM     16  C   UNL     1     -42.997  28.868   2.738  1.00  0.00     0.000 C 
BRANCH  16  17
ATOM     17  C   UNL     1     -43.462  28.581   4.175  1.00  0.00     0.000 C 
BRANCH  17  18
ATOM     18  C   UNL     1     -44.280  27.283   4.284  1.00  0.00    -0.000 C 
BRANCH  18  19
ATOM     19  C   UNL     1     -45.785  27.539   4.477  1.00  0.00    -0.000 C 
BRANCH  19  20
ATOM     20  C   UNL     1     -46.139  28.849   5.210  1.00  0.00    -0.000 C 
BRANCH  20  21
ATOM     21  C   UNL     1     -46.731  28.668   6.623  1.00  0.00    -0.000 C 
BRANCH  21  22
ATOM     22  C   UNL     1     -46.256  27.404   7.367  1.00  0.00    -0.000 C 
BRANCH  22  23
ATOM     23  C   UNL     1     -45.208  27.652   8.471  1.00  0.00    -0.000 C 
BRANCH  23  24
ATOM     24  C   UNL     1     -44.747  29.113   8.615  1.00  0.00    -0.000 C 
BRANCH  24  25
ATOM     25  C   UNL     1     -43.235  29.283   8.414  1.00  0.00    -0.003 C 
ATOM     26  C   UNL     1     -42.661  28.148   7.569  1.00  0.00     0.004 C 
ENDBRANCH  24  25
ENDBRANCH  23  24
ENDBRANCH  22  23
ENDBRANCH  21  22
ENDBRANCH  20  21
ENDBRANCH  19  20
ENDBRANCH  18  19
ENDBRANCH  17  18
ENDBRANCH  16  17
ENDBRANCH  15  16
ENDBRANCH   1  15
TORSDOF 22
ENDMDL
MODEL 4
REMARK VINA RESULT:    -3.531      4.211     10.506
REMARK INTER + INTRA:         -10.683
REMARK INTER:                  -8.940
REMARK INTRA:                  -1.743
REMARK UNBOUND:                -2.611
REMARK SMILES CCCCCCCCCCCCCCCCCCCCCCCC(=O)[O-]
REMARK SMILES IDX 13 1 14 2 15 3 16 4 17 5 18 6 19 7 20 8 21 9 22 10 23 11
REMARK SMILES IDX 24 12 25 13 26 14 12 15 11 16 10 17 9 18 8 19 7 20 6 21 5 22
REMARK SMILES IDX 4 23 3 24 2 25 1 26
REMARK H PARENT
REMARK Flexibility Score: inf
ROOT
ATOM      1  C   UNL     1     -42.904  27.214   1.608  1.00  0.00     0.000 C 
ENDROOT
BRANCH   1   2
ATOM      2  C   UNL     1     -43.061  27.966   0.277  1.00  0.00     0.000 C 
BRANCH   2   3
ATOM      3  C   UNL     1     -44.490  28.483   0.052  1.00  0.00     0.000 C 
BRANCH   3   4
ATOM      4  C   UNL     1     -45.421  27.340  -0.379  1.00  0.00     0.000 C 
BRANCH   4   5
ATOM      5  C   UNL     1     -44.781  26.403  -1.420  1.00  0.00     0.000 C 
BRANCH   5   6
ATOM      6  C   UNL     1     -45.737  25.363  -2.033  1.00  0.00     0.000 C 
BRANCH   6   7
ATOM      7  C   UNL     1     -47.120  25.907  -2.442  1.00  0.00     0.000 C 
BRANCH   7   8
ATOM      8  C   UNL     1     -47.059  27.081  -3.442  1.00  0.00     0.000 C 
BRANCH   8   9
ATOM      9  C   UNL     1     -46.633  26.633  -4.851  1.00  0.00     0.000 C 
BRANCH   9  10
ATOM     10  C   UNL     1     -45.958  27.764  -5.654  1.00  0.00     0.006 C 
BRANCH  10  11
ATOM     11  C   UNL     1     -46.497  27.910  -7.085  1.00  0.00     0.053 C 
BRANCH  11  12
ATOM     12  C   UNL     1     -46.068  29.192  -7.729  1.00  0.00     0.041 C 
ATOM     13  O   UNL     1     -46.794  29.736  -8.602  1.00  0.00    -0.550 OA
ATOM     14  O   UNL     1     -44.856  29.774  -7.381  1.00  0.00    -0.550 OA
ENDBRANCH  11  12
ENDBRANCH  10  11
ENDBRANCH   9  10
ENDBRANCH   8   9
ENDBRANCH   7   8
ENDBRANCH   6   7
ENDBRANCH   5   6
ENDBRANCH   4   5
ENDBRANCH   3   4
ENDBRANCH   2   3
ENDBRANCH   1   2
BRANCH   1  15
ATOM     15  C   UNL     1     -44.085  27.447   2.563  1.00  0.00     0.000 C 
BRANCH  15  16
ATOM     16  C   UNL     1     -43.645  28.255   3.792  1.00  0.00     0.000 C 
BRANCH  16  17
ATOM     17  C   UNL     1     -44.741  29.202   4.307  1.00  0.00     0.000 C 
BRANCH  17  18
ATOM     18  C   UNL     1     -46.114  28.917   3.674  1.00  0.00    -0.000 C 
BRANCH  18  19
ATOM     19  C   UNL     1     -46.882  27.795   4.393  1.00  0.00    -0.000 C 
BRANCH  19  20
ATOM     20  C   UNL     1     -47.117  28.021   5.902  1.00  0.00    -0.000 C 
BRANCH  20  21
ATOM     21  C   UNL     1     -46.272  27.130   6.835  1.00  0.00    -0.000 C 
BRANCH  21  22
ATOM     22  C   UNL     1     -45.860  27.793   8.165  1.00  0.00    -0.000 C 
BRANCH  22  23
ATOM     23  C   UNL     1     -44.398  27.549   8.590  1.00  0.00    -0.000 C 
BRANCH  23  24
ATOM     24  C   UNL     1     -43.382  27.502   7.435  1.00  0.00    -0.000 C 
BRANCH  24  25
ATOM     25  C   UNL     1     -42.261  28.541   7.585  1.00  0.00    -0.003 C 
ATOM     26  C   UNL     1     -42.749  29.772   8.344  1.00  0.00     0.004 C 
ENDBRANCH  24  25
ENDBRANCH  23  24
ENDBRANCH  22  23
ENDBRANCH  21  22
ENDBRANCH  20  21
ENDBRANCH  19  20
ENDBRANCH  18  19
ENDBRANCH  17  18
ENDBRANCH  16  17
ENDBRANCH  15  16
ENDBRANCH   1  15
TORSDOF 22
ENDMDL
MODEL 5
REMARK VINA RESULT:    -3.465      1.248      1.768
REMARK INTER + INTRA:         -10.532
REMARK INTER:                  -8.532
REMARK INTRA:                  -2.000
REMARK UNBOUND:                -2.611
REMARK SMILES CCCCCCCCCCCCCCCCCCCCCCCC(=O)[O-]
REMARK SMILES IDX 13 1 14 2 15 3 16 4 17 5 18 6 19 7 20 8 21 9 22 10 23 11
REMARK SMILES IDX 24 12 25 13 26 14 12 15 11 16 10 17 9 18 8 19 7 20 6 21 5 22
REMARK SMILES IDX 4 23 3 24 2 25 1 26
REMARK H PARENT
REMARK Flexibility Score: inf
ROOT
ATOM      1  C   UNL     1     -43.306  27.652   1.898  1.00  0.00     0.000 C 
ENDROOT
BRANCH   1   2
ATOM      2  C   UNL     1     -43.333  29.111   2.382  1.00  0.00     0.000 C 
BRANCH   2   3
ATOM      3  C   UNL     1     -44.643  29.474   3.098  1.00  0.00     0.000 C 
BRANCH   3   4
ATOM      4  C   UNL     1     -45.671  28.341   2.961  1.00  0.00     0.000 C 
BRANCH   4   5
ATOM      5  C   UNL     1     -46.677  28.299   4.126  1.00  0.00     0.000 C 
BRANCH   5   6
ATOM      6  C   UNL     1     -46.190  28.961   5.429  1.00  0.00     0.000 C 
BRANCH   6   7
ATOM      7  C   UNL     1     -46.933  28.518   6.704  1.00  0.00     0.000 C 
BRANCH   7   8
ATOM      8  C   UNL     1     -46.340  27.255   7.366  1.00  0.00     0.000 C 
BRANCH   8   9
ATOM      9  C   UNL     1     -45.823  27.524   8.790  1.00  0.00     0.000 C 
BRANCH   9  10
ATOM     10  C   UNL     1     -44.291  27.709   8.839  1.00  0.00     0.006 C 
BRANCH  10  11
ATOM     11  C   UNL     1     -43.583  27.318   7.532  1.00  0.00     0.053 C 
BRANCH  11  12
ATOM     12  C   UNL     1     -42.581  28.343   7.098  1.00  0.00     0.041 C 
ATOM     13  O   UNL     1     -41.874  28.939   7.953  1.00  0.00    -0.550 OA
ATOM     14  O   UNL     1     -42.444  28.656   5.752  1.00  0.00    -0.550 OA
ENDBRANCH  11  12
ENDBRANCH  10  11
ENDBRANCH   9  10
ENDBRANCH   8   9
ENDBRANCH   7   8
ENDBRANCH   6   7
ENDBRANCH   5   6
ENDBRANCH   4   5
ENDBRANCH   3   4
ENDBRANCH   2   3
ENDBRANCH   1   2
BRANCH   1  15
ATOM     15  C   UNL     1     -42.907  27.526   0.419  1.00  0.00     0.000 C 
BRANCH  15  16
ATOM     16  C   UNL     1     -44.109  27.106  -0.439  1.00  0.00     0.000 C 
BRANCH  16  17
ATOM     17  C   UNL     1     -44.990  28.296  -0.853  1.00  0.00     0.000 C 
BRANCH  17  18
ATOM     18  C   UNL     1     -46.412  27.868  -1.255  1.00  0.00    -0.000 C 
BRANCH  18  19
ATOM     19  C   UNL     1     -46.974  28.690  -2.428  1.00  0.00    -0.000 C 
BRANCH  19  20
ATOM     20  C   UNL     1     -45.951  29.059  -3.522  1.00  0.00    -0.000 C 
BRANCH  20  21
ATOM     21  C   UNL     1     -46.516  29.887  -4.693  1.00  0.00    -0.000 C 
BRANCH  21  22
ATOM     22  C   UNL     1     -45.704  29.800  -6.001  1.00  0.00    -0.000 C 
BRANCH  22  23
ATOM     23  C   UNL     1     -46.544  29.603  -7.279  1.00  0.00    -0.000 C 
BRANCH  23  24
ATOM     24  C   UNL     1     -46.352  28.248  -7.983  1.00  0.00    -0.000 C 
BRANCH  24  25
ATOM     25  C   UNL     1     -45.515  27.261  -7.156  1.00  0.00    -0.003 C 
ATOM     26  C   UNL     1     -46.369  26.094  -6.666  1.00  0.00     0.004 C 
ENDBRANCH  24  25
ENDBRANCH  23  24
ENDBRANCH  22  23
ENDBRANCH  21  22
ENDBRANCH  20  21
ENDBRANCH  19  20
ENDBRANCH  18  19
ENDBRANCH  17  18
ENDBRANCH  16  17
ENDBRANCH  15  16
ENDBRANCH   1  15
TORSDOF 22
ENDMDL
MODEL 6
REMARK VINA RESULT:    -3.367      4.076     10.075
REMARK INTER + INTRA:         -10.308
REMARK INTER:                  -7.883
REMARK INTRA:                  -2.425
REMARK UNBOUND:                -2.611
REMARK SMILES CCCCCCCCCCCCCCCCCCCCCCCC(=O)[O-]
REMARK SMILES IDX 13 1 14 2 15 3 16 4 17 5 18 6 19 7 20 8 21 9 22 10 23 11
REMARK SMILES IDX 24 12 25 13 26 14 12 15 11 16 10 17 9 18 8 19 7 20 6 21 5 22
REMARK SMILES IDX 4 23 3 24 2 25 1 26
REMARK H PARENT
REMARK Flexibility Score: inf
ROOT
ATOM      1  C   UNL     1     -43.740  29.271  -0.267  1.00  0.00     0.000 C 
ENDROOT
BRANCH   1   2
ATOM      2  C   UNL     1     -43.112  27.872  -0.169  1.00  0.00     0.000 C 
BRANCH   2   3
ATOM      3  C   UNL     1     -44.067  26.759  -0.623  1.00  0.00     0.000 C 
BRANCH   3   4
ATOM      4  C   UNL     1     -45.530  27.179  -0.418  1.00  0.00     0.000 C 
BRANCH   4   5
ATOM      5  C   UNL     1     -46.495  26.501  -1.409  1.00  0.00     0.000 C 
BRANCH   5   6
ATOM      6  C   UNL     1     -47.087  27.436  -2.481  1.00  0.00     0.000 C 
BRANCH   6   7
ATOM      7  C   UNL     1     -46.840  28.939  -2.246  1.00  0.00     0.000 C 
BRANCH   7   8
ATOM      8  C   UNL     1     -46.112  29.642  -3.412  1.00  0.00     0.000 C 
BRANCH   8   9
ATOM      9  C   UNL     1     -46.356  28.948  -4.763  1.00  0.00     0.000 C 
BRANCH   9  10
ATOM     10  C   UNL     1     -45.614  29.639  -5.927  1.00  0.00     0.006 C 
BRANCH  10  11
ATOM     11  C   UNL     1     -45.238  28.684  -7.070  1.00  0.00     0.053 C 
BRANCH  11  12
ATOM     12  C   UNL     1     -46.050  27.427  -7.055  1.00  0.00     0.041 C 
ATOM     13  O   UNL     1     -47.107  27.347  -7.734  1.00  0.00    -0.550 OA
ATOM     14  O   UNL     1     -45.651  26.350  -6.272  1.00  0.00    -0.550 OA
ENDBRANCH  11  12
ENDBRANCH  10  11
ENDBRANCH   9  10
ENDBRANCH   8   9
ENDBRANCH   7   8
ENDBRANCH   6   7
ENDBRANCH   5   6
ENDBRANCH   4   5
ENDBRANCH   3   4
ENDBRANCH   2   3
ENDBRANCH   1   2
BRANCH   1  15
ATOM     15  C   UNL     1     -44.029  29.890   1.109  1.00  0.00     0.000 C 
BRANCH  15  16
ATOM     16  C   UNL     1     -42.920  29.539   2.112  1.00  0.00     0.000 C 
BRANCH  16  17
ATOM     17  C   UNL     1     -43.466  28.946   3.421  1.00  0.00     0.000 C 
BRANCH  17  18
ATOM     18  C   UNL     1     -44.082  27.550   3.227  1.00  0.00    -0.000 C 
BRANCH  18  19
ATOM     19  C   UNL     1     -45.602  27.529   3.467  1.00  0.00    -0.000 C 
BRANCH  19  20
ATOM     20  C   UNL     1     -46.171  28.772   4.183  1.00  0.00    -0.000 C 
BRANCH  20  21
ATOM     21  C   UNL     1     -46.687  28.522   5.615  1.00  0.00    -0.000 C 
BRANCH  21  22
ATOM     22  C   UNL     1     -45.954  27.404   6.382  1.00  0.00    -0.000 C 
BRANCH  22  23
ATOM     23  C   UNL     1     -45.407  27.812   7.765  1.00  0.00    -0.000 C 
BRANCH  23  24
ATOM     24  C   UNL     1     -44.640  29.147   7.794  1.00  0.00    -0.000 C 
BRANCH  24  25
ATOM     25  C   UNL     1     -43.117  28.957   7.843  1.00  0.00    -0.003 C 
ATOM     26  C   UNL     1     -42.669  27.855   6.888  1.00  0.00     0.004 C 
ENDBRANCH  24  25
ENDBRANCH  23  24
ENDBRANCH  22  23
ENDBRANCH  21  22
ENDBRANCH  20  21
ENDBRANCH  19  20
ENDBRANCH  18  19
ENDBRANCH  17  18
ENDBRANCH  16  17
ENDBRANCH  15  16
ENDBRANCH   1  15
TORSDOF 22
ENDMDL
MODEL 7
REMARK VINA RESULT:    -3.249      4.270     10.535
REMARK INTER + INTRA:         -10.039
REMARK INTER:                  -7.948
REMARK INTRA:                  -2.092
REMARK UNBOUND:                -2.611
REMARK SMILES CCCCCCCCCCCCCCCCCCCCCCCC(=O)[O-]
REMARK SMILES IDX 13 1 14 2 15 3 16 4 17 5 18 6 19 7 20 8 21 9 22 10 23 11
REMARK SMILES IDX 24 12 25 13 26 14 12 15 11 16 10 17 9 18 8 19 7 20 6 21 5 22
REMARK SMILES IDX 4 23 3 24 2 25 1 26
REMARK H PARENT
REMARK Flexibility Score: inf
ROOT
ATOM      1  C   UNL     1     -42.853  27.626   1.064  1.00  0.00     0.000 C 
ENDROOT
BRANCH   1   2
ATOM      2  C   UNL     1     -43.595  27.071  -0.162  1.00  0.00     0.000 C 
BRANCH   2   3
ATOM      3  C   UNL     1     -44.960  27.741  -0.382  1.00  0.00     0.000 C 
BRANCH   3   4
ATOM      4  C   UNL     1     -44.792  29.240  -0.671  1.00  0.00     0.000 C 
BRANCH   4   5
ATOM      5  C   UNL     1     -46.102  30.033  -0.511  1.00  0.00     0.000 C 
BRANCH   5   6
ATOM      6  C   UNL     1     -46.965  30.125  -1.784  1.00  0.00     0.000 C 
BRANCH   6   7
ATOM      7  C   UNL     1     -46.184  30.043  -3.110  1.00  0.00     0.000 C 
BRANCH   7   8
ATOM      8  C   UNL     1     -46.324  28.688  -3.836  1.00  0.00     0.000 C 
BRANCH   8   9
ATOM      9  C   UNL     1     -46.982  28.827  -5.220  1.00  0.00     0.000 C 
BRANCH   9  10
ATOM     10  C   UNL     1     -46.083  29.571  -6.231  1.00  0.00     0.006 C 
BRANCH  10  11
ATOM     11  C   UNL     1     -45.188  28.638  -7.061  1.00  0.00     0.053 C 
BRANCH  11  12
ATOM     12  C   UNL     1     -45.868  27.350  -7.403  1.00  0.00     0.041 C 
ATOM     13  O   UNL     1     -46.981  27.358  -7.993  1.00  0.00    -0.550 OA
ATOM     14  O   UNL     1     -45.284  26.139  -7.051  1.00  0.00    -0.550 OA
ENDBRANCH  11  12
ENDBRANCH  10  11
ENDBRANCH   9  10
ENDBRANCH   8   9
ENDBRANCH   7   8
ENDBRANCH   6   7
ENDBRANCH   5   6
ENDBRANCH   4   5
ENDBRANCH   3   4
ENDBRANCH   2   3
ENDBRANCH   1   2
BRANCH   1  15
ATOM     15  C   UNL     1     -43.647  27.450   2.368  1.00  0.00     0.000 C 
BRANCH  15  16
ATOM     16  C   UNL     1     -43.733  28.775   3.140  1.00  0.00     0.000 C 
BRANCH  16  17
ATOM     17  C   UNL     1     -45.181  29.203   3.427  1.00  0.00     0.000 C 
BRANCH  17  18
ATOM     18  C   UNL     1     -45.599  28.936   4.884  1.00  0.00    -0.000 C 
BRANCH  18  19
ATOM     19  C   UNL     1     -46.179  27.526   5.090  1.00  0.00    -0.000 C 
BRANCH  19  20
ATOM     20  C   UNL     1     -46.302  27.075   6.560  1.00  0.00    -0.000 C 
BRANCH  20  21
ATOM     21  C   UNL     1     -46.925  28.116   7.513  1.00  0.00    -0.000 C 
BRANCH  21  22
ATOM     22  C   UNL     1     -45.907  28.972   8.292  1.00  0.00    -0.000 C 
BRANCH  22  23
ATOM     23  C   UNL     1     -44.781  28.179   8.984  1.00  0.00    -0.000 C 
BRANCH  23  24
ATOM     24  C   UNL     1     -43.415  28.887   9.023  1.00  0.00    -0.000 C 
BRANCH  24  25
ATOM     25  C   UNL     1     -42.820  29.111   7.626  1.00  0.00    -0.003 C 
ATOM     26  C   UNL     1     -42.694  27.794   6.864  1.00  0.00     0.004 C 
ENDBRANCH  24  25
ENDBRANCH  23  24
ENDBRANCH  22  23
ENDBRANCH  21  22
ENDBRANCH  20  21
ENDBRANCH  19  20
ENDBRANCH  18  19
ENDBRANCH  17  18
ENDBRANCH  16  17
ENDBRANCH  15  16
ENDBRANCH   1  15
TORSDOF 22
ENDMDL
MODEL 8
REMARK VINA RESULT:    -2.957      4.158     10.256
REMARK INTER + INTRA:          -9.371
REMARK INTER:                  -6.895
REMARK INTRA:                  -2.476
REMARK UNBOUND:                -2.611
REMARK SMILES CCCCCCCCCCCCCCCCCCCCCCCC(=O)[O-]
REMARK SMILES IDX 13 1 14 2 15 3 16 4 17 5 18 6 19 7 20 8 21 9 22 10 23 11
REMARK SMILES IDX 24 12 25 13 26 14 12 15 11 16 10 17 9 18 8 19 7 20 6 21 5 22
REMARK SMILES IDX 4 23 3 24 2 25 1 26
REMARK H PARENT
REMARK Flexibility Score: inf
ROOT
ATOM      1  C   UNL     1     -45.790  29.514   2.398  1.00  0.00     0.000 C 
ENDROOT
BRANCH   1   2
ATOM      2  C   UNL     1     -45.827  30.103   0.979  1.00  0.00     0.000 C 
BRANCH   2   3
ATOM      3  C   UNL     1     -45.457  29.075  -0.100  1.00  0.00     0.000 C 
BRANCH   3   4
ATOM      4  C   UNL     1     -45.444  27.654   0.483  1.00  0.00     0.000 C 
BRANCH   4   5
ATOM      5  C   UNL     1     -44.462  26.716  -0.243  1.00  0.00     0.000 C 
BRANCH   5   6
ATOM      6  C   UNL     1     -45.007  26.079  -1.535  1.00  0.00     0.000 C 
BRANCH   6   7
ATOM      7  C   UNL     1     -46.543  25.987  -1.621  1.00  0.00     0.000 C 
BRANCH   7   8
ATOM      8  C   UNL     1     -47.122  26.446  -2.976  1.00  0.00     0.000 C 
BRANCH   8   9
ATOM      9  C   UNL     1     -46.039  26.990  -3.925  1.00  0.00     0.000 C 
BRANCH   9  10
ATOM     10  C   UNL     1     -46.416  26.821  -5.412  1.00  0.00     0.006 C 
BRANCH  10  11
ATOM     11  C   UNL     1     -47.105  28.054  -6.017  1.00  0.00     0.053 C 
BRANCH  11  12
ATOM     12  C   UNL     1     -46.259  28.731  -7.050  1.00  0.00     0.041 C 
ATOM     13  O   UNL     1     -45.255  29.407  -6.704  1.00  0.00    -0.550 OA
ATOM     14  O   UNL     1     -46.593  28.634  -8.395  1.00  0.00    -0.550 OA
ENDBRANCH  11  12
ENDBRANCH  10  11
ENDBRANCH   9  10
ENDBRANCH   8   9
ENDBRANCH   7   8
ENDBRANCH   6   7
ENDBRANCH   5   6
ENDBRANCH   4   5
ENDBRANCH   3   4
ENDBRANCH   2   3
ENDBRANCH   1   2
BRANCH   1  15
ATOM     15  C   UNL     1     -47.106  29.722   3.162  1.00  0.00     0.000 C 
BRANCH  15  16
ATOM     16  C   UNL     1     -47.044  29.071   4.551  1.00  0.00     0.000 C 
BRANCH  16  17
ATOM     17  C   UNL     1     -46.121  27.842   4.592  1.00  0.00     0.000 C 
BRANCH  17  18
ATOM     18  C   UNL     1     -46.319  26.995   5.861  1.00  0.00    -0.000 C 
BRANCH  18  19
ATOM     19  C   UNL     1     -46.760  27.833   7.075  1.00  0.00    -0.000 C 
BRANCH  19  20
ATOM     20  C   UNL     1     -46.035  27.504   8.397  1.00  0.00    -0.000 C 
BRANCH  20  21
ATOM     21  C   UNL     1     -45.420  28.717   9.124  1.00  0.00    -0.000 C 
BRANCH  21  22
ATOM     22  C   UNL     1     -44.416  29.534   8.288  1.00  0.00    -0.000 C 
BRANCH  22  23
ATOM     23  C   UNL     1     -43.122  28.785   7.907  1.00  0.00    -0.000 C 
BRANCH  23  24
ATOM     24  C   UNL     1     -42.988  28.433   6.415  1.00  0.00    -0.000 C 
BRANCH  24  25
ATOM     25  C   UNL     1     -43.213  29.642   5.495  1.00  0.00    -0.003 C 
ATOM     26  C   UNL     1     -42.799  29.325   4.060  1.00  0.00     0.004 C 
ENDBRANCH  24  25
ENDBRANCH  23  24
ENDBRANCH  22  23
ENDBRANCH  21  22
ENDBRANCH  20  21
ENDBRANCH  19  20
ENDBRANCH  18  19
ENDBRANCH  17  18
ENDBRANCH  16  17
ENDBRANCH  15  16
ENDBRANCH   1  15
TORSDOF 22
ENDMDL
