MODEL 1
REMARK VINA RESULT:    -7.706      0.000      0.000
REMARK INTER + INTRA:          -7.931
REMARK INTER:                  -7.931
REMARK INTRA:                   0.000
REMARK UNBOUND:                 0.000
REMARK SMILES CC1(C)CC[C@]2(C)CC[C@@]3(C)C(=CC[C@H]4[C@]5(C)CC[C@H](O)C(C)(C)[C@@H]5CC[C@]43C)[C@@H]2C1
REMARK SMILES IDX 1 1 2 2 4 3 5 4 6 5 8 6 9 7 10 8 12 9 13 10 14 11 15 12
REMARK SMILES IDX 28 13 27 14 26 15 25 16 16 17 18 18 19 19 20 20 22 21 23 22
REMARK SMILES IDX 24 23 17 24 29 25 30 26 31 27 11 28 7 29 3 30 21 31
REMARK H PARENT 21 32
REMARK Flexibility Score: inf
ROOT
ATOM      1  C   UNL     1     149.544 136.557 156.992  1.00  0.00     0.011 C 
ATOM      2  C   UNL     1     149.173 135.129 156.539  1.00  0.00    -0.035 C 
ATOM      3  C   UNL     1     150.076 134.096 157.281  1.00  0.00     0.007 C 
ATOM      4  C   UNL     1     151.292 133.683 156.443  1.00  0.00     0.008 C 
ATOM      5  C   UNL     1     150.891 132.942 155.123  1.00  0.00    -0.026 C 
ATOM      6  C   UNL     1     152.125 132.959 154.160  1.00  0.00     0.008 C 
ATOM      7  C   UNL     1     151.966 133.892 152.958  1.00  0.00     0.012 C 
ATOM      8  C   UNL     1     150.726 133.543 152.062  1.00  0.00    -0.006 C 
ATOM      9  C   UNL     1     149.500 133.565 152.964  1.00  0.00    -0.064 C 
ATOM     10  C   UNL     1     148.278 133.638 152.423  1.00  0.00    -0.027 C 
ATOM     11  C   UNL     1     147.999 134.035 151.009  1.00  0.00     0.032 C 
ATOM     12  C   UNL     1     149.203 134.277 150.029  1.00  0.00     0.006 C 
ATOM     13  C   UNL     1     150.552 134.562 150.821  1.00  0.00    -0.020 C 
ATOM     14  C   UNL     1     150.472 136.030 151.328  1.00  0.00     0.008 C 
ATOM     15  C   UNL     1     150.140 137.067 150.246  1.00  0.00     0.005 C 
ATOM     16  C   UNL     1     148.823 136.813 149.452  1.00  0.00     0.003 C 
ATOM     17  C   UNL     1     148.784 135.336 148.886  1.00  0.00    -0.025 C 
ATOM     18  C   UNL     1     149.704 135.250 147.624  1.00  0.00     0.010 C 
ATOM     19  C   UNL     1     149.395 136.293 146.534  1.00  0.00     0.033 C 
ATOM     20  C   UNL     1     149.437 137.736 147.071  1.00  0.00     0.120 C 
ATOM     21  C   UNL     1     148.566 137.949 148.357  1.00  0.00    -0.006 C 
ATOM     22  C   UNL     1     147.057 138.013 147.961  1.00  0.00     0.014 C 
ATOM     23  C   UNL     1     148.878 139.365 148.933  1.00  0.00     0.014 C 
ATOM     24  C   UNL     1     147.343 134.929 148.407  1.00  0.00     0.012 C 
ATOM     25  C   UNL     1     151.794 134.389 149.875  1.00  0.00     0.012 C 
ATOM     26  C   UNL     1     149.588 133.587 154.497  1.00  0.00     0.022 C 
ATOM     27  C   UNL     1     149.350 135.037 154.992  1.00  0.00     0.015 C 
ATOM     28  C   UNL     1     150.872 132.078 151.540  1.00  0.00     0.017 C 
ATOM     29  C   UNL     1     150.591 131.459 155.476  1.00  0.00     0.012 C 
ATOM     30  C   UNL     1     147.695 134.874 156.913  1.00  0.00     0.011 C 
ENDROOT
BRANCH  20  31
ATOM     31  O   UNL     1     150.777 138.089 147.309  1.00  0.00    -0.393 OA
ATOM     32  H   UNL     1     150.932 138.022 148.286  1.00  0.00     0.210 HD
ENDBRANCH  20  31
TORSDOF 1
ENDMDL
MODEL 2
REMARK VINA RESULT:    -7.522      3.462      6.879
REMARK INTER + INTRA:          -7.742
REMARK INTER:                  -7.742
REMARK INTRA:                   0.000
REMARK UNBOUND:                 0.000
REMARK SMILES CC1(C)CC[C@]2(C)CC[C@@]3(C)C(=CC[C@H]4[C@]5(C)CC[C@H](O)C(C)(C)[C@@H]5CC[C@]43C)[C@@H]2C1
REMARK SMILES IDX 1 1 2 2 4 3 5 4 6 5 8 6 9 7 10 8 12 9 13 10 14 11 15 12
REMARK SMILES IDX 28 13 27 14 26 15 25 16 16 17 18 18 19 19 20 20 22 21 23 22
REMARK SMILES IDX 24 23 17 24 29 25 30 26 31 27 11 28 7 29 3 30 21 31
REMARK H PARENT 21 32
REMARK Flexibility Score: inf
ROOT
ATOM      1  C   UNL     1     150.681 136.203 152.515  1.00  0.00     0.011 C 
ATOM      2  C   UNL     1     151.144 136.228 151.042  1.00  0.00    -0.035 C 
ATOM      3  C   UNL     1     152.012 137.499 150.790  1.00  0.00     0.007 C 
ATOM      4  C   UNL     1     151.191 138.652 150.199  1.00  0.00     0.008 C 
ATOM      5  C   UNL     1     150.609 138.315 148.785  1.00  0.00    -0.026 C 
ATOM      6  C   UNL     1     149.464 139.335 148.473  1.00  0.00     0.008 C 
ATOM      7  C   UNL     1     148.059 138.730 148.517  1.00  0.00     0.012 C 
ATOM      8  C   UNL     1     147.865 137.542 147.509  1.00  0.00    -0.006 C 
ATOM      9  C   UNL     1     148.938 136.509 147.820  1.00  0.00    -0.064 C 
ATOM     10  C   UNL     1     148.812 135.259 147.356  1.00  0.00    -0.027 C 
ATOM     11  C   UNL     1     147.542 134.676 146.827  1.00  0.00     0.032 C 
ATOM     12  C   UNL     1     146.277 135.596 146.681  1.00  0.00     0.006 C 
ATOM     13  C   UNL     1     146.389 136.891 147.598  1.00  0.00    -0.020 C 
ATOM     14  C   UNL     1     146.080 136.438 149.053  1.00  0.00     0.008 C 
ATOM     15  C   UNL     1     144.769 135.655 149.218  1.00  0.00     0.005 C 
ATOM     16  C   UNL     1     144.631 134.381 148.331  1.00  0.00     0.003 C 
ATOM     17  C   UNL     1     144.931 134.716 146.813  1.00  0.00    -0.025 C 
ATOM     18  C   UNL     1     143.685 135.430 146.194  1.00  0.00     0.010 C 
ATOM     19  C   UNL     1     142.360 134.665 146.364  1.00  0.00     0.033 C 
ATOM     20  C   UNL     1     142.052 134.339 147.836  1.00  0.00     0.120 C 
ATOM     21  C   UNL     1     143.239 133.636 148.582  1.00  0.00    -0.006 C 
ATOM     22  C   UNL     1     143.318 132.140 148.141  1.00  0.00     0.014 C 
ATOM     23  C   UNL     1     142.899 133.577 150.102  1.00  0.00     0.014 C 
ATOM     24  C   UNL     1     145.162 133.417 145.960  1.00  0.00     0.012 C 
ATOM     25  C   UNL     1     145.352 137.979 147.143  1.00  0.00     0.012 C 
ATOM     26  C   UNL     1     150.147 136.802 148.720  1.00  0.00     0.022 C 
ATOM     27  C   UNL     1     149.883 136.203 150.126  1.00  0.00     0.015 C 
ATOM     28  C   UNL     1     148.141 138.054 146.060  1.00  0.00     0.017 C 
ATOM     29  C   UNL     1     151.735 138.537 147.737  1.00  0.00     0.012 C 
ATOM     30  C   UNL     1     152.001 134.967 150.787  1.00  0.00     0.011 C 
ENDROOT
BRANCH  20  31
ATOM     31  O   UNL     1     141.682 135.526 148.493  1.00  0.00    -0.393 OA
ATOM     32  H   UNL     1     142.449 135.805 149.056  1.00  0.00     0.210 HD
ENDBRANCH  20  31
TORSDOF 1
ENDMDL
MODEL 3
REMARK VINA RESULT:    -7.166      5.237      9.392
REMARK INTER + INTRA:          -7.376
REMARK INTER:                  -7.376
REMARK INTRA:                   0.000
REMARK UNBOUND:                 0.000
REMARK SMILES CC1(C)CC[C@]2(C)CC[C@@]3(C)C(=CC[C@H]4[C@]5(C)CC[C@H](O)C(C)(C)[C@@H]5CC[C@]43C)[C@@H]2C1
REMARK SMILES IDX 1 1 2 2 4 3 5 4 6 5 8 6 9 7 10 8 12 9 13 10 14 11 15 12
REMARK SMILES IDX 28 13 27 14 26 15 25 16 16 17 18 18 19 19 20 20 22 21 23 22
REMARK SMILES IDX 24 23 17 24 29 25 30 26 31 27 11 28 7 29 3 30 21 31
REMARK H PARENT 21 32
REMARK Flexibility Score: inf
ROOT
ATOM      1  C   UNL     1     140.809 135.528 142.836  1.00  0.00     0.011 C 
ATOM      2  C   UNL     1     141.194 134.236 143.589  1.00  0.00    -0.035 C 
ATOM      3  C   UNL     1     139.924 133.625 144.257  1.00  0.00     0.007 C 
ATOM      4  C   UNL     1     139.789 134.039 145.728  1.00  0.00     0.008 C 
ATOM      5  C   UNL     1     140.965 133.509 146.615  1.00  0.00    -0.026 C 
ATOM      6  C   UNL     1     140.976 134.325 147.950  1.00  0.00     0.008 C 
ATOM      7  C   UNL     1     142.142 135.308 148.073  1.00  0.00     0.012 C 
ATOM      8  C   UNL     1     143.548 134.616 147.980  1.00  0.00    -0.006 C 
ATOM      9  C   UNL     1     143.585 133.851 146.664  1.00  0.00    -0.064 C 
ATOM     10  C   UNL     1     144.760 133.449 146.163  1.00  0.00    -0.027 C 
ATOM     11  C   UNL     1     146.092 133.965 146.604  1.00  0.00     0.032 C 
ATOM     12  C   UNL     1     146.164 134.962 147.816  1.00  0.00     0.006 C 
ATOM     13  C   UNL     1     144.765 135.674 148.071  1.00  0.00    -0.020 C 
ATOM     14  C   UNL     1     144.616 136.772 146.981  1.00  0.00     0.008 C 
ATOM     15  C   UNL     1     145.807 137.735 146.871  1.00  0.00     0.005 C 
ATOM     16  C   UNL     1     147.192 137.065 146.621  1.00  0.00     0.003 C 
ATOM     17  C   UNL     1     147.459 135.915 147.675  1.00  0.00    -0.025 C 
ATOM     18  C   UNL     1     147.879 136.560 149.037  1.00  0.00     0.010 C 
ATOM     19  C   UNL     1     149.063 137.540 148.942  1.00  0.00     0.033 C 
ATOM     20  C   UNL     1     148.814 138.668 147.925  1.00  0.00     0.120 C 
ATOM     21  C   UNL     1     148.362 138.151 146.515  1.00  0.00    -0.006 C 
ATOM     22  C   UNL     1     149.594 137.572 145.752  1.00  0.00     0.014 C 
ATOM     23  C   UNL     1     147.914 139.376 145.662  1.00  0.00     0.014 C 
ATOM     24  C   UNL     1     148.651 134.987 147.242  1.00  0.00     0.012 C 
ATOM     25  C   UNL     1     144.731 136.328 149.499  1.00  0.00     0.012 C 
ATOM     26  C   UNL     1     142.333 133.574 145.820  1.00  0.00     0.022 C 
ATOM     27  C   UNL     1     142.287 134.584 144.645  1.00  0.00     0.015 C 
ATOM     28  C   UNL     1     143.669 133.555 149.119  1.00  0.00     0.017 C 
ATOM     29  C   UNL     1     140.668 132.026 146.972  1.00  0.00     0.012 C 
ATOM     30  C   UNL     1     141.761 133.232 142.559  1.00  0.00     0.011 C 
ENDROOT
BRANCH  20  31
ATOM     31  O   UNL     1     147.864 139.556 148.460  1.00  0.00    -0.393 OA
ATOM     32  H   UNL     1     147.739 139.316 149.414  1.00  0.00     0.210 HD
ENDBRANCH  20  31
TORSDOF 1
ENDMDL
MODEL 4
REMARK VINA RESULT:    -6.869      5.933      9.621
REMARK INTER + INTRA:          -7.070
REMARK INTER:                  -7.070
REMARK INTRA:                   0.000
REMARK UNBOUND:                 0.000
REMARK SMILES CC1(C)CC[C@]2(C)CC[C@@]3(C)C(=CC[C@H]4[C@]5(C)CC[C@H](O)C(C)(C)[C@@H]5CC[C@]43C)[C@@H]2C1
REMARK SMILES IDX 1 1 2 2 4 3 5 4 6 5 8 6 9 7 10 8 12 9 13 10 14 11 15 12
REMARK SMILES IDX 28 13 27 14 26 15 25 16 16 17 18 18 19 19 20 20 22 21 23 22
REMARK SMILES IDX 24 23 17 24 29 25 30 26 31 27 11 28 7 29 3 30 21 31
REMARK H PARENT 21 32
REMARK Flexibility Score: inf
ROOT
ATOM      1  C   UNL     1     148.922 136.739 146.118  1.00  0.00     0.011 C 
ATOM      2  C   UNL     1     147.634 137.434 146.610  1.00  0.00    -0.035 C 
ATOM      3  C   UNL     1     147.819 137.883 148.092  1.00  0.00     0.007 C 
ATOM      4  C   UNL     1     147.242 136.862 149.082  1.00  0.00     0.008 C 
ATOM      5  C   UNL     1     145.693 136.691 148.937  1.00  0.00    -0.026 C 
ATOM      6  C   UNL     1     145.280 135.359 149.648  1.00  0.00     0.008 C 
ATOM      7  C   UNL     1     144.874 134.239 148.689  1.00  0.00     0.012 C 
ATOM      8  C   UNL     1     143.668 134.623 147.762  1.00  0.00    -0.006 C 
ATOM      9  C   UNL     1     144.059 135.893 147.019  1.00  0.00    -0.064 C 
ATOM     10  C   UNL     1     143.378 136.260 145.926  1.00  0.00    -0.027 C 
ATOM     11  C   UNL     1     142.462 135.363 145.157  1.00  0.00     0.032 C 
ATOM     12  C   UNL     1     142.163 133.921 145.705  1.00  0.00     0.006 C 
ATOM     13  C   UNL     1     143.280 133.443 146.730  1.00  0.00    -0.020 C 
ATOM     14  C   UNL     1     144.517 133.029 145.884  1.00  0.00     0.008 C 
ATOM     15  C   UNL     1     144.221 132.030 144.757  1.00  0.00     0.005 C 
ATOM     16  C   UNL     1     143.129 132.473 143.736  1.00  0.00     0.003 C 
ATOM     17  C   UNL     1     141.810 132.926 144.484  1.00  0.00    -0.025 C 
ATOM     18  C   UNL     1     141.029 131.655 144.954  1.00  0.00     0.010 C 
ATOM     19  C   UNL     1     140.736 130.635 143.838  1.00  0.00     0.033 C 
ATOM     20  C   UNL     1     142.012 130.180 143.107  1.00  0.00     0.120 C 
ATOM     21  C   UNL     1     142.901 131.369 142.601  1.00  0.00    -0.006 C 
ATOM     22  C   UNL     1     142.252 132.001 141.329  1.00  0.00     0.014 C 
ATOM     23  C   UNL     1     144.259 130.790 142.100  1.00  0.00     0.014 C 
ATOM     24  C   UNL     1     140.837 133.713 143.534  1.00  0.00     0.012 C 
ATOM     25  C   UNL     1     142.769 132.216 147.568  1.00  0.00     0.012 C 
ATOM     26  C   UNL     1     145.266 136.756 147.414  1.00  0.00     0.022 C 
ATOM     27  C   UNL     1     146.443 136.440 146.456  1.00  0.00     0.015 C 
ATOM     28  C   UNL     1     142.437 134.986 148.653  1.00  0.00     0.017 C 
ATOM     29  C   UNL     1     145.007 137.861 149.696  1.00  0.00     0.012 C 
ATOM     30  C   UNL     1     147.394 138.681 145.727  1.00  0.00     0.011 C 
ENDROOT
BRANCH  20  31
ATOM     31  O   UNL     1     142.744 129.336 143.960  1.00  0.00    -0.393 OA
ATOM     32  H   UNL     1     142.533 129.601 144.892  1.00  0.00     0.210 HD
ENDBRANCH  20  31
TORSDOF 1
ENDMDL
MODEL 5
REMARK VINA RESULT:    -6.868      8.684     11.464
REMARK INTER + INTRA:          -7.069
REMARK INTER:                  -7.069
REMARK INTRA:                   0.000
REMARK UNBOUND:                 0.000
REMARK SMILES CC1(C)CC[C@]2(C)CC[C@@]3(C)C(=CC[C@H]4[C@]5(C)CC[C@H](O)C(C)(C)[C@@H]5CC[C@]43C)[C@@H]2C1
REMARK SMILES IDX 1 1 2 2 4 3 5 4 6 5 8 6 9 7 10 8 12 9 13 10 14 11 15 12
REMARK SMILES IDX 28 13 27 14 26 15 25 16 16 17 18 18 19 19 20 20 22 21 23 22
REMARK SMILES IDX 24 23 17 24 29 25 30 26 31 27 11 28 7 29 3 30 21 31
REMARK H PARENT 21 32
REMARK Flexibility Score: inf
ROOT
ATOM      1  C   UNL     1     136.686 132.735 149.945  1.00  0.00     0.011 C 
ATOM      2  C   UNL     1     138.068 132.064 150.097  1.00  0.00    -0.035 C 
ATOM      3  C   UNL     1     138.784 132.627 151.363  1.00  0.00     0.007 C 
ATOM      4  C   UNL     1     139.752 133.767 151.022  1.00  0.00     0.008 C 
ATOM      5  C   UNL     1     140.933 133.301 150.105  1.00  0.00    -0.026 C 
ATOM      6  C   UNL     1     141.588 134.572 149.470  1.00  0.00     0.008 C 
ATOM      7  C   UNL     1     141.307 134.740 147.976  1.00  0.00     0.012 C 
ATOM      8  C   UNL     1     141.799 133.525 147.112  1.00  0.00    -0.006 C 
ATOM      9  C   UNL     1     141.139 132.276 147.678  1.00  0.00    -0.064 C 
ATOM     10  C   UNL     1     141.104 131.154 146.948  1.00  0.00    -0.027 C 
ATOM     11  C   UNL     1     141.364 131.091 145.477  1.00  0.00     0.032 C 
ATOM     12  C   UNL     1     141.827 132.390 144.724  1.00  0.00     0.006 C 
ATOM     13  C   UNL     1     141.457 133.702 145.544  1.00  0.00    -0.020 C 
ATOM     14  C   UNL     1     139.935 133.944 145.341  1.00  0.00     0.008 C 
ATOM     15  C   UNL     1     139.476 133.960 143.875  1.00  0.00     0.005 C 
ATOM     16  C   UNL     1     139.825 132.686 143.047  1.00  0.00     0.003 C 
ATOM     17  C   UNL     1     141.362 132.332 143.180  1.00  0.00    -0.025 C 
ATOM     18  C   UNL     1     142.187 133.299 142.269  1.00  0.00     0.010 C 
ATOM     19  C   UNL     1     141.731 133.339 140.799  1.00  0.00     0.033 C 
ATOM     20  C   UNL     1     140.239 133.690 140.655  1.00  0.00     0.120 C 
ATOM     21  C   UNL     1     139.299 132.800 141.541  1.00  0.00    -0.006 C 
ATOM     22  C   UNL     1     139.153 131.388 140.892  1.00  0.00     0.014 C 
ATOM     23  C   UNL     1     137.862 133.403 141.492  1.00  0.00     0.014 C 
ATOM     24  C   UNL     1     141.674 130.878 142.674  1.00  0.00     0.012 C 
ATOM     25  C   UNL     1     142.272 134.933 145.007  1.00  0.00     0.012 C 
ATOM     26  C   UNL     1     140.426 132.247 149.038  1.00  0.00     0.022 C 
ATOM     27  C   UNL     1     138.896 132.332 148.803  1.00  0.00     0.015 C 
ATOM     28  C   UNL     1     143.338 133.349 147.312  1.00  0.00     0.017 C 
ATOM     29  C   UNL     1     142.001 132.621 151.006  1.00  0.00     0.012 C 
ATOM     30  C   UNL     1     137.846 130.543 150.271  1.00  0.00     0.011 C 
ENDROOT
BRANCH  20  31
ATOM     31  O   UNL     1     140.065 135.053 140.954  1.00  0.00    -0.393 OA
ATOM     32  H   UNL     1     140.941 135.403 141.258  1.00  0.00     0.210 HD
ENDBRANCH  20  31
TORSDOF 1
ENDMDL
MODEL 6
REMARK VINA RESULT:    -6.794     10.329     14.855
REMARK INTER + INTRA:          -6.993
REMARK INTER:                  -6.993
REMARK INTRA:                   0.000
REMARK UNBOUND:                 0.000
REMARK SMILES CC1(C)CC[C@]2(C)CC[C@@]3(C)C(=CC[C@H]4[C@]5(C)CC[C@H](O)C(C)(C)[C@@H]5CC[C@]43C)[C@@H]2C1
REMARK SMILES IDX 1 1 2 2 4 3 5 4 6 5 8 6 9 7 10 8 12 9 13 10 14 11 15 12
REMARK SMILES IDX 28 13 27 14 26 15 25 16 16 17 18 18 19 19 20 20 22 21 23 22
REMARK SMILES IDX 24 23 17 24 29 25 30 26 31 27 11 28 7 29 3 30 21 31
REMARK H PARENT 21 32
REMARK Flexibility Score: inf
ROOT
ATOM      1  C   UNL     1     142.824 130.889 141.578  1.00  0.00     0.011 C 
ATOM      2  C   UNL     1     141.337 130.544 141.347  1.00  0.00    -0.035 C 
ATOM      3  C   UNL     1     140.841 131.225 140.034  1.00  0.00     0.007 C 
ATOM      4  C   UNL     1     140.139 132.561 140.305  1.00  0.00     0.008 C 
ATOM      5  C   UNL     1     138.832 132.395 141.152  1.00  0.00    -0.026 C 
ATOM      6  C   UNL     1     138.447 133.795 141.734  1.00  0.00     0.008 C 
ATOM      7  C   UNL     1     138.672 133.929 143.241  1.00  0.00     0.012 C 
ATOM      8  C   UNL     1     137.868 132.877 144.083  1.00  0.00    -0.006 C 
ATOM      9  C   UNL     1     138.259 131.498 143.571  1.00  0.00    -0.064 C 
ATOM     10  C   UNL     1     137.997 130.414 144.311  1.00  0.00    -0.027 C 
ATOM     11  C   UNL     1     137.644 130.445 145.764  1.00  0.00     0.032 C 
ATOM     12  C   UNL     1     137.446 131.831 146.475  1.00  0.00     0.006 C 
ATOM     13  C   UNL     1     138.149 133.007 145.669  1.00  0.00    -0.020 C 
ATOM     14  C   UNL     1     139.672 132.904 145.963  1.00  0.00     0.008 C 
ATOM     15  C   UNL     1     140.037 132.850 147.453  1.00  0.00     0.005 C 
ATOM     16  C   UNL     1     139.362 131.706 148.270  1.00  0.00     0.003 C 
ATOM     17  C   UNL     1     137.795 131.705 148.045  1.00  0.00    -0.025 C 
ATOM     18  C   UNL     1     137.159 132.854 148.895  1.00  0.00     0.010 C 
ATOM     19  C   UNL     1     137.527 132.823 150.390  1.00  0.00     0.033 C 
ATOM     20  C   UNL     1     139.049 132.831 150.623  1.00  0.00     0.120 C 
ATOM     21  C   UNL     1     139.812 131.733 149.804  1.00  0.00    -0.006 C 
ATOM     22  C   UNL     1     139.596 130.339 150.474  1.00  0.00     0.014 C 
ATOM     23  C   UNL     1     141.343 131.996 149.936  1.00  0.00     0.014 C 
ATOM     24  C   UNL     1     137.132 130.371 148.544  1.00  0.00     0.012 C 
ATOM     25  C   UNL     1     137.605 134.403 146.143  1.00  0.00     0.012 C 
ATOM     26  C   UNL     1     139.025 131.278 142.258  1.00  0.00     0.022 C 
ATOM     27  C   UNL     1     140.518 131.021 142.585  1.00  0.00     0.015 C 
ATOM     28  C   UNL     1     136.343 133.048 143.791  1.00  0.00     0.017 C 
ATOM     29  C   UNL     1     137.692 131.954 140.193  1.00  0.00     0.012 C 
ATOM     30  C   UNL     1     141.218 129.009 141.200  1.00  0.00     0.011 C 
ENDROOT
BRANCH  20  31
ATOM     31  O   UNL     1     139.543 134.113 150.323  1.00  0.00    -0.393 OA
ATOM     32  H   UNL     1     139.992 134.058 149.441  1.00  0.00     0.210 HD
ENDBRANCH  20  31
TORSDOF 1
ENDMDL
MODEL 7
REMARK VINA RESULT:    -6.589      9.181     12.935
REMARK INTER + INTRA:          -6.782
REMARK INTER:                  -6.782
REMARK INTRA:                   0.000
REMARK UNBOUND:                 0.000
REMARK SMILES CC1(C)CC[C@]2(C)CC[C@@]3(C)C(=CC[C@H]4[C@]5(C)CC[C@H](O)C(C)(C)[C@@H]5CC[C@]43C)[C@@H]2C1
REMARK SMILES IDX 1 1 2 2 4 3 5 4 6 5 8 6 9 7 10 8 12 9 13 10 14 11 15 12
REMARK SMILES IDX 28 13 27 14 26 15 25 16 16 17 18 18 19 19 20 20 22 21 23 22
REMARK SMILES IDX 24 23 17 24 29 25 30 26 31 27 11 28 7 29 3 30 21 31
REMARK H PARENT 21 32
REMARK Flexibility Score: inf
ROOT
ATOM      1  C   UNL     1     138.936 139.153 143.792  1.00  0.00     0.011 C 
ATOM      2  C   UNL     1     140.416 138.715 143.819  1.00  0.00    -0.035 C 
ATOM      3  C   UNL     1     140.963 138.635 142.361  1.00  0.00     0.007 C 
ATOM      4  C   UNL     1     140.902 137.209 141.798  1.00  0.00     0.008 C 
ATOM      5  C   UNL     1     141.811 136.209 142.589  1.00  0.00    -0.026 C 
ATOM      6  C   UNL     1     141.356 134.754 142.237  1.00  0.00     0.008 C 
ATOM      7  C   UNL     1     140.630 134.034 143.375  1.00  0.00     0.012 C 
ATOM      8  C   UNL     1     141.492 133.912 144.681  1.00  0.00    -0.006 C 
ATOM      9  C   UNL     1     141.911 135.322 145.076  1.00  0.00    -0.064 C 
ATOM     10  C   UNL     1     142.360 135.559 146.314  1.00  0.00    -0.027 C 
ATOM     11  C   UNL     1     142.184 134.631 147.473  1.00  0.00     0.032 C 
ATOM     12  C   UNL     1     141.536 133.220 147.233  1.00  0.00     0.006 C 
ATOM     13  C   UNL     1     140.695 133.186 145.883  1.00  0.00    -0.020 C 
ATOM     14  C   UNL     1     139.356 133.920 146.172  1.00  0.00     0.008 C 
ATOM     15  C   UNL     1     138.596 133.412 147.406  1.00  0.00     0.005 C 
ATOM     16  C   UNL     1     139.396 133.434 148.744  1.00  0.00     0.003 C 
ATOM     17  C   UNL     1     140.795 132.713 148.574  1.00  0.00    -0.025 C 
ATOM     18  C   UNL     1     140.575 131.165 148.589  1.00  0.00     0.010 C 
ATOM     19  C   UNL     1     139.802 130.640 149.813  1.00  0.00     0.033 C 
ATOM     20  C   UNL     1     138.436 131.328 149.985  1.00  0.00     0.120 C 
ATOM     21  C   UNL     1     138.517 132.894 149.965  1.00  0.00    -0.006 C 
ATOM     22  C   UNL     1     139.081 133.404 151.329  1.00  0.00     0.014 C 
ATOM     23  C   UNL     1     137.066 133.461 149.906  1.00  0.00     0.014 C 
ATOM     24  C   UNL     1     141.767 133.031 149.767  1.00  0.00     0.012 C 
ATOM     25  C   UNL     1     140.411 131.703 145.449  1.00  0.00     0.012 C 
ATOM     26  C   UNL     1     141.773 136.530 144.139  1.00  0.00     0.022 C 
ATOM     27  C   UNL     1     140.514 137.338 144.544  1.00  0.00     0.015 C 
ATOM     28  C   UNL     1     142.804 133.130 144.354  1.00  0.00     0.017 C 
ATOM     29  C   UNL     1     143.270 136.382 142.081  1.00  0.00     0.012 C 
ATOM     30  C   UNL     1     141.217 139.778 144.605  1.00  0.00     0.011 C 
ENDROOT
BRANCH  20  31
ATOM     31  O   UNL     1     137.566 130.859 148.985  1.00  0.00    -0.393 OA
ATOM     32  H   UNL     1     137.147 130.026 149.323  1.00  0.00     0.210 HD
ENDBRANCH  20  31
TORSDOF 1
ENDMDL
MODEL 8
REMARK VINA RESULT:    -6.437      9.916     13.882
REMARK INTER + INTRA:          -6.625
REMARK INTER:                  -6.625
REMARK INTRA:                   0.000
REMARK UNBOUND:                 0.000
REMARK SMILES CC1(C)CC[C@]2(C)CC[C@@]3(C)C(=CC[C@H]4[C@]5(C)CC[C@H](O)C(C)(C)[C@@H]5CC[C@]43C)[C@@H]2C1
REMARK SMILES IDX 1 1 2 2 4 3 5 4 6 5 8 6 9 7 10 8 12 9 13 10 14 11 15 12
REMARK SMILES IDX 28 13 27 14 26 15 25 16 16 17 18 18 19 19 20 20 22 21 23 22
REMARK SMILES IDX 24 23 17 24 29 25 30 26 31 27 11 28 7 29 3 30 21 31
REMARK H PARENT 21 32
REMARK Flexibility Score: inf
ROOT
ATOM      1  C   UNL     1     140.919 129.162 141.684  1.00  0.00     0.011 C 
ATOM      2  C   UNL     1     140.029 130.413 141.525  1.00  0.00    -0.035 C 
ATOM      3  C   UNL     1     140.601 131.319 140.391  1.00  0.00     0.007 C 
ATOM      4  C   UNL     1     141.493 132.439 140.940  1.00  0.00     0.008 C 
ATOM      5  C   UNL     1     140.710 133.440 141.854  1.00  0.00    -0.026 C 
ATOM      6  C   UNL     1     141.752 134.253 142.693  1.00  0.00     0.008 C 
ATOM      7  C   UNL     1     141.785 133.882 144.177  1.00  0.00     0.012 C 
ATOM      8  C   UNL     1     140.404 134.081 144.896  1.00  0.00    -0.006 C 
ATOM      9  C   UNL     1     139.376 133.262 144.129  1.00  0.00    -0.064 C 
ATOM     10  C   UNL     1     138.199 132.971 144.697  1.00  0.00    -0.027 C 
ATOM     11  C   UNL     1     137.910 133.094 146.159  1.00  0.00     0.032 C 
ATOM     12  C   UNL     1     139.000 133.712 147.106  1.00  0.00     0.006 C 
ATOM     13  C   UNL     1     140.448 133.647 146.451  1.00  0.00    -0.020 C 
ATOM     14  C   UNL     1     140.939 132.179 146.594  1.00  0.00     0.008 C 
ATOM     15  C   UNL     1     140.860 131.610 148.018  1.00  0.00     0.005 C 
ATOM     16  C   UNL     1     139.453 131.661 148.686  1.00  0.00     0.003 C 
ATOM     17  C   UNL     1     138.841 133.118 148.598  1.00  0.00    -0.025 C 
ATOM     18  C   UNL     1     139.520 134.021 149.679  1.00  0.00     0.010 C 
ATOM     19  C   UNL     1     139.464 133.458 151.111  1.00  0.00     0.033 C 
ATOM     20  C   UNL     1     140.063 132.044 151.212  1.00  0.00     0.120 C 
ATOM     21  C   UNL     1     139.477 131.040 150.160  1.00  0.00    -0.006 C 
ATOM     22  C   UNL     1     138.047 130.597 150.603  1.00  0.00     0.014 C 
ATOM     23  C   UNL     1     140.322 129.731 150.204  1.00  0.00     0.014 C 
ATOM     24  C   UNL     1     137.303 133.129 148.921  1.00  0.00     0.012 C 
ATOM     25  C   UNL     1     141.434 134.617 147.196  1.00  0.00     0.012 C 
ATOM     26  C   UNL     1     139.645 132.670 142.738  1.00  0.00     0.022 C 
ATOM     27  C   UNL     1     139.980 131.165 142.890  1.00  0.00     0.015 C 
ATOM     28  C   UNL     1     139.974 135.577 144.766  1.00  0.00     0.017 C 
ATOM     29  C   UNL     1     139.960 134.445 140.935  1.00  0.00     0.012 C 
ATOM     30  C   UNL     1     138.608 129.944 141.134  1.00  0.00     0.011 C 
ENDROOT
BRANCH  20  31
ATOM     31  O   UNL     1     141.461 132.137 151.090  1.00  0.00    -0.393 OA
ATOM     32  H   UNL     1     141.660 132.394 150.154  1.00  0.00     0.210 HD
ENDBRANCH  20  31
TORSDOF 1
ENDMDL
MODEL 9
REMARK VINA RESULT:    -6.339      9.014     12.002
REMARK INTER + INTRA:          -6.524
REMARK INTER:                  -6.524
REMARK INTRA:                   0.000
REMARK UNBOUND:                 0.000
REMARK SMILES CC1(C)CC[C@]2(C)CC[C@@]3(C)C(=CC[C@H]4[C@]5(C)CC[C@H](O)C(C)(C)[C@@H]5CC[C@]43C)[C@@H]2C1
REMARK SMILES IDX 1 1 2 2 4 3 5 4 6 5 8 6 9 7 10 8 12 9 13 10 14 11 15 12
REMARK SMILES IDX 28 13 27 14 26 15 25 16 16 17 18 18 19 19 20 20 22 21 23 22
REMARK SMILES IDX 24 23 17 24 29 25 30 26 31 27 11 28 7 29 3 30 21 31
REMARK H PARENT 21 32
REMARK Flexibility Score: inf
ROOT
ATOM      1  C   UNL     1     143.317 130.219 149.652  1.00  0.00     0.011 C 
ATOM      2  C   UNL     1     142.548 131.525 149.949  1.00  0.00    -0.035 C 
ATOM      3  C   UNL     1     141.616 131.313 151.182  1.00  0.00     0.007 C 
ATOM      4  C   UNL     1     140.182 130.959 150.769  1.00  0.00     0.008 C 
ATOM      5  C   UNL     1     139.483 132.112 149.971  1.00  0.00    -0.026 C 
ATOM      6  C   UNL     1     138.238 131.511 149.237  1.00  0.00     0.008 C 
ATOM      7  C   UNL     1     138.404 131.394 147.720  1.00  0.00     0.012 C 
ATOM      8  C   UNL     1     138.694 132.769 147.021  1.00  0.00    -0.006 C 
ATOM      9  C   UNL     1     139.932 133.357 147.684  1.00  0.00    -0.064 C 
ATOM     10  C   UNL     1     140.604 134.345 147.080  1.00  0.00    -0.027 C 
ATOM     11  C   UNL     1     140.451 134.718 145.641  1.00  0.00     0.032 C 
ATOM     12  C   UNL     1     139.352 134.001 144.776  1.00  0.00     0.006 C 
ATOM     13  C   UNL     1     138.906 132.620 145.427  1.00  0.00    -0.020 C 
ATOM     14  C   UNL     1     140.033 131.595 145.120  1.00  0.00     0.008 C 
ATOM     15  C   UNL     1     140.430 131.499 143.639  1.00  0.00     0.005 C 
ATOM     16  C   UNL     1     140.872 132.838 142.974  1.00  0.00     0.003 C 
ATOM     17  C   UNL     1     139.797 133.972 143.225  1.00  0.00    -0.025 C 
ATOM     18  C   UNL     1     138.588 133.750 142.258  1.00  0.00     0.010 C 
ATOM     19  C   UNL     1     138.970 133.637 140.771  1.00  0.00     0.033 C 
ATOM     20  C   UNL     1     140.010 132.532 140.512  1.00  0.00     0.120 C 
ATOM     21  C   UNL     1     141.270 132.630 141.439  1.00  0.00    -0.006 C 
ATOM     22  C   UNL     1     142.195 133.785 140.941  1.00  0.00     0.014 C 
ATOM     23  C   UNL     1     142.122 131.338 141.250  1.00  0.00     0.014 C 
ATOM     24  C   UNL     1     140.364 135.401 142.897  1.00  0.00     0.012 C 
ATOM     25  C   UNL     1     137.550 132.130 144.803  1.00  0.00     0.012 C 
ATOM     26  C   UNL     1     140.513 132.820 149.000  1.00  0.00     0.022 C 
ATOM     27  C   UNL     1     141.736 131.922 148.678  1.00  0.00     0.015 C 
ATOM     28  C   UNL     1     137.516 133.750 147.319  1.00  0.00     0.017 C 
ATOM     29  C   UNL     1     138.964 133.159 150.995  1.00  0.00     0.012 C 
ATOM     30  C   UNL     1     143.582 132.627 150.275  1.00  0.00     0.011 C 
ENDROOT
BRANCH  20  31
ATOM     31  O   UNL     1     139.382 131.281 140.651  1.00  0.00    -0.393 OA
ATOM     32  H   UNL     1     139.269 131.113 141.622  1.00  0.00     0.210 HD
ENDBRANCH  20  31
TORSDOF 1
ENDMDL
