MODEL 1
REMARK VINA RESULT:    -7.202      0.000      0.000
REMARK INTER + INTRA:          -8.751
REMARK INTER:                  -8.465
REMARK INTRA:                  -0.286
REMARK UNBOUND:                -0.286
REMARK SMILES O=c1c(O)c(-c2ccc(O)cc2)oc2cc(O)cc(O)c12
REMARK SMILES IDX 5 1 3 2 2 3 1 4 21 5 19 6 18 7 16 8 15 9 14 10 13 11 6 12
REMARK SMILES IDX 7 13 8 14 9 15 12 16 11 17 10 18 4 20 20 22 17 24
REMARK H PARENT 10 19 4 21 20 23 17 25
REMARK Flexibility Score: inf
ROOT
ATOM      1  C   UNL     1      23.315  63.576  31.010  1.00  0.00     0.180 A 
ATOM      2  C   UNL     1      22.353  63.710  32.030  1.00  0.00     0.208 A 
ATOM      3  C   UNL     1      22.696  63.334  33.339  1.00  0.00     0.238 A 
ATOM      4  O   UNL     1      21.847  63.461  34.262  1.00  0.00    -0.285 OA
ATOM      5  C   UNL     1      23.980  62.813  33.601  1.00  0.00     0.111 A 
ATOM      6  C   UNL     1      24.402  62.406  34.888  1.00  0.00     0.134 A 
ATOM      7  C   UNL     1      25.694  61.888  35.067  1.00  0.00     0.093 A 
ATOM      8  C   UNL     1      26.568  61.768  33.985  1.00  0.00     0.123 A 
ATOM      9  C   UNL     1      26.157  62.168  32.709  1.00  0.00     0.094 A 
ATOM     10  C   UNL     1      24.874  62.689  32.512  1.00  0.00     0.146 A 
ATOM     11  O   UNL     1      24.511  63.066  31.292  1.00  0.00    -0.452 OA
ENDROOT
BRANCH   1  12
ATOM     12  C   UNL     1      23.037  63.968  29.609  1.00  0.00     0.021 A 
ATOM     13  C   UNL     1      23.144  65.307  29.188  1.00  0.00     0.016 A 
ATOM     14  C   UNL     1      22.900  65.650  27.854  1.00  0.00     0.047 A 
ATOM     15  C   UNL     1      22.561  64.660  26.924  1.00  0.00     0.115 A 
ATOM     16  C   UNL     1      22.716  62.980  28.664  1.00  0.00     0.016 A 
ATOM     17  C   UNL     1      22.472  63.325  27.332  1.00  0.00     0.047 A 
BRANCH  15  18
ATOM     18  O   UNL     1      22.314  64.990  25.593  1.00  0.00    -0.508 OA
ATOM     19  H   UNL     1      21.403  64.851  25.173  1.00  0.00     0.293 HD
ENDBRANCH  15  18
ENDBRANCH   1  12
BRANCH   2  20
ATOM     20  O   UNL     1      21.072  64.183  31.735  1.00  0.00    -0.502 OA
ATOM     21  H   UNL     1      20.569  64.808  32.354  1.00  0.00     0.293 HD
ENDBRANCH   2  20
BRANCH   6  22
ATOM     22  O   UNL     1      23.551  62.512  35.991  1.00  0.00    -0.507 OA
ATOM     23  H   UNL     1      23.888  62.390  36.938  1.00  0.00     0.293 HD
ENDBRANCH   6  22
BRANCH   8  24
ATOM     24  O   UNL     1      27.845  61.250  34.188  1.00  0.00    -0.508 OA
ATOM     25  H   UNL     1      28.378  61.464  35.023  1.00  0.00     0.293 HD
ENDBRANCH   8  24
TORSDOF 5
ENDMDL
MODEL 2
REMARK VINA RESULT:    -7.140      1.539      1.811
REMARK INTER + INTRA:          -8.679
REMARK INTER:                  -8.383
REMARK INTRA:                  -0.296
REMARK UNBOUND:                -0.286
REMARK SMILES O=c1c(O)c(-c2ccc(O)cc2)oc2cc(O)cc(O)c12
REMARK SMILES IDX 5 1 3 2 2 3 1 4 21 5 19 6 18 7 16 8 15 9 14 10 13 11 6 12
REMARK SMILES IDX 7 13 8 14 9 15 12 16 11 17 10 18 4 20 20 22 17 24
REMARK H PARENT 10 19 4 21 20 23 17 25
REMARK Flexibility Score: inf
ROOT
ATOM      1  C   UNL     1      23.141  63.004  32.034  1.00  0.00     0.180 A 
ATOM      2  C   UNL     1      22.730  63.282  33.352  1.00  0.00     0.208 A 
ATOM      3  C   UNL     1      23.624  63.036  34.407  1.00  0.00     0.238 A 
ATOM      4  O   UNL     1      23.271  63.292  35.590  1.00  0.00    -0.285 OA
ATOM      5  C   UNL     1      24.898  62.499  34.130  1.00  0.00     0.111 A 
ATOM      6  C   UNL     1      25.854  62.217  35.135  1.00  0.00     0.134 A 
ATOM      7  C   UNL     1      27.098  61.674  34.780  1.00  0.00     0.093 A 
ATOM      8  C   UNL     1      27.403  61.407  33.444  1.00  0.00     0.123 A 
ATOM      9  C   UNL     1      26.462  61.683  32.446  1.00  0.00     0.094 A 
ATOM     10  C   UNL     1      25.218  62.226  32.780  1.00  0.00     0.146 A 
ATOM     11  O   UNL     1      24.345  62.483  31.813  1.00  0.00    -0.452 OA
ENDROOT
BRANCH   1  12
ATOM     12  C   UNL     1      22.264  63.253  30.867  1.00  0.00     0.021 A 
ATOM     13  C   UNL     1      22.223  64.511  30.237  1.00  0.00     0.016 A 
ATOM     14  C   UNL     1      21.405  64.716  29.121  1.00  0.00     0.047 A 
ATOM     15  C   UNL     1      20.630  63.666  28.614  1.00  0.00     0.115 A 
ATOM     16  C   UNL     1      21.499  62.200  30.338  1.00  0.00     0.016 A 
ATOM     17  C   UNL     1      20.682  62.408  29.224  1.00  0.00     0.047 A 
BRANCH  15  18
ATOM     18  O   UNL     1      19.811  63.859  27.503  1.00  0.00    -0.508 OA
ATOM     19  H   UNL     1      18.849  63.542  27.494  1.00  0.00     0.293 HD
ENDBRANCH  15  18
ENDBRANCH   1  12
BRANCH   2  20
ATOM     20  O   UNL     1      21.445  63.767  33.604  1.00  0.00    -0.502 OA
ATOM     21  H   UNL     1      20.843  63.368  34.314  1.00  0.00     0.293 HD
ENDBRANCH   2  20
BRANCH   6  22
ATOM     22  O   UNL     1      25.580  62.473  36.480  1.00  0.00    -0.507 OA
ATOM     23  H   UNL     1      25.945  61.884  37.220  1.00  0.00     0.293 HD
ENDBRANCH   6  22
BRANCH   8  24
ATOM     24  O   UNL     1      28.644  60.867  33.117  1.00  0.00    -0.508 OA
ATOM     25  H   UNL     1      28.758  60.234  32.333  1.00  0.00     0.293 HD
ENDBRANCH   8  24
TORSDOF 5
ENDMDL
MODEL 3
REMARK VINA RESULT:    -7.135      1.292      6.471
REMARK INTER + INTRA:          -8.673
REMARK INTER:                  -8.944
REMARK INTRA:                   0.270
REMARK UNBOUND:                -0.286
REMARK SMILES O=c1c(O)c(-c2ccc(O)cc2)oc2cc(O)cc(O)c12
REMARK SMILES IDX 5 1 3 2 2 3 1 4 21 5 19 6 18 7 16 8 15 9 14 10 13 11 6 12
REMARK SMILES IDX 7 13 8 14 9 15 12 16 11 17 10 18 4 20 20 22 17 24
REMARK H PARENT 10 19 4 21 20 23 17 25
REMARK Flexibility Score: inf
ROOT
ATOM      1  C   UNL     1      23.433  62.924  32.009  1.00  0.00     0.180 A 
ATOM      2  C   UNL     1      22.172  63.421  32.394  1.00  0.00     0.208 A 
ATOM      3  C   UNL     1      21.265  63.813  31.397  1.00  0.00     0.238 A 
ATOM      4  O   UNL     1      20.129  64.249  31.729  1.00  0.00    -0.285 OA
ATOM      5  C   UNL     1      21.638  63.722  30.040  1.00  0.00     0.111 A 
ATOM      6  C   UNL     1      20.785  64.101  28.976  1.00  0.00     0.134 A 
ATOM      7  C   UNL     1      21.234  63.989  27.651  1.00  0.00     0.093 A 
ATOM      8  C   UNL     1      22.514  63.510  27.371  1.00  0.00     0.123 A 
ATOM      9  C   UNL     1      23.362  63.134  28.418  1.00  0.00     0.094 A 
ATOM     10  C   UNL     1      22.933  63.236  29.745  1.00  0.00     0.146 A 
ATOM     11  O   UNL     1      23.755  62.867  30.720  1.00  0.00    -0.452 OA
ENDROOT
BRANCH   1  12
ATOM     12  C   UNL     1      24.437  62.472  32.999  1.00  0.00     0.021 A 
ATOM     13  C   UNL     1      24.050  61.926  34.238  1.00  0.00     0.016 A 
ATOM     14  C   UNL     1      25.017  61.484  35.148  1.00  0.00     0.047 A 
ATOM     15  C   UNL     1      26.377  61.570  34.827  1.00  0.00     0.115 A 
ATOM     16  C   UNL     1      25.803  62.535  32.678  1.00  0.00     0.016 A 
ATOM     17  C   UNL     1      26.766  62.094  33.589  1.00  0.00     0.047 A 
BRANCH  15  18
ATOM     18  O   UNL     1      27.348  61.133  35.726  1.00  0.00    -0.508 OA
ATOM     19  H   UNL     1      27.232  61.247  36.725  1.00  0.00     0.293 HD
ENDBRANCH  15  18
ENDBRANCH   1  12
BRANCH   2  20
ATOM     20  O   UNL     1      21.845  63.547  33.746  1.00  0.00    -0.502 OA
ATOM     21  H   UNL     1      20.928  63.841  34.058  1.00  0.00     0.293 HD
ENDBRANCH   2  20
BRANCH   6  22
ATOM     22  O   UNL     1      19.499  64.586  29.223  1.00  0.00    -0.507 OA
ATOM     23  H   UNL     1      18.673  64.089  28.911  1.00  0.00     0.293 HD
ENDBRANCH   6  22
BRANCH   8  24
ATOM     24  O   UNL     1      22.936  63.409  26.047  1.00  0.00    -0.508 OA
ATOM     25  H   UNL     1      23.907  63.543  25.788  1.00  0.00     0.293 HD
ENDBRANCH   8  24
TORSDOF 5
ENDMDL
MODEL 4
REMARK VINA RESULT:    -7.129      2.277      3.249
REMARK INTER + INTRA:          -8.666
REMARK INTER:                  -8.405
REMARK INTRA:                  -0.261
REMARK UNBOUND:                -0.286
REMARK SMILES O=c1c(O)c(-c2ccc(O)cc2)oc2cc(O)cc(O)c12
REMARK SMILES IDX 5 1 3 2 2 3 1 4 21 5 19 6 18 7 16 8 15 9 14 10 13 11 6 12
REMARK SMILES IDX 7 13 8 14 9 15 12 16 11 17 10 18 4 20 20 22 17 24
REMARK H PARENT 10 19 4 21 20 23 17 25
REMARK Flexibility Score: inf
ROOT
ATOM      1  C   UNL     1      23.081  62.829  32.465  1.00  0.00     0.180 A 
ATOM      2  C   UNL     1      23.520  63.106  33.775  1.00  0.00     0.208 A 
ATOM      3  C   UNL     1      24.459  62.251  34.372  1.00  0.00     0.238 A 
ATOM      4  O   UNL     1      24.867  62.496  35.539  1.00  0.00    -0.285 OA
ATOM      5  C   UNL     1      24.927  61.125  33.662  1.00  0.00     0.111 A 
ATOM      6  C   UNL     1      25.868  60.212  34.192  1.00  0.00     0.134 A 
ATOM      7  C   UNL     1      26.277  59.110  33.426  1.00  0.00     0.093 A 
ATOM      8  C   UNL     1      25.763  58.904  32.145  1.00  0.00     0.123 A 
ATOM      9  C   UNL     1      24.833  59.803  31.615  1.00  0.00     0.094 A 
ATOM     10  C   UNL     1      24.414  60.908  32.362  1.00  0.00     0.146 A 
ATOM     11  O   UNL     1      23.533  61.750  31.832  1.00  0.00    -0.452 OA
ENDROOT
BRANCH   1  12
ATOM     12  C   UNL     1      22.108  63.693  31.761  1.00  0.00     0.021 A 
ATOM     13  C   UNL     1      22.521  64.615  30.780  1.00  0.00     0.016 A 
ATOM     14  C   UNL     1      21.580  65.404  30.111  1.00  0.00     0.047 A 
ATOM     15  C   UNL     1      20.216  65.273  30.402  1.00  0.00     0.115 A 
ATOM     16  C   UNL     1      20.736  63.554  32.032  1.00  0.00     0.016 A 
ATOM     17  C   UNL     1      19.798  64.345  31.362  1.00  0.00     0.047 A 
BRANCH  15  18
ATOM     18  O   UNL     1      19.270  66.054  29.742  1.00  0.00    -0.508 OA
ATOM     19  H   UNL     1      18.277  65.925  29.896  1.00  0.00     0.293 HD
ENDBRANCH  15  18
ENDBRANCH   1  12
BRANCH   2  20
ATOM     20  O   UNL     1      23.004  64.200  34.475  1.00  0.00    -0.502 OA
ATOM     21  H   UNL     1      22.705  64.134  35.440  1.00  0.00     0.293 HD
ENDBRANCH   2  20
BRANCH   6  22
ATOM     22  O   UNL     1      26.400  60.390  35.471  1.00  0.00    -0.507 OA
ATOM     23  H   UNL     1      26.951  61.206  35.711  1.00  0.00     0.293 HD
ENDBRANCH   6  22
BRANCH   8  24
ATOM     24  O   UNL     1      26.185  57.801  31.405  1.00  0.00    -0.508 OA
ATOM     25  H   UNL     1      26.775  57.905  30.587  1.00  0.00     0.293 HD
ENDBRANCH   8  24
TORSDOF 5
ENDMDL
MODEL 5
REMARK VINA RESULT:    -6.996      2.208      3.797
REMARK INTER + INTRA:          -8.509
REMARK INTER:                  -8.609
REMARK INTRA:                   0.100
REMARK UNBOUND:                -0.286
REMARK SMILES O=c1c(O)c(-c2ccc(O)cc2)oc2cc(O)cc(O)c12
REMARK SMILES IDX 5 1 3 2 2 3 1 4 21 5 19 6 18 7 16 8 15 9 14 10 13 11 6 12
REMARK SMILES IDX 7 13 8 14 9 15 12 16 11 17 10 18 4 20 20 22 17 24
REMARK H PARENT 10 19 4 21 20 23 17 25
REMARK Flexibility Score: inf
ROOT
ATOM      1  C   UNL     1      23.237  63.838  28.235  1.00  0.00     0.180 A 
ATOM      2  C   UNL     1      21.856  64.113  28.287  1.00  0.00     0.208 A 
ATOM      3  C   UNL     1      21.205  64.083  29.530  1.00  0.00     0.238 A 
ATOM      4  O   UNL     1      19.972  64.339  29.590  1.00  0.00    -0.285 OA
ATOM      5  C   UNL     1      21.935  63.759  30.692  1.00  0.00     0.111 A 
ATOM      6  C   UNL     1      21.354  63.702  31.981  1.00  0.00     0.134 A 
ATOM      7  C   UNL     1      22.146  63.363  33.088  1.00  0.00     0.093 A 
ATOM      8  C   UNL     1      23.504  63.079  32.932  1.00  0.00     0.123 A 
ATOM      9  C   UNL     1      24.085  63.134  31.660  1.00  0.00     0.094 A 
ATOM     10  C   UNL     1      23.312  63.471  30.545  1.00  0.00     0.146 A 
ATOM     11  O   UNL     1      23.890  63.521  29.350  1.00  0.00    -0.452 OA
ENDROOT
BRANCH   1  12
ATOM     12  C   UNL     1      23.999  63.868  26.966  1.00  0.00     0.021 A 
ATOM     13  C   UNL     1      23.811  64.896  26.023  1.00  0.00     0.016 A 
ATOM     14  C   UNL     1      24.560  64.917  24.842  1.00  0.00     0.047 A 
ATOM     15  C   UNL     1      25.514  63.921  24.595  1.00  0.00     0.115 A 
ATOM     16  C   UNL     1      24.972  62.885  26.720  1.00  0.00     0.016 A 
ATOM     17  C   UNL     1      25.718  62.908  25.538  1.00  0.00     0.047 A 
BRANCH  15  18
ATOM     18  O   UNL     1      26.265  63.931  23.422  1.00  0.00    -0.508 OA
ATOM     19  H   UNL     1      27.277  63.960  23.442  1.00  0.00     0.293 HD
ENDBRANCH  15  18
ENDBRANCH   1  12
BRANCH   2  20
ATOM     20  O   UNL     1      21.146  64.383  27.115  1.00  0.00    -0.502 OA
ATOM     21  H   UNL     1      21.068  65.316  26.730  1.00  0.00     0.293 HD
ENDBRANCH   2  20
BRANCH   6  22
ATOM     22  O   UNL     1      19.998  63.980  32.171  1.00  0.00    -0.507 OA
ATOM     23  H   UNL     1      19.451  64.469  31.472  1.00  0.00     0.293 HD
ENDBRANCH   6  22
BRANCH   8  24
ATOM     24  O   UNL     1      24.269  62.744  34.047  1.00  0.00    -0.508 OA
ATOM     25  H   UNL     1      23.856  62.667  34.969  1.00  0.00     0.293 HD
ENDBRANCH   8  24
TORSDOF 5
ENDMDL
MODEL 6
REMARK VINA RESULT:    -6.983      1.868      3.479
REMARK INTER + INTRA:          -8.494
REMARK INTER:                  -8.203
REMARK INTRA:                  -0.291
REMARK UNBOUND:                -0.286
REMARK SMILES O=c1c(O)c(-c2ccc(O)cc2)oc2cc(O)cc(O)c12
REMARK SMILES IDX 5 1 3 2 2 3 1 4 21 5 19 6 18 7 16 8 15 9 14 10 13 11 6 12
REMARK SMILES IDX 7 13 8 14 9 15 12 16 11 17 10 18 4 20 20 22 17 24
REMARK H PARENT 10 19 4 21 20 23 17 25
REMARK Flexibility Score: inf
ROOT
ATOM      1  C   UNL     1      24.171  61.986  31.320  1.00  0.00     0.180 A 
ATOM      2  C   UNL     1      25.456  61.549  31.700  1.00  0.00     0.208 A 
ATOM      3  C   UNL     1      25.831  61.639  33.049  1.00  0.00     0.238 A 
ATOM      4  O   UNL     1      26.974  61.240  33.403  1.00  0.00    -0.285 OA
ATOM      5  C   UNL     1      24.929  62.179  33.989  1.00  0.00     0.111 A 
ATOM      6  C   UNL     1      25.231  62.309  35.365  1.00  0.00     0.134 A 
ATOM      7  C   UNL     1      24.283  62.866  36.237  1.00  0.00     0.093 A 
ATOM      8  C   UNL     1      23.044  63.297  35.759  1.00  0.00     0.123 A 
ATOM      9  C   UNL     1      22.739  63.171  34.400  1.00  0.00     0.094 A 
ATOM     10  C   UNL     1      23.670  62.617  33.516  1.00  0.00     0.146 A 
ATOM     11  O   UNL     1      23.354  62.504  32.231  1.00  0.00    -0.452 OA
ENDROOT
BRANCH   1  12
ATOM     12  C   UNL     1      23.695  61.907  29.920  1.00  0.00     0.021 A 
ATOM     13  C   UNL     1      23.893  62.969  29.017  1.00  0.00     0.016 A 
ATOM     14  C   UNL     1      23.456  62.861  27.693  1.00  0.00     0.047 A 
ATOM     15  C   UNL     1      22.829  61.690  27.252  1.00  0.00     0.115 A 
ATOM     16  C   UNL     1      23.084  60.728  29.462  1.00  0.00     0.016 A 
ATOM     17  C   UNL     1      22.647  60.624  28.139  1.00  0.00     0.047 A 
BRANCH  15  18
ATOM     18  O   UNL     1      22.388  61.573  25.935  1.00  0.00    -0.508 OA
ATOM     19  H   UNL     1      21.587  62.091  25.597  1.00  0.00     0.293 HD
ENDBRANCH  15  18
ENDBRANCH   1  12
BRANCH   2  20
ATOM     20  O   UNL     1      26.349  61.063  30.741  1.00  0.00    -0.502 OA
ATOM     21  H   UNL     1      27.345  61.003  30.909  1.00  0.00     0.293 HD
ENDBRANCH   2  20
BRANCH   6  22
ATOM     22  O   UNL     1      26.462  61.889  35.874  1.00  0.00    -0.507 OA
ATOM     23  H   UNL     1      26.747  60.917  35.845  1.00  0.00     0.293 HD
ENDBRANCH   6  22
BRANCH   8  24
ATOM     24  O   UNL     1      22.120  63.847  36.645  1.00  0.00    -0.508 OA
ATOM     25  H   UNL     1      22.242  63.780  37.649  1.00  0.00     0.293 HD
ENDBRANCH   8  24
TORSDOF 5
ENDMDL
MODEL 7
REMARK VINA RESULT:    -6.970     10.649     12.558
REMARK INTER + INTRA:          -8.479
REMARK INTER:                  -8.188
REMARK INTRA:                  -0.291
REMARK UNBOUND:                -0.286
REMARK SMILES O=c1c(O)c(-c2ccc(O)cc2)oc2cc(O)cc(O)c12
REMARK SMILES IDX 5 1 3 2 2 3 1 4 21 5 19 6 18 7 16 8 15 9 14 10 13 11 6 12
REMARK SMILES IDX 7 13 8 14 9 15 12 16 11 17 10 18 4 20 20 22 17 24
REMARK H PARENT 10 19 4 21 20 23 17 25
REMARK Flexibility Score: inf
ROOT
ATOM      1  C   UNL     1      16.670  56.541  26.376  1.00  0.00     0.180 A 
ATOM      2  C   UNL     1      17.377  57.423  25.536  1.00  0.00     0.208 A 
ATOM      3  C   UNL     1      16.921  58.743  25.400  1.00  0.00     0.238 A 
ATOM      4  O   UNL     1      17.553  59.545  24.660  1.00  0.00    -0.285 OA
ATOM      5  C   UNL     1      15.759  59.153  26.086  1.00  0.00     0.111 A 
ATOM      6  C   UNL     1      15.230  60.463  25.999  1.00  0.00     0.134 A 
ATOM      7  C   UNL     1      14.063  60.791  26.706  1.00  0.00     0.093 A 
ATOM      8  C   UNL     1      13.416  59.837  27.494  1.00  0.00     0.123 A 
ATOM      9  C   UNL     1      13.934  58.541  27.584  1.00  0.00     0.094 A 
ATOM     10  C   UNL     1      15.096  58.195  26.889  1.00  0.00     0.146 A 
ATOM     11  O   UNL     1      15.569  56.959  26.995  1.00  0.00    -0.452 OA
ENDROOT
BRANCH   1  12
ATOM     12  C   UNL     1      17.099  55.139  26.586  1.00  0.00     0.021 A 
ATOM     13  C   UNL     1      17.914  54.777  27.675  1.00  0.00     0.016 A 
ATOM     14  C   UNL     1      18.286  53.443  27.867  1.00  0.00     0.047 A 
ATOM     15  C   UNL     1      17.838  52.453  26.983  1.00  0.00     0.115 A 
ATOM     16  C   UNL     1      16.637  54.137  25.717  1.00  0.00     0.016 A 
ATOM     17  C   UNL     1      17.012  52.804  25.910  1.00  0.00     0.047 A 
BRANCH  15  18
ATOM     18  O   UNL     1      18.204  51.121  27.163  1.00  0.00    -0.508 OA
ATOM     19  H   UNL     1      17.595  50.363  26.879  1.00  0.00     0.293 HD
ENDBRANCH  15  18
ENDBRANCH   1  12
BRANCH   2  20
ATOM     20  O   UNL     1      18.498  56.978  24.829  1.00  0.00    -0.502 OA
ATOM     21  H   UNL     1      18.583  57.084  23.825  1.00  0.00     0.293 HD
ENDBRANCH   2  20
BRANCH   6  22
ATOM     22  O   UNL     1      15.853  61.439  25.220  1.00  0.00    -0.507 OA
ATOM     23  H   UNL     1      16.302  61.213  24.340  1.00  0.00     0.293 HD
ENDBRANCH   6  22
BRANCH   8  24
ATOM     24  O   UNL     1      12.258  60.188  28.185  1.00  0.00    -0.508 OA
ATOM     25  H   UNL     1      11.776  61.060  28.003  1.00  0.00     0.293 HD
ENDBRANCH   8  24
TORSDOF 5
ENDMDL
MODEL 8
REMARK VINA RESULT:    -6.948      1.447      2.879
REMARK INTER + INTRA:          -8.453
REMARK INTER:                  -8.312
REMARK INTRA:                  -0.141
REMARK UNBOUND:                -0.286
REMARK SMILES O=c1c(O)c(-c2ccc(O)cc2)oc2cc(O)cc(O)c12
REMARK SMILES IDX 5 1 3 2 2 3 1 4 21 5 19 6 18 7 16 8 15 9 14 10 13 11 6 12
REMARK SMILES IDX 7 13 8 14 9 15 12 16 11 17 10 18 4 20 20 22 17 24
REMARK H PARENT 10 19 4 21 20 23 17 25
REMARK Flexibility Score: inf
ROOT
ATOM      1  C   UNL     1      23.440  63.009  30.624  1.00  0.00     0.180 A 
ATOM      2  C   UNL     1      24.351  61.938  30.720  1.00  0.00     0.208 A 
ATOM      3  C   UNL     1      24.647  61.412  31.988  1.00  0.00     0.238 A 
ATOM      4  O   UNL     1      25.451  60.446  32.085  1.00  0.00    -0.285 OA
ATOM      5  C   UNL     1      24.048  61.975  33.133  1.00  0.00     0.111 A 
ATOM      6  C   UNL     1      24.296  61.507  34.446  1.00  0.00     0.134 A 
ATOM      7  C   UNL     1      23.668  62.127  35.537  1.00  0.00     0.093 A 
ATOM      8  C   UNL     1      22.800  63.203  35.341  1.00  0.00     0.123 A 
ATOM      9  C   UNL     1      22.550  63.670  34.046  1.00  0.00     0.094 A 
ATOM     10  C   UNL     1      23.165  63.065  32.947  1.00  0.00     0.146 A 
ATOM     11  O   UNL     1      22.907  63.524  31.728  1.00  0.00    -0.452 OA
ENDROOT
BRANCH   1  12
ATOM     12  C   UNL     1      23.062  63.606  29.323  1.00  0.00     0.021 A 
ATOM     13  C   UNL     1      23.439  64.920  28.982  1.00  0.00     0.016 A 
ATOM     14  C   UNL     1      23.091  65.454  27.737  1.00  0.00     0.047 A 
ATOM     15  C   UNL     1      22.377  64.680  26.813  1.00  0.00     0.115 A 
ATOM     16  C   UNL     1      22.365  62.831  28.382  1.00  0.00     0.016 A 
ATOM     17  C   UNL     1      22.018  63.368  27.139  1.00  0.00     0.047 A 
BRANCH  15  18
ATOM     18  O   UNL     1      22.025  65.203  25.571  1.00  0.00    -0.508 OA
ATOM     19  H   UNL     1      21.335  64.750  24.983  1.00  0.00     0.293 HD
ENDBRANCH  15  18
ENDBRANCH   1  12
BRANCH   2  20
ATOM     20  O   UNL     1      24.968  61.431  29.574  1.00  0.00    -0.502 OA
ATOM     21  H   UNL     1      24.802  61.816  28.653  1.00  0.00     0.293 HD
ENDBRANCH   2  20
BRANCH   6  22
ATOM     22  O   UNL     1      25.159  60.434  34.675  1.00  0.00    -0.507 OA
ATOM     23  H   UNL     1      25.589  60.279  35.579  1.00  0.00     0.293 HD
ENDBRANCH   6  22
BRANCH   8  24
ATOM     24  O   UNL     1      22.189  63.802  36.441  1.00  0.00    -0.508 OA
ATOM     25  H   UNL     1      21.496  64.533  36.330  1.00  0.00     0.293 HD
ENDBRANCH   8  24
TORSDOF 5
ENDMDL
MODEL 9
REMARK VINA RESULT:    -6.874     10.048     12.239
REMARK INTER + INTRA:          -8.365
REMARK INTER:                  -8.077
REMARK INTRA:                  -0.288
REMARK UNBOUND:                -0.286
REMARK SMILES O=c1c(O)c(-c2ccc(O)cc2)oc2cc(O)cc(O)c12
REMARK SMILES IDX 5 1 3 2 2 3 1 4 21 5 19 6 18 7 16 8 15 9 14 10 13 11 6 12
REMARK SMILES IDX 7 13 8 14 9 15 12 16 11 17 10 18 4 20 20 22 17 24
REMARK H PARENT 10 19 4 21 20 23 17 25
REMARK Flexibility Score: inf
ROOT
ATOM      1  C   UNL     1      17.363  56.276  27.423  1.00  0.00     0.180 A 
ATOM      2  C   UNL     1      18.062  56.444  26.212  1.00  0.00     0.208 A 
ATOM      3  C   UNL     1      17.790  57.572  25.422  1.00  0.00     0.238 A 
ATOM      4  O   UNL     1      18.419  57.738  24.342  1.00  0.00    -0.285 OA
ATOM      5  C   UNL     1      16.813  58.498  25.842  1.00  0.00     0.111 A 
ATOM      6  C   UNL     1      16.476  59.656  25.102  1.00  0.00     0.134 A 
ATOM      7  C   UNL     1      15.485  60.526  25.583  1.00  0.00     0.093 A 
ATOM      8  C   UNL     1      14.826  60.258  26.785  1.00  0.00     0.123 A 
ATOM      9  C   UNL     1      15.155  59.115  27.520  1.00  0.00     0.094 A 
ATOM     10  C   UNL     1      16.141  58.238  27.059  1.00  0.00     0.146 A 
ATOM     11  O   UNL     1      16.437  57.163  27.779  1.00  0.00    -0.452 OA
ENDROOT
BRANCH   1  12
ATOM     12  C   UNL     1      17.607  55.124  28.320  1.00  0.00     0.021 A 
ATOM     13  C   UNL     1      16.853  53.940  28.213  1.00  0.00     0.016 A 
ATOM     14  C   UNL     1      17.118  52.855  29.056  1.00  0.00     0.047 A 
ATOM     15  C   UNL     1      18.146  52.935  30.004  1.00  0.00     0.115 A 
ATOM     16  C   UNL     1      18.649  55.187  29.260  1.00  0.00     0.016 A 
ATOM     17  C   UNL     1      18.910  54.102  30.102  1.00  0.00     0.047 A 
BRANCH  15  18
ATOM     18  O   UNL     1      18.417  51.861  30.849  1.00  0.00    -0.508 OA
ATOM     19  H   UNL     1      17.678  51.269  31.207  1.00  0.00     0.293 HD
ENDBRANCH  15  18
ENDBRANCH   1  12
BRANCH   2  20
ATOM     20  O   UNL     1      18.991  55.487  25.794  1.00  0.00    -0.502 OA
ATOM     21  H   UNL     1      18.724  54.537  25.563  1.00  0.00     0.293 HD
ENDBRANCH   2  20
BRANCH   6  22
ATOM     22  O   UNL     1      17.116  59.951  23.897  1.00  0.00    -0.507 OA
ATOM     23  H   UNL     1      16.765  59.610  23.010  1.00  0.00     0.293 HD
ENDBRANCH   6  22
BRANCH   8  24
ATOM     24  O   UNL     1      13.845  61.137  27.240  1.00  0.00    -0.508 OA
ATOM     25  H   UNL     1      13.808  61.435  28.208  1.00  0.00     0.293 HD
ENDBRANCH   8  24
TORSDOF 5
ENDMDL
