MODEL 1
REMARK VINA RESULT:    -3.912      0.000      0.000
REMARK INTER + INTRA:         -15.594
REMARK INTER:                 -10.315
REMARK INTRA:                  -5.279
REMARK UNBOUND:                -5.279
REMARK SMILES CCCCCCCCCCCCCCCCCCCCCCCCCCCCCC(=O)[O-]
REMARK SMILES IDX 16 1 17 2 18 3 19 4 20 5 21 6 22 7 23 8 24 9 25 10 26 11
REMARK SMILES IDX 27 12 28 13 29 14 30 15 31 16 32 17 15 18 14 19 13 20 12 21
REMARK SMILES IDX 11 22 10 23 9 24 8 25 7 26 6 27 5 28 4 29 3 30 2 31 1 32
REMARK H PARENT
REMARK Flexibility Score: inf
ROOT
ATOM      1  C   UNL     1      33.487  -7.345  20.707  1.00  0.00     0.000 C 
ENDROOT
BRANCH   1   2
ATOM      2  C   UNL     1      32.270  -6.560  20.181  1.00  0.00     0.000 C 
BRANCH   2   3
ATOM      3  C   UNL     1      31.435  -7.284  19.105  1.00  0.00     0.000 C 
BRANCH   3   4
ATOM      4  C   UNL     1      31.793  -6.919  17.650  1.00  0.00     0.000 C 
BRANCH   4   5
ATOM      5  C   UNL     1      31.804  -8.106  16.667  1.00  0.00     0.000 C 
BRANCH   5   6
ATOM      6  C   UNL     1      33.021  -9.046  16.790  1.00  0.00     0.000 C 
BRANCH   6   7
ATOM      7  C   UNL     1      32.713 -10.447  17.353  1.00  0.00     0.000 C 
BRANCH   7   8
ATOM      8  C   UNL     1      32.922 -10.604  18.871  1.00  0.00     0.000 C 
BRANCH   8   9
ATOM      9  C   UNL     1      31.763 -11.324  19.594  1.00  0.00     0.000 C 
BRANCH   9  10
ATOM     10  C   UNL     1      31.816 -12.852  19.417  1.00  0.00     0.000 C 
BRANCH  10  11
ATOM     11  C   UNL     1      30.989 -13.596  20.479  1.00  0.00     0.000 C 
BRANCH  11  12
ATOM     12  C   UNL     1      29.769 -12.785  20.949  1.00  0.00     0.000 C 
BRANCH  12  13
ATOM     13  C   UNL     1      29.379 -13.106  22.402  1.00  0.00     0.006 C 
BRANCH  13  14
ATOM     14  C   UNL     1      27.979 -13.727  22.507  1.00  0.00     0.053 C 
BRANCH  14  15
ATOM     15  C   UNL     1      28.073 -15.212  22.652  1.00  0.00     0.041 C 
ATOM     16  O   UNL     1      28.195 -15.730  23.793  1.00  0.00    -0.550 OA
ATOM     17  O   UNL     1      28.017 -16.027  21.528  1.00  0.00    -0.550 OA
ENDBRANCH  14  15
ENDBRANCH  13  14
ENDBRANCH  12  13
ENDBRANCH  11  12
ENDBRANCH  10  11
ENDBRANCH   9  10
ENDBRANCH   8   9
ENDBRANCH   7   8
ENDBRANCH   6   7
ENDBRANCH   5   6
ENDBRANCH   4   5
ENDBRANCH   3   4
ENDBRANCH   2   3
ENDBRANCH   1   2
BRANCH   1  18
ATOM     18  C   UNL     1      33.875  -7.045  22.166  1.00  0.00     0.000 C 
BRANCH  18  19
ATOM     19  C   UNL     1      33.044  -5.911  22.789  1.00  0.00     0.000 C 
BRANCH  19  20
ATOM     20  C   UNL     1      32.670  -6.194  24.253  1.00  0.00     0.000 C 
BRANCH  20  21
ATOM     21  C   UNL     1      31.147  -6.225  24.473  1.00  0.00     0.000 C 
BRANCH  21  22
ATOM     22  C   UNL     1      30.386  -6.779  23.260  1.00  0.00     0.000 C 
BRANCH  22  23
ATOM     23  C   UNL     1      29.805  -8.182  23.518  1.00  0.00     0.000 C 
BRANCH  23  24
ATOM     24  C   UNL     1      30.330  -9.231  22.523  1.00  0.00    -0.000 C 
BRANCH  24  25
ATOM     25  C   UNL     1      31.718  -9.773  22.911  1.00  0.00    -0.000 C 
BRANCH  25  26
ATOM     26  C   UNL     1      31.848 -10.058  24.415  1.00  0.00    -0.000 C 
BRANCH  26  27
ATOM     27  C   UNL     1      31.645 -11.540  24.761  1.00  0.00    -0.000 C 
BRANCH  27  28
ATOM     28  C   UNL     1      30.461 -11.717  25.726  1.00  0.00    -0.000 C 
BRANCH  28  29
ATOM     29  C   UNL     1      30.678 -11.012  27.077  1.00  0.00    -0.000 C 
BRANCH  29  30
ATOM     30  C   UNL     1      29.513 -10.110  27.537  1.00  0.00    -0.000 C 
BRANCH  30  31
ATOM     31  C   UNL     1      29.637  -8.631  27.137  1.00  0.00    -0.003 C 
ATOM     32  C   UNL     1      30.855  -7.946  27.756  1.00  0.00     0.004 C 
ENDBRANCH  30  31
ENDBRANCH  29  30
ENDBRANCH  28  29
ENDBRANCH  27  28
ENDBRANCH  26  27
ENDBRANCH  25  26
ENDBRANCH  24  25
ENDBRANCH  23  24
ENDBRANCH  22  23
ENDBRANCH  21  22
ENDBRANCH  20  21
ENDBRANCH  19  20
ENDBRANCH  18  19
ENDBRANCH   1  18
TORSDOF 28
ENDMDL
MODEL 2
REMARK VINA RESULT:    -3.896      1.361      2.816
REMARK INTER + INTRA:         -15.553
REMARK INTER:                 -10.124
REMARK INTRA:                  -5.429
REMARK UNBOUND:                -5.279
REMARK SMILES CCCCCCCCCCCCCCCCCCCCCCCCCCCCCC(=O)[O-]
REMARK SMILES IDX 16 1 17 2 18 3 19 4 20 5 21 6 22 7 23 8 24 9 25 10 26 11
REMARK SMILES IDX 27 12 28 13 29 14 30 15 31 16 32 17 15 18 14 19 13 20 12 21
REMARK SMILES IDX 11 22 10 23 9 24 8 25 7 26 6 27 5 28 4 29 3 30 2 31 1 32
REMARK H PARENT
REMARK Flexibility Score: inf
ROOT
ATOM      1  C   UNL     1      30.760  -7.608  21.196  1.00  0.00     0.000 C 
ENDROOT
BRANCH   1   2
ATOM      2  C   UNL     1      32.035  -6.758  21.026  1.00  0.00     0.000 C 
BRANCH   2   3
ATOM      3  C   UNL     1      32.441  -6.465  19.568  1.00  0.00     0.000 C 
BRANCH   3   4
ATOM      4  C   UNL     1      31.539  -7.114  18.499  1.00  0.00     0.000 C 
BRANCH   4   5
ATOM      5  C   UNL     1      32.282  -7.636  17.253  1.00  0.00     0.000 C 
BRANCH   5   6
ATOM      6  C   UNL     1      32.070  -9.133  16.946  1.00  0.00     0.000 C 
BRANCH   6   7
ATOM      7  C   UNL     1      33.133 -10.080  17.536  1.00  0.00     0.000 C 
BRANCH   7   8
ATOM      8  C   UNL     1      33.169 -10.149  19.075  1.00  0.00     0.000 C 
BRANCH   8   9
ATOM      9  C   UNL     1      31.932 -10.827  19.703  1.00  0.00     0.000 C 
BRANCH   9  10
ATOM     10  C   UNL     1      31.700 -12.249  19.160  1.00  0.00     0.000 C 
BRANCH  10  11
ATOM     11  C   UNL     1      31.326 -13.247  20.268  1.00  0.00     0.000 C 
BRANCH  11  12
ATOM     12  C   UNL     1      29.855 -13.692  20.187  1.00  0.00     0.000 C 
BRANCH  12  13
ATOM     13  C   UNL     1      29.207 -13.818  21.576  1.00  0.00     0.006 C 
BRANCH  13  14
ATOM     14  C   UNL     1      27.883 -14.595  21.535  1.00  0.00     0.053 C 
BRANCH  14  15
ATOM     15  C   UNL     1      28.138 -16.057  21.349  1.00  0.00     0.041 C 
ATOM     16  O   UNL     1      27.575 -16.684  20.414  1.00  0.00    -0.550 OA
ATOM     17  O   UNL     1      29.005 -16.727  22.204  1.00  0.00    -0.550 OA
ENDBRANCH  14  15
ENDBRANCH  13  14
ENDBRANCH  12  13
ENDBRANCH  11  12
ENDBRANCH  10  11
ENDBRANCH   9  10
ENDBRANCH   8   9
ENDBRANCH   7   8
ENDBRANCH   6   7
ENDBRANCH   5   6
ENDBRANCH   4   5
ENDBRANCH   3   4
ENDBRANCH   2   3
ENDBRANCH   1   2
BRANCH   1  18
ATOM     18  C   UNL     1      29.986  -7.369  22.505  1.00  0.00     0.000 C 
BRANCH  18  19
ATOM     19  C   UNL     1      30.036  -8.573  23.461  1.00  0.00     0.000 C 
BRANCH  19  20
ATOM     20  C   UNL     1      30.582  -9.839  22.781  1.00  0.00     0.000 C 
BRANCH  20  21
ATOM     21  C   UNL     1      30.353 -11.103  23.628  1.00  0.00     0.000 C 
BRANCH  21  22
ATOM     22  C   UNL     1      31.662 -11.827  23.975  1.00  0.00     0.000 C 
BRANCH  22  23
ATOM     23  C   UNL     1      32.838 -11.378  23.086  1.00  0.00     0.000 C 
BRANCH  23  24
ATOM     24  C   UNL     1      33.878 -10.550  23.859  1.00  0.00    -0.000 C 
BRANCH  24  25
ATOM     25  C   UNL     1      34.333  -9.298  23.086  1.00  0.00    -0.000 C 
BRANCH  25  26
ATOM     26  C   UNL     1      33.904  -7.989  23.767  1.00  0.00    -0.000 C 
BRANCH  26  27
ATOM     27  C   UNL     1      33.733  -8.136  25.287  1.00  0.00    -0.000 C 
BRANCH  27  28
ATOM     28  C   UNL     1      32.496  -7.365  25.773  1.00  0.00    -0.000 C 
BRANCH  28  29
ATOM     29  C   UNL     1      31.892  -7.951  27.062  1.00  0.00    -0.000 C 
BRANCH  29  30
ATOM     30  C   UNL     1      31.705  -9.482  27.059  1.00  0.00    -0.000 C 
BRANCH  30  31
ATOM     31  C   UNL     1      30.244  -9.961  27.065  1.00  0.00    -0.003 C 
ATOM     32  C   UNL     1      29.240  -8.809  27.111  1.00  0.00     0.004 C 
ENDBRANCH  30  31
ENDBRANCH  29  30
ENDBRANCH  28  29
ENDBRANCH  27  28
ENDBRANCH  26  27
ENDBRANCH  25  26
ENDBRANCH  24  25
ENDBRANCH  23  24
ENDBRANCH  22  23
ENDBRANCH  21  22
ENDBRANCH  20  21
ENDBRANCH  19  20
ENDBRANCH  18  19
ENDBRANCH   1  18
TORSDOF 28
ENDMDL
MODEL 3
REMARK VINA RESULT:    -3.886      1.607      3.262
REMARK INTER + INTRA:         -15.526
REMARK INTER:                  -9.863
REMARK INTRA:                  -5.663
REMARK UNBOUND:                -5.279
REMARK SMILES CCCCCCCCCCCCCCCCCCCCCCCCCCCCCC(=O)[O-]
REMARK SMILES IDX 16 1 17 2 18 3 19 4 20 5 21 6 22 7 23 8 24 9 25 10 26 11
REMARK SMILES IDX 27 12 28 13 29 14 30 15 31 16 32 17 15 18 14 19 13 20 12 21
REMARK SMILES IDX 11 22 10 23 9 24 8 25 7 26 6 27 5 28 4 29 3 30 2 31 1 32
REMARK H PARENT
REMARK Flexibility Score: inf
ROOT
ATOM      1  C   UNL     1      34.320  -8.165  20.419  1.00  0.00     0.000 C 
ENDROOT
BRANCH   1   2
ATOM      2  C   UNL     1      35.054  -7.679  19.153  1.00  0.00     0.000 C 
BRANCH   2   3
ATOM      3  C   UNL     1      34.794  -6.209  18.766  1.00  0.00     0.000 C 
BRANCH   3   4
ATOM      4  C   UNL     1      33.667  -5.998  17.735  1.00  0.00     0.000 C 
BRANCH   4   5
ATOM      5  C   UNL     1      32.243  -5.992  18.323  1.00  0.00     0.000 C 
BRANCH   5   6
ATOM      6  C   UNL     1      31.443  -7.294  18.112  1.00  0.00     0.000 C 
BRANCH   6   7
ATOM      7  C   UNL     1      31.945  -8.195  16.967  1.00  0.00     0.000 C 
BRANCH   7   8
ATOM      8  C   UNL     1      32.411  -9.600  17.394  1.00  0.00     0.000 C 
BRANCH   8   9
ATOM      9  C   UNL     1      32.720 -10.546  16.213  1.00  0.00     0.000 C 
BRANCH   9  10
ATOM     10  C   UNL     1      32.890 -12.010  16.660  1.00  0.00     0.000 C 
BRANCH  10  11
ATOM     11  C   UNL     1      32.701 -12.187  18.176  1.00  0.00     0.000 C 
BRANCH  11  12
ATOM     12  C   UNL     1      31.696 -13.301  18.518  1.00  0.00     0.000 C 
BRANCH  12  13
ATOM     13  C   UNL     1      31.235 -13.241  19.984  1.00  0.00     0.006 C 
BRANCH  13  14
ATOM     14  C   UNL     1      29.721 -13.449  20.128  1.00  0.00     0.053 C 
BRANCH  14  15
ATOM     15  C   UNL     1      29.432 -14.561  21.084  1.00  0.00     0.041 C 
ATOM     16  O   UNL     1      28.343 -15.189  21.015  1.00  0.00    -0.550 OA
ATOM     17  O   UNL     1      30.370 -14.913  22.048  1.00  0.00    -0.550 OA
ENDBRANCH  14  15
ENDBRANCH  13  14
ENDBRANCH  12  13
ENDBRANCH  11  12
ENDBRANCH  10  11
ENDBRANCH   9  10
ENDBRANCH   8   9
ENDBRANCH   7   8
ENDBRANCH   6   7
ENDBRANCH   5   6
ENDBRANCH   4   5
ENDBRANCH   3   4
ENDBRANCH   2   3
ENDBRANCH   1   2
BRANCH   1  18
ATOM     18  C   UNL     1      34.653  -9.604  20.854  1.00  0.00     0.000 C 
BRANCH  18  19
ATOM     19  C   UNL     1      33.404 -10.426  21.215  1.00  0.00     0.000 C 
BRANCH  19  20
ATOM     20  C   UNL     1      32.099  -9.651  20.965  1.00  0.00     0.000 C 
BRANCH  20  21
ATOM     21  C   UNL     1      30.975 -10.072  21.928  1.00  0.00     0.000 C 
BRANCH  21  22
ATOM     22  C   UNL     1      30.195  -8.873  22.485  1.00  0.00     0.000 C 
BRANCH  22  23
ATOM     23  C   UNL     1      30.594  -7.545  21.814  1.00  0.00     0.000 C 
BRANCH  23  24
ATOM     24  C   UNL     1      31.105  -6.504  22.823  1.00  0.00    -0.000 C 
BRANCH  24  25
ATOM     25  C   UNL     1      32.642  -6.460  22.904  1.00  0.00    -0.000 C 
BRANCH  25  26
ATOM     26  C   UNL     1      33.154  -6.037  24.290  1.00  0.00    -0.000 C 
BRANCH  26  27
ATOM     27  C   UNL     1      33.945  -7.148  24.998  1.00  0.00    -0.000 C 
BRANCH  27  28
ATOM     28  C   UNL     1      33.701  -8.506  24.321  1.00  0.00    -0.000 C 
BRANCH  28  29
ATOM     29  C   UNL     1      33.021  -9.527  25.251  1.00  0.00    -0.000 C 
BRANCH  29  30
ATOM     30  C   UNL     1      31.910  -8.949  26.153  1.00  0.00    -0.000 C 
BRANCH  30  31
ATOM     31  C   UNL     1      30.513  -9.552  25.933  1.00  0.00    -0.003 C 
ATOM     32  C   UNL     1      30.545 -11.063  25.706  1.00  0.00     0.004 C 
ENDBRANCH  30  31
ENDBRANCH  29  30
ENDBRANCH  28  29
ENDBRANCH  27  28
ENDBRANCH  26  27
ENDBRANCH  25  26
ENDBRANCH  24  25
ENDBRANCH  23  24
ENDBRANCH  22  23
ENDBRANCH  21  22
ENDBRANCH  20  21
ENDBRANCH  19  20
ENDBRANCH  18  19
ENDBRANCH   1  18
TORSDOF 28
ENDMDL
MODEL 4
REMARK VINA RESULT:    -3.875      5.481     10.485
REMARK INTER + INTRA:         -15.497
REMARK INTER:                 -10.930
REMARK INTRA:                  -4.567
REMARK UNBOUND:                -5.279
REMARK SMILES CCCCCCCCCCCCCCCCCCCCCCCCCCCCCC(=O)[O-]
REMARK SMILES IDX 16 1 17 2 18 3 19 4 20 5 21 6 22 7 23 8 24 9 25 10 26 11
REMARK SMILES IDX 27 12 28 13 29 14 30 15 31 16 32 17 15 18 14 19 13 20 12 21
REMARK SMILES IDX 11 22 10 23 9 24 8 25 7 26 6 27 5 28 4 29 3 30 2 31 1 32
REMARK H PARENT
REMARK Flexibility Score: inf
ROOT
ATOM      1  C   UNL     1      31.670 -19.489  22.225  1.00  0.00     0.000 C 
ENDROOT
BRANCH   1   2
ATOM      2  C   UNL     1      30.627 -20.419  21.574  1.00  0.00     0.000 C 
BRANCH   2   3
ATOM      3  C   UNL     1      29.245 -20.437  22.258  1.00  0.00     0.000 C 
BRANCH   3   4
ATOM      4  C   UNL     1      28.544 -21.810  22.271  1.00  0.00     0.000 C 
BRANCH   4   5
ATOM      5  C   UNL     1      29.206 -22.869  23.174  1.00  0.00     0.000 C 
BRANCH   5   6
ATOM      6  C   UNL     1      29.562 -22.386  24.595  1.00  0.00     0.000 C 
BRANCH   6   7
ATOM      7  C   UNL     1      28.675 -22.951  25.722  1.00  0.00     0.000 C 
BRANCH   7   8
ATOM      8  C   UNL     1      27.477 -22.067  26.118  1.00  0.00     0.000 C 
BRANCH   8   9
ATOM      9  C   UNL     1      27.455 -20.688  25.423  1.00  0.00     0.000 C 
BRANCH   9  10
ATOM     10  C   UNL     1      27.422 -19.522  26.428  1.00  0.00     0.000 C 
BRANCH  10  11
ATOM     11  C   UNL     1      28.692 -18.657  26.365  1.00  0.00     0.000 C 
BRANCH  11  12
ATOM     12  C   UNL     1      29.839 -19.232  27.215  1.00  0.00     0.000 C 
BRANCH  12  13
ATOM     13  C   UNL     1      29.337 -19.844  28.534  1.00  0.00     0.006 C 
BRANCH  13  14
ATOM     14  C   UNL     1      30.184 -21.045  28.979  1.00  0.00     0.053 C 
BRANCH  14  15
ATOM     15  C   UNL     1      31.606 -20.635  29.193  1.00  0.00     0.041 C 
ATOM     16  O   UNL     1      31.914 -19.902  30.168  1.00  0.00    -0.550 OA
ATOM     17  O   UNL     1      32.595 -21.070  28.318  1.00  0.00    -0.550 OA
ENDBRANCH  14  15
ENDBRANCH  13  14
ENDBRANCH  12  13
ENDBRANCH  11  12
ENDBRANCH  10  11
ENDBRANCH   9  10
ENDBRANCH   8   9
ENDBRANCH   7   8
ENDBRANCH   6   7
ENDBRANCH   5   6
ENDBRANCH   4   5
ENDBRANCH   3   4
ENDBRANCH   2   3
ENDBRANCH   1   2
BRANCH   1  18
ATOM     18  C   UNL     1      31.445 -19.200  23.719  1.00  0.00     0.000 C 
BRANCH  18  19
ATOM     19  C   UNL     1      31.234 -17.705  24.018  1.00  0.00     0.000 C 
BRANCH  19  20
ATOM     20  C   UNL     1      30.710 -16.932  22.796  1.00  0.00     0.000 C 
BRANCH  20  21
ATOM     21  C   UNL     1      29.183 -16.746  22.833  1.00  0.00     0.000 C 
BRANCH  21  22
ATOM     22  C   UNL     1      28.746 -15.636  23.799  1.00  0.00     0.000 C 
BRANCH  22  23
ATOM     23  C   UNL     1      28.009 -14.488  23.084  1.00  0.00     0.000 C 
BRANCH  23  24
ATOM     24  C   UNL     1      28.031 -14.634  21.554  1.00  0.00    -0.000 C 
BRANCH  24  25
ATOM     25  C   UNL     1      28.844 -13.523  20.864  1.00  0.00    -0.000 C 
BRANCH  25  26
ATOM     26  C   UNL     1      30.360 -13.760  20.937  1.00  0.00    -0.000 C 
BRANCH  26  27
ATOM     27  C   UNL     1      31.126 -13.081  19.792  1.00  0.00    -0.000 C 
BRANCH  27  28
ATOM     28  C   UNL     1      31.368 -11.595  20.103  1.00  0.00    -0.000 C 
BRANCH  28  29
ATOM     29  C   UNL     1      31.649 -11.333  21.594  1.00  0.00    -0.000 C 
BRANCH  29  30
ATOM     30  C   UNL     1      30.849 -10.170  22.215  1.00  0.00    -0.000 C 
BRANCH  30  31
ATOM     31  C   UNL     1      30.094 -10.516  23.509  1.00  0.00    -0.003 C 
ATOM     32  C   UNL     1      30.459 -11.894  24.061  1.00  0.00     0.004 C 
ENDBRANCH  30  31
ENDBRANCH  29  30
ENDBRANCH  28  29
ENDBRANCH  27  28
ENDBRANCH  26  27
ENDBRANCH  25  26
ENDBRANCH  24  25
ENDBRANCH  23  24
ENDBRANCH  22  23
ENDBRANCH  21  22
ENDBRANCH  20  21
ENDBRANCH  19  20
ENDBRANCH  18  19
ENDBRANCH   1  18
TORSDOF 28
ENDMDL
MODEL 5
REMARK VINA RESULT:    -3.824      3.383      7.603
REMARK INTER + INTRA:         -15.362
REMARK INTER:                 -11.684
REMARK INTRA:                  -3.678
REMARK UNBOUND:                -5.279
REMARK SMILES CCCCCCCCCCCCCCCCCCCCCCCCCCCCCC(=O)[O-]
REMARK SMILES IDX 16 1 17 2 18 3 19 4 20 5 21 6 22 7 23 8 24 9 25 10 26 11
REMARK SMILES IDX 27 12 28 13 29 14 30 15 31 16 32 17 15 18 14 19 13 20 12 21
REMARK SMILES IDX 11 22 10 23 9 24 8 25 7 26 6 27 5 28 4 29 3 30 2 31 1 32
REMARK H PARENT
REMARK Flexibility Score: inf
ROOT
ATOM      1  C   UNL     1      31.050 -12.280  21.710  1.00  0.00     0.000 C 
ENDROOT
BRANCH   1   2
ATOM      2  C   UNL     1      31.856 -11.045  21.260  1.00  0.00     0.000 C 
BRANCH   2   3
ATOM      3  C   UNL     1      31.732 -10.686  19.766  1.00  0.00     0.000 C 
BRANCH   3   4
ATOM      4  C   UNL     1      33.011 -10.909  18.934  1.00  0.00     0.000 C 
BRANCH   4   5
ATOM      5  C   UNL     1      32.820 -11.760  17.664  1.00  0.00     0.000 C 
BRANCH   5   6
ATOM      6  C   UNL     1      32.785 -10.965  16.343  1.00  0.00     0.000 C 
BRANCH   6   7
ATOM      7  C   UNL     1      33.192  -9.483  16.459  1.00  0.00     0.000 C 
BRANCH   7   8
ATOM      8  C   UNL     1      32.066  -8.469  16.180  1.00  0.00     0.000 C 
BRANCH   8   9
ATOM      9  C   UNL     1      31.652  -7.635  17.411  1.00  0.00     0.000 C 
BRANCH   9  10
ATOM     10  C   UNL     1      32.857  -7.222  18.276  1.00  0.00     0.000 C 
BRANCH  10  11
ATOM     11  C   UNL     1      32.435  -6.481  19.556  1.00  0.00     0.000 C 
BRANCH  11  12
ATOM     12  C   UNL     1      31.147  -7.054  20.170  1.00  0.00     0.000 C 
BRANCH  12  13
ATOM     13  C   UNL     1      31.327  -7.442  21.647  1.00  0.00     0.006 C 
BRANCH  13  14
ATOM     14  C   UNL     1      29.995  -7.796  22.325  1.00  0.00     0.053 C 
BRANCH  14  15
ATOM     15  C   UNL     1      30.189  -7.992  23.794  1.00  0.00     0.041 C 
ATOM     16  O   UNL     1      29.583  -8.917  24.396  1.00  0.00    -0.550 OA
ATOM     17  O   UNL     1      31.048  -7.158  24.501  1.00  0.00    -0.550 OA
ENDBRANCH  14  15
ENDBRANCH  13  14
ENDBRANCH  12  13
ENDBRANCH  11  12
ENDBRANCH  10  11
ENDBRANCH   9  10
ENDBRANCH   8   9
ENDBRANCH   7   8
ENDBRANCH   6   7
ENDBRANCH   5   6
ENDBRANCH   4   5
ENDBRANCH   3   4
ENDBRANCH   2   3
ENDBRANCH   1   2
BRANCH   1  18
ATOM     18  C   UNL     1      31.215 -13.526  20.821  1.00  0.00     0.000 C 
BRANCH  18  19
ATOM     19  C   UNL     1      29.915 -13.932  20.106  1.00  0.00     0.000 C 
BRANCH  19  20
ATOM     20  C   UNL     1      28.681 -13.220  20.685  1.00  0.00     0.000 C 
BRANCH  20  21
ATOM     21  C   UNL     1      27.828 -14.150  21.565  1.00  0.00     0.000 C 
BRANCH  21  22
ATOM     22  C   UNL     1      27.744 -13.673  23.022  1.00  0.00     0.000 C 
BRANCH  22  23
ATOM     23  C   UNL     1      28.855 -14.272  23.904  1.00  0.00     0.000 C 
BRANCH  23  24
ATOM     24  C   UNL     1      28.314 -15.281  24.930  1.00  0.00    -0.000 C 
BRANCH  24  25
ATOM     25  C   UNL     1      28.787 -16.720  24.654  1.00  0.00    -0.000 C 
BRANCH  25  26
ATOM     26  C   UNL     1      29.824 -16.799  23.523  1.00  0.00    -0.000 C 
BRANCH  26  27
ATOM     27  C   UNL     1      29.248 -17.386  22.226  1.00  0.00    -0.000 C 
BRANCH  27  28
ATOM     28  C   UNL     1      29.820 -18.787  21.960  1.00  0.00    -0.000 C 
BRANCH  28  29
ATOM     29  C   UNL     1      29.753 -19.706  23.193  1.00  0.00    -0.000 C 
BRANCH  29  30
ATOM     30  C   UNL     1      28.661 -20.794  23.139  1.00  0.00    -0.000 C 
BRANCH  30  31
ATOM     31  C   UNL     1      28.663 -21.780  24.319  1.00  0.00    -0.003 C 
ATOM     32  C   UNL     1      29.011 -23.208  23.901  1.00  0.00     0.004 C 
ENDBRANCH  30  31
ENDBRANCH  29  30
ENDBRANCH  28  29
ENDBRANCH  27  28
ENDBRANCH  26  27
ENDBRANCH  25  26
ENDBRANCH  24  25
ENDBRANCH  23  24
ENDBRANCH  22  23
ENDBRANCH  21  22
ENDBRANCH  20  21
ENDBRANCH  19  20
ENDBRANCH  18  19
ENDBRANCH   1  18
TORSDOF 28
ENDMDL
MODEL 6
REMARK VINA RESULT:    -3.817      2.232      5.736
REMARK INTER + INTRA:         -15.343
REMARK INTER:                 -10.011
REMARK INTRA:                  -5.333
REMARK UNBOUND:                -5.279
REMARK SMILES CCCCCCCCCCCCCCCCCCCCCCCCCCCCCC(=O)[O-]
REMARK SMILES IDX 16 1 17 2 18 3 19 4 20 5 21 6 22 7 23 8 24 9 25 10 26 11
REMARK SMILES IDX 27 12 28 13 29 14 30 15 31 16 32 17 15 18 14 19 13 20 12 21
REMARK SMILES IDX 11 22 10 23 9 24 8 25 7 26 6 27 5 28 4 29 3 30 2 31 1 32
REMARK H PARENT
REMARK Flexibility Score: inf
ROOT
ATOM      1  C   UNL     1      33.015 -10.465  19.142  1.00  0.00     0.000 C 
ENDROOT
BRANCH   1   2
ATOM      2  C   UNL     1      32.707 -11.019  17.737  1.00  0.00     0.000 C 
BRANCH   2   3
ATOM      3  C   UNL     1      32.446  -9.955  16.652  1.00  0.00     0.000 C 
BRANCH   3   4
ATOM      4  C   UNL     1      32.868  -8.521  17.033  1.00  0.00     0.000 C 
BRANCH   4   5
ATOM      5  C   UNL     1      31.709  -7.515  17.159  1.00  0.00     0.000 C 
BRANCH   5   6
ATOM      6  C   UNL     1      31.736  -6.642  18.430  1.00  0.00     0.000 C 
BRANCH   6   7
ATOM      7  C   UNL     1      31.320  -7.361  19.729  1.00  0.00     0.000 C 
BRANCH   7   8
ATOM      8  C   UNL     1      32.287  -7.183  20.915  1.00  0.00     0.000 C 
BRANCH   8   9
ATOM      9  C   UNL     1      31.873  -7.957  22.185  1.00  0.00     0.000 C 
BRANCH   9  10
ATOM     10  C   UNL     1      30.529  -8.689  22.018  1.00  0.00     0.000 C 
BRANCH  10  11
ATOM     11  C   UNL     1      29.851  -8.987  23.365  1.00  0.00     0.000 C 
BRANCH  11  12
ATOM     12  C   UNL     1      30.436  -8.151  24.516  1.00  0.00     0.000 C 
BRANCH  12  13
ATOM     13  C   UNL     1      29.901  -8.594  25.889  1.00  0.00     0.006 C 
BRANCH  13  14
ATOM     14  C   UNL     1      31.029  -8.887  26.889  1.00  0.00     0.053 C 
BRANCH  14  15
ATOM     15  C   UNL     1      30.693 -10.079  27.726  1.00  0.00     0.041 C 
ATOM     16  O   UNL     1      29.725 -10.821  27.411  1.00  0.00    -0.550 OA
ATOM     17  O   UNL     1      31.452 -10.377  28.851  1.00  0.00    -0.550 OA
ENDBRANCH  14  15
ENDBRANCH  13  14
ENDBRANCH  12  13
ENDBRANCH  11  12
ENDBRANCH  10  11
ENDBRANCH   9  10
ENDBRANCH   8   9
ENDBRANCH   7   8
ENDBRANCH   6   7
ENDBRANCH   5   6
ENDBRANCH   4   5
ENDBRANCH   3   4
ENDBRANCH   2   3
ENDBRANCH   1   2
BRANCH   1  18
ATOM     18  C   UNL     1      32.535 -11.345  20.310  1.00  0.00     0.000 C 
BRANCH  18  19
ATOM     19  C   UNL     1      31.099 -11.865  20.120  1.00  0.00     0.000 C 
BRANCH  19  20
ATOM     20  C   UNL     1      31.060 -13.357  19.751  1.00  0.00     0.000 C 
BRANCH  20  21
ATOM     21  C   UNL     1      29.694 -13.999  20.053  1.00  0.00     0.000 C 
BRANCH  21  22
ATOM     22  C   UNL     1      28.809 -13.114  20.942  1.00  0.00     0.000 C 
BRANCH  22  23
ATOM     23  C   UNL     1      27.708 -13.915  21.662  1.00  0.00     0.000 C 
BRANCH  23  24
ATOM     24  C   UNL     1      27.982 -15.428  21.661  1.00  0.00    -0.000 C 
BRANCH  24  25
ATOM     25  C   UNL     1      28.665 -15.909  22.954  1.00  0.00    -0.000 C 
BRANCH  25  26
ATOM     26  C   UNL     1      28.264 -15.079  24.184  1.00  0.00    -0.000 C 
BRANCH  26  27
ATOM     27  C   UNL     1      29.470 -14.445  24.894  1.00  0.00    -0.000 C 
BRANCH  27  28
ATOM     28  C   UNL     1      30.787 -14.908  24.249  1.00  0.00    -0.000 C 
BRANCH  28  29
ATOM     29  C   UNL     1      31.457 -13.812  23.401  1.00  0.00    -0.000 C 
BRANCH  29  30
ATOM     30  C   UNL     1      31.128 -12.366  23.824  1.00  0.00    -0.000 C 
BRANCH  30  31
ATOM     31  C   UNL     1      32.138 -11.722  24.788  1.00  0.00    -0.003 C 
ATOM     32  C   UNL     1      33.146 -10.818  24.079  1.00  0.00     0.004 C 
ENDBRANCH  30  31
ENDBRANCH  29  30
ENDBRANCH  28  29
ENDBRANCH  27  28
ENDBRANCH  26  27
ENDBRANCH  25  26
ENDBRANCH  24  25
ENDBRANCH  23  24
ENDBRANCH  22  23
ENDBRANCH  21  22
ENDBRANCH  20  21
ENDBRANCH  19  20
ENDBRANCH  18  19
ENDBRANCH   1  18
TORSDOF 28
ENDMDL
MODEL 7
REMARK VINA RESULT:    -3.795      1.849      5.198
REMARK INTER + INTRA:         -15.285
REMARK INTER:                  -9.606
REMARK INTRA:                  -5.679
REMARK UNBOUND:                -5.279
REMARK SMILES CCCCCCCCCCCCCCCCCCCCCCCCCCCCCC(=O)[O-]
REMARK SMILES IDX 16 1 17 2 18 3 19 4 20 5 21 6 22 7 23 8 24 9 25 10 26 11
REMARK SMILES IDX 27 12 28 13 29 14 30 15 31 16 32 17 15 18 14 19 13 20 12 21
REMARK SMILES IDX 11 22 10 23 9 24 8 25 7 26 6 27 5 28 4 29 3 30 2 31 1 32
REMARK H PARENT
REMARK Flexibility Score: inf
ROOT
ATOM      1  C   UNL     1      31.543  -7.730  20.276  1.00  0.00     0.000 C 
ENDROOT
BRANCH   1   2
ATOM      2  C   UNL     1      32.134  -6.409  19.744  1.00  0.00     0.000 C 
BRANCH   2   3
ATOM      3  C   UNL     1      32.129  -6.256  18.210  1.00  0.00     0.000 C 
BRANCH   3   4
ATOM      4  C   UNL     1      31.382  -7.369  17.448  1.00  0.00     0.000 C 
BRANCH   4   5
ATOM      5  C   UNL     1      32.064  -7.837  16.148  1.00  0.00     0.000 C 
BRANCH   5   6
ATOM      6  C   UNL     1      32.433  -9.334  16.104  1.00  0.00     0.000 C 
BRANCH   6   7
ATOM      7  C   UNL     1      32.373 -10.064  17.460  1.00  0.00     0.000 C 
BRANCH   7   8
ATOM      8  C   UNL     1      32.835 -11.533  17.434  1.00  0.00     0.000 C 
BRANCH   8   9
ATOM      9  C   UNL     1      32.516 -12.316  18.727  1.00  0.00     0.000 C 
BRANCH   9  10
ATOM     10  C   UNL     1      31.891 -11.424  19.816  1.00  0.00     0.000 C 
BRANCH  10  11
ATOM     11  C   UNL     1      30.891 -12.190  20.698  1.00  0.00     0.000 C 
BRANCH  11  12
ATOM     12  C   UNL     1      31.432 -12.445  22.116  1.00  0.00     0.000 C 
BRANCH  12  13
ATOM     13  C   UNL     1      30.658 -13.557  22.844  1.00  0.00     0.006 C 
BRANCH  13  14
ATOM     14  C   UNL     1      29.284 -13.084  23.339  1.00  0.00     0.053 C 
BRANCH  14  15
ATOM     15  C   UNL     1      28.198 -13.936  22.765  1.00  0.00     0.041 C 
ATOM     16  O   UNL     1      27.638 -14.812  23.476  1.00  0.00    -0.550 OA
ATOM     17  O   UNL     1      27.795 -13.758  21.447  1.00  0.00    -0.550 OA
ENDBRANCH  14  15
ENDBRANCH  13  14
ENDBRANCH  12  13
ENDBRANCH  11  12
ENDBRANCH  10  11
ENDBRANCH   9  10
ENDBRANCH   8   9
ENDBRANCH   7   8
ENDBRANCH   6   7
ENDBRANCH   5   6
ENDBRANCH   4   5
ENDBRANCH   3   4
ENDBRANCH   2   3
ENDBRANCH   1   2
BRANCH   1  18
ATOM     18  C   UNL     1      30.540  -7.576  21.434  1.00  0.00     0.000 C 
BRANCH  18  19
ATOM     19  C   UNL     1      30.417  -8.845  22.294  1.00  0.00     0.000 C 
BRANCH  19  20
ATOM     20  C   UNL     1      29.886  -8.547  23.706  1.00  0.00     0.000 C 
BRANCH  20  21
ATOM     21  C   UNL     1      30.568  -9.409  24.783  1.00  0.00     0.000 C 
BRANCH  21  22
ATOM     22  C   UNL     1      31.974  -9.868  24.369  1.00  0.00     0.000 C 
BRANCH  22  23
ATOM     23  C   UNL     1      33.046  -8.793  24.629  1.00  0.00     0.000 C 
BRANCH  23  24
ATOM     24  C   UNL     1      34.211  -8.866  23.628  1.00  0.00    -0.000 C 
BRANCH  24  25
ATOM     25  C   UNL     1      34.069 -10.037  22.638  1.00  0.00    -0.000 C 
BRANCH  25  26
ATOM     26  C   UNL     1      35.054  -9.947  21.463  1.00  0.00    -0.000 C 
BRANCH  26  27
ATOM     27  C   UNL     1      34.926  -8.632  20.678  1.00  0.00    -0.000 C 
BRANCH  27  28
ATOM     28  C   UNL     1      35.021  -8.889  19.165  1.00  0.00    -0.000 C 
BRANCH  28  29
ATOM     29  C   UNL     1      35.519  -7.664  18.379  1.00  0.00    -0.000 C 
BRANCH  29  30
ATOM     30  C   UNL     1      35.916  -7.944  16.914  1.00  0.00    -0.000 C 
BRANCH  30  31
ATOM     31  C   UNL     1      36.788  -9.193  16.703  1.00  0.00    -0.003 C 
ATOM     32  C   UNL     1      36.090 -10.272  15.876  1.00  0.00     0.004 C 
ENDBRANCH  30  31
ENDBRANCH  29  30
ENDBRANCH  28  29
ENDBRANCH  27  28
ENDBRANCH  26  27
ENDBRANCH  25  26
ENDBRANCH  24  25
ENDBRANCH  23  24
ENDBRANCH  22  23
ENDBRANCH  21  22
ENDBRANCH  20  21
ENDBRANCH  19  20
ENDBRANCH  18  19
ENDBRANCH   1  18
TORSDOF 28
ENDMDL
MODEL 8
REMARK VINA RESULT:    -3.781      1.376      2.588
REMARK INTER + INTRA:         -15.249
REMARK INTER:                  -9.147
REMARK INTRA:                  -6.102
REMARK UNBOUND:                -5.279
REMARK SMILES CCCCCCCCCCCCCCCCCCCCCCCCCCCCCC(=O)[O-]
REMARK SMILES IDX 16 1 17 2 18 3 19 4 20 5 21 6 22 7 23 8 24 9 25 10 26 11
REMARK SMILES IDX 27 12 28 13 29 14 30 15 31 16 32 17 15 18 14 19 13 20 12 21
REMARK SMILES IDX 11 22 10 23 9 24 8 25 7 26 6 27 5 28 4 29 3 30 2 31 1 32
REMARK H PARENT
REMARK Flexibility Score: inf
ROOT
ATOM      1  C   UNL     1      33.761  -6.323  20.885  1.00  0.00     0.000 C 
ENDROOT
BRANCH   1   2
ATOM      2  C   UNL     1      33.343  -6.706  19.451  1.00  0.00     0.000 C 
BRANCH   2   3
ATOM      3  C   UNL     1      31.829  -6.909  19.240  1.00  0.00     0.000 C 
BRANCH   3   4
ATOM      4  C   UNL     1      31.436  -7.484  17.865  1.00  0.00     0.000 C 
BRANCH   4   5
ATOM      5  C   UNL     1      32.594  -8.117  17.070  1.00  0.00     0.000 C 
BRANCH   5   6
ATOM      6  C   UNL     1      32.320  -9.537  16.534  1.00  0.00     0.000 C 
BRANCH   6   7
ATOM      7  C   UNL     1      32.599 -10.680  17.530  1.00  0.00     0.000 C 
BRANCH   7   8
ATOM      8  C   UNL     1      33.576 -10.332  18.670  1.00  0.00     0.000 C 
BRANCH   8   9
ATOM      9  C   UNL     1      33.004 -10.573  20.084  1.00  0.00     0.000 C 
BRANCH   9  10
ATOM     10  C   UNL     1      31.514 -10.963  20.058  1.00  0.00     0.000 C 
BRANCH  10  11
ATOM     11  C   UNL     1      31.283 -12.428  20.464  1.00  0.00     0.000 C 
BRANCH  11  12
ATOM     12  C   UNL     1      29.831 -12.698  20.892  1.00  0.00     0.000 C 
BRANCH  12  13
ATOM     13  C   UNL     1      29.725 -13.116  22.368  1.00  0.00     0.006 C 
BRANCH  13  14
ATOM     14  C   UNL     1      28.314 -13.595  22.740  1.00  0.00     0.053 C 
BRANCH  14  15
ATOM     15  C   UNL     1      28.303 -15.073  22.964  1.00  0.00     0.041 C 
ATOM     16  O   UNL     1      27.999 -15.540  24.093  1.00  0.00    -0.550 OA
ATOM     17  O   UNL     1      28.620 -15.937  21.923  1.00  0.00    -0.550 OA
ENDBRANCH  14  15
ENDBRANCH  13  14
ENDBRANCH  12  13
ENDBRANCH  11  12
ENDBRANCH  10  11
ENDBRANCH   9  10
ENDBRANCH   8   9
ENDBRANCH   7   8
ENDBRANCH   6   7
ENDBRANCH   5   6
ENDBRANCH   4   5
ENDBRANCH   3   4
ENDBRANCH   2   3
ENDBRANCH   1   2
BRANCH   1  18
ATOM     18  C   UNL     1      34.053  -7.512  21.818  1.00  0.00     0.000 C 
BRANCH  18  19
ATOM     19  C   UNL     1      33.005  -7.672  22.933  1.00  0.00     0.000 C 
BRANCH  19  20
ATOM     20  C   UNL     1      31.961  -6.542  22.923  1.00  0.00     0.000 C 
BRANCH  20  21
ATOM     21  C   UNL     1      30.521  -7.077  22.841  1.00  0.00     0.000 C 
BRANCH  21  22
ATOM     22  C   UNL     1      30.456  -8.529  22.345  1.00  0.00     0.000 C 
BRANCH  22  23
ATOM     23  C   UNL     1      29.915  -9.494  23.417  1.00  0.00     0.000 C 
BRANCH  23  24
ATOM     24  C   UNL     1      29.847  -8.850  24.811  1.00  0.00    -0.000 C 
BRANCH  24  25
ATOM     25  C   UNL     1      30.910  -9.407  25.775  1.00  0.00    -0.000 C 
BRANCH  25  26
ATOM     26  C   UNL     1      31.867  -8.323  26.298  1.00  0.00    -0.000 C 
BRANCH  26  27
ATOM     27  C   UNL     1      33.251  -8.878  26.666  1.00  0.00    -0.000 C 
BRANCH  27  28
ATOM     28  C   UNL     1      33.448 -10.286  26.080  1.00  0.00    -0.000 C 
BRANCH  28  29
ATOM     29  C   UNL     1      34.518 -10.331  24.975  1.00  0.00    -0.000 C 
BRANCH  29  30
ATOM     30  C   UNL     1      34.059 -10.969  23.647  1.00  0.00    -0.000 C 
BRANCH  30  31
ATOM     31  C   UNL     1      32.819 -11.872  23.751  1.00  0.00    -0.003 C 
ATOM     32  C   UNL     1      33.168 -13.359  23.799  1.00  0.00     0.004 C 
ENDBRANCH  30  31
ENDBRANCH  29  30
ENDBRANCH  28  29
ENDBRANCH  27  28
ENDBRANCH  26  27
ENDBRANCH  25  26
ENDBRANCH  24  25
ENDBRANCH  23  24
ENDBRANCH  22  23
ENDBRANCH  21  22
ENDBRANCH  20  21
ENDBRANCH  19  20
ENDBRANCH  18  19
ENDBRANCH   1  18
TORSDOF 28
ENDMDL
MODEL 9
REMARK VINA RESULT:    -3.780      1.770      4.320
REMARK INTER + INTRA:         -15.247
REMARK INTER:                  -9.634
REMARK INTRA:                  -5.613
REMARK UNBOUND:                -5.279
REMARK SMILES CCCCCCCCCCCCCCCCCCCCCCCCCCCCCC(=O)[O-]
REMARK SMILES IDX 16 1 17 2 18 3 19 4 20 5 21 6 22 7 23 8 24 9 25 10 26 11
REMARK SMILES IDX 27 12 28 13 29 14 30 15 31 16 32 17 15 18 14 19 13 20 12 21
REMARK SMILES IDX 11 22 10 23 9 24 8 25 7 26 6 27 5 28 4 29 3 30 2 31 1 32
REMARK H PARENT
REMARK Flexibility Score: inf
ROOT
ATOM      1  C   UNL     1      33.254 -10.024  17.285  1.00  0.00     0.000 C 
ENDROOT
BRANCH   1   2
ATOM      2  C   UNL     1      32.545 -10.896  18.340  1.00  0.00     0.000 C 
BRANCH   2   3
ATOM      3  C   UNL     1      32.375 -12.381  17.960  1.00  0.00     0.000 C 
BRANCH   3   4
ATOM      4  C   UNL     1      33.310 -13.354  18.706  1.00  0.00     0.000 C 
BRANCH   4   5
ATOM      5  C   UNL     1      34.394 -12.679  19.569  1.00  0.00     0.000 C 
BRANCH   5   6
ATOM      6  C   UNL     1      34.709 -13.392  20.900  1.00  0.00     0.000 C 
BRANCH   6   7
ATOM      7  C   UNL     1      34.341 -12.601  22.170  1.00  0.00     0.000 C 
BRANCH   7   8
ATOM      8  C   UNL     1      34.151 -11.086  21.967  1.00  0.00     0.000 C 
BRANCH   8   9
ATOM      9  C   UNL     1      32.685 -10.615  22.081  1.00  0.00     0.000 C 
BRANCH   9  10
ATOM     10  C   UNL     1      31.690 -11.790  22.124  1.00  0.00     0.000 C 
BRANCH  10  11
ATOM     11  C   UNL     1      30.458 -11.548  21.236  1.00  0.00     0.000 C 
BRANCH  11  12
ATOM     12  C   UNL     1      29.938 -12.842  20.585  1.00  0.00     0.000 C 
BRANCH  12  13
ATOM     13  C   UNL     1      30.487 -14.102  21.274  1.00  0.00     0.006 C 
BRANCH  13  14
ATOM     14  C   UNL     1      29.578 -14.588  22.413  1.00  0.00     0.053 C 
BRANCH  14  15
ATOM     15  C   UNL     1      28.157 -14.664  21.954  1.00  0.00     0.041 C 
ATOM     16  O   UNL     1      27.806 -15.538  21.119  1.00  0.00    -0.550 OA
ATOM     17  O   UNL     1      27.215 -13.772  22.454  1.00  0.00    -0.550 OA
ENDBRANCH  14  15
ENDBRANCH  13  14
ENDBRANCH  12  13
ENDBRANCH  11  12
ENDBRANCH  10  11
ENDBRANCH   9  10
ENDBRANCH   8   9
ENDBRANCH   7   8
ENDBRANCH   6   7
ENDBRANCH   5   6
ENDBRANCH   4   5
ENDBRANCH   3   4
ENDBRANCH   2   3
ENDBRANCH   1   2
BRANCH   1  18
ATOM     18  C   UNL     1      32.318  -9.321  16.285  1.00  0.00     0.000 C 
BRANCH  18  19
ATOM     19  C   UNL     1      32.284  -7.794  16.466  1.00  0.00     0.000 C 
BRANCH  19  20
ATOM     20  C   UNL     1      31.380  -7.362  17.633  1.00  0.00     0.000 C 
BRANCH  20  21
ATOM     21  C   UNL     1      32.171  -6.683  18.766  1.00  0.00     0.000 C 
BRANCH  21  22
ATOM     22  C   UNL     1      32.257  -7.551  20.029  1.00  0.00     0.000 C 
BRANCH  22  23
ATOM     23  C   UNL     1      31.447  -6.967  21.202  1.00  0.00     0.000 C 
BRANCH  23  24
ATOM     24  C   UNL     1      30.272  -7.870  21.614  1.00  0.00    -0.000 C 
BRANCH  24  25
ATOM     25  C   UNL     1      29.910  -7.728  23.104  1.00  0.00    -0.000 C 
BRANCH  25  26
ATOM     26  C   UNL     1      29.722  -9.083  23.804  1.00  0.00    -0.000 C 
BRANCH  26  27
ATOM     27  C   UNL     1      30.404  -9.143  25.179  1.00  0.00    -0.000 C 
BRANCH  27  28
ATOM     28  C   UNL     1      30.720  -7.729  25.693  1.00  0.00    -0.000 C 
BRANCH  28  29
ATOM     29  C   UNL     1      32.229  -7.470  25.848  1.00  0.00    -0.000 C 
BRANCH  29  30
ATOM     30  C   UNL     1      33.144  -8.569  25.267  1.00  0.00    -0.000 C 
BRANCH  30  31
ATOM     31  C   UNL     1      34.121  -8.096  24.178  1.00  0.00    -0.003 C 
ATOM     32  C   UNL     1      33.876  -6.651  23.746  1.00  0.00     0.004 C 
ENDBRANCH  30  31
ENDBRANCH  29  30
ENDBRANCH  28  29
ENDBRANCH  27  28
ENDBRANCH  26  27
ENDBRANCH  25  26
ENDBRANCH  24  25
ENDBRANCH  23  24
ENDBRANCH  22  23
ENDBRANCH  21  22
ENDBRANCH  20  21
ENDBRANCH  19  20
ENDBRANCH  18  19
ENDBRANCH   1  18
TORSDOF 28
ENDMDL
