MODEL 1
REMARK VINA RESULT:    -3.969      0.000      0.000
REMARK INTER + INTRA:          -4.085
REMARK INTER:                  -4.085
REMARK INTRA:                   0.000
REMARK UNBOUND:                 0.000
REMARK SMILES O=c1ccc2ccc(O)cc2o1
REMARK SMILES IDX 6 1 7 2 8 3 10 4 11 5 5 6 4 7 3 8 2 9 1 10 12 11 9 12
REMARK H PARENT 9 13
REMARK Flexibility Score: inf
ROOT
ATOM      1  C   UNL     1     -12.002   3.469  -3.738  1.00  0.00     0.016 A 
ATOM      2  C   UNL     1     -12.064   2.514  -2.720  1.00  0.00     0.047 A 
ATOM      3  C   UNL     1     -12.063   2.910  -1.377  1.00  0.00     0.119 A 
ATOM      4  C   UNL     1     -12.001   4.272  -1.049  1.00  0.00     0.094 A 
ATOM      5  C   UNL     1     -11.939   5.236  -2.062  1.00  0.00     0.142 A 
ATOM      6  C   UNL     1     -11.940   4.833  -3.416  1.00  0.00     0.018 A 
ATOM      7  C   UNL     1     -11.878   5.818  -4.406  1.00  0.00     0.019 A 
ATOM      8  C   UNL     1     -11.816   7.160  -4.031  1.00  0.00     0.094 A 
ATOM      9  C   UNL     1     -11.819   7.486  -2.671  1.00  0.00     0.336 A 
ATOM     10  O   UNL     1     -11.765   8.692  -2.314  1.00  0.00    -0.246 OA
ATOM     11  O   UNL     1     -11.879   6.528  -1.749  1.00  0.00    -0.423 OA
ENDROOT
BRANCH   3  12
ATOM     12  O   UNL     1     -12.125   1.942  -0.376  1.00  0.00    -0.508 OA
ATOM     13  H   UNL     1     -12.363   0.980  -0.584  1.00  0.00     0.293 HD
ENDBRANCH   3  12
TORSDOF 1
ENDMDL
MODEL 2
REMARK VINA RESULT:    -3.942     10.107     12.444
REMARK INTER + INTRA:          -4.057
REMARK INTER:                  -4.057
REMARK INTRA:                   0.000
REMARK UNBOUND:                 0.000
REMARK SMILES O=c1ccc2ccc(O)cc2o1
REMARK SMILES IDX 6 1 7 2 8 3 10 4 11 5 5 6 4 7 3 8 2 9 1 10 12 11 9 12
REMARK H PARENT 9 13
REMARK Flexibility Score: inf
ROOT
ATOM      1  C   UNL     1      -9.819  -2.023   9.260  1.00  0.00     0.016 A 
ATOM      2  C   UNL     1      -8.575  -1.699   9.810  1.00  0.00     0.047 A 
ATOM      3  C   UNL     1      -7.613  -1.033   9.042  1.00  0.00     0.119 A 
ATOM      4  C   UNL     1      -7.897  -0.687   7.712  1.00  0.00     0.094 A 
ATOM      5  C   UNL     1      -9.139  -1.006   7.153  1.00  0.00     0.142 A 
ATOM      6  C   UNL     1     -10.107  -1.679   7.932  1.00  0.00     0.018 A 
ATOM      7  C   UNL     1     -11.340  -1.984   7.346  1.00  0.00     0.019 A 
ATOM      8  C   UNL     1     -11.576  -1.620   6.021  1.00  0.00     0.094 A 
ATOM      9  C   UNL     1     -10.570  -0.956   5.310  1.00  0.00     0.336 A 
ATOM     10  O   UNL     1     -10.765  -0.618   4.113  1.00  0.00    -0.246 OA
ATOM     11  O   UNL     1      -9.406  -0.677   5.892  1.00  0.00    -0.423 OA
ENDROOT
BRANCH   3  12
ATOM     12  O   UNL     1      -6.379  -0.720   9.608  1.00  0.00    -0.508 OA
ATOM     13  H   UNL     1      -6.110  -1.072  10.518  1.00  0.00     0.293 HD
ENDBRANCH   3  12
TORSDOF 1
ENDMDL
MODEL 3
REMARK VINA RESULT:    -3.918     10.381     12.878
REMARK INTER + INTRA:          -4.033
REMARK INTER:                  -4.033
REMARK INTRA:                   0.000
REMARK UNBOUND:                 0.000
REMARK SMILES O=c1ccc2ccc(O)cc2o1
REMARK SMILES IDX 6 1 7 2 8 3 10 4 11 5 5 6 4 7 3 8 2 9 1 10 12 11 9 12
REMARK H PARENT 9 13
REMARK Flexibility Score: inf
ROOT
ATOM      1  C   UNL     1     -11.217  -1.770   7.671  1.00  0.00     0.016 A 
ATOM      2  C   UNL     1     -11.413  -1.487   6.316  1.00  0.00     0.047 A 
ATOM      3  C   UNL     1     -10.347  -1.044   5.524  1.00  0.00     0.119 A 
ATOM      4  C   UNL     1      -9.074  -0.883   6.091  1.00  0.00     0.094 A 
ATOM      5  C   UNL     1      -8.868  -1.164   7.446  1.00  0.00     0.142 A 
ATOM      6  C   UNL     1      -9.946  -1.611   8.242  1.00  0.00     0.018 A 
ATOM      7  C   UNL     1      -9.710  -1.885   9.593  1.00  0.00     0.019 A 
ATOM      8  C   UNL     1      -8.428  -1.710  10.111  1.00  0.00     0.094 A 
ATOM      9  C   UNL     1      -7.408  -1.264   9.264  1.00  0.00     0.336 A 
ATOM     10  O   UNL     1      -6.243  -1.101   9.714  1.00  0.00    -0.246 OA
ATOM     11  O   UNL     1      -7.660  -1.011   7.982  1.00  0.00    -0.423 OA
ENDROOT
BRANCH   3  12
ATOM     12  O   UNL     1     -10.562  -0.766   4.175  1.00  0.00    -0.508 OA
ATOM     13  H   UNL     1     -10.079  -0.008   3.708  1.00  0.00     0.293 HD
ENDBRANCH   3  12
TORSDOF 1
ENDMDL
MODEL 4
REMARK VINA RESULT:    -3.904      2.138      4.665
REMARK INTER + INTRA:          -4.018
REMARK INTER:                  -4.018
REMARK INTRA:                   0.000
REMARK UNBOUND:                 0.000
REMARK SMILES O=c1ccc2ccc(O)cc2o1
REMARK SMILES IDX 6 1 7 2 8 3 10 4 11 5 5 6 4 7 3 8 2 9 1 10 12 11 9 12
REMARK H PARENT 9 13
REMARK Flexibility Score: inf
ROOT
ATOM      1  C   UNL     1     -12.044   5.679  -1.727  1.00  0.00     0.016 A 
ATOM      2  C   UNL     1     -11.965   7.050  -1.990  1.00  0.00     0.047 A 
ATOM      3  C   UNL     1     -11.885   7.515  -3.308  1.00  0.00     0.119 A 
ATOM      4  C   UNL     1     -11.886   6.602  -4.373  1.00  0.00     0.094 A 
ATOM      5  C   UNL     1     -11.966   5.228  -4.120  1.00  0.00     0.142 A 
ATOM      6  C   UNL     1     -12.046   4.763  -2.789  1.00  0.00     0.018 A 
ATOM      7  C   UNL     1     -12.125   3.384  -2.567  1.00  0.00     0.019 A 
ATOM      8  C   UNL     1     -12.122   2.515  -3.657  1.00  0.00     0.094 A 
ATOM      9  C   UNL     1     -12.041   3.047  -4.949  1.00  0.00     0.336 A 
ATOM     10  O   UNL     1     -12.038   2.278  -5.946  1.00  0.00    -0.246 OA
ATOM     11  O   UNL     1     -11.967   4.363  -5.132  1.00  0.00    -0.423 OA
ENDROOT
BRANCH   3  12
ATOM     12  O   UNL     1     -11.806   8.885  -3.549  1.00  0.00    -0.508 OA
ATOM     13  H   UNL     1     -12.394   9.335  -4.241  1.00  0.00     0.293 HD
ENDBRANCH   3  12
TORSDOF 1
ENDMDL
MODEL 5
REMARK VINA RESULT:    -3.789     17.394     17.854
REMARK INTER + INTRA:          -3.900
REMARK INTER:                  -3.900
REMARK INTRA:                   0.000
REMARK UNBOUND:                 0.000
REMARK SMILES O=c1ccc2ccc(O)cc2o1
REMARK SMILES IDX 6 1 7 2 8 3 10 4 11 5 5 6 4 7 3 8 2 9 1 10 12 11 9 12
REMARK H PARENT 9 13
REMARK Flexibility Score: inf
ROOT
ATOM      1  C   UNL     1       6.250   2.936  -7.834  1.00  0.00     0.016 A 
ATOM      2  C   UNL     1       7.029   3.787  -7.044  1.00  0.00     0.047 A 
ATOM      3  C   UNL     1       6.557   5.059  -6.695  1.00  0.00     0.119 A 
ATOM      4  C   UNL     1       5.296   5.483  -7.139  1.00  0.00     0.094 A 
ATOM      5  C   UNL     1       4.510   4.638  -7.930  1.00  0.00     0.142 A 
ATOM      6  C   UNL     1       4.989   3.356  -8.280  1.00  0.00     0.018 A 
ATOM      7  C   UNL     1       4.180   2.534  -9.071  1.00  0.00     0.019 A 
ATOM      8  C   UNL     1       2.934   3.000  -9.488  1.00  0.00     0.094 A 
ATOM      9  C   UNL     1       2.524   4.281  -9.103  1.00  0.00     0.336 A 
ATOM     10  O   UNL     1       1.402   4.718  -9.470  1.00  0.00    -0.246 OA
ATOM     11  O   UNL     1       3.313   5.043  -8.350  1.00  0.00    -0.423 OA
ENDROOT
BRANCH   3  12
ATOM     12  O   UNL     1       7.349   5.892  -5.908  1.00  0.00    -0.508 OA
ATOM     13  H   UNL     1       7.149   6.039  -4.926  1.00  0.00     0.293 HD
ENDBRANCH   3  12
TORSDOF 1
ENDMDL
MODEL 6
REMARK VINA RESULT:    -3.778      3.071      4.086
REMARK INTER + INTRA:          -3.889
REMARK INTER:                  -3.889
REMARK INTRA:                   0.000
REMARK UNBOUND:                 0.000
REMARK SMILES O=c1ccc2ccc(O)cc2o1
REMARK SMILES IDX 6 1 7 2 8 3 10 4 11 5 5 6 4 7 3 8 2 9 1 10 12 11 9 12
REMARK H PARENT 9 13
REMARK Flexibility Score: inf
ROOT
ATOM      1  C   UNL     1     -12.099   5.001  -3.376  1.00  0.00     0.016 A 
ATOM      2  C   UNL     1     -11.975   4.336  -2.153  1.00  0.00     0.047 A 
ATOM      3  C   UNL     1     -11.760   2.953  -2.116  1.00  0.00     0.119 A 
ATOM      4  C   UNL     1     -11.667   2.228  -3.313  1.00  0.00     0.094 A 
ATOM      5  C   UNL     1     -11.789   2.884  -4.543  1.00  0.00     0.142 A 
ATOM      6  C   UNL     1     -12.006   4.280  -4.576  1.00  0.00     0.018 A 
ATOM      7  C   UNL     1     -12.123   4.909  -5.819  1.00  0.00     0.019 A 
ATOM      8  C   UNL     1     -12.024   4.146  -6.982  1.00  0.00     0.094 A 
ATOM      9  C   UNL     1     -11.808   2.768  -6.874  1.00  0.00     0.336 A 
ATOM     10  O   UNL     1     -11.715   2.063  -7.913  1.00  0.00    -0.246 OA
ATOM     11  O   UNL     1     -11.700   2.195  -5.678  1.00  0.00    -0.423 OA
ENDROOT
BRANCH   3  12
ATOM     12  O   UNL     1     -11.641   2.309  -0.887  1.00  0.00    -0.508 OA
ATOM     13  H   UNL     1     -10.974   2.618  -0.190  1.00  0.00     0.293 HD
ENDBRANCH   3  12
TORSDOF 1
ENDMDL
MODEL 7
REMARK VINA RESULT:    -3.737     19.189     20.328
REMARK INTER + INTRA:          -3.846
REMARK INTER:                  -3.846
REMARK INTRA:                   0.000
REMARK UNBOUND:                 0.000
REMARK SMILES O=c1ccc2ccc(O)cc2o1
REMARK SMILES IDX 6 1 7 2 8 3 10 4 11 5 5 6 4 7 3 8 2 9 1 10 12 11 9 12
REMARK H PARENT 9 13
REMARK Flexibility Score: inf
ROOT
ATOM      1  C   UNL     1       4.276  -5.013  -6.147  1.00  0.00     0.016 A 
ATOM      2  C   UNL     1       3.984  -3.848  -6.861  1.00  0.00     0.047 A 
ATOM      3  C   UNL     1       4.595  -2.635  -6.517  1.00  0.00     0.119 A 
ATOM      4  C   UNL     1       5.506  -2.588  -5.452  1.00  0.00     0.094 A 
ATOM      5  C   UNL     1       5.804  -3.750  -4.731  1.00  0.00     0.142 A 
ATOM      6  C   UNL     1       5.186  -4.971  -5.080  1.00  0.00     0.018 A 
ATOM      7  C   UNL     1       5.504  -6.116  -4.343  1.00  0.00     0.019 A 
ATOM      8  C   UNL     1       6.415  -6.019  -3.291  1.00  0.00     0.094 A 
ATOM      9  C   UNL     1       6.989  -4.777  -3.002  1.00  0.00     0.336 A 
ATOM     10  O   UNL     1       7.815  -4.670  -2.057  1.00  0.00    -0.246 OA
ATOM     11  O   UNL     1       6.669  -3.703  -3.721  1.00  0.00    -0.423 OA
ENDROOT
BRANCH   3  12
ATOM     12  O   UNL     1       4.291  -1.484  -7.241  1.00  0.00    -0.508 OA
ATOM     13  H   UNL     1       3.508  -0.893  -6.989  1.00  0.00     0.293 HD
ENDBRANCH   3  12
TORSDOF 1
ENDMDL
MODEL 8
REMARK VINA RESULT:    -3.697     18.619     19.467
REMARK INTER + INTRA:          -3.805
REMARK INTER:                  -3.805
REMARK INTRA:                   0.000
REMARK UNBOUND:                 0.000
REMARK SMILES O=c1ccc2ccc(O)cc2o1
REMARK SMILES IDX 6 1 7 2 8 3 10 4 11 5 5 6 4 7 3 8 2 9 1 10 12 11 9 12
REMARK H PARENT 9 13
REMARK Flexibility Score: inf
ROOT
ATOM      1  C   UNL     1       5.130  -6.124  -5.720  1.00  0.00     0.016 A 
ATOM      2  C   UNL     1       5.826  -6.125  -4.507  1.00  0.00     0.047 A 
ATOM      3  C   UNL     1       6.037  -4.929  -3.811  1.00  0.00     0.119 A 
ATOM      4  C   UNL     1       5.547  -3.721  -4.330  1.00  0.00     0.094 A 
ATOM      5  C   UNL     1       4.849  -3.710  -5.543  1.00  0.00     0.142 A 
ATOM      6  C   UNL     1       4.638  -4.919  -6.243  1.00  0.00     0.018 A 
ATOM      7  C   UNL     1       3.937  -4.877  -7.452  1.00  0.00     0.019 A 
ATOM      8  C   UNL     1       3.470  -3.653  -7.928  1.00  0.00     0.094 A 
ATOM      9  C   UNL     1       3.715  -2.496  -7.182  1.00  0.00     0.336 A 
ATOM     10  O   UNL     1       3.300  -1.381  -7.595  1.00  0.00    -0.246 OA
ATOM     11  O   UNL     1       4.385  -2.564  -6.034  1.00  0.00    -0.423 OA
ENDROOT
BRANCH   3  12
ATOM     12  O   UNL     1       6.734  -4.950  -2.604  1.00  0.00    -0.508 OA
ATOM     13  H   UNL     1       7.729  -5.134  -2.572  1.00  0.00     0.293 HD
ENDBRANCH   3  12
TORSDOF 1
ENDMDL
