MODEL 1
REMARK VINA RESULT:     1.919      0.000      0.000
REMARK INTER + INTRA:           2.707
REMARK INTER:                   3.266
REMARK INTRA:                  -0.558
REMARK UNBOUND:                -0.558
REMARK SMILES CCCCCCCCCCCCCC(=O)[O-]
REMARK SMILES IDX 8 1 9 2 10 3 11 4 12 5 13 6 14 7 15 8 16 9 7 10 6 11 5 12
REMARK SMILES IDX 4 13 3 14 2 15 1 16
REMARK H PARENT
REMARK Flexibility Score: inf
ROOT
ATOM      1  C   UNL     1      68.861  76.770  97.338  1.00  0.00     0.000 C 
ENDROOT
BRANCH   1   2
ATOM      2  C   UNL     1      67.949  76.390  96.156  1.00  0.00     0.000 C 
BRANCH   2   3
ATOM      3  C   UNL     1      68.329  77.124  94.860  1.00  0.00     0.000 C 
BRANCH   3   4
ATOM      4  C   UNL     1      67.878  76.366  93.598  1.00  0.00     0.000 C 
BRANCH   4   5
ATOM      5  C   UNL     1      68.904  76.454  92.453  1.00  0.00     0.006 C 
BRANCH   5   6
ATOM      6  C   UNL     1      68.498  75.697  91.178  1.00  0.00     0.053 C 
BRANCH   6   7
ATOM      7  C   UNL     1      68.927  74.263  91.215  1.00  0.00     0.041 C 
ATOM      8  O   UNL     1      70.150  73.966  91.243  1.00  0.00    -0.550 OA
ATOM      9  O   UNL     1      67.973  73.252  91.253  1.00  0.00    -0.550 OA
ENDBRANCH   6   7
ENDBRANCH   5   6
ENDBRANCH   4   5
ENDBRANCH   3   4
ENDBRANCH   2   3
ENDBRANCH   1   2
BRANCH   1  10
ATOM     10  C   UNL     1      68.141  77.635  98.384  1.00  0.00     0.000 C 
BRANCH  10  11
ATOM     11  C   UNL     1      67.931  79.085  97.911  1.00  0.00    -0.000 C 
BRANCH  11  12
ATOM     12  C   UNL     1      68.440  80.118  98.930  1.00  0.00    -0.000 C 
BRANCH  12  13
ATOM     13  C   UNL     1      69.200  79.475 100.101  1.00  0.00    -0.000 C 
BRANCH  13  14
ATOM     14  C   UNL     1      68.544  79.833 101.443  1.00  0.00    -0.000 C 
BRANCH  14  15
ATOM     15  C   UNL     1      69.227  79.148 102.636  1.00  0.00    -0.003 C 
ATOM     16  C   UNL     1      68.740  77.716 102.857  1.00  0.00     0.004 C 
ENDBRANCH  14  15
ENDBRANCH  13  14
ENDBRANCH  12  13
ENDBRANCH  11  12
ENDBRANCH  10  11
ENDBRANCH   1  10
TORSDOF 12
ENDMDL
MODEL 2
REMARK VINA RESULT:     2.630      4.095      8.638
REMARK INTER + INTRA:           3.917
REMARK INTER:                   4.087
REMARK INTRA:                  -0.170
REMARK UNBOUND:                -0.558
REMARK SMILES CCCCCCCCCCCCCC(=O)[O-]
REMARK SMILES IDX 8 1 9 2 10 3 11 4 12 5 13 6 14 7 15 8 16 9 7 10 6 11 5 12
REMARK SMILES IDX 4 13 3 14 2 15 1 16
REMARK H PARENT
REMARK Flexibility Score: inf
ROOT
ATOM      1  C   UNL     1      69.090  75.440  95.635  1.00  0.00     0.000 C 
ENDROOT
BRANCH   1   2
ATOM      2  C   UNL     1      68.662  75.633  97.102  1.00  0.00     0.000 C 
BRANCH   2   3
ATOM      3  C   UNL     1      67.875  76.935  97.319  1.00  0.00     0.000 C 
BRANCH   3   4
ATOM      4  C   UNL     1      68.503  77.832  98.399  1.00  0.00     0.000 C 
BRANCH   4   5
ATOM      5  C   UNL     1      68.186  79.325  98.193  1.00  0.00     0.006 C 
BRANCH   5   6
ATOM      6  C   UNL     1      68.013  80.124  99.495  1.00  0.00     0.053 C 
BRANCH   6   7
ATOM      7  C   UNL     1      68.949  79.660 100.568  1.00  0.00     0.041 C 
ATOM      8  O   UNL     1      68.605  79.714 101.777  1.00  0.00    -0.550 OA
ATOM      9  O   UNL     1      70.191  79.136 100.229  1.00  0.00    -0.550 OA
ENDBRANCH   6   7
ENDBRANCH   5   6
ENDBRANCH   4   5
ENDBRANCH   3   4
ENDBRANCH   2   3
ENDBRANCH   1   2
BRANCH   1  10
ATOM     10  C   UNL     1      68.142  76.136  94.646  1.00  0.00     0.000 C 
BRANCH  10  11
ATOM     11  C   UNL     1      68.866  76.634  93.382  1.00  0.00    -0.000 C 
BRANCH  11  12
ATOM     12  C   UNL     1      67.893  77.144  92.307  1.00  0.00    -0.000 C 
BRANCH  12  13
ATOM     13  C   UNL     1      67.947  76.316  91.014  1.00  0.00    -0.000 C 
BRANCH  13  14
ATOM     14  C   UNL     1      68.913  75.131  91.162  1.00  0.00    -0.000 C 
BRANCH  14  15
ATOM     15  C   UNL     1      68.190  73.775  91.156  1.00  0.00    -0.003 C 
ATOM     16  C   UNL     1      69.151  72.591  91.257  1.00  0.00     0.004 C 
ENDBRANCH  14  15
ENDBRANCH  13  14
ENDBRANCH  12  13
ENDBRANCH  11  12
ENDBRANCH  10  11
ENDBRANCH   1  10
TORSDOF 12
ENDMDL
MODEL 3
REMARK VINA RESULT:     2.725      4.575      9.109
REMARK INTER + INTRA:           4.078
REMARK INTER:                   4.606
REMARK INTRA:                  -0.528
REMARK UNBOUND:                -0.558
REMARK SMILES CCCCCCCCCCCCCC(=O)[O-]
REMARK SMILES IDX 8 1 9 2 10 3 11 4 12 5 13 6 14 7 15 8 16 9 7 10 6 11 5 12
REMARK SMILES IDX 4 13 3 14 2 15 1 16
REMARK H PARENT
REMARK Flexibility Score: inf
ROOT
ATOM      1  C   UNL     1      68.839  76.448  96.582  1.00  0.00     0.000 C 
ENDROOT
BRANCH   1   2
ATOM      2  C   UNL     1      67.875  77.089  97.598  1.00  0.00     0.000 C 
BRANCH   2   3
ATOM      3  C   UNL     1      68.255  78.539  97.937  1.00  0.00     0.000 C 
BRANCH   3   4
ATOM      4  C   UNL     1      69.182  78.637  99.161  1.00  0.00     0.000 C 
BRANCH   4   5
ATOM      5  C   UNL     1      69.150  80.029  99.821  1.00  0.00     0.006 C 
BRANCH   5   6
ATOM      6  C   UNL     1      68.257  80.118 101.069  1.00  0.00     0.053 C 
BRANCH   6   7
ATOM      7  C   UNL     1      68.855  79.404 102.242  1.00  0.00     0.041 C 
ATOM      8  O   UNL     1      68.556  78.203 102.472  1.00  0.00    -0.550 OA
ATOM      9  O   UNL     1      69.768  80.055 103.062  1.00  0.00    -0.550 OA
ENDBRANCH   6   7
ENDBRANCH   5   6
ENDBRANCH   4   5
ENDBRANCH   3   4
ENDBRANCH   2   3
ENDBRANCH   1   2
BRANCH   1  10
ATOM     10  C   UNL     1      68.134  76.031  95.281  1.00  0.00     0.000 C 
BRANCH  10  11
ATOM     11  C   UNL     1      68.328  77.055  94.149  1.00  0.00    -0.000 C 
BRANCH  11  12
ATOM     12  C   UNL     1      69.018  76.448  92.916  1.00  0.00    -0.000 C 
BRANCH  12  13
ATOM     13  C   UNL     1      68.074  76.316  91.710  1.00  0.00    -0.000 C 
BRANCH  13  14
ATOM     14  C   UNL     1      67.903  74.843  91.308  1.00  0.00    -0.000 C 
BRANCH  14  15
ATOM     15  C   UNL     1      69.135  73.991  91.647  1.00  0.00    -0.003 C 
ATOM     16  C   UNL     1      69.175  72.672  90.875  1.00  0.00     0.004 C 
ENDBRANCH  14  15
ENDBRANCH  13  14
ENDBRANCH  12  13
ENDBRANCH  11  12
ENDBRANCH  10  11
ENDBRANCH   1  10
TORSDOF 12
ENDMDL
