MODEL 1
REMARK VINA RESULT:    -6.025      0.000      0.000
REMARK INTER + INTRA:          -6.437
REMARK INTER:                  -6.553
REMARK INTRA:                   0.117
REMARK UNBOUND:                 0.117
REMARK SMILES C[C@@H]1[C@H](C)CC[C@]2(C(=O)[O-])CC[C@@]3(C)C(=CC[C@@H]4[C@@]5(C)CC[C@@H](O)C(C)(C)[C@H]5CC[C@@]43C)[C@@H]12
REMARK SMILES IDX 7 1 6 2 11 3 33 4 5 5 12 6 15 7 2 8 3 9 13 10 16 11 1 12
REMARK SMILES IDX 4 13 14 14 31 15 17 16 18 17 30 18 32 19 19 20 29 21 28 22
REMARK SMILES IDX 21 23 20 24 25 25 22 26 23 27 26 28 27 29 8 30 9 31 10 32
REMARK SMILES IDX 24 33
REMARK H PARENT 24 34
REMARK Flexibility Score: inf
ROOT
ATOM      1  C   UNL     1      30.406  -5.980 -30.858  1.00  0.00     0.017 C 
ATOM      2  C   UNL     1      30.907  -5.107 -32.036  1.00  0.00     0.014 C 
ATOM      3  C   UNL     1      29.353  -5.155 -30.017  1.00  0.00     0.014 C 
ATOM      4  C   UNL     1      31.617  -6.369 -29.940  1.00  0.00     0.030 C 
ATOM      5  C   UNL     1      32.017  -5.801 -32.831  1.00  0.00     0.004 C 
ATOM      6  C   UNL     1      29.600  -5.149 -28.484  1.00  0.00     0.013 C 
ATOM      7  C   UNL     1      31.068  -7.177 -28.748  1.00  0.00    -0.063 C 
ATOM      8  C   UNL     1      32.874  -6.934 -30.697  1.00  0.00    -0.003 C 
ATOM      9  C   UNL     1      33.247  -6.079 -31.953  1.00  0.00    -0.011 C 
ATOM     10  C   UNL     1      29.945  -6.571 -27.903  1.00  0.00    -0.006 C 
ATOM     11  C   UNL     1      31.509  -8.403 -28.414  1.00  0.00    -0.027 C 
ATOM     12  C   UNL     1      34.109  -7.046 -29.766  1.00  0.00     0.008 C 
ATOM     13  C   UNL     1      33.994  -4.763 -31.631  1.00  0.00     0.008 C 
ATOM     14  C   UNL     1      28.646  -7.418 -28.112  1.00  0.00     0.017 C 
ATOM     15  C   UNL     1      30.434  -6.555 -26.361  1.00  0.00    -0.020 C 
ATOM     16  C   UNL     1      31.211  -8.984 -27.060  1.00  0.00     0.032 C 
ATOM     17  C   UNL     1      31.237  -7.885 -25.943  1.00  0.00     0.006 C 
ATOM     18  C   UNL     1      29.234  -6.295 -25.404  1.00  0.00     0.008 C 
ATOM     19  C   UNL     1      31.427  -5.360 -26.172  1.00  0.00     0.012 C 
ATOM     20  C   UNL     1      30.944  -8.466 -24.480  1.00  0.00    -0.025 C 
ATOM     21  C   UNL     1      28.515  -7.538 -24.862  1.00  0.00     0.005 C 
ATOM     22  C   UNL     1      29.392  -8.705 -24.280  1.00  0.00     0.003 C 
ATOM     23  C   UNL     1      31.482  -7.508 -23.363  1.00  0.00     0.010 C 
ATOM     24  C   UNL     1      31.767  -9.791 -24.347  1.00  0.00     0.012 C 
ATOM     25  C   UNL     1      28.960  -9.112 -22.795  1.00  0.00    -0.006 C 
ATOM     26  C   UNL     1      31.078  -7.910 -21.930  1.00  0.00     0.033 C 
ATOM     27  C   UNL     1      29.555  -8.101 -21.765  1.00  0.00     0.120 C 
ATOM     28  C   UNL     1      27.405  -9.163 -22.640  1.00  0.00     0.014 C 
ATOM     29  C   UNL     1      29.416 -10.563 -22.443  1.00  0.00     0.014 C 
ENDROOT
BRANCH   1  30
ATOM     30  C   UNL     1      29.715  -7.209 -31.456  1.00  0.00     0.048 C 
ATOM     31  O   UNL     1      28.480  -7.175 -31.708  1.00  0.00    -0.550 OA
ATOM     32  O   UNL     1      30.420  -8.369 -31.756  1.00  0.00    -0.550 OA
ENDBRANCH   1  30
BRANCH  27  33
ATOM     33  O   UNL     1      28.924  -6.849 -21.880  1.00  0.00    -0.393 OA
ATOM     34  H   UNL     1      28.339  -6.742 -21.084  1.00  0.00     0.210 HD
ENDBRANCH  27  33
TORSDOF 2
ENDMDL
MODEL 2
REMARK VINA RESULT:    -5.984     12.065     15.048
REMARK INTER + INTRA:          -6.392
REMARK INTER:                  -6.510
REMARK INTRA:                   0.118
REMARK UNBOUND:                 0.117
REMARK SMILES C[C@@H]1[C@H](C)CC[C@]2(C(=O)[O-])CC[C@@]3(C)C(=CC[C@@H]4[C@@]5(C)CC[C@@H](O)C(C)(C)[C@H]5CC[C@@]43C)[C@@H]12
REMARK SMILES IDX 7 1 6 2 11 3 33 4 5 5 12 6 15 7 2 8 3 9 13 10 16 11 1 12
REMARK SMILES IDX 4 13 14 14 31 15 17 16 18 17 30 18 32 19 19 20 29 21 28 22
REMARK SMILES IDX 21 23 20 24 25 25 22 26 23 27 26 28 27 29 8 30 9 31 10 32
REMARK SMILES IDX 24 33
REMARK H PARENT 24 34
REMARK Flexibility Score: inf
ROOT
ATOM      1  C   UNL     1      23.113   4.074 -23.390  1.00  0.00     0.017 C 
ATOM      2  C   UNL     1      21.595   3.872 -23.152  1.00  0.00     0.014 C 
ATOM      3  C   UNL     1      23.513   5.535 -22.941  1.00  0.00     0.014 C 
ATOM      4  C   UNL     1      23.434   3.891 -24.915  1.00  0.00     0.030 C 
ATOM      5  C   UNL     1      21.111   2.514 -23.672  1.00  0.00     0.004 C 
ATOM      6  C   UNL     1      24.349   6.334 -23.979  1.00  0.00     0.013 C 
ATOM      7  C   UNL     1      24.937   4.167 -25.118  1.00  0.00    -0.063 C 
ATOM      8  C   UNL     1      22.826   2.600 -25.575  1.00  0.00    -0.003 C 
ATOM      9  C   UNL     1      21.326   2.383 -25.187  1.00  0.00    -0.011 C 
ATOM     10  C   UNL     1      25.516   5.493 -24.618  1.00  0.00    -0.006 C 
ATOM     11  C   UNL     1      25.781   3.296 -25.699  1.00  0.00    -0.027 C 
ATOM     12  C   UNL     1      22.961   2.621 -27.120  1.00  0.00     0.008 C 
ATOM     13  C   UNL     1      20.331   3.284 -25.958  1.00  0.00     0.008 C 
ATOM     14  C   UNL     1      26.495   5.197 -23.433  1.00  0.00     0.017 C 
ATOM     15  C   UNL     1      26.250   6.218 -25.864  1.00  0.00    -0.020 C 
ATOM     16  C   UNL     1      27.127   3.746 -26.196  1.00  0.00     0.032 C 
ATOM     17  C   UNL     1      27.066   5.193 -26.796  1.00  0.00     0.006 C 
ATOM     18  C   UNL     1      27.162   7.378 -25.367  1.00  0.00     0.008 C 
ATOM     19  C   UNL     1      25.153   6.867 -26.771  1.00  0.00     0.012 C 
ATOM     20  C   UNL     1      28.476   5.703 -27.357  1.00  0.00    -0.025 C 
ATOM     21  C   UNL     1      28.628   7.018 -25.086  1.00  0.00     0.005 C 
ATOM     22  C   UNL     1      29.404   6.181 -26.167  1.00  0.00     0.003 C 
ATOM     23  C   UNL     1      28.297   6.866 -28.390  1.00  0.00     0.010 C 
ATOM     24  C   UNL     1      29.105   4.510 -28.152  1.00  0.00     0.012 C 
ATOM     25  C   UNL     1      30.769   6.882 -26.618  1.00  0.00    -0.006 C 
ATOM     26  C   UNL     1      29.615   7.532 -28.837  1.00  0.00     0.033 C 
ATOM     27  C   UNL     1      30.476   8.015 -27.651  1.00  0.00     0.120 C 
ATOM     28  C   UNL     1      31.544   7.475 -25.396  1.00  0.00     0.014 C 
ATOM     29  C   UNL     1      31.769   5.849 -27.227  1.00  0.00     0.014 C 
ENDROOT
BRANCH   1  30
ATOM     30  C   UNL     1      23.857   3.061 -22.515  1.00  0.00     0.048 C 
ATOM     31  O   UNL     1      24.178   3.367 -21.335  1.00  0.00    -0.550 OA
ATOM     32  O   UNL     1      24.171   1.789 -22.979  1.00  0.00    -0.550 OA
ENDBRANCH   1  30
BRANCH  27  33
ATOM     33  O   UNL     1      29.828   9.097 -27.028  1.00  0.00    -0.393 OA
ATOM     34  H   UNL     1      29.561   8.794 -26.120  1.00  0.00     0.210 HD
ENDBRANCH  27  33
TORSDOF 2
ENDMDL
MODEL 3
REMARK VINA RESULT:    -5.894      3.117      4.621
REMARK INTER + INTRA:          -6.295
REMARK INTER:                  -6.434
REMARK INTRA:                   0.140
REMARK UNBOUND:                 0.117
REMARK SMILES C[C@@H]1[C@H](C)CC[C@]2(C(=O)[O-])CC[C@@]3(C)C(=CC[C@@H]4[C@@]5(C)CC[C@@H](O)C(C)(C)[C@H]5CC[C@@]43C)[C@@H]12
REMARK SMILES IDX 7 1 6 2 11 3 33 4 5 5 12 6 15 7 2 8 3 9 13 10 16 11 1 12
REMARK SMILES IDX 4 13 14 14 31 15 17 16 18 17 30 18 32 19 19 20 29 21 28 22
REMARK SMILES IDX 21 23 20 24 25 25 22 26 23 27 26 28 27 29 8 30 9 31 10 32
REMARK SMILES IDX 24 33
REMARK H PARENT 24 34
REMARK Flexibility Score: inf
ROOT
ATOM      1  C   UNL     1      31.467  -5.775 -30.395  1.00  0.00     0.017 C 
ATOM      2  C   UNL     1      32.975  -5.937 -30.711  1.00  0.00     0.014 C 
ATOM      3  C   UNL     1      31.173  -4.261 -30.056  1.00  0.00     0.014 C 
ATOM      4  C   UNL     1      31.090  -6.669 -29.161  1.00  0.00     0.030 C 
ATOM      5  C   UNL     1      33.357  -7.404 -30.938  1.00  0.00     0.004 C 
ATOM      6  C   UNL     1      30.359  -4.026 -28.754  1.00  0.00     0.013 C 
ATOM      7  C   UNL     1      29.602  -6.426 -28.839  1.00  0.00    -0.063 C 
ATOM      8  C   UNL     1      31.596  -8.156 -29.234  1.00  0.00    -0.003 C 
ATOM      9  C   UNL     1      33.091  -8.254 -29.687  1.00  0.00    -0.011 C 
ATOM     10  C   UNL     1      29.123  -4.991 -28.610  1.00  0.00    -0.006 C 
ATOM     11  C   UNL     1      28.688  -7.410 -28.762  1.00  0.00    -0.027 C 
ATOM     12  C   UNL     1      31.418  -8.895 -27.883  1.00  0.00     0.008 C 
ATOM     13  C   UNL     1      34.117  -7.927 -28.577  1.00  0.00     0.008 C 
ATOM     14  C   UNL     1      28.162  -4.591 -29.779  1.00  0.00     0.017 C 
ATOM     15  C   UNL     1      28.400  -4.931 -27.164  1.00  0.00    -0.020 C 
ATOM     16  C   UNL     1      27.360  -7.174 -28.099  1.00  0.00     0.032 C 
ATOM     17  C   UNL     1      27.495  -6.224 -26.860  1.00  0.00     0.006 C 
ATOM     18  C   UNL     1      27.578  -3.617 -27.012  1.00  0.00     0.008 C 
ATOM     19  C   UNL     1      29.510  -4.895 -26.061  1.00  0.00     0.012 C 
ATOM     20  C   UNL     1      26.103  -5.963 -26.111  1.00  0.00    -0.025 C 
ATOM     21  C   UNL     1      26.101  -3.688 -27.426  1.00  0.00     0.005 C 
ATOM     22  C   UNL     1      25.243  -4.895 -26.900  1.00  0.00     0.003 C 
ATOM     23  C   UNL     1      26.326  -5.482 -24.638  1.00  0.00     0.010 C 
ATOM     24  C   UNL     1      25.378  -7.347 -26.011  1.00  0.00     0.012 C 
ATOM     25  C   UNL     1      23.912  -4.417 -26.152  1.00  0.00    -0.006 C 
ATOM     26  C   UNL     1      25.040  -5.036 -23.911  1.00  0.00     0.033 C 
ATOM     27  C   UNL     1      24.245  -3.970 -24.695  1.00  0.00     0.120 C 
ATOM     28  C   UNL     1      23.212  -3.244 -26.913  1.00  0.00     0.014 C 
ATOM     29  C   UNL     1      22.832  -5.544 -26.131  1.00  0.00     0.014 C 
ENDROOT
BRANCH   1  30
ATOM     30  C   UNL     1      30.687  -6.166 -31.653  1.00  0.00     0.048 C 
ATOM     31  O   UNL     1      30.507  -5.319 -32.569  1.00  0.00    -0.550 OA
ATOM     32  O   UNL     1      30.184  -7.450 -31.831  1.00  0.00    -0.550 OA
ENDBRANCH   1  30
BRANCH  27  33
ATOM     33  O   UNL     1      24.979  -2.769 -24.701  1.00  0.00    -0.393 OA
ATOM     34  H   UNL     1      24.711  -2.268 -25.516  1.00  0.00     0.210 HD
ENDBRANCH  27  33
TORSDOF 2
ENDMDL
MODEL 4
REMARK VINA RESULT:    -5.862      1.889      2.613
REMARK INTER + INTRA:          -6.259
REMARK INTER:                  -6.432
REMARK INTRA:                   0.173
REMARK UNBOUND:                 0.117
REMARK SMILES C[C@@H]1[C@H](C)CC[C@]2(C(=O)[O-])CC[C@@]3(C)C(=CC[C@@H]4[C@@]5(C)CC[C@@H](O)C(C)(C)[C@H]5CC[C@@]43C)[C@@H]12
REMARK SMILES IDX 7 1 6 2 11 3 33 4 5 5 12 6 15 7 2 8 3 9 13 10 16 11 1 12
REMARK SMILES IDX 4 13 14 14 31 15 17 16 18 17 30 18 32 19 19 20 29 21 28 22
REMARK SMILES IDX 21 23 20 24 25 25 22 26 23 27 26 28 27 29 8 30 9 31 10 32
REMARK SMILES IDX 24 33
REMARK H PARENT 24 34
REMARK Flexibility Score: inf
ROOT
ATOM      1  C   UNL     1      30.213  -6.284 -31.238  1.00  0.00     0.017 C 
ATOM      2  C   UNL     1      30.954  -5.523 -32.366  1.00  0.00     0.014 C 
ATOM      3  C   UNL     1      28.686  -5.877 -31.260  1.00  0.00     0.014 C 
ATOM      4  C   UNL     1      30.835  -5.900 -29.849  1.00  0.00     0.030 C 
ATOM      5  C   UNL     1      32.463  -5.781 -32.334  1.00  0.00     0.004 C 
ATOM      6  C   UNL     1      28.098  -5.465 -29.882  1.00  0.00     0.013 C 
ATOM      7  C   UNL     1      30.027  -6.622 -28.752  1.00  0.00    -0.063 C 
ATOM      8  C   UNL     1      32.404  -5.971 -29.778  1.00  0.00    -0.003 C 
ATOM      9  C   UNL     1      33.087  -5.300 -31.015  1.00  0.00    -0.011 C 
ATOM     10  C   UNL     1      28.508  -6.437 -28.714  1.00  0.00    -0.006 C 
ATOM     11  C   UNL     1      30.582  -7.427 -27.830  1.00  0.00    -0.027 C 
ATOM     12  C   UNL     1      32.954  -5.333 -28.476  1.00  0.00     0.008 C 
ATOM     13  C   UNL     1      33.125  -3.754 -30.962  1.00  0.00     0.008 C 
ATOM     14  C   UNL     1      27.827  -7.801 -29.066  1.00  0.00     0.017 C 
ATOM     15  C   UNL     1      28.108  -5.906 -27.239  1.00  0.00    -0.020 C 
ATOM     16  C   UNL     1      29.826  -7.807 -26.587  1.00  0.00     0.032 C 
ATOM     17  C   UNL     1      28.942  -6.622 -26.065  1.00  0.00     0.006 C 
ATOM     18  C   UNL     1      26.575  -6.036 -27.003  1.00  0.00     0.008 C 
ATOM     19  C   UNL     1      28.447  -4.380 -27.157  1.00  0.00     0.012 C 
ATOM     20  C   UNL     1      28.134  -6.980 -24.730  1.00  0.00    -0.025 C 
ATOM     21  C   UNL     1      26.095  -7.339 -26.349  1.00  0.00     0.005 C 
ATOM     22  C   UNL     1      26.856  -7.849 -25.072  1.00  0.00     0.003 C 
ATOM     23  C   UNL     1      27.705  -5.687 -23.956  1.00  0.00     0.010 C 
ATOM     24  C   UNL     1      29.129  -7.738 -23.789  1.00  0.00     0.012 C 
ATOM     25  C   UNL     1      25.872  -8.112 -23.839  1.00  0.00    -0.006 C 
ATOM     26  C   UNL     1      26.768  -5.943 -22.758  1.00  0.00     0.033 C 
ATOM     27  C   UNL     1      25.517  -6.764 -23.137  1.00  0.00     0.120 C 
ATOM     28  C   UNL     1      24.557  -8.828 -24.293  1.00  0.00     0.014 C 
ATOM     29  C   UNL     1      26.498  -9.103 -22.808  1.00  0.00     0.014 C 
ENDROOT
BRANCH   1  30
ATOM     30  C   UNL     1      30.335  -7.782 -31.532  1.00  0.00     0.048 C 
ATOM     31  O   UNL     1      29.368  -8.399 -32.055  1.00  0.00    -0.550 OA
ATOM     32  O   UNL     1      31.502  -8.486 -31.260  1.00  0.00    -0.550 OA
ENDBRANCH   1  30
BRANCH  27  33
ATOM     33  O   UNL     1      24.690  -5.979 -23.960  1.00  0.00    -0.393 OA
ATOM     34  H   UNL     1      23.963  -5.620 -23.386  1.00  0.00     0.210 HD
ENDBRANCH  27  33
TORSDOF 2
ENDMDL
MODEL 5
REMARK VINA RESULT:    -5.837      1.478      2.067
REMARK INTER + INTRA:          -6.232
REMARK INTER:                  -6.441
REMARK INTRA:                   0.210
REMARK UNBOUND:                 0.117
REMARK SMILES C[C@@H]1[C@H](C)CC[C@]2(C(=O)[O-])CC[C@@]3(C)C(=CC[C@@H]4[C@@]5(C)CC[C@@H](O)C(C)(C)[C@H]5CC[C@@]43C)[C@@H]12
REMARK SMILES IDX 7 1 6 2 11 3 33 4 5 5 12 6 15 7 2 8 3 9 13 10 16 11 1 12
REMARK SMILES IDX 4 13 14 14 31 15 17 16 18 17 30 18 32 19 19 20 29 21 28 22
REMARK SMILES IDX 21 23 20 24 25 25 22 26 23 27 26 28 27 29 8 30 9 31 10 32
REMARK SMILES IDX 24 33
REMARK H PARENT 24 34
REMARK Flexibility Score: inf
ROOT
ATOM      1  C   UNL     1      30.978  -6.286 -31.082  1.00  0.00     0.017 C 
ATOM      2  C   UNL     1      30.741  -5.390 -32.325  1.00  0.00     0.014 C 
ATOM      3  C   UNL     1      29.596  -6.544 -30.363  1.00  0.00     0.014 C 
ATOM      4  C   UNL     1      31.954  -5.560 -30.091  1.00  0.00     0.030 C 
ATOM      5  C   UNL     1      32.056  -5.003 -33.009  1.00  0.00     0.004 C 
ATOM      6  C   UNL     1      29.596  -6.290 -28.831  1.00  0.00     0.013 C 
ATOM      7  C   UNL     1      32.109  -6.451 -28.842  1.00  0.00    -0.063 C 
ATOM      8  C   UNL     1      33.259  -4.975 -30.746  1.00  0.00    -0.003 C 
ATOM      9  C   UNL     1      32.962  -4.194 -32.069  1.00  0.00    -0.011 C 
ATOM     10  C   UNL     1      30.849  -6.902 -28.099  1.00  0.00    -0.006 C 
ATOM     11  C   UNL     1      33.296  -6.873 -28.373  1.00  0.00    -0.027 C 
ATOM     12  C   UNL     1      34.036  -4.056 -29.768  1.00  0.00     0.008 C 
ATOM     13  C   UNL     1      32.394  -2.771 -31.856  1.00  0.00     0.008 C 
ATOM     14  C   UNL     1      30.696  -8.450 -28.265  1.00  0.00     0.017 C 
ATOM     15  C   UNL     1      30.996  -6.454 -26.551  1.00  0.00    -0.020 C 
ATOM     16  C   UNL     1      33.420  -7.419 -26.977  1.00  0.00     0.032 C 
ATOM     17  C   UNL     1      32.483  -6.660 -25.976  1.00  0.00     0.006 C 
ATOM     18  C   UNL     1      29.941  -7.180 -25.665  1.00  0.00     0.008 C 
ATOM     19  C   UNL     1      30.688  -4.923 -26.451  1.00  0.00     0.012 C 
ATOM     20  C   UNL     1      32.600  -7.198 -24.472  1.00  0.00    -0.025 C 
ATOM     21  C   UNL     1      30.386  -8.502 -25.025  1.00  0.00     0.005 C 
ATOM     22  C   UNL     1      31.781  -8.541 -24.300  1.00  0.00     0.003 C 
ATOM     23  C   UNL     1      32.096  -6.133 -23.441  1.00  0.00     0.010 C 
ATOM     24  C   UNL     1      34.125  -7.396 -24.181  1.00  0.00     0.012 C 
ATOM     25  C   UNL     1      31.673  -9.075 -22.796  1.00  0.00    -0.006 C 
ATOM     26  C   UNL     1      32.007  -6.644 -21.988  1.00  0.00     0.033 C 
ATOM     27  C   UNL     1      31.172  -7.935 -21.855  1.00  0.00     0.120 C 
ATOM     28  C   UNL     1      30.711 -10.304 -22.688  1.00  0.00     0.014 C 
ATOM     29  C   UNL     1      33.040  -9.628 -22.286  1.00  0.00     0.014 C 
ENDROOT
BRANCH   1  30
ATOM     30  C   UNL     1      31.542  -7.621 -31.576  1.00  0.00     0.048 C 
ATOM     31  O   UNL     1      30.798  -8.638 -31.624  1.00  0.00    -0.550 OA
ATOM     32  O   UNL     1      32.860  -7.744 -32.002  1.00  0.00    -0.550 OA
ENDBRANCH   1  30
BRANCH  27  33
ATOM     33  O   UNL     1      29.823  -7.634 -22.116  1.00  0.00    -0.393 OA
ATOM     34  H   UNL     1      29.421  -8.439 -22.537  1.00  0.00     0.210 HD
ENDBRANCH  27  33
TORSDOF 2
ENDMDL
MODEL 6
REMARK VINA RESULT:    -5.699      2.083      3.925
REMARK INTER + INTRA:          -6.083
REMARK INTER:                  -6.200
REMARK INTRA:                   0.117
REMARK UNBOUND:                 0.117
REMARK SMILES C[C@@H]1[C@H](C)CC[C@]2(C(=O)[O-])CC[C@@]3(C)C(=CC[C@@H]4[C@@]5(C)CC[C@@H](O)C(C)(C)[C@H]5CC[C@@]43C)[C@@H]12
REMARK SMILES IDX 7 1 6 2 11 3 33 4 5 5 12 6 15 7 2 8 3 9 13 10 16 11 1 12
REMARK SMILES IDX 4 13 14 14 31 15 17 16 18 17 30 18 32 19 19 20 29 21 28 22
REMARK SMILES IDX 21 23 20 24 25 25 22 26 23 27 26 28 27 29 8 30 9 31 10 32
REMARK SMILES IDX 24 33
REMARK H PARENT 24 34
REMARK Flexibility Score: inf
ROOT
ATOM      1  C   UNL     1      31.927  -6.425 -30.353  1.00  0.00     0.017 C 
ATOM      2  C   UNL     1      31.719  -6.724 -31.859  1.00  0.00     0.014 C 
ATOM      3  C   UNL     1      33.298  -7.056 -29.888  1.00  0.00     0.014 C 
ATOM      4  C   UNL     1      30.754  -7.058 -29.525  1.00  0.00     0.030 C 
ATOM      5  C   UNL     1      30.353  -6.240 -32.355  1.00  0.00     0.004 C 
ATOM      6  C   UNL     1      33.221  -7.912 -28.593  1.00  0.00     0.013 C 
ATOM      7  C   UNL     1      31.034  -6.798 -28.031  1.00  0.00    -0.063 C 
ATOM      8  C   UNL     1      29.311  -6.752 -30.069  1.00  0.00    -0.003 C 
ATOM      9  C   UNL     1      29.205  -6.947 -31.618  1.00  0.00    -0.011 C 
ATOM     10  C   UNL     1      32.380  -7.233 -27.448  1.00  0.00    -0.006 C 
ATOM     11  C   UNL     1      30.164  -6.189 -27.207  1.00  0.00    -0.027 C 
ATOM     12  C   UNL     1      28.232  -7.616 -29.366  1.00  0.00     0.008 C 
ATOM     13  C   UNL     1      29.095  -8.423 -32.069  1.00  0.00     0.008 C 
ATOM     14  C   UNL     1      33.193  -5.956 -27.054  1.00  0.00     0.017 C 
ATOM     15  C   UNL     1      32.087  -8.197 -26.182  1.00  0.00    -0.020 C 
ATOM     16  C   UNL     1      30.323  -6.284 -25.716  1.00  0.00     0.032 C 
ATOM     17  C   UNL     1      30.854  -7.693 -25.281  1.00  0.00     0.006 C 
ATOM     18  C   UNL     1      33.372  -8.389 -25.325  1.00  0.00     0.008 C 
ATOM     19  C   UNL     1      31.693  -9.612 -26.723  1.00  0.00     0.012 C 
ATOM     20  C   UNL     1      31.019  -7.843 -23.695  1.00  0.00    -0.025 C 
ATOM     21  C   UNL     1      33.567  -7.404 -24.163  1.00  0.00     0.005 C 
ATOM     22  C   UNL     1      32.348  -7.137 -23.208  1.00  0.00     0.003 C 
ATOM     23  C   UNL     1      31.027  -9.348 -23.260  1.00  0.00     0.010 C 
ATOM     24  C   UNL     1      29.742  -7.211 -23.047  1.00  0.00     0.012 C 
ATOM     25  C   UNL     1      32.713  -7.377 -21.670  1.00  0.00    -0.006 C 
ATOM     26  C   UNL     1      31.364  -9.579 -21.772  1.00  0.00     0.033 C 
ATOM     27  C   UNL     1      32.684  -8.903 -21.342  1.00  0.00     0.120 C 
ATOM     28  C   UNL     1      34.119  -6.792 -21.312  1.00  0.00     0.014 C 
ATOM     29  C   UNL     1      31.739  -6.609 -20.723  1.00  0.00     0.014 C 
ENDROOT
BRANCH   1  30
ATOM     30  C   UNL     1      31.995  -4.904 -30.189  1.00  0.00     0.048 C 
ATOM     31  O   UNL     1      33.109  -4.316 -30.244  1.00  0.00    -0.550 OA
ATOM     32  O   UNL     1      30.850  -4.138 -30.004  1.00  0.00    -0.550 OA
ENDBRANCH   1  30
BRANCH  27  33
ATOM     33  O   UNL     1      33.757  -9.564 -21.965  1.00  0.00    -0.393 OA
ATOM     34  H   UNL     1      33.409 -10.430 -22.306  1.00  0.00     0.210 HD
ENDBRANCH  27  33
TORSDOF 2
ENDMDL
MODEL 7
REMARK VINA RESULT:    -5.666      3.306      7.956
REMARK INTER + INTRA:          -6.046
REMARK INTER:                  -6.163
REMARK INTRA:                   0.117
REMARK UNBOUND:                 0.117
REMARK SMILES C[C@@H]1[C@H](C)CC[C@]2(C(=O)[O-])CC[C@@]3(C)C(=CC[C@@H]4[C@@]5(C)CC[C@@H](O)C(C)(C)[C@H]5CC[C@@]43C)[C@@H]12
REMARK SMILES IDX 7 1 6 2 11 3 33 4 5 5 12 6 15 7 2 8 3 9 13 10 16 11 1 12
REMARK SMILES IDX 4 13 14 14 31 15 17 16 18 17 30 18 32 19 19 20 29 21 28 22
REMARK SMILES IDX 21 23 20 24 25 25 22 26 23 27 26 28 27 29 8 30 9 31 10 32
REMARK SMILES IDX 24 33
REMARK H PARENT 24 34
REMARK Flexibility Score: inf
ROOT
ATOM      1  C   UNL     1      24.972  -4.192 -25.901  1.00  0.00     0.017 C 
ATOM      2  C   UNL     1      23.492  -4.143 -25.444  1.00  0.00     0.014 C 
ATOM      3  C   UNL     1      25.108  -3.444 -27.285  1.00  0.00     0.014 C 
ATOM      4  C   UNL     1      25.419  -5.687 -26.070  1.00  0.00     0.030 C 
ATOM      5  C   UNL     1      23.263  -4.949 -24.161  1.00  0.00     0.004 C 
ATOM      6  C   UNL     1      25.875  -4.230 -28.383  1.00  0.00     0.013 C 
ATOM      7  C   UNL     1      26.870  -5.691 -26.590  1.00  0.00    -0.063 C 
ATOM      8  C   UNL     1      25.066  -6.631 -24.863  1.00  0.00    -0.003 C 
ATOM      9  C   UNL     1      23.596  -6.435 -24.365  1.00  0.00    -0.011 C 
ATOM     10  C   UNL     1      27.200  -4.900 -27.859  1.00  0.00    -0.006 C 
ATOM     11  C   UNL     1      27.877  -6.340 -25.980  1.00  0.00    -0.027 C 
ATOM     12  C   UNL     1      25.298  -8.125 -25.208  1.00  0.00     0.008 C 
ATOM     13  C   UNL     1      22.526  -7.116 -25.250  1.00  0.00     0.008 C 
ATOM     14  C   UNL     1      28.132  -3.703 -27.476  1.00  0.00     0.017 C 
ATOM     15  C   UNL     1      27.892  -5.914 -28.913  1.00  0.00    -0.020 C 
ATOM     16  C   UNL     1      29.165  -6.614 -26.704  1.00  0.00     0.032 C 
ATOM     17  C   UNL     1      28.918  -6.938 -28.218  1.00  0.00     0.006 C 
ATOM     18  C   UNL     1      28.576  -5.125 -30.068  1.00  0.00     0.008 C 
ATOM     19  C   UNL     1      26.769  -6.785 -29.567  1.00  0.00     0.012 C 
ATOM     20  C   UNL     1      30.266  -7.256 -29.022  1.00  0.00    -0.025 C 
ATOM     21  C   UNL     1      30.058  -4.777 -29.870  1.00  0.00     0.005 C 
ATOM     22  C   UNL     1      31.026  -5.916 -29.381  1.00  0.00     0.003 C 
ATOM     23  C   UNL     1      29.975  -8.068 -30.330  1.00  0.00     0.010 C 
ATOM     24  C   UNL     1      31.125  -8.196 -28.112  1.00  0.00     0.012 C 
ATOM     25  C   UNL     1      32.290  -6.096 -30.343  1.00  0.00    -0.006 C 
ATOM     26  C   UNL     1      31.199  -8.255 -31.250  1.00  0.00     0.033 C 
ATOM     27  C   UNL     1      31.893  -6.923 -31.606  1.00  0.00     0.120 C 
ATOM     28  C   UNL     1      32.880  -4.717 -30.786  1.00  0.00     0.014 C 
ATOM     29  C   UNL     1      33.478  -6.787 -29.603  1.00  0.00     0.014 C 
ENDROOT
BRANCH   1  30
ATOM     30  C   UNL     1      25.806  -3.454 -24.850  1.00  0.00     0.048 C 
ATOM     31  O   UNL     1      26.023  -2.219 -24.975  1.00  0.00    -0.550 OA
ATOM     32  O   UNL     1      26.316  -4.107 -23.733  1.00  0.00    -0.550 OA
ENDBRANCH   1  30
BRANCH  27  33
ATOM     33  O   UNL     1      31.043  -6.176 -32.440  1.00  0.00    -0.393 OA
ATOM     34  H   UNL     1      31.624  -5.634 -33.038  1.00  0.00     0.210 HD
ENDBRANCH  27  33
TORSDOF 2
ENDMDL
MODEL 8
REMARK VINA RESULT:    -5.460     10.962     12.864
REMARK INTER + INTRA:          -5.822
REMARK INTER:                  -5.936
REMARK INTRA:                   0.114
REMARK UNBOUND:                 0.117
REMARK SMILES C[C@@H]1[C@H](C)CC[C@]2(C(=O)[O-])CC[C@@]3(C)C(=CC[C@@H]4[C@@]5(C)CC[C@@H](O)C(C)(C)[C@H]5CC[C@@]43C)[C@@H]12
REMARK SMILES IDX 7 1 6 2 11 3 33 4 5 5 12 6 15 7 2 8 3 9 13 10 16 11 1 12
REMARK SMILES IDX 4 13 14 14 31 15 17 16 18 17 30 18 32 19 19 20 29 21 28 22
REMARK SMILES IDX 21 23 20 24 25 25 22 26 23 27 26 28 27 29 8 30 9 31 10 32
REMARK SMILES IDX 24 33
REMARK H PARENT 24 34
REMARK Flexibility Score: inf
ROOT
ATOM      1  C   UNL     1      24.921   3.791 -24.852  1.00  0.00     0.017 C 
ATOM      2  C   UNL     1      24.378   3.847 -26.302  1.00  0.00     0.014 C 
ATOM      3  C   UNL     1      26.360   3.137 -24.867  1.00  0.00     0.014 C 
ATOM      4  C   UNL     1      23.963   2.920 -23.966  1.00  0.00     0.030 C 
ATOM      5  C   UNL     1      22.937   4.365 -26.353  1.00  0.00     0.004 C 
ATOM      6  C   UNL     1      26.573   1.997 -23.835  1.00  0.00     0.013 C 
ATOM      7  C   UNL     1      24.573   2.833 -22.553  1.00  0.00    -0.063 C 
ATOM      8  C   UNL     1      22.436   3.274 -24.088  1.00  0.00    -0.003 C 
ATOM      9  C   UNL     1      21.982   3.446 -25.576  1.00  0.00    -0.011 C 
ATOM     10  C   UNL     1      26.015   2.340 -22.403  1.00  0.00    -0.006 C 
ATOM     11  C   UNL     1      23.914   3.185 -21.435  1.00  0.00    -0.027 C 
ATOM     12  C   UNL     1      21.539   2.214 -23.396  1.00  0.00     0.008 C 
ATOM     13  C   UNL     1      21.767   2.116 -26.336  1.00  0.00     0.008 C 
ATOM     14  C   UNL     1      26.901   3.527 -21.900  1.00  0.00     0.017 C 
ATOM     15  C   UNL     1      26.010   1.090 -21.376  1.00  0.00    -0.020 C 
ATOM     16  C   UNL     1      24.405   2.746 -20.084  1.00  0.00     0.032 C 
ATOM     17  C   UNL     1      25.014   1.303 -20.132  1.00  0.00     0.006 C 
ATOM     18  C   UNL     1      27.455   0.766 -20.895  1.00  0.00     0.008 C 
ATOM     19  C   UNL     1      25.499  -0.175 -22.143  1.00  0.00     0.012 C 
ATOM     20  C   UNL     1      25.532   0.789 -18.706  1.00  0.00    -0.025 C 
ATOM     21  C   UNL     1      27.911   1.455 -19.602  1.00  0.00     0.005 C 
ATOM     22  C   UNL     1      26.940   1.427 -18.366  1.00  0.00     0.003 C 
ATOM     23  C   UNL     1      25.632  -0.773 -18.661  1.00  0.00     0.010 C 
ATOM     24  C   UNL     1      24.438   1.184 -17.659  1.00  0.00     0.012 C 
ATOM     25  C   UNL     1      27.641   0.847 -17.051  1.00  0.00    -0.006 C 
ATOM     26  C   UNL     1      26.295  -1.333 -17.385  1.00  0.00     0.033 C 
ATOM     27  C   UNL     1      27.680  -0.713 -17.105  1.00  0.00     0.120 C 
ATOM     28  C   UNL     1      29.094   1.401 -16.880  1.00  0.00     0.014 C 
ATOM     29  C   UNL     1      26.909   1.319 -15.756  1.00  0.00     0.014 C 
ENDROOT
BRANCH   1  30
ATOM     30  C   UNL     1      25.032   5.231 -24.344  1.00  0.00     0.048 C 
ATOM     31  O   UNL     1      26.105   5.872 -24.502  1.00  0.00    -0.550 OA
ATOM     32  O   UNL     1      23.963   5.871 -23.726  1.00  0.00    -0.550 OA
ENDBRANCH   1  30
BRANCH  27  33
ATOM     33  O   UNL     1      28.583  -1.152 -18.090  1.00  0.00    -0.393 OA
ATOM     34  H   UNL     1      28.505  -2.142 -18.137  1.00  0.00     0.210 HD
ENDBRANCH  27  33
TORSDOF 2
ENDMDL
MODEL 9
REMARK VINA RESULT:    -5.336      1.932      7.865
REMARK INTER + INTRA:          -5.688
REMARK INTER:                  -5.804
REMARK INTRA:                   0.117
REMARK UNBOUND:                 0.117
REMARK SMILES C[C@@H]1[C@H](C)CC[C@]2(C(=O)[O-])CC[C@@]3(C)C(=CC[C@@H]4[C@@]5(C)CC[C@@H](O)C(C)(C)[C@H]5CC[C@@]43C)[C@@H]12
REMARK SMILES IDX 7 1 6 2 11 3 33 4 5 5 12 6 15 7 2 8 3 9 13 10 16 11 1 12
REMARK SMILES IDX 4 13 14 14 31 15 17 16 18 17 30 18 32 19 19 20 29 21 28 22
REMARK SMILES IDX 21 23 20 24 25 25 22 26 23 27 26 28 27 29 8 30 9 31 10 32
REMARK SMILES IDX 24 33
REMARK H PARENT 24 34
REMARK Flexibility Score: inf
ROOT
ATOM      1  C   UNL     1      32.291  -8.344 -22.547  1.00  0.00     0.017 C 
ATOM      2  C   UNL     1      32.975  -8.120 -21.175  1.00  0.00     0.014 C 
ATOM      3  C   UNL     1      33.400  -8.629 -23.634  1.00  0.00     0.014 C 
ATOM      4  C   UNL     1      31.486  -7.057 -22.948  1.00  0.00     0.030 C 
ATOM      5  C   UNL     1      31.968  -7.724 -20.091  1.00  0.00     0.004 C 
ATOM      6  C   UNL     1      33.278  -7.786 -24.933  1.00  0.00     0.013 C 
ATOM      7  C   UNL     1      30.879  -7.295 -24.345  1.00  0.00    -0.063 C 
ATOM      8  C   UNL     1      30.549  -6.479 -21.825  1.00  0.00    -0.003 C 
ATOM      9  C   UNL     1      31.262  -6.403 -20.435  1.00  0.00    -0.011 C 
ATOM     10  C   UNL     1      31.807  -7.709 -25.490  1.00  0.00    -0.006 C 
ATOM     11  C   UNL     1      29.567  -7.176 -24.615  1.00  0.00    -0.027 C 
ATOM     12  C   UNL     1      29.996  -5.079 -22.197  1.00  0.00     0.008 C 
ATOM     13  C   UNL     1      32.235  -5.210 -20.280  1.00  0.00     0.008 C 
ATOM     14  C   UNL     1      31.459  -9.176 -25.911  1.00  0.00     0.017 C 
ATOM     15  C   UNL     1      31.610  -6.652 -26.698  1.00  0.00    -0.020 C 
ATOM     16  C   UNL     1      29.083  -7.059 -26.034  1.00  0.00     0.032 C 
ATOM     17  C   UNL     1      30.075  -6.224 -26.915  1.00  0.00     0.006 C 
ATOM     18  C   UNL     1      32.235  -7.198 -28.016  1.00  0.00     0.008 C 
ATOM     19  C   UNL     1      32.390  -5.344 -26.339  1.00  0.00     0.012 C 
ATOM     20  C   UNL     1      29.586  -6.058 -28.430  1.00  0.00    -0.025 C 
ATOM     21  C   UNL     1      31.296  -7.988 -28.938  1.00  0.00     0.005 C 
ATOM     22  C   UNL     1      29.884  -7.375 -29.255  1.00  0.00     0.003 C 
ATOM     23  C   UNL     1      30.270  -4.832 -29.123  1.00  0.00     0.010 C 
ATOM     24  C   UNL     1      28.057  -5.728 -28.378  1.00  0.00     0.012 C 
ATOM     25  C   UNL     1      29.605  -7.263 -30.826  1.00  0.00    -0.006 C 
ATOM     26  C   UNL     1      29.989  -4.715 -30.635  1.00  0.00     0.033 C 
ATOM     27  C   UNL     1      30.323  -6.007 -31.411  1.00  0.00     0.120 C 
ATOM     28  C   UNL     1      30.083  -8.542 -31.589  1.00  0.00     0.014 C 
ATOM     29  C   UNL     1      28.076  -7.196 -31.133  1.00  0.00     0.014 C 
ENDROOT
BRANCH   1  30
ATOM     30  C   UNL     1      31.388  -9.574 -22.418  1.00  0.00     0.048 C 
ATOM     31  O   UNL     1      31.843 -10.717 -22.692  1.00  0.00    -0.550 OA
ATOM     32  O   UNL     1      30.073  -9.472 -21.979  1.00  0.00    -0.550 OA
ENDBRANCH   1  30
BRANCH  27  33
ATOM     33  O   UNL     1      31.718  -6.189 -31.412  1.00  0.00    -0.393 OA
ATOM     34  H   UNL     1      32.123  -5.346 -31.747  1.00  0.00     0.210 HD
ENDBRANCH  27  33
TORSDOF 2
ENDMDL
