MODEL 1
REMARK VINA RESULT:    -3.768      0.000      0.000
REMARK INTER + INTRA:          -6.597
REMARK INTER:                  -5.971
REMARK INTRA:                  -0.626
REMARK UNBOUND:                -0.626
REMARK SMILES CCCCCCCCCCCC(=O)[O-]
REMARK SMILES IDX 7 1 8 2 9 3 10 4 11 5 12 6 13 7 14 8 6 9 5 10 4 11 3 12 2 13
REMARK SMILES IDX 1 14
REMARK H PARENT
REMARK Flexibility Score: inf
ROOT
ATOM      1  C   UNL     1      35.226  28.396  15.765  1.00  0.00     0.000 C 
ENDROOT
BRANCH   1   2
ATOM      2  C   UNL     1      35.155  27.014  15.088  1.00  0.00     0.000 C 
BRANCH   2   3
ATOM      3  C   UNL     1      35.473  27.006  13.579  1.00  0.00     0.000 C 
BRANCH   3   4
ATOM      4  C   UNL     1      34.263  27.242  12.652  1.00  0.00     0.006 C 
BRANCH   4   5
ATOM      5  C   UNL     1      34.046  28.710  12.255  1.00  0.00     0.053 C 
BRANCH   5   6
ATOM      6  C   UNL     1      32.933  29.342  13.033  1.00  0.00     0.041 C 
ATOM      7  O   UNL     1      32.282  28.665  13.872  1.00  0.00    -0.550 OA
ATOM      8  O   UNL     1      32.636  30.686  12.855  1.00  0.00    -0.550 OA
ENDBRANCH   5   6
ENDBRANCH   4   5
ENDBRANCH   3   4
ENDBRANCH   2   3
ENDBRANCH   1   2
BRANCH   1   9
ATOM      9  C   UNL     1      36.494  28.578  16.615  1.00  0.00     0.000 C 
BRANCH   9  10
ATOM     10  C   UNL     1      36.180  29.007  18.059  1.00  0.00    -0.000 C 
BRANCH  10  11
ATOM     11  C   UNL     1      34.762  28.603  18.498  1.00  0.00    -0.000 C 
BRANCH  11  12
ATOM     12  C   UNL     1      34.434  29.064  19.928  1.00  0.00    -0.000 C 
BRANCH  12  13
ATOM     13  C   UNL     1      35.471  28.588  20.956  1.00  0.00    -0.003 C 
ATOM     14  C   UNL     1      35.826  29.705  21.933  1.00  0.00     0.004 C 
ENDBRANCH  12  13
ENDBRANCH  11  12
ENDBRANCH  10  11
ENDBRANCH   9  10
ENDBRANCH   1   9
TORSDOF 10
ENDMDL
MODEL 2
REMARK VINA RESULT:    -3.586      3.666      6.940
REMARK INTER + INTRA:          -6.309
REMARK INTER:                  -5.456
REMARK INTRA:                  -0.852
REMARK UNBOUND:                -0.626
REMARK SMILES CCCCCCCCCCCC(=O)[O-]
REMARK SMILES IDX 7 1 8 2 9 3 10 4 11 5 12 6 13 7 14 8 6 9 5 10 4 11 3 12 2 13
REMARK SMILES IDX 1 14
REMARK H PARENT
REMARK Flexibility Score: inf
ROOT
ATOM      1  C   UNL     1      34.869  28.929  16.789  1.00  0.00     0.000 C 
ENDROOT
BRANCH   1   2
ATOM      2  C   UNL     1      34.591  28.869  18.303  1.00  0.00     0.000 C 
BRANCH   2   3
ATOM      3  C   UNL     1      34.855  27.502  18.965  1.00  0.00     0.000 C 
BRANCH   3   4
ATOM      4  C   UNL     1      35.754  27.543  20.218  1.00  0.00     0.006 C 
BRANCH   4   5
ATOM      5  C   UNL     1      36.415  28.905  20.480  1.00  0.00     0.053 C 
BRANCH   5   6
ATOM      6  C   UNL     1      35.854  29.574  21.696  1.00  0.00     0.041 C 
ATOM      7  O   UNL     1      34.928  29.028  22.351  1.00  0.00    -0.550 OA
ATOM      8  O   UNL     1      36.377  30.787  22.125  1.00  0.00    -0.550 OA
ENDBRANCH   5   6
ENDBRANCH   4   5
ENDBRANCH   3   4
ENDBRANCH   2   3
ENDBRANCH   1   2
BRANCH   1   9
ATOM      9  C   UNL     1      36.269  28.411  16.419  1.00  0.00     0.000 C 
BRANCH   9  10
ATOM     10  C   UNL     1      36.272  27.603  15.111  1.00  0.00    -0.000 C 
BRANCH  10  11
ATOM     11  C   UNL     1      34.853  27.325  14.586  1.00  0.00    -0.000 C 
BRANCH  11  12
ATOM     12  C   UNL     1      34.797  27.242  13.052  1.00  0.00    -0.000 C 
BRANCH  12  13
ATOM     13  C   UNL     1      33.699  28.131  12.450  1.00  0.00    -0.003 C 
ATOM     14  C   UNL     1      32.937  28.875  13.542  1.00  0.00     0.004 C 
ENDBRANCH  12  13
ENDBRANCH  11  12
ENDBRANCH  10  11
ENDBRANCH   9  10
ENDBRANCH   1   9
TORSDOF 10
ENDMDL
MODEL 3
REMARK VINA RESULT:    -3.552      1.204      2.202
REMARK INTER + INTRA:          -6.254
REMARK INTER:                  -5.529
REMARK INTRA:                  -0.725
REMARK UNBOUND:                -0.626
REMARK SMILES CCCCCCCCCCCC(=O)[O-]
REMARK SMILES IDX 7 1 8 2 9 3 10 4 11 5 12 6 13 7 14 8 6 9 5 10 4 11 3 12 2 13
REMARK SMILES IDX 1 14
REMARK H PARENT
REMARK Flexibility Score: inf
ROOT
ATOM      1  C   UNL     1      36.082  29.116  17.929  1.00  0.00     0.000 C 
ENDROOT
BRANCH   1   2
ATOM      2  C   UNL     1      36.428  28.766  16.470  1.00  0.00     0.000 C 
BRANCH   2   3
ATOM      3  C   UNL     1      35.336  27.991  15.704  1.00  0.00     0.000 C 
BRANCH   3   4
ATOM      4  C   UNL     1      35.697  27.611  14.253  1.00  0.00     0.006 C 
BRANCH   4   5
ATOM      5  C   UNL     1      34.498  27.180  13.394  1.00  0.00     0.053 C 
BRANCH   5   6
ATOM      6  C   UNL     1      33.705  28.355  12.912  1.00  0.00     0.041 C 
ATOM      7  O   UNL     1      34.051  28.969  11.869  1.00  0.00    -0.550 OA
ATOM      8  O   UNL     1      32.564  28.752  13.596  1.00  0.00    -0.550 OA
ENDBRANCH   5   6
ENDBRANCH   4   5
ENDBRANCH   3   4
ENDBRANCH   2   3
ENDBRANCH   1   2
BRANCH   1   9
ATOM      9  C   UNL     1      34.612  28.830  18.278  1.00  0.00     0.000 C 
BRANCH   9  10
ATOM     10  C   UNL     1      34.443  27.556  19.123  1.00  0.00    -0.000 C 
BRANCH  10  11
ATOM     11  C   UNL     1      35.789  26.966  19.575  1.00  0.00    -0.000 C 
BRANCH  11  12
ATOM     12  C   UNL     1      35.957  26.984  21.104  1.00  0.00    -0.000 C 
BRANCH  12  13
ATOM     13  C   UNL     1      36.327  28.374  21.642  1.00  0.00    -0.003 C 
ATOM     14  C   UNL     1      35.228  28.921  22.549  1.00  0.00     0.004 C 
ENDBRANCH  12  13
ENDBRANCH  11  12
ENDBRANCH  10  11
ENDBRANCH   9  10
ENDBRANCH   1   9
TORSDOF 10
ENDMDL
MODEL 4
REMARK VINA RESULT:    -3.548      3.470      6.726
REMARK INTER + INTRA:          -6.249
REMARK INTER:                  -5.628
REMARK INTRA:                  -0.621
REMARK UNBOUND:                -0.626
REMARK SMILES CCCCCCCCCCCC(=O)[O-]
REMARK SMILES IDX 7 1 8 2 9 3 10 4 11 5 12 6 13 7 14 8 6 9 5 10 4 11 3 12 2 13
REMARK SMILES IDX 1 14
REMARK H PARENT
REMARK Flexibility Score: inf
ROOT
ATOM      1  C   UNL     1      36.732  28.630  16.072  1.00  0.00     0.000 C 
ENDROOT
BRANCH   1   2
ATOM      2  C   UNL     1      36.311  29.082  17.483  1.00  0.00     0.000 C 
BRANCH   2   3
ATOM      3  C   UNL     1      34.791  29.084  17.745  1.00  0.00     0.000 C 
BRANCH   3   4
ATOM      4  C   UNL     1      34.349  28.383  19.046  1.00  0.00     0.006 C 
BRANCH   4   5
ATOM      5  C   UNL     1      34.309  29.300  20.278  1.00  0.00     0.053 C 
BRANCH   5   6
ATOM      6  C   UNL     1      35.464  29.052  21.198  1.00  0.00     0.041 C 
ATOM      7  O   UNL     1      36.341  29.938  21.369  1.00  0.00    -0.550 OA
ATOM      8  O   UNL     1      35.553  27.852  21.893  1.00  0.00    -0.550 OA
ENDBRANCH   5   6
ENDBRANCH   4   5
ENDBRANCH   3   4
ENDBRANCH   2   3
ENDBRANCH   1   2
BRANCH   1   9
ATOM      9  C   UNL     1      36.414  27.150  15.801  1.00  0.00     0.000 C 
BRANCH   9  10
ATOM     10  C   UNL     1      35.137  26.965  14.964  1.00  0.00    -0.000 C 
BRANCH  10  11
ATOM     11  C   UNL     1      35.310  27.445  13.512  1.00  0.00    -0.000 C 
BRANCH  11  12
ATOM     12  C   UNL     1      33.965  27.696  12.810  1.00  0.00    -0.000 C 
BRANCH  12  13
ATOM     13  C   UNL     1      33.009  28.554  13.651  1.00  0.00    -0.003 C 
ATOM     14  C   UNL     1      32.815  29.932  13.025  1.00  0.00     0.004 C 
ENDBRANCH  12  13
ENDBRANCH  11  12
ENDBRANCH  10  11
ENDBRANCH   9  10
ENDBRANCH   1   9
TORSDOF 10
ENDMDL
MODEL 5
REMARK VINA RESULT:    -3.380      3.736      7.475
REMARK INTER + INTRA:          -5.982
REMARK INTER:                  -5.480
REMARK INTRA:                  -0.502
REMARK UNBOUND:                -0.626
REMARK SMILES CCCCCCCCCCCC(=O)[O-]
REMARK SMILES IDX 7 1 8 2 9 3 10 4 11 5 12 6 13 7 14 8 6 9 5 10 4 11 3 12 2 13
REMARK SMILES IDX 1 14
REMARK H PARENT
REMARK Flexibility Score: inf
ROOT
ATOM      1  C   UNL     1      35.527  29.062  17.454  1.00  0.00     0.000 C 
ENDROOT
BRANCH   1   2
ATOM      2  C   UNL     1      34.525  28.853  18.605  1.00  0.00     0.000 C 
BRANCH   2   3
ATOM      3  C   UNL     1      34.845  27.677  19.549  1.00  0.00     0.000 C 
BRANCH   3   4
ATOM      4  C   UNL     1      36.179  27.795  20.316  1.00  0.00     0.006 C 
BRANCH   4   5
ATOM      5  C   UNL     1      36.043  27.697  21.843  1.00  0.00     0.053 C 
BRANCH   5   6
ATOM      6  C   UNL     1      35.644  29.005  22.453  1.00  0.00     0.041 C 
ATOM      7  O   UNL     1      34.762  29.043  23.351  1.00  0.00    -0.550 OA
ATOM      8  O   UNL     1      36.270  30.178  22.054  1.00  0.00    -0.550 OA
ENDBRANCH   5   6
ENDBRANCH   4   5
ENDBRANCH   3   4
ENDBRANCH   2   3
ENDBRANCH   1   2
BRANCH   1   9
ATOM      9  C   UNL     1      34.908  28.800  16.071  1.00  0.00     0.000 C 
BRANCH   9  10
ATOM     10  C   UNL     1      35.556  27.603  15.353  1.00  0.00    -0.000 C 
BRANCH  10  11
ATOM     11  C   UNL     1      34.997  27.394  13.935  1.00  0.00    -0.000 C 
BRANCH  11  12
ATOM     12  C   UNL     1      33.693  28.173  13.694  1.00  0.00    -0.000 C 
BRANCH  12  13
ATOM     13  C   UNL     1      33.580  28.710  12.260  1.00  0.00    -0.003 C 
ATOM     14  C   UNL     1      33.983  27.646  11.242  1.00  0.00     0.004 C 
ENDBRANCH  12  13
ENDBRANCH  11  12
ENDBRANCH  10  11
ENDBRANCH   9  10
ENDBRANCH   1   9
TORSDOF 10
ENDMDL
MODEL 6
REMARK VINA RESULT:    -3.224     17.430     18.777
REMARK INTER + INTRA:          -5.735
REMARK INTER:                  -5.073
REMARK INTRA:                  -0.662
REMARK UNBOUND:                -0.626
REMARK SMILES CCCCCCCCCCCC(=O)[O-]
REMARK SMILES IDX 7 1 8 2 9 3 10 4 11 5 12 6 13 7 14 8 6 9 5 10 4 11 3 12 2 13
REMARK SMILES IDX 1 14
REMARK H PARENT
REMARK Flexibility Score: inf
ROOT
ATOM      1  C   UNL     1      33.857  43.516  24.981  1.00  0.00     0.000 C 
ENDROOT
BRANCH   1   2
ATOM      2  C   UNL     1      35.391  43.603  25.096  1.00  0.00     0.000 C 
BRANCH   2   3
ATOM      3  C   UNL     1      36.087  44.413  23.984  1.00  0.00     0.000 C 
BRANCH   3   4
ATOM      4  C   UNL     1      36.399  45.882  24.340  1.00  0.00     0.006 C 
BRANCH   4   5
ATOM      5  C   UNL     1      37.123  46.663  23.233  1.00  0.00     0.053 C 
BRANCH   5   6
ATOM      6  C   UNL     1      36.451  46.502  21.904  1.00  0.00     0.041 C 
ATOM      7  O   UNL     1      37.078  46.003  20.933  1.00  0.00    -0.550 OA
ATOM      8  O   UNL     1      35.123  46.873  21.748  1.00  0.00    -0.550 OA
ENDBRANCH   5   6
ENDBRANCH   4   5
ENDBRANCH   3   4
ENDBRANCH   2   3
ENDBRANCH   1   2
BRANCH   1   9
ATOM      9  C   UNL     1      33.335  43.980  23.611  1.00  0.00     0.000 C 
BRANCH   9  10
ATOM     10  C   UNL     1      31.876  43.564  23.364  1.00  0.00    -0.000 C 
BRANCH  10  11
ATOM     11  C   UNL     1      31.226  44.348  22.211  1.00  0.00    -0.000 C 
BRANCH  11  12
ATOM     12  C   UNL     1      32.066  45.559  21.774  1.00  0.00    -0.000 C 
BRANCH  12  13
ATOM     13  C   UNL     1      31.250  46.859  21.721  1.00  0.00    -0.003 C 
ATOM     14  C   UNL     1      29.945  46.718  22.500  1.00  0.00     0.004 C 
ENDBRANCH  12  13
ENDBRANCH  11  12
ENDBRANCH  10  11
ENDBRANCH   9  10
ENDBRANCH   1   9
TORSDOF 10
ENDMDL
MODEL 7
REMARK VINA RESULT:    -3.189      2.884      6.150
REMARK INTER + INTRA:          -5.679
REMARK INTER:                  -5.325
REMARK INTRA:                  -0.354
REMARK UNBOUND:                -0.626
REMARK SMILES CCCCCCCCCCCC(=O)[O-]
REMARK SMILES IDX 7 1 8 2 9 3 10 4 11 5 12 6 13 7 14 8 6 9 5 10 4 11 3 12 2 13
REMARK SMILES IDX 1 14
REMARK H PARENT
REMARK Flexibility Score: inf
ROOT
ATOM      1  C   UNL     1      36.277  26.909  13.503  1.00  0.00     0.000 C 
ENDROOT
BRANCH   1   2
ATOM      2  C   UNL     1      36.782  26.938  14.958  1.00  0.00     0.000 C 
BRANCH   2   3
ATOM      3  C   UNL     1      36.509  28.250  15.721  1.00  0.00     0.000 C 
BRANCH   3   4
ATOM      4  C   UNL     1      35.314  28.205  16.696  1.00  0.00     0.006 C 
BRANCH   4   5
ATOM      5  C   UNL     1      35.481  29.086  17.944  1.00  0.00     0.053 C 
BRANCH   5   6
ATOM      6  C   UNL     1      34.779  28.508  19.134  1.00  0.00     0.041 C 
ATOM      7  O   UNL     1      34.804  27.267  19.344  1.00  0.00    -0.550 OA
ATOM      8  O   UNL     1      34.126  29.344  20.029  1.00  0.00    -0.550 OA
ENDBRANCH   5   6
ENDBRANCH   4   5
ENDBRANCH   3   4
ENDBRANCH   2   3
ENDBRANCH   1   2
BRANCH   1   9
ATOM      9  C   UNL     1      34.744  26.990  13.403  1.00  0.00     0.000 C 
BRANCH   9  10
ATOM     10  C   UNL     1      34.241  26.875  11.954  1.00  0.00    -0.000 C 
BRANCH  10  11
ATOM     11  C   UNL     1      33.867  28.240  11.350  1.00  0.00    -0.000 C 
BRANCH  11  12
ATOM     12  C   UNL     1      34.101  29.402  12.329  1.00  0.00    -0.000 C 
BRANCH  12  13
ATOM     13  C   UNL     1      32.794  29.953  12.917  1.00  0.00    -0.003 C 
ATOM     14  C   UNL     1      32.185  28.971  13.914  1.00  0.00     0.004 C 
ENDBRANCH  12  13
ENDBRANCH  11  12
ENDBRANCH  10  11
ENDBRANCH   9  10
ENDBRANCH   1   9
TORSDOF 10
ENDMDL
MODEL 8
REMARK VINA RESULT:    -2.852      1.656      3.032
REMARK INTER + INTRA:          -5.145
REMARK INTER:                  -4.835
REMARK INTRA:                  -0.309
REMARK UNBOUND:                -0.626
REMARK SMILES CCCCCCCCCCCC(=O)[O-]
REMARK SMILES IDX 7 1 8 2 9 3 10 4 11 5 12 6 13 7 14 8 6 9 5 10 4 11 3 12 2 13
REMARK SMILES IDX 1 14
REMARK H PARENT
REMARK Flexibility Score: inf
ROOT
ATOM      1  C   UNL     1      35.013  28.731  18.378  1.00  0.00     0.000 C 
ENDROOT
BRANCH   1   2
ATOM      2  C   UNL     1      35.068  27.227  18.052  1.00  0.00     0.000 C 
BRANCH   2   3
ATOM      3  C   UNL     1      35.666  26.875  16.675  1.00  0.00     0.000 C 
BRANCH   3   4
ATOM      4  C   UNL     1      35.239  27.802  15.518  1.00  0.00     0.006 C 
BRANCH   4   5
ATOM      5  C   UNL     1      34.851  27.066  14.227  1.00  0.00     0.053 C 
BRANCH   5   6
ATOM      6  C   UNL     1      34.010  27.919  13.328  1.00  0.00     0.041 C 
ATOM      7  O   UNL     1      34.203  27.913  12.084  1.00  0.00    -0.550 OA
ATOM      8  O   UNL     1      32.990  28.696  13.862  1.00  0.00    -0.550 OA
ENDBRANCH   5   6
ENDBRANCH   4   5
ENDBRANCH   3   4
ENDBRANCH   2   3
ENDBRANCH   1   2
BRANCH   1   9
ATOM      9  C   UNL     1      35.820  29.098  19.635  1.00  0.00     0.000 C 
BRANCH   9  10
ATOM     10  C   UNL     1      34.937  29.211  20.890  1.00  0.00    -0.000 C 
BRANCH  10  11
ATOM     11  C   UNL     1      35.757  29.469  22.166  1.00  0.00    -0.000 C 
BRANCH  11  12
ATOM     12  C   UNL     1      35.266  28.635  23.361  1.00  0.00    -0.000 C 
BRANCH  12  13
ATOM     13  C   UNL     1      35.740  29.196  24.709  1.00  0.00    -0.003 C 
ATOM     14  C   UNL     1      35.647  30.719  24.733  1.00  0.00     0.004 C 
ENDBRANCH  12  13
ENDBRANCH  11  12
ENDBRANCH  10  11
ENDBRANCH   9  10
ENDBRANCH   1   9
TORSDOF 10
ENDMDL
