MODEL 1
REMARK VINA RESULT:    -5.576      0.000      0.000
REMARK INTER + INTRA:         -12.323
REMARK INTER:                  -9.162
REMARK INTRA:                  -3.162
REMARK UNBOUND:                -3.162
REMARK SMILES C[C@H]1O[C@H](OC[C@@H]2O[C@@H](Oc3c(-c4ccc(O)c(O)c4)oc4cc(O)cc(O)c4c3=O)[C@H](O)[C@@H](O)[C@@H]2O)[C@@H](O)[C@@H](O)[C@@H]1O
REMARK SMILES IDX 7 1 36 2 34 3 32 4 9 5 8 6 6 7 5 8 4 9 1 10 2 11 42 12 3 13
REMARK SMILES IDX 40 14 38 15 43 16 41 18 39 20 37 22 35 24 10 26 11 27 12 28
REMARK SMILES IDX 30 29 21 30 29 31 31 32 22 33 27 34 23 35 26 36 24 37 13 38
REMARK SMILES IDX 20 39 14 40 18 41 15 42 16 43 19 44 17 46 28 48 25 50 33 52
REMARK H PARENT 43 17 41 19 39 21 37 23 35 25 19 45 17 47 28 49 25 51 33 53
REMARK Flexibility Score: inf
ROOT
ATOM      1  C   UNL     1     -96.931 -19.638 -65.187  1.00  0.00     0.180 C 
ATOM      2  C   UNL     1     -97.427 -20.694 -66.237  1.00  0.00     0.177 C 
ATOM      3  C   UNL     1     -98.933 -21.117 -66.131  1.00  0.00     0.180 C 
ATOM      4  C   UNL     1     -99.445 -21.056 -64.672  1.00  0.00     0.214 C 
ATOM      5  C   UNL     1     -98.869 -19.840 -63.908  1.00  0.00     0.339 C 
ATOM      6  O   UNL     1     -97.449 -19.907 -63.900  1.00  0.00    -0.332 OA
ENDROOT
BRANCH   1   7
ATOM      7  C   UNL     1     -95.385 -19.476 -65.159  1.00  0.00     0.198 C 
BRANCH   7   8
ATOM      8  O   UNL     1     -94.687 -20.523 -64.483  1.00  0.00    -0.347 OA
BRANCH   8   9
ATOM      9  C   UNL     1     -93.794 -19.985 -63.507  1.00  0.00     0.281 C 
ATOM     10  C   UNL     1     -93.690 -20.705 -59.881  1.00  0.00     0.041 C 
ATOM     11  C   UNL     1     -93.141 -20.726 -61.311  1.00  0.00     0.150 C 
ATOM     12  C   UNL     1     -91.909 -19.784 -61.425  1.00  0.00     0.174 C 
ATOM     13  O   UNL     1     -94.205 -20.397 -62.199  1.00  0.00    -0.344 OA
ATOM     14  C   UNL     1     -91.369 -19.683 -62.878  1.00  0.00     0.179 C 
ATOM     15  C   UNL     1     -92.331 -20.389 -63.860  1.00  0.00     0.202 C 
BRANCH  12  16
ATOM     16  O   UNL     1     -90.876 -20.172 -60.548  1.00  0.00    -0.388 OA
ATOM     17  H   UNL     1     -91.280 -20.741 -59.844  1.00  0.00     0.211 HD
ENDBRANCH  12  16
BRANCH  14  18
ATOM     18  O   UNL     1     -91.223 -18.335 -63.248  1.00  0.00    -0.387 OA
ATOM     19  H   UNL     1     -91.830 -18.158 -64.013  1.00  0.00     0.211 HD
ENDBRANCH  14  18
BRANCH  15  20
ATOM     20  O   UNL     1     -92.000 -20.089 -65.193  1.00  0.00    -0.385 OA
ATOM     21  H   UNL     1     -92.801 -19.724 -65.646  1.00  0.00     0.211 HD
ENDBRANCH  15  20
ENDBRANCH   8   9
ENDBRANCH   7   8
ENDBRANCH   1   7
BRANCH   2  22
ATOM     22  O   UNL     1     -96.658 -21.868 -66.127  1.00  0.00    -0.387 OA
ATOM     23  H   UNL     1     -95.827 -21.640 -65.637  1.00  0.00     0.211 HD
ENDBRANCH   2  22
BRANCH   3  24
ATOM     24  O   UNL     1     -99.770 -20.359 -66.984  1.00  0.00    -0.387 OA
ATOM     25  H   UNL     1    -100.363 -19.783 -66.417  1.00  0.00     0.211 HD
ENDBRANCH   3  24
BRANCH   5  26
ATOM     26  O   UNL     1     -99.367 -18.577 -64.415  1.00  0.00    -0.454 OA
BRANCH  26  27
ATOM     27  C   UNL     1     -99.875 -17.512 -63.634  1.00  0.00     0.214 A 
ATOM     28  C   UNL     1     -99.020 -16.506 -63.125  1.00  0.00     0.180 A 
ATOM     29  C   UNL     1    -101.258 -17.370 -63.367  1.00  0.00     0.239 A 
ATOM     30  O   UNL     1     -99.534 -15.392 -62.612  1.00  0.00    -0.452 OA
ATOM     31  C   UNL     1    -101.757 -16.180 -62.809  1.00  0.00     0.111 A 
ATOM     32  O   UNL     1    -102.047 -18.294 -63.684  1.00  0.00    -0.285 OA
ATOM     33  C   UNL     1    -100.825 -15.178 -62.492  1.00  0.00     0.146 A 
ATOM     34  C   UNL     1    -103.143 -15.938 -62.595  1.00  0.00     0.134 A 
ATOM     35  C   UNL     1    -101.273 -13.924 -62.061  1.00  0.00     0.094 A 
ATOM     36  C   UNL     1    -103.566 -14.674 -62.175  1.00  0.00     0.093 A 
ATOM     37  C   UNL     1    -102.638 -13.662 -61.904  1.00  0.00     0.123 A 
BRANCH  28  38
ATOM     38  C   UNL     1     -97.536 -16.591 -63.131  1.00  0.00     0.025 A 
ATOM     39  C   UNL     1     -96.880 -17.191 -62.037  1.00  0.00     0.062 A 
ATOM     40  C   UNL     1     -96.766 -15.932 -64.099  1.00  0.00     0.016 A 
ATOM     41  C   UNL     1     -95.475 -17.152 -61.933  1.00  0.00     0.158 A 
ATOM     42  C   UNL     1     -95.372 -15.923 -64.015  1.00  0.00     0.051 A 
ATOM     43  C   UNL     1     -94.719 -16.525 -62.940  1.00  0.00     0.157 A 
BRANCH  41  44
ATOM     44  O   UNL     1     -94.843 -17.696 -60.819  1.00  0.00    -0.504 OA
ATOM     45  H   UNL     1     -95.301 -18.362 -60.220  1.00  0.00     0.293 HD
ENDBRANCH  41  44
BRANCH  43  46
ATOM     46  O   UNL     1     -93.329 -16.478 -62.880  1.00  0.00    -0.504 OA
ATOM     47  H   UNL     1     -92.835 -15.728 -62.398  1.00  0.00     0.293 HD
ENDBRANCH  43  46
ENDBRANCH  28  38
BRANCH  34  48
ATOM     48  O   UNL     1    -104.108 -16.942 -62.763  1.00  0.00    -0.507 OA
ATOM     49  H   UNL     1    -104.390 -17.477 -61.956  1.00  0.00     0.293 HD
ENDBRANCH  34  48
BRANCH  37  50
ATOM     50  O   UNL     1    -103.059 -12.398 -61.491  1.00  0.00    -0.508 OA
ATOM     51  H   UNL     1    -102.718 -11.965 -60.633  1.00  0.00     0.293 HD
ENDBRANCH  37  50
ENDBRANCH  26  27
ENDBRANCH   5  26
BRANCH   4  52
ATOM     52  O   UNL     1     -99.098 -22.240 -64.006  1.00  0.00    -0.384 OA
ATOM     53  H   UNL     1     -99.792 -22.924 -64.220  1.00  0.00     0.211 HD
ENDBRANCH   4  52
TORSDOF 16
ENDMDL
MODEL 2
REMARK VINA RESULT:    -5.426      1.938      5.696
REMARK INTER + INTRA:         -12.077
REMARK INTER:                  -9.344
REMARK INTRA:                  -2.734
REMARK UNBOUND:                -3.162
REMARK SMILES C[C@H]1O[C@H](OC[C@@H]2O[C@@H](Oc3c(-c4ccc(O)c(O)c4)oc4cc(O)cc(O)c4c3=O)[C@H](O)[C@@H](O)[C@@H]2O)[C@@H](O)[C@@H](O)[C@@H]1O
REMARK SMILES IDX 7 1 36 2 34 3 32 4 9 5 8 6 6 7 5 8 4 9 1 10 2 11 42 12 3 13
REMARK SMILES IDX 40 14 38 15 43 16 41 18 39 20 37 22 35 24 10 26 11 27 12 28
REMARK SMILES IDX 30 29 21 30 29 31 31 32 22 33 27 34 23 35 26 36 24 37 13 38
REMARK SMILES IDX 20 39 14 40 18 41 15 42 16 43 19 44 17 46 28 48 25 50 33 52
REMARK H PARENT 43 17 41 19 39 21 37 23 35 25 19 45 17 47 28 49 25 51 33 53
REMARK Flexibility Score: inf
ROOT
ATOM      1  C   UNL     1     -98.737 -20.879 -65.893  1.00  0.00     0.180 C 
ATOM      2  C   UNL     1     -97.733 -22.027 -65.522  1.00  0.00     0.177 C 
ATOM      3  C   UNL     1     -96.628 -21.663 -64.470  1.00  0.00     0.180 C 
ATOM      4  C   UNL     1     -96.231 -20.169 -64.548  1.00  0.00     0.214 C 
ATOM      5  C   UNL     1     -97.453 -19.259 -64.817  1.00  0.00     0.339 C 
ATOM      6  O   UNL     1     -98.076 -19.639 -66.037  1.00  0.00    -0.332 OA
ENDROOT
BRANCH   1   7
ATOM      7  C   UNL     1     -99.615 -21.206 -67.133  1.00  0.00     0.198 C 
BRANCH   7   8
ATOM      8  O   UNL     1     -99.917 -20.085 -67.965  1.00  0.00    -0.347 OA
BRANCH   8   9
ATOM      9  C   UNL     1    -101.185 -19.528 -67.618  1.00  0.00     0.281 C 
ATOM     10  C   UNL     1    -104.008 -21.196 -65.906  1.00  0.00     0.041 C 
ATOM     11  C   UNL     1    -102.870 -20.177 -66.025  1.00  0.00     0.150 C 
ATOM     12  C   UNL     1    -103.449 -18.739 -66.141  1.00  0.00     0.174 C 
ATOM     13  O   UNL     1    -102.045 -20.560 -67.121  1.00  0.00    -0.344 OA
ATOM     14  C   UNL     1    -102.346 -17.669 -66.366  1.00  0.00     0.179 C 
ATOM     15  C   UNL     1    -100.981 -18.348 -66.620  1.00  0.00     0.202 C 
BRANCH  12  16
ATOM     16  O   UNL     1    -104.231 -18.401 -65.017  1.00  0.00    -0.388 OA
ATOM     17  H   UNL     1    -105.115 -18.099 -65.349  1.00  0.00     0.211 HD
ENDBRANCH  12  16
BRANCH  14  18
ATOM     18  O   UNL     1    -102.677 -16.854 -67.463  1.00  0.00    -0.387 OA
ATOM     19  H   UNL     1    -102.992 -15.980 -67.114  1.00  0.00     0.211 HD
ENDBRANCH  14  18
BRANCH  15  20
ATOM     20  O   UNL     1    -100.032 -17.418 -67.079  1.00  0.00    -0.385 OA
ATOM     21  H   UNL     1     -99.768 -16.833 -66.327  1.00  0.00     0.211 HD
ENDBRANCH  15  20
ENDBRANCH   8   9
ENDBRANCH   7   8
ENDBRANCH   1   7
BRANCH   2  22
ATOM     22  O   UNL     1     -97.069 -22.468 -66.682  1.00  0.00    -0.387 OA
ATOM     23  H   UNL     1     -97.342 -23.407 -66.848  1.00  0.00     0.211 HD
ENDBRANCH   2  22
BRANCH   3  24
ATOM     24  O   UNL     1     -97.003 -22.010 -63.149  1.00  0.00    -0.387 OA
ATOM     25  H   UNL     1     -96.538 -22.863 -62.901  1.00  0.00     0.211 HD
ENDBRANCH   3  24
BRANCH   5  26
ATOM     26  O   UNL     1     -98.379 -19.228 -63.703  1.00  0.00    -0.454 OA
BRANCH  26  27
ATOM     27  C   UNL     1     -98.980 -18.068 -63.156  1.00  0.00     0.214 A 
ATOM     28  C   UNL     1     -98.206 -16.930 -62.827  1.00  0.00     0.180 A 
ATOM     29  C   UNL     1    -100.378 -17.968 -62.960  1.00  0.00     0.239 A 
ATOM     30  O   UNL     1     -98.804 -15.774 -62.553  1.00  0.00    -0.452 OA
ATOM     31  C   UNL     1    -100.968 -16.728 -62.657  1.00  0.00     0.111 A 
ATOM     32  O   UNL     1    -101.098 -18.985 -63.115  1.00  0.00    -0.285 OA
ATOM     33  C   UNL     1    -100.109 -15.626 -62.513  1.00  0.00     0.146 A 
ATOM     34  C   UNL     1    -102.373 -16.541 -62.532  1.00  0.00     0.134 A 
ATOM     35  C   UNL     1    -100.647 -14.345 -62.345  1.00  0.00     0.094 A 
ATOM     36  C   UNL     1    -102.885 -15.251 -62.376  1.00  0.00     0.093 A 
ATOM     37  C   UNL     1    -102.030 -14.148 -62.280  1.00  0.00     0.123 A 
BRANCH  28  38
ATOM     38  C   UNL     1     -96.720 -16.918 -62.774  1.00  0.00     0.025 A 
ATOM     39  C   UNL     1     -96.069 -17.527 -61.683  1.00  0.00     0.062 A 
ATOM     40  C   UNL     1     -95.959 -16.163 -63.677  1.00  0.00     0.016 A 
ATOM     41  C   UNL     1     -94.675 -17.402 -61.518  1.00  0.00     0.158 A 
ATOM     42  C   UNL     1     -94.574 -16.068 -63.534  1.00  0.00     0.051 A 
ATOM     43  C   UNL     1     -93.924 -16.678 -62.463  1.00  0.00     0.157 A 
BRANCH  41  44
ATOM     44  O   UNL     1     -94.051 -17.958 -60.406  1.00  0.00    -0.504 OA
ATOM     45  H   UNL     1     -93.571 -18.842 -60.451  1.00  0.00     0.293 HD
ENDBRANCH  41  44
BRANCH  43  46
ATOM     46  O   UNL     1     -92.543 -16.543 -62.342  1.00  0.00    -0.504 OA
ATOM     47  H   UNL     1     -91.948 -17.321 -62.058  1.00  0.00     0.293 HD
ENDBRANCH  43  46
ENDBRANCH  28  38
BRANCH  34  48
ATOM     48  O   UNL     1    -103.270 -17.619 -62.531  1.00  0.00    -0.507 OA
ATOM     49  H   UNL     1    -103.719 -17.869 -61.663  1.00  0.00     0.293 HD
ENDBRANCH  34  48
BRANCH  37  50
ATOM     50  O   UNL     1    -102.540 -12.858 -62.130  1.00  0.00    -0.508 OA
ATOM     51  H   UNL     1    -102.092 -12.043 -62.547  1.00  0.00     0.293 HD
ENDBRANCH  37  50
ENDBRANCH  26  27
ENDBRANCH   5  26
BRANCH   4  52
ATOM     52  O   UNL     1     -95.278 -19.993 -65.561  1.00  0.00    -0.384 OA
ATOM     53  H   UNL     1     -94.959 -19.049 -65.519  1.00  0.00     0.211 HD
ENDBRANCH   4  52
TORSDOF 16
ENDMDL
MODEL 3
REMARK VINA RESULT:    -5.245     12.438     15.586
REMARK INTER + INTRA:         -11.780
REMARK INTER:                  -8.576
REMARK INTRA:                  -3.204
REMARK UNBOUND:                -3.162
REMARK SMILES C[C@H]1O[C@H](OC[C@@H]2O[C@@H](Oc3c(-c4ccc(O)c(O)c4)oc4cc(O)cc(O)c4c3=O)[C@H](O)[C@@H](O)[C@@H]2O)[C@@H](O)[C@@H](O)[C@@H]1O
REMARK SMILES IDX 7 1 36 2 34 3 32 4 9 5 8 6 6 7 5 8 4 9 1 10 2 11 42 12 3 13
REMARK SMILES IDX 40 14 38 15 43 16 41 18 39 20 37 22 35 24 10 26 11 27 12 28
REMARK SMILES IDX 30 29 21 30 29 31 31 32 22 33 27 34 23 35 26 36 24 37 13 38
REMARK SMILES IDX 20 39 14 40 18 41 15 42 16 43 19 44 17 46 28 48 25 50 33 52
REMARK H PARENT 43 17 41 19 39 21 37 23 35 25 19 45 17 47 28 49 25 51 33 53
REMARK Flexibility Score: inf
ROOT
ATOM      1  C   UNL     1    -103.705  -9.957 -75.629  1.00  0.00     0.180 C 
ATOM      2  C   UNL     1    -102.862  -9.531 -76.883  1.00  0.00     0.177 C 
ATOM      3  C   UNL     1    -102.052  -8.195 -76.747  1.00  0.00     0.180 C 
ATOM      4  C   UNL     1    -102.760  -7.188 -75.808  1.00  0.00     0.214 C 
ATOM      5  C   UNL     1    -103.413  -7.890 -74.594  1.00  0.00     0.339 C 
ATOM      6  O   UNL     1    -104.359  -8.850 -75.045  1.00  0.00    -0.332 OA
ENDROOT
BRANCH   1   7
ATOM      7  C   UNL     1    -104.696 -11.119 -75.920  1.00  0.00     0.198 C 
BRANCH   7   8
ATOM      8  O   UNL     1    -104.215 -12.100 -76.840  1.00  0.00    -0.347 OA
BRANCH   8   9
ATOM      9  C   UNL     1    -104.161 -13.386 -76.223  1.00  0.00     0.281 C 
ATOM     10  C   UNL     1    -106.938 -15.773 -75.704  1.00  0.00     0.041 C 
ATOM     11  C   UNL     1    -105.616 -15.302 -76.320  1.00  0.00     0.150 C 
ATOM     12  C   UNL     1    -104.436 -16.151 -75.771  1.00  0.00     0.174 C 
ATOM     13  O   UNL     1    -105.488 -13.905 -76.075  1.00  0.00    -0.344 OA
ATOM     14  C   UNL     1    -103.056 -15.654 -76.281  1.00  0.00     0.179 C 
ATOM     15  C   UNL     1    -103.213 -14.316 -77.038  1.00  0.00     0.202 C 
BRANCH  12  16
ATOM     16  O   UNL     1    -104.600 -17.520 -76.067  1.00  0.00    -0.388 OA
ATOM     17  H   UNL     1    -103.705 -17.945 -76.019  1.00  0.00     0.211 HD
ENDBRANCH  12  16
BRANCH  14  18
ATOM     18  O   UNL     1    -102.173 -15.484 -75.201  1.00  0.00    -0.387 OA
ATOM     19  H   UNL     1    -101.961 -14.517 -75.125  1.00  0.00     0.211 HD
ENDBRANCH  14  18
BRANCH  15  20
ATOM     20  O   UNL     1    -101.961 -13.723 -77.279  1.00  0.00    -0.385 OA
ATOM     21  H   UNL     1    -101.843 -13.611 -78.255  1.00  0.00     0.211 HD
ENDBRANCH  15  20
ENDBRANCH   8   9
ENDBRANCH   7   8
ENDBRANCH   1   7
BRANCH   2  22
ATOM     22  O   UNL     1    -103.709  -9.390 -77.997  1.00  0.00    -0.387 OA
ATOM     23  H   UNL     1    -103.863  -8.421 -78.140  1.00  0.00     0.211 HD
ENDBRANCH   2  22
BRANCH   3  24
ATOM     24  O   UNL     1    -100.717  -8.410 -76.330  1.00  0.00    -0.387 OA
ATOM     25  H   UNL     1    -100.389  -7.579 -75.874  1.00  0.00     0.211 HD
ENDBRANCH   3  24
BRANCH   5  26
ATOM     26  O   UNL     1    -102.434  -8.454 -73.686  1.00  0.00    -0.454 OA
BRANCH  26  27
ATOM     27  C   UNL     1    -102.356  -8.209 -72.294  1.00  0.00     0.214 A 
ATOM     28  C   UNL     1    -102.813  -9.165 -71.356  1.00  0.00     0.180 A 
ATOM     29  C   UNL     1    -101.774  -7.029 -71.770  1.00  0.00     0.239 A 
ATOM     30  O   UNL     1    -102.511  -9.033 -70.068  1.00  0.00    -0.452 OA
ATOM     31  C   UNL     1    -101.484  -6.926 -70.398  1.00  0.00     0.111 A 
ATOM     32  O   UNL     1    -101.466  -6.094 -72.550  1.00  0.00    -0.285 OA
ATOM     33  C   UNL     1    -101.839  -8.014 -69.583  1.00  0.00     0.146 A 
ATOM     34  C   UNL     1    -100.823  -5.805 -69.822  1.00  0.00     0.134 A 
ATOM     35  C   UNL     1    -101.455  -8.025 -68.237  1.00  0.00     0.094 A 
ATOM     36  C   UNL     1    -100.441  -5.846 -68.479  1.00  0.00     0.093 A 
ATOM     37  C   UNL     1    -100.754  -6.952 -67.679  1.00  0.00     0.123 A 
BRANCH  28  38
ATOM     38  C   UNL     1    -103.626 -10.358 -71.711  1.00  0.00     0.025 A 
ATOM     39  C   UNL     1    -102.969 -11.540 -72.108  1.00  0.00     0.062 A 
ATOM     40  C   UNL     1    -105.019 -10.286 -71.841  1.00  0.00     0.016 A 
ATOM     41  C   UNL     1    -103.702 -12.639 -72.599  1.00  0.00     0.158 A 
ATOM     42  C   UNL     1    -105.750 -11.386 -72.295  1.00  0.00     0.051 A 
ATOM     43  C   UNL     1    -105.105 -12.561 -72.677  1.00  0.00     0.157 A 
BRANCH  41  44
ATOM     44  O   UNL     1    -103.039 -13.779 -73.043  1.00  0.00    -0.504 OA
ATOM     45  H   UNL     1    -103.533 -14.567 -73.426  1.00  0.00     0.293 HD
ENDBRANCH  41  44
BRANCH  43  46
ATOM     46  O   UNL     1    -105.866 -13.630 -73.145  1.00  0.00    -0.504 OA
ATOM     47  H   UNL     1    -106.289 -13.626 -74.072  1.00  0.00     0.293 HD
ENDBRANCH  43  46
ENDBRANCH  28  38
BRANCH  34  48
ATOM     48  O   UNL     1    -100.566  -4.636 -70.552  1.00  0.00    -0.507 OA
ATOM     49  H   UNL     1     -99.614  -4.309 -70.615  1.00  0.00     0.293 HD
ENDBRANCH  34  48
BRANCH  37  50
ATOM     50  O   UNL     1    -100.368  -6.997 -66.339  1.00  0.00    -0.508 OA
ATOM     51  H   UNL     1    -100.318  -6.161 -65.758  1.00  0.00     0.293 HD
ENDBRANCH  37  50
ENDBRANCH  26  27
ENDBRANCH   5  26
BRANCH   4  52
ATOM     52  O   UNL     1    -103.737  -6.486 -76.529  1.00  0.00    -0.384 OA
ATOM     53  H   UNL     1    -104.002  -5.691 -75.988  1.00  0.00     0.211 HD
ENDBRANCH   4  52
TORSDOF 16
ENDMDL
MODEL 4
REMARK VINA RESULT:    -5.122      3.031      7.300
REMARK INTER + INTRA:         -11.577
REMARK INTER:                  -9.057
REMARK INTRA:                  -2.520
REMARK UNBOUND:                -3.162
REMARK SMILES C[C@H]1O[C@H](OC[C@@H]2O[C@@H](Oc3c(-c4ccc(O)c(O)c4)oc4cc(O)cc(O)c4c3=O)[C@H](O)[C@@H](O)[C@@H]2O)[C@@H](O)[C@@H](O)[C@@H]1O
REMARK SMILES IDX 7 1 36 2 34 3 32 4 9 5 8 6 6 7 5 8 4 9 1 10 2 11 42 12 3 13
REMARK SMILES IDX 40 14 38 15 43 16 41 18 39 20 37 22 35 24 10 26 11 27 12 28
REMARK SMILES IDX 30 29 21 30 29 31 31 32 22 33 27 34 23 35 26 36 24 37 13 38
REMARK SMILES IDX 20 39 14 40 18 41 15 42 16 43 19 44 17 46 28 48 25 50 33 52
REMARK H PARENT 43 17 41 19 39 21 37 23 35 25 19 45 17 47 28 49 25 51 33 53
REMARK Flexibility Score: inf
ROOT
ATOM      1  C   UNL     1     -97.884 -20.101 -63.823  1.00  0.00     0.180 C 
ATOM      2  C   UNL     1     -98.464 -19.430 -62.528  1.00  0.00     0.177 C 
ATOM      3  C   UNL     1     -99.646 -18.422 -62.743  1.00  0.00     0.180 C 
ATOM      4  C   UNL     1     -99.542 -17.700 -64.108  1.00  0.00     0.214 C 
ATOM      5  C   UNL     1     -99.044 -18.646 -65.226  1.00  0.00     0.339 C 
ATOM      6  O   UNL     1     -97.769 -19.170 -64.880  1.00  0.00    -0.332 OA
ENDROOT
BRANCH   1   7
ATOM      7  C   UNL     1     -96.549 -20.858 -63.580  1.00  0.00     0.198 C 
BRANCH   7   8
ATOM      8  O   UNL     1     -95.444 -20.383 -64.350  1.00  0.00    -0.347 OA
BRANCH   8   9
ATOM      9  C   UNL     1     -94.471 -19.766 -63.507  1.00  0.00     0.281 C 
ATOM     10  C   UNL     1     -90.875 -20.582 -63.212  1.00  0.00     0.041 C 
ATOM     11  C   UNL     1     -92.065 -19.689 -63.580  1.00  0.00     0.150 C 
ATOM     12  C   UNL     1     -92.135 -18.467 -62.620  1.00  0.00     0.174 C 
ATOM     13  O   UNL     1     -93.240 -20.494 -63.579  1.00  0.00    -0.344 OA
ATOM     14  C   UNL     1     -93.381 -17.578 -62.878  1.00  0.00     0.179 C 
ATOM     15  C   UNL     1     -94.330 -18.261 -63.888  1.00  0.00     0.202 C 
BRANCH  12  16
ATOM     16  O   UNL     1     -90.960 -17.689 -62.684  1.00  0.00    -0.388 OA
ATOM     17  H   UNL     1     -90.694 -17.629 -63.637  1.00  0.00     0.211 HD
ENDBRANCH  12  16
BRANCH  14  18
ATOM     18  O   UNL     1     -94.066 -17.342 -61.673  1.00  0.00    -0.387 OA
ATOM     19  H   UNL     1     -94.676 -18.108 -61.510  1.00  0.00     0.211 HD
ENDBRANCH  14  18
BRANCH  15  20
ATOM     20  O   UNL     1     -95.572 -17.604 -63.937  1.00  0.00    -0.385 OA
ATOM     21  H   UNL     1     -95.745 -17.180 -63.059  1.00  0.00     0.211 HD
ENDBRANCH  15  20
ENDBRANCH   8   9
ENDBRANCH   7   8
ENDBRANCH   1   7
BRANCH   2  22
ATOM     22  O   UNL     1     -97.441 -18.733 -61.858  1.00  0.00    -0.387 OA
ATOM     23  H   UNL     1     -97.039 -18.094 -62.501  1.00  0.00     0.211 HD
ENDBRANCH   2  22
BRANCH   3  24
ATOM     24  O   UNL     1    -100.913 -19.034 -62.598  1.00  0.00    -0.387 OA
ATOM     25  H   UNL     1    -101.299 -19.185 -63.512  1.00  0.00     0.211 HD
ENDBRANCH   3  24
BRANCH   5  26
ATOM     26  O   UNL     1    -100.007 -19.681 -65.548  1.00  0.00    -0.454 OA
BRANCH  26  27
ATOM     27  C   UNL     1    -100.233 -20.233 -66.831  1.00  0.00     0.214 A 
ATOM     28  C   UNL     1    -101.312 -19.795 -67.636  1.00  0.00     0.180 A 
ATOM     29  C   UNL     1     -99.371 -21.206 -67.393  1.00  0.00     0.239 A 
ATOM     30  O   UNL     1    -101.366 -20.136 -68.920  1.00  0.00    -0.452 OA
ATOM     31  C   UNL     1     -99.473 -21.547 -68.753  1.00  0.00     0.111 A 
ATOM     32  O   UNL     1     -98.475 -21.722 -66.681  1.00  0.00    -0.285 OA
ATOM     33  C   UNL     1    -100.486 -20.922 -69.499  1.00  0.00     0.146 A 
ATOM     34  C   UNL     1     -98.585 -22.451 -69.400  1.00  0.00     0.134 A 
ATOM     35  C   UNL     1    -100.552 -21.120 -70.883  1.00  0.00     0.094 A 
ATOM     36  C   UNL     1     -98.664 -22.622 -70.785  1.00  0.00     0.093 A 
ATOM     37  C   UNL     1     -99.645 -21.962 -71.533  1.00  0.00     0.123 A 
BRANCH  28  38
ATOM     38  C   UNL     1    -102.425 -18.940 -67.145  1.00  0.00     0.025 A 
ATOM     39  C   UNL     1    -103.730 -19.470 -67.109  1.00  0.00     0.062 A 
ATOM     40  C   UNL     1    -102.245 -17.573 -66.895  1.00  0.00     0.016 A 
ATOM     41  C   UNL     1    -104.831 -18.646 -66.799  1.00  0.00     0.158 A 
ATOM     42  C   UNL     1    -103.330 -16.763 -66.554  1.00  0.00     0.051 A 
ATOM     43  C   UNL     1    -104.622 -17.286 -66.505  1.00  0.00     0.157 A 
BRANCH  41  44
ATOM     44  O   UNL     1    -106.121 -19.166 -66.823  1.00  0.00    -0.504 OA
ATOM     45  H   UNL     1    -106.297 -20.145 -66.979  1.00  0.00     0.293 HD
ENDBRANCH  41  44
BRANCH  43  46
ATOM     46  O   UNL     1    -105.682 -16.442 -66.181  1.00  0.00    -0.504 OA
ATOM     47  H   UNL     1    -105.897 -16.194 -65.216  1.00  0.00     0.293 HD
ENDBRANCH  43  46
ENDBRANCH  28  38
BRANCH  34  48
ATOM     48  O   UNL     1     -97.643 -23.207 -68.688  1.00  0.00    -0.507 OA
ATOM     49  H   UNL     1     -97.937 -23.663 -67.838  1.00  0.00     0.293 HD
ENDBRANCH  34  48
BRANCH  37  50
ATOM     50  O   UNL     1     -99.721 -22.127 -72.916  1.00  0.00    -0.508 OA
ATOM     51  H   UNL     1     -99.225 -21.518 -73.566  1.00  0.00     0.293 HD
ENDBRANCH  37  50
ENDBRANCH  26  27
ENDBRANCH   5  26
BRANCH   4  52
ATOM     52  O   UNL     1     -98.672 -16.607 -63.992  1.00  0.00    -0.384 OA
ATOM     53  H   UNL     1     -99.081 -15.839 -64.479  1.00  0.00     0.211 HD
ENDBRANCH   4  52
TORSDOF 16
ENDMDL
MODEL 5
REMARK VINA RESULT:    -4.914      2.692      6.204
REMARK INTER + INTRA:         -11.236
REMARK INTER:                  -8.973
REMARK INTRA:                  -2.263
REMARK UNBOUND:                -3.162
REMARK SMILES C[C@H]1O[C@H](OC[C@@H]2O[C@@H](Oc3c(-c4ccc(O)c(O)c4)oc4cc(O)cc(O)c4c3=O)[C@H](O)[C@@H](O)[C@@H]2O)[C@@H](O)[C@@H](O)[C@@H]1O
REMARK SMILES IDX 7 1 36 2 34 3 32 4 9 5 8 6 6 7 5 8 4 9 1 10 2 11 42 12 3 13
REMARK SMILES IDX 40 14 38 15 43 16 41 18 39 20 37 22 35 24 10 26 11 27 12 28
REMARK SMILES IDX 30 29 21 30 29 31 31 32 22 33 27 34 23 35 26 36 24 37 13 38
REMARK SMILES IDX 20 39 14 40 18 41 15 42 16 43 19 44 17 46 28 48 25 50 33 52
REMARK H PARENT 43 17 41 19 39 21 37 23 35 25 19 45 17 47 28 49 25 51 33 53
REMARK Flexibility Score: inf
ROOT
ATOM      1  C   UNL     1     -98.633 -20.838 -66.103  1.00  0.00     0.180 C 
ATOM      2  C   UNL     1     -97.546 -21.926 -65.787  1.00  0.00     0.177 C 
ATOM      3  C   UNL     1     -96.443 -21.518 -64.749  1.00  0.00     0.180 C 
ATOM      4  C   UNL     1     -96.146 -20.000 -64.795  1.00  0.00     0.214 C 
ATOM      5  C   UNL     1     -97.431 -19.165 -65.012  1.00  0.00     0.339 C 
ATOM      6  O   UNL     1     -98.057 -19.554 -66.228  1.00  0.00    -0.332 OA
ENDROOT
BRANCH   1   7
ATOM      7  C   UNL     1     -99.517 -21.190 -67.332  1.00  0.00     0.198 C 
BRANCH   7   8
ATOM      8  O   UNL     1     -99.577 -22.582 -67.646  1.00  0.00    -0.347 OA
BRANCH   8   9
ATOM      9  C   UNL     1     -99.980 -22.776 -69.001  1.00  0.00     0.281 C 
ATOM     10  C   UNL     1    -102.727 -21.090 -70.817  1.00  0.00     0.041 C 
ATOM     11  C   UNL     1    -101.259 -21.425 -70.530  1.00  0.00     0.150 C 
ATOM     12  C   UNL     1    -100.669 -22.281 -71.686  1.00  0.00     0.174 C 
ATOM     13  O   UNL     1    -101.189 -22.050 -69.253  1.00  0.00    -0.344 OA
ATOM     14  C   UNL     1     -99.212 -22.739 -71.405  1.00  0.00     0.179 C 
ATOM     15  C   UNL     1     -98.809 -22.391 -69.955  1.00  0.00     0.202 C 
BRANCH  12  16
ATOM     16  O   UNL     1    -100.736 -21.603 -72.921  1.00  0.00    -0.388 OA
ATOM     17  H   UNL     1    -101.250 -22.175 -73.547  1.00  0.00     0.211 HD
ENDBRANCH  12  16
BRANCH  14  18
ATOM     18  O   UNL     1     -99.092 -24.125 -71.607  1.00  0.00    -0.387 OA
ATOM     19  H   UNL     1     -99.779 -24.579 -71.054  1.00  0.00     0.211 HD
ENDBRANCH  14  18
BRANCH  15  20
ATOM     20  O   UNL     1     -97.603 -23.021 -69.601  1.00  0.00    -0.385 OA
ATOM     21  H   UNL     1     -97.005 -22.353 -69.183  1.00  0.00     0.211 HD
ENDBRANCH  15  20
ENDBRANCH   8   9
ENDBRANCH   7   8
ENDBRANCH   1   7
BRANCH   2  22
ATOM     22  O   UNL     1     -96.884 -22.293 -66.973  1.00  0.00    -0.387 OA
ATOM     23  H   UNL     1     -96.752 -21.471 -67.512  1.00  0.00     0.211 HD
ENDBRANCH   2  22
BRANCH   3  24
ATOM     24  O   UNL     1     -96.763 -21.922 -63.431  1.00  0.00    -0.387 OA
ATOM     25  H   UNL     1     -96.762 -22.924 -63.397  1.00  0.00     0.211 HD
ENDBRANCH   3  24
BRANCH   5  26
ATOM     26  O   UNL     1     -98.330 -19.224 -63.877  1.00  0.00    -0.454 OA
BRANCH  26  27
ATOM     27  C   UNL     1     -99.022 -18.127 -63.310  1.00  0.00     0.214 A 
ATOM     28  C   UNL     1     -98.363 -17.205 -62.462  1.00  0.00     0.180 A 
ATOM     29  C   UNL     1    -100.383 -17.866 -63.599  1.00  0.00     0.239 A 
ATOM     30  O   UNL     1     -98.950 -16.056 -62.141  1.00  0.00    -0.452 OA
ATOM     31  C   UNL     1    -100.969 -16.643 -63.228  1.00  0.00     0.111 A 
ATOM     32  O   UNL     1    -101.051 -18.714 -64.241  1.00  0.00    -0.285 OA
ATOM     33  C   UNL     1    -100.163 -15.731 -62.527  1.00  0.00     0.146 A 
ATOM     34  C   UNL     1    -102.305 -16.284 -63.563  1.00  0.00     0.134 A 
ATOM     35  C   UNL     1    -100.648 -14.448 -62.250  1.00  0.00     0.094 A 
ATOM     36  C   UNL     1    -102.761 -14.993 -63.286  1.00  0.00     0.093 A 
ATOM     37  C   UNL     1    -101.940 -14.069 -62.628  1.00  0.00     0.123 A 
BRANCH  28  38
ATOM     38  C   UNL     1     -97.007 -17.421 -61.890  1.00  0.00     0.025 A 
ATOM     39  C   UNL     1     -95.880 -16.993 -62.619  1.00  0.00     0.062 A 
ATOM     40  C   UNL     1     -96.810 -18.199 -60.741  1.00  0.00     0.016 A 
ATOM     41  C   UNL     1     -94.579 -17.317 -62.186  1.00  0.00     0.158 A 
ATOM     42  C   UNL     1     -95.521 -18.490 -60.291  1.00  0.00     0.051 A 
ATOM     43  C   UNL     1     -94.403 -18.059 -61.004  1.00  0.00     0.157 A 
BRANCH  41  44
ATOM     44  O   UNL     1     -93.476 -16.939 -62.946  1.00  0.00    -0.504 OA
ATOM     45  H   UNL     1     -93.533 -16.818 -63.943  1.00  0.00     0.293 HD
ENDBRANCH  41  44
BRANCH  43  46
ATOM     46  O   UNL     1     -93.133 -18.388 -60.535  1.00  0.00    -0.504 OA
ATOM     47  H   UNL     1     -92.321 -17.802 -60.725  1.00  0.00     0.293 HD
ENDBRANCH  43  46
ENDBRANCH  28  38
BRANCH  34  48
ATOM     48  O   UNL     1    -103.199 -17.196 -64.140  1.00  0.00    -0.507 OA
ATOM     49  H   UNL     1    -103.055 -18.181 -63.974  1.00  0.00     0.293 HD
ENDBRANCH  34  48
BRANCH  37  50
ATOM     50  O   UNL     1    -102.392 -12.778 -62.355  1.00  0.00    -0.508 OA
ATOM     51  H   UNL     1    -103.375 -12.569 -62.187  1.00  0.00     0.293 HD
ENDBRANCH  37  50
ENDBRANCH  26  27
ENDBRANCH   5  26
BRANCH   4  52
ATOM     52  O   UNL     1     -95.232 -19.735 -65.825  1.00  0.00    -0.384 OA
ATOM     53  H   UNL     1     -95.557 -18.934 -66.323  1.00  0.00     0.211 HD
ENDBRANCH   4  52
TORSDOF 16
ENDMDL
MODEL 6
REMARK VINA RESULT:    -4.864      2.444      6.469
REMARK INTER + INTRA:         -11.153
REMARK INTER:                  -8.002
REMARK INTRA:                  -3.152
REMARK UNBOUND:                -3.162
REMARK SMILES C[C@H]1O[C@H](OC[C@@H]2O[C@@H](Oc3c(-c4ccc(O)c(O)c4)oc4cc(O)cc(O)c4c3=O)[C@H](O)[C@@H](O)[C@@H]2O)[C@@H](O)[C@@H](O)[C@@H]1O
REMARK SMILES IDX 7 1 36 2 34 3 32 4 9 5 8 6 6 7 5 8 4 9 1 10 2 11 42 12 3 13
REMARK SMILES IDX 40 14 38 15 43 16 41 18 39 20 37 22 35 24 10 26 11 27 12 28
REMARK SMILES IDX 30 29 21 30 29 31 31 32 22 33 27 34 23 35 26 36 24 37 13 38
REMARK SMILES IDX 20 39 14 40 18 41 15 42 16 43 19 44 17 46 28 48 25 50 33 52
REMARK H PARENT 43 17 41 19 39 21 37 23 35 25 19 45 17 47 28 49 25 51 33 53
REMARK Flexibility Score: inf
ROOT
ATOM      1  C   UNL     1     -99.326 -18.747 -62.754  1.00  0.00     0.180 C 
ATOM      2  C   UNL     1    -100.664 -18.473 -61.981  1.00  0.00     0.177 C 
ATOM      3  C   UNL     1    -101.955 -18.343 -62.861  1.00  0.00     0.180 C 
ATOM      4  C   UNL     1    -101.639 -17.759 -64.259  1.00  0.00     0.214 C 
ATOM      5  C   UNL     1    -100.302 -18.296 -64.822  1.00  0.00     0.339 C 
ATOM      6  O   UNL     1     -99.242 -17.972 -63.932  1.00  0.00    -0.332 OA
ENDROOT
BRANCH   1   7
ATOM      7  C   UNL     1     -98.059 -18.583 -61.869  1.00  0.00     0.198 C 
BRANCH   7   8
ATOM      8  O   UNL     1     -97.669 -17.230 -61.629  1.00  0.00    -0.347 OA
BRANCH   8   9
ATOM      9  C   UNL     1     -96.266 -17.065 -61.837  1.00  0.00     0.281 C 
ATOM     10  C   UNL     1     -93.510 -19.106 -60.450  1.00  0.00     0.041 C 
ATOM     11  C   UNL     1     -94.394 -18.557 -61.575  1.00  0.00     0.150 C 
ATOM     12  C   UNL     1     -93.575 -17.591 -62.477  1.00  0.00     0.174 C 
ATOM     13  O   UNL     1     -95.545 -17.962 -60.984  1.00  0.00    -0.344 OA
ATOM     14  C   UNL     1     -94.443 -16.922 -63.576  1.00  0.00     0.179 C 
ATOM     15  C   UNL     1     -95.938 -17.242 -63.350  1.00  0.00     0.202 C 
BRANCH  12  16
ATOM     16  O   UNL     1     -92.466 -18.239 -63.059  1.00  0.00    -0.388 OA
ATOM     17  H   UNL     1     -91.768 -18.321 -62.361  1.00  0.00     0.211 HD
ENDBRANCH  12  16
BRANCH  14  18
ATOM     18  O   UNL     1     -94.253 -15.529 -63.565  1.00  0.00    -0.387 OA
ATOM     19  H   UNL     1     -94.049 -15.238 -64.491  1.00  0.00     0.211 HD
ENDBRANCH  14  18
BRANCH  15  20
ATOM     20  O   UNL     1     -96.755 -16.443 -64.170  1.00  0.00    -0.385 OA
ATOM     21  H   UNL     1     -96.488 -15.497 -64.062  1.00  0.00     0.211 HD
ENDBRANCH  15  20
ENDBRANCH   8   9
ENDBRANCH   7   8
ENDBRANCH   1   7
BRANCH   2  22
ATOM     22  O   UNL     1    -100.547 -17.283 -61.239  1.00  0.00    -0.387 OA
ATOM     23  H   UNL     1     -99.693 -17.323 -60.737  1.00  0.00     0.211 HD
ENDBRANCH   2  22
BRANCH   3  24
ATOM     24  O   UNL     1    -102.656 -19.567 -62.980  1.00  0.00    -0.387 OA
ATOM     25  H   UNL     1    -103.300 -19.491 -63.745  1.00  0.00     0.211 HD
ENDBRANCH   3  24
BRANCH   5  26
ATOM     26  O   UNL     1    -100.358 -19.711 -65.133  1.00  0.00    -0.454 OA
BRANCH  26  27
ATOM     27  C   UNL     1     -99.917 -20.313 -66.336  1.00  0.00     0.214 A 
ATOM     28  C   UNL     1     -98.753 -21.119 -66.366  1.00  0.00     0.180 A 
ATOM     29  C   UNL     1    -100.637 -20.186 -67.548  1.00  0.00     0.239 A 
ATOM     30  O   UNL     1     -98.491 -21.872 -67.430  1.00  0.00    -0.452 OA
ATOM     31  C   UNL     1    -100.316 -20.993 -68.654  1.00  0.00     0.111 A 
ATOM     32  O   UNL     1    -101.602 -19.386 -67.612  1.00  0.00    -0.285 OA
ATOM     33  C   UNL     1     -99.236 -21.879 -68.512  1.00  0.00     0.146 A 
ATOM     34  C   UNL     1    -101.053 -20.977 -69.872  1.00  0.00     0.134 A 
ATOM     35  C   UNL     1     -98.955 -22.800 -69.529  1.00  0.00     0.094 A 
ATOM     36  C   UNL     1    -100.761 -21.914 -70.866  1.00  0.00     0.093 A 
ATOM     37  C   UNL     1     -99.713 -22.827 -70.704  1.00  0.00     0.123 A 
BRANCH  28  38
ATOM     38  C   UNL     1     -97.769 -21.204 -65.254  1.00  0.00     0.025 A 
ATOM     39  C   UNL     1     -96.502 -20.608 -65.414  1.00  0.00     0.062 A 
ATOM     40  C   UNL     1     -97.996 -22.013 -64.133  1.00  0.00     0.016 A 
ATOM     41  C   UNL     1     -95.492 -20.800 -64.450  1.00  0.00     0.158 A 
ATOM     42  C   UNL     1     -97.008 -22.175 -63.160  1.00  0.00     0.051 A 
ATOM     43  C   UNL     1     -95.757 -21.578 -63.309  1.00  0.00     0.157 A 
BRANCH  41  44
ATOM     44  O   UNL     1     -94.227 -20.255 -64.648  1.00  0.00    -0.504 OA
ATOM     45  H   UNL     1     -93.624 -20.018 -63.878  1.00  0.00     0.293 HD
ENDBRANCH  41  44
BRANCH  43  46
ATOM     46  O   UNL     1     -94.790 -21.780 -62.327  1.00  0.00    -0.504 OA
ATOM     47  H   UNL     1     -93.799 -21.620 -62.506  1.00  0.00     0.293 HD
ENDBRANCH  43  46
ENDBRANCH  28  38
BRANCH  34  48
ATOM     48  O   UNL     1    -102.051 -20.026 -70.125  1.00  0.00    -0.507 OA
ATOM     49  H   UNL     1    -101.796 -19.050 -70.131  1.00  0.00     0.293 HD
ENDBRANCH  34  48
BRANCH  37  50
ATOM     50  O   UNL     1     -99.424 -23.767 -71.693  1.00  0.00    -0.508 OA
ATOM     51  H   UNL     1     -98.576 -23.721 -72.257  1.00  0.00     0.293 HD
ENDBRANCH  37  50
ENDBRANCH  26  27
ENDBRANCH   5  26
BRANCH   4  52
ATOM     52  O   UNL     1    -101.590 -16.360 -64.180  1.00  0.00    -0.384 OA
ATOM     53  H   UNL     1    -100.675 -16.071 -64.450  1.00  0.00     0.211 HD
ENDBRANCH   4  52
TORSDOF 16
ENDMDL
MODEL 7
REMARK VINA RESULT:    -4.840      4.206      8.601
REMARK INTER + INTRA:         -11.114
REMARK INTER:                  -8.380
REMARK INTRA:                  -2.735
REMARK UNBOUND:                -3.162
REMARK SMILES C[C@H]1O[C@H](OC[C@@H]2O[C@@H](Oc3c(-c4ccc(O)c(O)c4)oc4cc(O)cc(O)c4c3=O)[C@H](O)[C@@H](O)[C@@H]2O)[C@@H](O)[C@@H](O)[C@@H]1O
REMARK SMILES IDX 7 1 36 2 34 3 32 4 9 5 8 6 6 7 5 8 4 9 1 10 2 11 42 12 3 13
REMARK SMILES IDX 40 14 38 15 43 16 41 18 39 20 37 22 35 24 10 26 11 27 12 28
REMARK SMILES IDX 30 29 21 30 29 31 31 32 22 33 27 34 23 35 26 36 24 37 13 38
REMARK SMILES IDX 20 39 14 40 18 41 15 42 16 43 19 44 17 46 28 48 25 50 33 52
REMARK H PARENT 43 17 41 19 39 21 37 23 35 25 19 45 17 47 28 49 25 51 33 53
REMARK Flexibility Score: inf
ROOT
ATOM      1  C   UNL     1     -99.146 -20.139 -65.249  1.00  0.00     0.180 C 
ATOM      2  C   UNL     1    -100.125 -19.198 -64.461  1.00  0.00     0.177 C 
ATOM      3  C   UNL     1    -101.290 -18.560 -65.296  1.00  0.00     0.180 C 
ATOM      4  C   UNL     1    -100.878 -18.327 -66.769  1.00  0.00     0.214 C 
ATOM      5  C   UNL     1    -100.001 -19.479 -67.314  1.00  0.00     0.339 C 
ATOM      6  O   UNL     1     -98.829 -19.609 -66.519  1.00  0.00    -0.332 OA
ENDROOT
BRANCH   1   7
ATOM      7  C   UNL     1     -97.866 -20.506 -64.447  1.00  0.00     0.198 C 
BRANCH   7   8
ATOM      8  O   UNL     1     -96.656 -19.955 -64.968  1.00  0.00    -0.347 OA
BRANCH   8   9
ATOM      9  C   UNL     1     -96.190 -18.890 -64.141  1.00  0.00     0.281 C 
ATOM     10  C   UNL     1     -92.862 -18.526 -62.566  1.00  0.00     0.041 C 
ATOM     11  C   UNL     1     -93.982 -18.140 -63.539  1.00  0.00     0.150 C 
ATOM     12  C   UNL     1     -94.622 -16.790 -63.110  1.00  0.00     0.174 C 
ATOM     13  O   UNL     1     -94.904 -19.223 -63.605  1.00  0.00    -0.344 OA
ATOM     14  C   UNL     1     -95.832 -16.395 -63.999  1.00  0.00     0.179 C 
ATOM     15  C   UNL     1     -96.204 -17.557 -64.948  1.00  0.00     0.202 C 
BRANCH  12  16
ATOM     16  O   UNL     1     -93.672 -15.747 -63.091  1.00  0.00    -0.388 OA
ATOM     17  H   UNL     1     -92.984 -15.985 -62.419  1.00  0.00     0.211 HD
ENDBRANCH  12  16
BRANCH  14  18
ATOM     18  O   UNL     1     -96.939 -16.071 -63.196  1.00  0.00    -0.387 OA
ATOM     19  H   UNL     1     -97.148 -15.111 -63.330  1.00  0.00     0.211 HD
ENDBRANCH  14  18
BRANCH  15  20
ATOM     20  O   UNL     1     -97.443 -17.323 -65.571  1.00  0.00    -0.385 OA
ATOM     21  H   UNL     1     -97.583 -16.347 -65.647  1.00  0.00     0.211 HD
ENDBRANCH  15  20
ENDBRANCH   8   9
ENDBRANCH   7   8
ENDBRANCH   1   7
BRANCH   2  22
ATOM     22  O   UNL     1     -99.400 -18.138 -63.884  1.00  0.00    -0.387 OA
ATOM     23  H   UNL     1     -99.391 -17.390 -64.534  1.00  0.00     0.211 HD
ENDBRANCH   2  22
BRANCH   3  24
ATOM     24  O   UNL     1    -102.484 -19.317 -65.226  1.00  0.00    -0.387 OA
ATOM     25  H   UNL     1    -103.167 -18.886 -65.820  1.00  0.00     0.211 HD
ENDBRANCH   3  24
BRANCH   5  26
ATOM     26  O   UNL     1    -100.733 -20.724 -67.438  1.00  0.00    -0.454 OA
BRANCH  26  27
ATOM     27  C   UNL     1    -101.043 -21.386 -68.650  1.00  0.00     0.214 A 
ATOM     28  C   UNL     1    -102.265 -21.145 -69.324  1.00  0.00     0.180 A 
ATOM     29  C   UNL     1    -100.136 -22.276 -69.274  1.00  0.00     0.239 A 
ATOM     30  O   UNL     1    -102.435 -21.576 -70.570  1.00  0.00    -0.452 OA
ATOM     31  C   UNL     1    -100.363 -22.719 -70.589  1.00  0.00     0.111 A 
ATOM     32  O   UNL     1     -99.095 -22.625 -68.664  1.00  0.00    -0.285 OA
ATOM     33  C   UNL     1    -101.537 -22.280 -71.222  1.00  0.00     0.146 A 
ATOM     34  C   UNL     1     -99.449 -23.544 -71.303  1.00  0.00     0.134 A 
ATOM     35  C   UNL     1    -101.750 -22.577 -72.572  1.00  0.00     0.094 A 
ATOM     36  C   UNL     1     -99.679 -23.817 -72.654  1.00  0.00     0.093 A 
ATOM     37  C   UNL     1    -100.827 -23.339 -73.296  1.00  0.00     0.123 A 
BRANCH  28  38
ATOM     38  C   UNL     1    -103.412 -20.407 -68.731  1.00  0.00     0.025 A 
ATOM     39  C   UNL     1    -103.565 -19.036 -69.016  1.00  0.00     0.062 A 
ATOM     40  C   UNL     1    -104.234 -20.988 -67.756  1.00  0.00     0.016 A 
ATOM     41  C   UNL     1    -104.544 -18.270 -68.352  1.00  0.00     0.158 A 
ATOM     42  C   UNL     1    -105.228 -20.239 -67.124  1.00  0.00     0.051 A 
ATOM     43  C   UNL     1    -105.390 -18.885 -67.411  1.00  0.00     0.157 A 
BRANCH  41  44
ATOM     44  O   UNL     1    -104.647 -16.904 -68.599  1.00  0.00    -0.504 OA
ATOM     45  H   UNL     1    -105.275 -16.534 -69.293  1.00  0.00     0.293 HD
ENDBRANCH  41  44
BRANCH  43  46
ATOM     46  O   UNL     1    -106.379 -18.165 -66.745  1.00  0.00    -0.504 OA
ATOM     47  H   UNL     1    -107.344 -18.489 -66.701  1.00  0.00     0.293 HD
ENDBRANCH  43  46
ENDBRANCH  28  38
BRANCH  34  48
ATOM     48  O   UNL     1     -98.331 -24.124 -70.687  1.00  0.00    -0.507 OA
ATOM     49  H   UNL     1     -97.920 -24.942 -71.110  1.00  0.00     0.293 HD
ENDBRANCH  34  48
BRANCH  37  50
ATOM     50  O   UNL     1    -101.055 -23.606 -74.646  1.00  0.00    -0.508 OA
ATOM     51  H   UNL     1    -100.346 -24.027 -75.245  1.00  0.00     0.293 HD
ENDBRANCH  37  50
ENDBRANCH  26  27
ENDBRANCH   5  26
BRANCH   4  52
ATOM     52  O   UNL     1    -100.182 -17.114 -66.872  1.00  0.00    -0.384 OA
ATOM     53  H   UNL     1     -99.628 -17.151 -67.701  1.00  0.00     0.211 HD
ENDBRANCH   4  52
TORSDOF 16
ENDMDL
MODEL 8
REMARK VINA RESULT:    -4.796     11.942     15.069
REMARK INTER + INTRA:         -11.042
REMARK INTER:                  -8.187
REMARK INTRA:                  -2.855
REMARK UNBOUND:                -3.162
REMARK SMILES C[C@H]1O[C@H](OC[C@@H]2O[C@@H](Oc3c(-c4ccc(O)c(O)c4)oc4cc(O)cc(O)c4c3=O)[C@H](O)[C@@H](O)[C@@H]2O)[C@@H](O)[C@@H](O)[C@@H]1O
REMARK SMILES IDX 7 1 36 2 34 3 32 4 9 5 8 6 6 7 5 8 4 9 1 10 2 11 42 12 3 13
REMARK SMILES IDX 40 14 38 15 43 16 41 18 39 20 37 22 35 24 10 26 11 27 12 28
REMARK SMILES IDX 30 29 21 30 29 31 31 32 22 33 27 34 23 35 26 36 24 37 13 38
REMARK SMILES IDX 20 39 14 40 18 41 15 42 16 43 19 44 17 46 28 48 25 50 33 52
REMARK H PARENT 43 17 41 19 39 21 37 23 35 25 19 45 17 47 28 49 25 51 33 53
REMARK Flexibility Score: inf
ROOT
ATOM      1  C   UNL     1    -104.788 -11.931 -73.859  1.00  0.00     0.180 C 
ATOM      2  C   UNL     1    -105.733 -12.938 -73.114  1.00  0.00     0.177 C 
ATOM      3  C   UNL     1    -105.441 -13.159 -71.588  1.00  0.00     0.180 C 
ATOM      4  C   UNL     1    -103.937 -12.996 -71.264  1.00  0.00     0.214 C 
ATOM      5  C   UNL     1    -103.291 -11.848 -72.075  1.00  0.00     0.339 C 
ATOM      6  O   UNL     1    -103.441 -12.099 -73.466  1.00  0.00    -0.332 OA
ENDROOT
BRANCH   1   7
ATOM      7  C   UNL     1    -104.942 -11.972 -75.405  1.00  0.00     0.198 C 
BRANCH   7   8
ATOM      8  O   UNL     1    -103.785 -12.425 -76.110  1.00  0.00    -0.347 OA
BRANCH   8   9
ATOM      9  C   UNL     1    -103.953 -13.775 -76.540  1.00  0.00     0.281 C 
ATOM     10  C   UNL     1    -103.778 -15.099 -79.990  1.00  0.00     0.041 C 
ATOM     11  C   UNL     1    -103.298 -14.942 -78.543  1.00  0.00     0.150 C 
ATOM     12  C   UNL     1    -103.502 -16.271 -77.764  1.00  0.00     0.174 C 
ATOM     13  O   UNL     1    -103.974 -13.826 -77.971  1.00  0.00    -0.344 OA
ATOM     14  C   UNL     1    -103.130 -16.145 -76.262  1.00  0.00     0.179 C 
ATOM     15  C   UNL     1    -102.849 -14.669 -75.899  1.00  0.00     0.202 C 
BRANCH  12  16
ATOM     16  O   UNL     1    -102.788 -17.334 -78.354  1.00  0.00    -0.388 OA
ATOM     17  H   UNL     1    -102.995 -18.155 -77.838  1.00  0.00     0.211 HD
ENDBRANCH  12  16
BRANCH  14  18
ATOM     18  O   UNL     1    -104.174 -16.636 -75.460  1.00  0.00    -0.387 OA
ATOM     19  H   UNL     1    -104.864 -17.027 -76.056  1.00  0.00     0.211 HD
ENDBRANCH  14  18
BRANCH  15  20
ATOM     20  O   UNL     1    -102.766 -14.499 -74.506  1.00  0.00    -0.385 OA
ATOM     21  H   UNL     1    -103.301 -13.707 -74.249  1.00  0.00     0.211 HD
ENDBRANCH  15  20
ENDBRANCH   8   9
ENDBRANCH   7   8
ENDBRANCH   1   7
BRANCH   2  22
ATOM     22  O   UNL     1    -105.665 -14.200 -73.734  1.00  0.00    -0.387 OA
ATOM     23  H   UNL     1    -106.036 -14.107 -74.649  1.00  0.00     0.211 HD
ENDBRANCH   2  22
BRANCH   3  24
ATOM     24  O   UNL     1    -106.223 -12.318 -70.760  1.00  0.00    -0.387 OA
ATOM     25  H   UNL     1    -107.182 -12.600 -70.838  1.00  0.00     0.211 HD
ENDBRANCH   3  24
BRANCH   5  26
ATOM     26  O   UNL     1    -103.787 -10.543 -71.685  1.00  0.00    -0.454 OA
BRANCH  26  27
ATOM     27  C   UNL     1    -102.996  -9.440 -71.285  1.00  0.00     0.214 A 
ATOM     28  C   UNL     1    -102.708  -8.383 -72.181  1.00  0.00     0.180 A 
ATOM     29  C   UNL     1    -102.499  -9.312 -69.965  1.00  0.00     0.239 A 
ATOM     30  O   UNL     1    -102.182  -7.249 -71.727  1.00  0.00    -0.452 OA
ATOM     31  C   UNL     1    -101.936  -8.099 -69.531  1.00  0.00     0.111 A 
ATOM     32  O   UNL     1    -102.615 -10.273 -69.165  1.00  0.00    -0.285 OA
ATOM     33  C   UNL     1    -101.851  -7.057 -70.470  1.00  0.00     0.146 A 
ATOM     34  C   UNL     1    -101.497  -7.875 -68.196  1.00  0.00     0.134 A 
ATOM     35  C   UNL     1    -101.425  -5.788 -70.061  1.00  0.00     0.094 A 
ATOM     36  C   UNL     1    -101.087  -6.596 -67.811  1.00  0.00     0.093 A 
ATOM     37  C   UNL     1    -101.047  -5.547 -68.737  1.00  0.00     0.123 A 
BRANCH  28  38
ATOM     38  C   UNL     1    -102.970  -8.435 -73.643  1.00  0.00     0.025 A 
ATOM     39  C   UNL     1    -101.879  -8.410 -74.535  1.00  0.00     0.062 A 
ATOM     40  C   UNL     1    -104.267  -8.321 -74.162  1.00  0.00     0.016 A 
ATOM     41  C   UNL     1    -102.090  -8.302 -75.925  1.00  0.00     0.158 A 
ATOM     42  C   UNL     1    -104.479  -8.249 -75.540  1.00  0.00     0.051 A 
ATOM     43  C   UNL     1    -103.403  -8.236 -76.427  1.00  0.00     0.157 A 
BRANCH  41  44
ATOM     44  O   UNL     1    -101.005  -8.219 -76.791  1.00  0.00    -0.504 OA
ATOM     45  H   UNL     1    -100.734  -8.990 -77.379  1.00  0.00     0.293 HD
ENDBRANCH  41  44
BRANCH  43  46
ATOM     46  O   UNL     1    -103.653  -8.142 -77.794  1.00  0.00    -0.504 OA
ATOM     47  H   UNL     1    -102.901  -8.160 -78.482  1.00  0.00     0.293 HD
ENDBRANCH  43  46
ENDBRANCH  28  38
BRANCH  34  48
ATOM     48  O   UNL     1    -101.430  -8.909 -67.252  1.00  0.00    -0.507 OA
ATOM     49  H   UNL     1    -102.173  -9.591 -67.233  1.00  0.00     0.293 HD
ENDBRANCH  34  48
BRANCH  37  50
ATOM     50  O   UNL     1    -100.644  -4.268 -68.352  1.00  0.00    -0.508 OA
ATOM     51  H   UNL     1     -99.667  -3.978 -68.364  1.00  0.00     0.293 HD
ENDBRANCH  37  50
ENDBRANCH  26  27
ENDBRANCH   5  26
BRANCH   4  52
ATOM     52  O   UNL     1    -103.269 -14.199 -71.533  1.00  0.00    -0.384 OA
ATOM     53  H   UNL     1    -103.639 -14.896 -70.923  1.00  0.00     0.211 HD
ENDBRANCH   4  52
TORSDOF 16
ENDMDL
MODEL 9
REMARK VINA RESULT:    -4.761     11.599     14.709
REMARK INTER + INTRA:         -10.985
REMARK INTER:                  -7.896
REMARK INTRA:                  -3.089
REMARK UNBOUND:                -3.162
REMARK SMILES C[C@H]1O[C@H](OC[C@@H]2O[C@@H](Oc3c(-c4ccc(O)c(O)c4)oc4cc(O)cc(O)c4c3=O)[C@H](O)[C@@H](O)[C@@H]2O)[C@@H](O)[C@@H](O)[C@@H]1O
REMARK SMILES IDX 7 1 36 2 34 3 32 4 9 5 8 6 6 7 5 8 4 9 1 10 2 11 42 12 3 13
REMARK SMILES IDX 40 14 38 15 43 16 41 18 39 20 37 22 35 24 10 26 11 27 12 28
REMARK SMILES IDX 30 29 21 30 29 31 31 32 22 33 27 34 23 35 26 36 24 37 13 38
REMARK SMILES IDX 20 39 14 40 18 41 15 42 16 43 19 44 17 46 28 48 25 50 33 52
REMARK H PARENT 43 17 41 19 39 21 37 23 35 25 19 45 17 47 28 49 25 51 33 53
REMARK Flexibility Score: inf
ROOT
ATOM      1  C   UNL     1    -103.449 -10.644 -69.670  1.00  0.00     0.180 C 
ATOM      2  C   UNL     1    -104.395 -11.880 -69.466  1.00  0.00     0.177 C 
ATOM      3  C   UNL     1    -105.459 -12.127 -70.592  1.00  0.00     0.180 C 
ATOM      4  C   UNL     1    -105.910 -10.804 -71.255  1.00  0.00     0.214 C 
ATOM      5  C   UNL     1    -104.735  -9.812 -71.427  1.00  0.00     0.339 C 
ATOM      6  O   UNL     1    -104.159  -9.525 -70.159  1.00  0.00    -0.332 OA
ENDROOT
BRANCH   1   7
ATOM      7  C   UNL     1    -102.622 -10.287 -68.404  1.00  0.00     0.198 C 
BRANCH   7   8
ATOM      8  O   UNL     1    -101.707  -9.203 -68.573  1.00  0.00    -0.347 OA
BRANCH   8   9
ATOM      9  C   UNL     1    -101.938  -8.191 -67.593  1.00  0.00     0.281 C 
ATOM     10  C   UNL     1    -104.284  -8.290 -64.734  1.00  0.00     0.041 C 
ATOM     11  C   UNL     1    -102.896  -8.249 -65.385  1.00  0.00     0.150 C 
ATOM     12  C   UNL     1    -102.222  -6.873 -65.121  1.00  0.00     0.174 C 
ATOM     13  O   UNL     1    -103.045  -8.565 -66.765  1.00  0.00    -0.344 OA
ATOM     14  C   UNL     1    -100.854  -6.733 -65.842  1.00  0.00     0.179 C 
ATOM     15  C   UNL     1    -100.624  -7.924 -66.798  1.00  0.00     0.202 C 
BRANCH  12  16
ATOM     16  O   UNL     1    -102.072  -6.625 -63.740  1.00  0.00    -0.388 OA
ATOM     17  H   UNL     1    -102.975  -6.649 -63.334  1.00  0.00     0.211 HD
ENDBRANCH  12  16
BRANCH  14  18
ATOM     18  O   UNL     1    -100.810  -5.530 -66.569  1.00  0.00    -0.387 OA
ATOM     19  H   UNL     1     -99.884  -5.177 -66.527  1.00  0.00     0.211 HD
ENDBRANCH  14  18
BRANCH  15  20
ATOM     20  O   UNL     1     -99.527  -7.688 -67.644  1.00  0.00    -0.385 OA
ATOM     21  H   UNL     1     -99.702  -8.113 -68.521  1.00  0.00     0.211 HD
ENDBRANCH  15  20
ENDBRANCH   8   9
ENDBRANCH   7   8
ENDBRANCH   1   7
BRANCH   2  22
ATOM     22  O   UNL     1    -105.098 -11.744 -68.255  1.00  0.00    -0.387 OA
ATOM     23  H   UNL     1    -105.678 -12.541 -68.151  1.00  0.00     0.211 HD
ENDBRANCH   2  22
BRANCH   3  24
ATOM     24  O   UNL     1    -105.009 -13.046 -71.571  1.00  0.00    -0.387 OA
ATOM     25  H   UNL     1    -105.658 -13.039 -72.335  1.00  0.00     0.211 HD
ENDBRANCH   3  24
BRANCH   5  26
ATOM     26  O   UNL     1    -103.758 -10.272 -72.394  1.00  0.00    -0.454 OA
BRANCH  26  27
ATOM     27  C   UNL     1    -103.592  -9.771 -73.708  1.00  0.00     0.214 A 
ATOM     28  C   UNL     1    -102.668  -8.736 -73.985  1.00  0.00     0.180 A 
ATOM     29  C   UNL     1    -104.298 -10.309 -74.811  1.00  0.00     0.239 A 
ATOM     30  O   UNL     1    -102.345  -8.450 -75.243  1.00  0.00    -0.452 OA
ATOM     31  C   UNL     1    -103.933  -9.968 -76.125  1.00  0.00     0.111 A 
ATOM     32  O   UNL     1    -105.219 -11.139 -74.610  1.00  0.00    -0.285 OA
ATOM     33  C   UNL     1    -102.883  -9.047 -76.282  1.00  0.00     0.146 A 
ATOM     34  C   UNL     1    -104.543 -10.538 -77.278  1.00  0.00     0.134 A 
ATOM     35  C   UNL     1    -102.388  -8.773 -77.562  1.00  0.00     0.094 A 
ATOM     36  C   UNL     1    -104.021 -10.256 -78.543  1.00  0.00     0.093 A 
ATOM     37  C   UNL     1    -102.945  -9.374 -78.694  1.00  0.00     0.123 A 
BRANCH  28  38
ATOM     38  C   UNL     1    -101.992  -7.920 -72.942  1.00  0.00     0.025 A 
ATOM     39  C   UNL     1    -100.984  -8.512 -72.156  1.00  0.00     0.062 A 
ATOM     40  C   UNL     1    -102.454  -6.643 -72.595  1.00  0.00     0.016 A 
ATOM     41  C   UNL     1    -100.430  -7.822 -71.059  1.00  0.00     0.158 A 
ATOM     42  C   UNL     1    -101.882  -5.945 -71.530  1.00  0.00     0.051 A 
ATOM     43  C   UNL     1    -100.877  -6.522 -70.757  1.00  0.00     0.157 A 
BRANCH  41  44
ATOM     44  O   UNL     1     -99.477  -8.440 -70.255  1.00  0.00    -0.504 OA
ATOM     45  H   UNL     1     -99.260  -8.102 -69.332  1.00  0.00     0.293 HD
ENDBRANCH  41  44
BRANCH  43  46
ATOM     46  O   UNL     1    -100.345  -5.803 -69.689  1.00  0.00    -0.504 OA
ATOM     47  H   UNL     1    -100.542  -6.051 -68.720  1.00  0.00     0.293 HD
ENDBRANCH  43  46
ENDBRANCH  28  38
BRANCH  34  48
ATOM     48  O   UNL     1    -105.678 -11.355 -77.192  1.00  0.00    -0.507 OA
ATOM     49  H   UNL     1    -106.545 -11.017 -77.582  1.00  0.00     0.293 HD
ENDBRANCH  34  48
BRANCH  37  50
ATOM     50  O   UNL     1    -102.420  -9.097 -79.957  1.00  0.00    -0.508 OA
ATOM     51  H   UNL     1    -101.463  -8.771 -80.089  1.00  0.00     0.293 HD
ENDBRANCH  37  50
ENDBRANCH  26  27
ENDBRANCH   5  26
BRANCH   4  52
ATOM     52  O   UNL     1    -106.916 -10.213 -70.477  1.00  0.00    -0.384 OA
ATOM     53  H   UNL     1    -106.516  -9.433 -70.002  1.00  0.00     0.211 HD
ENDBRANCH   4  52
TORSDOF 16
ENDMDL
