MODEL 1
REMARK VINA RESULT:    -4.658      0.000      0.000
REMARK INTER + INTRA:         -13.117
REMARK INTER:                 -10.649
REMARK INTRA:                  -2.469
REMARK UNBOUND:                -2.469
REMARK SMILES CCCCCCCCCCCCCCCCCCCCCCCC(=O)[O-]
REMARK SMILES IDX 13 1 14 2 15 3 16 4 17 5 18 6 19 7 20 8 21 9 22 10 23 11
REMARK SMILES IDX 24 12 25 13 26 14 12 15 11 16 10 17 9 18 8 19 7 20 6 21 5 22
REMARK SMILES IDX 4 23 3 24 2 25 1 26
REMARK H PARENT
REMARK Flexibility Score: inf
ROOT
ATOM      1  C   UNL     1      24.138  -1.380  36.533  1.00  0.00     0.000 C 
ENDROOT
BRANCH   1   2
ATOM      2  C   UNL     1      25.543  -1.206  37.131  1.00  0.00     0.000 C 
BRANCH   2   3
ATOM      3  C   UNL     1      25.836   0.248  37.541  1.00  0.00     0.000 C 
BRANCH   3   4
ATOM      4  C   UNL     1      26.824   0.328  38.723  1.00  0.00     0.000 C 
BRANCH   4   5
ATOM      5  C   UNL     1      26.283   1.113  39.932  1.00  0.00     0.000 C 
BRANCH   5   6
ATOM      6  C   UNL     1      26.425   2.636  39.768  1.00  0.00     0.000 C 
BRANCH   6   7
ATOM      7  C   UNL     1      26.389   3.378  41.115  1.00  0.00     0.000 C 
BRANCH   7   8
ATOM      8  C   UNL     1      25.630   2.593  42.198  1.00  0.00     0.000 C 
BRANCH   8   9
ATOM      9  C   UNL     1      26.467   2.366  43.468  1.00  0.00     0.000 C 
BRANCH   9  10
ATOM     10  C   UNL     1      26.128   1.082  44.252  1.00  0.00     0.006 C 
BRANCH  10  11
ATOM     11  C   UNL     1      26.060  -0.192  43.394  1.00  0.00     0.053 C 
BRANCH  11  12
ATOM     12  C   UNL     1      27.358  -0.942  43.393  1.00  0.00     0.041 C 
ATOM     13  O   UNL     1      27.942  -1.198  44.480  1.00  0.00    -0.550 OA
ATOM     14  O   UNL     1      27.906  -1.384  42.195  1.00  0.00    -0.550 OA
ENDBRANCH  11  12
ENDBRANCH  10  11
ENDBRANCH   9  10
ENDBRANCH   8   9
ENDBRANCH   7   8
ENDBRANCH   6   7
ENDBRANCH   5   6
ENDBRANCH   4   5
ENDBRANCH   3   4
ENDBRANCH   2   3
ENDBRANCH   1   2
BRANCH   1  15
ATOM     15  C   UNL     1      23.853  -2.830  36.108  1.00  0.00     0.000 C 
BRANCH  15  16
ATOM     16  C   UNL     1      22.582  -3.408  36.757  1.00  0.00     0.000 C 
BRANCH  16  17
ATOM     17  C   UNL     1      22.147  -4.768  36.173  1.00  0.00     0.000 C 
BRANCH  17  18
ATOM     18  C   UNL     1      22.905  -5.123  34.880  1.00  0.00    -0.000 C 
BRANCH  18  19
ATOM     19  C   UNL     1      23.689  -6.447  35.008  1.00  0.00    -0.000 C 
BRANCH  19  20
ATOM     20  C   UNL     1      24.478  -6.568  36.323  1.00  0.00    -0.000 C 
BRANCH  20  21
ATOM     21  C   UNL     1      25.997  -6.437  36.122  1.00  0.00    -0.000 C 
BRANCH  21  22
ATOM     22  C   UNL     1      26.355  -5.629  34.858  1.00  0.00    -0.000 C 
BRANCH  22  23
ATOM     23  C   UNL     1      27.338  -4.470  35.109  1.00  0.00    -0.000 C 
BRANCH  23  24
ATOM     24  C   UNL     1      27.537  -4.120  36.597  1.00  0.00    -0.000 C 
BRANCH  24  25
ATOM     25  C   UNL     1      28.829  -3.330  36.849  1.00  0.00    -0.003 C 
ATOM     26  C   UNL     1      28.867  -2.777  38.270  1.00  0.00     0.004 C 
ENDBRANCH  24  25
ENDBRANCH  23  24
ENDBRANCH  22  23
ENDBRANCH  21  22
ENDBRANCH  20  21
ENDBRANCH  19  20
ENDBRANCH  18  19
ENDBRANCH  17  18
ENDBRANCH  16  17
ENDBRANCH  15  16
ENDBRANCH   1  15
TORSDOF 22
ENDMDL
MODEL 2
REMARK VINA RESULT:    -4.628      1.382      2.606
REMARK INTER + INTRA:         -13.048
REMARK INTER:                 -10.866
REMARK INTRA:                  -2.182
REMARK UNBOUND:                -2.469
REMARK SMILES CCCCCCCCCCCCCCCCCCCCCCCC(=O)[O-]
REMARK SMILES IDX 13 1 14 2 15 3 16 4 17 5 18 6 19 7 20 8 21 9 22 10 23 11
REMARK SMILES IDX 24 12 25 13 26 14 12 15 11 16 10 17 9 18 8 19 7 20 6 21 5 22
REMARK SMILES IDX 4 23 3 24 2 25 1 26
REMARK H PARENT
REMARK Flexibility Score: inf
ROOT
ATOM      1  C   UNL     1      22.501  -3.299  36.766  1.00  0.00     0.000 C 
ENDROOT
BRANCH   1   2
ATOM      2  C   UNL     1      23.994  -2.988  36.588  1.00  0.00     0.000 C 
BRANCH   2   3
ATOM      3  C   UNL     1      24.274  -1.481  36.451  1.00  0.00     0.000 C 
BRANCH   3   4
ATOM      4  C   UNL     1      25.604  -1.076  37.120  1.00  0.00     0.000 C 
BRANCH   4   5
ATOM      5  C   UNL     1      25.630   0.381  37.617  1.00  0.00     0.000 C 
BRANCH   5   6
ATOM      6  C   UNL     1      26.185   0.516  39.045  1.00  0.00     0.000 C 
BRANCH   6   7
ATOM      7  C   UNL     1      27.176   1.683  39.183  1.00  0.00     0.000 C 
BRANCH   7   8
ATOM      8  C   UNL     1      26.537   2.922  39.833  1.00  0.00     0.000 C 
BRANCH   8   9
ATOM      9  C   UNL     1      25.176   2.621  40.482  1.00  0.00     0.000 C 
BRANCH   9  10
ATOM     10  C   UNL     1      25.079   2.966  41.982  1.00  0.00     0.006 C 
BRANCH  10  11
ATOM     11  C   UNL     1      26.277   2.500  42.825  1.00  0.00     0.053 C 
BRANCH  11  12
ATOM     12  C   UNL     1      25.963   1.270  43.621  1.00  0.00     0.041 C 
ATOM     13  O   UNL     1      25.239   1.349  44.650  1.00  0.00    -0.550 OA
ATOM     14  O   UNL     1      26.443   0.032  43.210  1.00  0.00    -0.550 OA
ENDBRANCH  11  12
ENDBRANCH  10  11
ENDBRANCH   9  10
ENDBRANCH   8   9
ENDBRANCH   7   8
ENDBRANCH   6   7
ENDBRANCH   5   6
ENDBRANCH   4   5
ENDBRANCH   3   4
ENDBRANCH   2   3
ENDBRANCH   1   2
BRANCH   1  15
ATOM     15  C   UNL     1      22.127  -4.706  36.269  1.00  0.00     0.000 C 
BRANCH  15  16
ATOM     16  C   UNL     1      22.652  -5.003  34.853  1.00  0.00     0.000 C 
BRANCH  16  17
ATOM     17  C   UNL     1      23.358  -6.369  34.724  1.00  0.00     0.000 C 
BRANCH  17  18
ATOM     18  C   UNL     1      24.304  -6.431  33.512  1.00  0.00    -0.000 C 
BRANCH  18  19
ATOM     19  C   UNL     1      25.790  -6.481  33.932  1.00  0.00    -0.000 C 
BRANCH  19  20
ATOM     20  C   UNL     1      26.296  -5.168  34.552  1.00  0.00    -0.000 C 
BRANCH  20  21
ATOM     21  C   UNL     1      26.759  -5.335  36.009  1.00  0.00    -0.000 C 
BRANCH  21  22
ATOM     22  C   UNL     1      27.519  -4.098  36.528  1.00  0.00    -0.000 C 
BRANCH  22  23
ATOM     23  C   UNL     1      28.134  -3.225  35.417  1.00  0.00    -0.000 C 
BRANCH  23  24
ATOM     24  C   UNL     1      29.664  -3.348  35.290  1.00  0.00    -0.000 C 
BRANCH  24  25
ATOM     25  C   UNL     1      30.327  -3.822  36.591  1.00  0.00    -0.003 C 
ATOM     26  C   UNL     1      31.785  -4.206  36.358  1.00  0.00     0.004 C 
ENDBRANCH  24  25
ENDBRANCH  23  24
ENDBRANCH  22  23
ENDBRANCH  21  22
ENDBRANCH  20  21
ENDBRANCH  19  20
ENDBRANCH  18  19
ENDBRANCH  17  18
ENDBRANCH  16  17
ENDBRANCH  15  16
ENDBRANCH   1  15
TORSDOF 22
ENDMDL
MODEL 3
REMARK VINA RESULT:    -4.591      1.268      4.047
REMARK INTER + INTRA:         -12.964
REMARK INTER:                 -10.380
REMARK INTRA:                  -2.584
REMARK UNBOUND:                -2.469
REMARK SMILES CCCCCCCCCCCCCCCCCCCCCCCC(=O)[O-]
REMARK SMILES IDX 13 1 14 2 15 3 16 4 17 5 18 6 19 7 20 8 21 9 22 10 23 11
REMARK SMILES IDX 24 12 25 13 26 14 12 15 11 16 10 17 9 18 8 19 7 20 6 21 5 22
REMARK SMILES IDX 4 23 3 24 2 25 1 26
REMARK H PARENT
REMARK Flexibility Score: inf
ROOT
ATOM      1  C   UNL     1      28.134  -0.876  39.606  1.00  0.00     0.000 C 
ENDROOT
BRANCH   1   2
ATOM      2  C   UNL     1      27.751   0.544  39.159  1.00  0.00     0.000 C 
BRANCH   2   3
ATOM      3  C   UNL     1      26.348   0.608  38.529  1.00  0.00     0.000 C 
BRANCH   3   4
ATOM      4  C   UNL     1      25.512   1.775  39.096  1.00  0.00     0.000 C 
BRANCH   4   5
ATOM      5  C   UNL     1      26.327   2.767  39.945  1.00  0.00     0.000 C 
BRANCH   5   6
ATOM      6  C   UNL     1      25.602   3.185  41.236  1.00  0.00     0.000 C 
BRANCH   6   7
ATOM      7  C   UNL     1      26.416   2.861  42.500  1.00  0.00     0.000 C 
BRANCH   7   8
ATOM      8  C   UNL     1      25.905   1.602  43.220  1.00  0.00     0.000 C 
BRANCH   8   9
ATOM      9  C   UNL     1      26.376   0.299  42.552  1.00  0.00     0.000 C 
BRANCH   9  10
ATOM     10  C   UNL     1      26.541  -0.900  43.508  1.00  0.00     0.006 C 
BRANCH  10  11
ATOM     11  C   UNL     1      27.879  -1.646  43.374  1.00  0.00     0.053 C 
BRANCH  11  12
ATOM     12  C   UNL     1      27.867  -2.960  44.095  1.00  0.00     0.041 C 
ATOM     13  O   UNL     1      27.703  -2.995  45.344  1.00  0.00    -0.550 OA
ATOM     14  O   UNL     1      28.007  -4.146  43.385  1.00  0.00    -0.550 OA
ENDBRANCH  11  12
ENDBRANCH  10  11
ENDBRANCH   9  10
ENDBRANCH   8   9
ENDBRANCH   7   8
ENDBRANCH   6   7
ENDBRANCH   5   6
ENDBRANCH   4   5
ENDBRANCH   3   4
ENDBRANCH   2   3
ENDBRANCH   1   2
BRANCH   1  15
ATOM     15  C   UNL     1      29.089  -1.568  38.619  1.00  0.00     0.000 C 
BRANCH  15  16
ATOM     16  C   UNL     1      28.611  -2.971  38.203  1.00  0.00     0.000 C 
BRANCH  16  17
ATOM     17  C   UNL     1      28.192  -3.072  36.721  1.00  0.00     0.000 C 
BRANCH  17  18
ATOM     18  C   UNL     1      26.726  -3.510  36.553  1.00  0.00    -0.000 C 
BRANCH  18  19
ATOM     19  C   UNL     1      25.765  -2.305  36.449  1.00  0.00    -0.000 C 
BRANCH  19  20
ATOM     20  C   UNL     1      24.449  -2.632  35.723  1.00  0.00    -0.000 C 
BRANCH  20  21
ATOM     21  C   UNL     1      23.251  -2.747  36.681  1.00  0.00    -0.000 C 
BRANCH  21  22
ATOM     22  C   UNL     1      22.356  -3.960  36.358  1.00  0.00    -0.000 C 
BRANCH  22  23
ATOM     23  C   UNL     1      22.606  -4.574  34.966  1.00  0.00    -0.000 C 
BRANCH  23  24
ATOM     24  C   UNL     1      22.933  -6.079  34.989  1.00  0.00    -0.000 C 
BRANCH  24  25
ATOM     25  C   UNL     1      24.444  -6.354  34.983  1.00  0.00    -0.003 C 
ATOM     26  C   UNL     1      25.127  -5.643  33.818  1.00  0.00     0.004 C 
ENDBRANCH  24  25
ENDBRANCH  23  24
ENDBRANCH  22  23
ENDBRANCH  21  22
ENDBRANCH  20  21
ENDBRANCH  19  20
ENDBRANCH  18  19
ENDBRANCH  17  18
ENDBRANCH  16  17
ENDBRANCH  15  16
ENDBRANCH   1  15
TORSDOF 22
ENDMDL
MODEL 4
REMARK VINA RESULT:    -4.578      2.486      8.339
REMARK INTER + INTRA:         -12.934
REMARK INTER:                 -10.776
REMARK INTRA:                  -2.158
REMARK UNBOUND:                -2.469
REMARK SMILES CCCCCCCCCCCCCCCCCCCCCCCC(=O)[O-]
REMARK SMILES IDX 13 1 14 2 15 3 16 4 17 5 18 6 19 7 20 8 21 9 22 10 23 11
REMARK SMILES IDX 24 12 25 13 26 14 12 15 11 16 10 17 9 18 8 19 7 20 6 21 5 22
REMARK SMILES IDX 4 23 3 24 2 25 1 26
REMARK H PARENT
REMARK Flexibility Score: inf
ROOT
ATOM      1  C   UNL     1      22.593  -3.320  36.809  1.00  0.00     0.000 C 
ENDROOT
BRANCH   1   2
ATOM      2  C   UNL     1      22.067  -4.639  36.222  1.00  0.00     0.000 C 
BRANCH   2   3
ATOM      3  C   UNL     1      22.719  -4.989  34.873  1.00  0.00     0.000 C 
BRANCH   3   4
ATOM      4  C   UNL     1      23.171  -6.463  34.813  1.00  0.00     0.000 C 
BRANCH   4   5
ATOM      5  C   UNL     1      24.697  -6.642  34.723  1.00  0.00     0.000 C 
BRANCH   5   6
ATOM      6  C   UNL     1      25.387  -5.508  33.946  1.00  0.00     0.000 C 
BRANCH   6   7
ATOM      7  C   UNL     1      26.895  -5.428  34.236  1.00  0.00     0.000 C 
BRANCH   7   8
ATOM      8  C   UNL     1      27.271  -4.176  35.046  1.00  0.00     0.000 C 
BRANCH   8   9
ATOM      9  C   UNL     1      27.360  -4.448  36.558  1.00  0.00     0.000 C 
BRANCH   9  10
ATOM     10  C   UNL     1      28.698  -5.048  37.035  1.00  0.00     0.006 C 
BRANCH  10  11
ATOM     11  C   UNL     1      29.689  -4.025  37.614  1.00  0.00     0.053 C 
BRANCH  11  12
ATOM     12  C   UNL     1      30.734  -3.624  36.617  1.00  0.00     0.041 C 
ATOM     13  O   UNL     1      30.499  -2.703  35.790  1.00  0.00    -0.550 OA
ATOM     14  O   UNL     1      31.976  -4.245  36.623  1.00  0.00    -0.550 OA
ENDBRANCH  11  12
ENDBRANCH  10  11
ENDBRANCH   9  10
ENDBRANCH   8   9
ENDBRANCH   7   8
ENDBRANCH   6   7
ENDBRANCH   5   6
ENDBRANCH   4   5
ENDBRANCH   3   4
ENDBRANCH   2   3
ENDBRANCH   1   2
BRANCH   1  15
ATOM     15  C   UNL     1      24.044  -3.026  36.391  1.00  0.00     0.000 C 
BRANCH  15  16
ATOM     16  C   UNL     1      24.365  -1.521  36.352  1.00  0.00     0.000 C 
BRANCH  16  17
ATOM     17  C   UNL     1      25.618  -1.130  37.164  1.00  0.00     0.000 C 
BRANCH  17  18
ATOM     18  C   UNL     1      25.586   0.339  37.624  1.00  0.00    -0.000 C 
BRANCH  18  19
ATOM     19  C   UNL     1      26.569   0.609  38.784  1.00  0.00    -0.000 C 
BRANCH  19  20
ATOM     20  C   UNL     1      26.552   2.066  39.275  1.00  0.00    -0.000 C 
BRANCH  20  21
ATOM     21  C   UNL     1      25.136   2.569  39.605  1.00  0.00    -0.000 C 
BRANCH  21  22
ATOM     22  C   UNL     1      24.953   2.862  41.108  1.00  0.00    -0.000 C 
BRANCH  22  23
ATOM     23  C   UNL     1      26.211   3.425  41.797  1.00  0.00    -0.000 C 
BRANCH  23  24
ATOM     24  C   UNL     1      26.451   2.879  43.218  1.00  0.00    -0.000 C 
BRANCH  24  25
ATOM     25  C   UNL     1      26.154   1.377  43.330  1.00  0.00    -0.003 C 
ATOM     26  C   UNL     1      25.025   1.111  44.322  1.00  0.00     0.004 C 
ENDBRANCH  24  25
ENDBRANCH  23  24
ENDBRANCH  22  23
ENDBRANCH  21  22
ENDBRANCH  20  21
ENDBRANCH  19  20
ENDBRANCH  18  19
ENDBRANCH  17  18
ENDBRANCH  16  17
ENDBRANCH  15  16
ENDBRANCH   1  15
TORSDOF 22
ENDMDL
MODEL 5
REMARK VINA RESULT:    -4.529      1.236      2.580
REMARK INTER + INTRA:         -12.822
REMARK INTER:                 -10.640
REMARK INTRA:                  -2.182
REMARK UNBOUND:                -2.469
REMARK SMILES CCCCCCCCCCCCCCCCCCCCCCCC(=O)[O-]
REMARK SMILES IDX 13 1 14 2 15 3 16 4 17 5 18 6 19 7 20 8 21 9 22 10 23 11
REMARK SMILES IDX 24 12 25 13 26 14 12 15 11 16 10 17 9 18 8 19 7 20 6 21 5 22
REMARK SMILES IDX 4 23 3 24 2 25 1 26
REMARK H PARENT
REMARK Flexibility Score: inf
ROOT
ATOM      1  C   UNL     1      25.496   0.499  37.563  1.00  0.00     0.000 C 
ENDROOT
BRANCH   1   2
ATOM      2  C   UNL     1      26.051   0.702  38.981  1.00  0.00     0.000 C 
BRANCH   2   3
ATOM      3  C   UNL     1      26.982   1.924  39.083  1.00  0.00     0.000 C 
BRANCH   3   4
ATOM      4  C   UNL     1      26.520   2.913  40.174  1.00  0.00     0.000 C 
BRANCH   4   5
ATOM      5  C   UNL     1      25.099   2.640  40.698  1.00  0.00     0.000 C 
BRANCH   5   6
ATOM      6  C   UNL     1      25.007   2.691  42.232  1.00  0.00     0.000 C 
BRANCH   6   7
ATOM      7  C   UNL     1      26.306   2.231  42.915  1.00  0.00     0.000 C 
BRANCH   7   8
ATOM      8  C   UNL     1      26.081   1.045  43.869  1.00  0.00     0.000 C 
BRANCH   8   9
ATOM      9  C   UNL     1      26.068  -0.311  43.142  1.00  0.00     0.000 C 
BRANCH   9  10
ATOM     10  C   UNL     1      27.451  -0.970  42.969  1.00  0.00     0.006 C 
BRANCH  10  11
ATOM     11  C   UNL     1      28.011  -1.626  44.242  1.00  0.00     0.053 C 
BRANCH  11  12
ATOM     12  C   UNL     1      27.728  -3.096  44.292  1.00  0.00     0.041 C 
ATOM     13  O   UNL     1      27.852  -3.801  43.254  1.00  0.00    -0.550 OA
ATOM     14  O   UNL     1      27.358  -3.695  45.490  1.00  0.00    -0.550 OA
ENDBRANCH  11  12
ENDBRANCH  10  11
ENDBRANCH   9  10
ENDBRANCH   8   9
ENDBRANCH   7   8
ENDBRANCH   6   7
ENDBRANCH   5   6
ENDBRANCH   4   5
ENDBRANCH   3   4
ENDBRANCH   2   3
ENDBRANCH   1   2
BRANCH   1  15
ATOM     15  C   UNL     1      25.477  -0.981  37.142  1.00  0.00     0.000 C 
BRANCH  15  16
ATOM     16  C   UNL     1      24.140  -1.408  36.510  1.00  0.00     0.000 C 
BRANCH  16  17
ATOM     17  C   UNL     1      24.073  -2.907  36.149  1.00  0.00     0.000 C 
BRANCH  17  18
ATOM     18  C   UNL     1      22.701  -3.528  36.467  1.00  0.00    -0.000 C 
BRANCH  18  19
ATOM     19  C   UNL     1      22.215  -4.476  35.348  1.00  0.00    -0.000 C 
BRANCH  19  20
ATOM     20  C   UNL     1      22.953  -5.824  35.323  1.00  0.00    -0.000 C 
BRANCH  20  21
ATOM     21  C   UNL     1      23.778  -6.031  34.041  1.00  0.00    -0.000 C 
BRANCH  21  22
ATOM     22  C   UNL     1      25.293  -5.892  34.290  1.00  0.00    -0.000 C 
BRANCH  22  23
ATOM     23  C   UNL     1      25.747  -6.358  35.687  1.00  0.00    -0.000 C 
BRANCH  23  24
ATOM     24  C   UNL     1      26.631  -5.341  36.436  1.00  0.00    -0.000 C 
BRANCH  24  25
ATOM     25  C   UNL     1      27.863  -4.920  35.622  1.00  0.00    -0.003 C 
ATOM     26  C   UNL     1      27.947  -3.401  35.498  1.00  0.00     0.004 C 
ENDBRANCH  24  25
ENDBRANCH  23  24
ENDBRANCH  22  23
ENDBRANCH  21  22
ENDBRANCH  20  21
ENDBRANCH  19  20
ENDBRANCH  18  19
ENDBRANCH  17  18
ENDBRANCH  16  17
ENDBRANCH  15  16
ENDBRANCH   1  15
TORSDOF 22
ENDMDL
MODEL 6
REMARK VINA RESULT:    -4.450      1.941      8.572
REMARK INTER + INTRA:         -12.642
REMARK INTER:                 -10.759
REMARK INTRA:                  -1.882
REMARK UNBOUND:                -2.469
REMARK SMILES CCCCCCCCCCCCCCCCCCCCCCCC(=O)[O-]
REMARK SMILES IDX 13 1 14 2 15 3 16 4 17 5 18 6 19 7 20 8 21 9 22 10 23 11
REMARK SMILES IDX 24 12 25 13 26 14 12 15 11 16 10 17 9 18 8 19 7 20 6 21 5 22
REMARK SMILES IDX 4 23 3 24 2 25 1 26
REMARK H PARENT
REMARK Flexibility Score: inf
ROOT
ATOM      1  C   UNL     1      25.601  -0.810  37.130  1.00  0.00     0.000 C 
ENDROOT
BRANCH   1   2
ATOM      2  C   UNL     1      24.297  -1.271  36.461  1.00  0.00     0.000 C 
BRANCH   2   3
ATOM      3  C   UNL     1      24.070  -2.788  36.590  1.00  0.00     0.000 C 
BRANCH   3   4
ATOM      4  C   UNL     1      22.578  -3.136  36.772  1.00  0.00     0.000 C 
BRANCH   4   5
ATOM      5  C   UNL     1      22.193  -4.521  36.222  1.00  0.00     0.000 C 
BRANCH   5   6
ATOM      6  C   UNL     1      22.872  -4.843  34.880  1.00  0.00     0.000 C 
BRANCH   6   7
ATOM      7  C   UNL     1      23.594  -6.200  34.897  1.00  0.00     0.000 C 
BRANCH   7   8
ATOM      8  C   UNL     1      24.060  -6.600  36.307  1.00  0.00     0.000 C 
BRANCH   8   9
ATOM      9  C   UNL     1      25.593  -6.617  36.448  1.00  0.00     0.000 C 
BRANCH   9  10
ATOM     10  C   UNL     1      26.305  -5.338  35.964  1.00  0.00     0.006 C 
BRANCH  10  11
ATOM     11  C   UNL     1      27.657  -5.062  36.642  1.00  0.00     0.053 C 
BRANCH  11  12
ATOM     12  C   UNL     1      28.068  -3.626  36.521  1.00  0.00     0.041 C 
ATOM     13  O   UNL     1      27.930  -3.018  35.425  1.00  0.00    -0.550 OA
ATOM     14  O   UNL     1      28.572  -2.950  37.625  1.00  0.00    -0.550 OA
ENDBRANCH  11  12
ENDBRANCH  10  11
ENDBRANCH   9  10
ENDBRANCH   8   9
ENDBRANCH   7   8
ENDBRANCH   6   7
ENDBRANCH   5   6
ENDBRANCH   4   5
ENDBRANCH   3   4
ENDBRANCH   2   3
ENDBRANCH   1   2
BRANCH   1  15
ATOM     15  C   UNL     1      25.396   0.408  38.047  1.00  0.00     0.000 C 
BRANCH  15  16
ATOM     16  C   UNL     1      26.611   0.694  38.948  1.00  0.00     0.000 C 
BRANCH  16  17
ATOM     17  C   UNL     1      26.711   2.163  39.411  1.00  0.00     0.000 C 
BRANCH  17  18
ATOM     18  C   UNL     1      25.550   2.569  40.336  1.00  0.00    -0.000 C 
BRANCH  18  19
ATOM     19  C   UNL     1      25.987   3.596  41.404  1.00  0.00    -0.000 C 
BRANCH  19  20
ATOM     20  C   UNL     1      26.431   2.953  42.728  1.00  0.00    -0.000 C 
BRANCH  20  21
ATOM     21  C   UNL     1      25.586   1.724  43.108  1.00  0.00    -0.000 C 
BRANCH  21  22
ATOM     22  C   UNL     1      26.394   0.681  43.906  1.00  0.00    -0.000 C 
BRANCH  22  23
ATOM     23  C   UNL     1      26.806  -0.557  43.086  1.00  0.00    -0.000 C 
BRANCH  23  24
ATOM     24  C   UNL     1      27.567  -1.625  43.894  1.00  0.00    -0.000 C 
BRANCH  24  25
ATOM     25  C   UNL     1      27.591  -2.990  43.191  1.00  0.00    -0.003 C 
ATOM     26  C   UNL     1      28.008  -4.098  44.154  1.00  0.00     0.004 C 
ENDBRANCH  24  25
ENDBRANCH  23  24
ENDBRANCH  22  23
ENDBRANCH  21  22
ENDBRANCH  20  21
ENDBRANCH  19  20
ENDBRANCH  18  19
ENDBRANCH  17  18
ENDBRANCH  16  17
ENDBRANCH  15  16
ENDBRANCH   1  15
TORSDOF 22
ENDMDL
MODEL 7
REMARK VINA RESULT:    -4.438      1.433      4.376
REMARK INTER + INTRA:         -12.615
REMARK INTER:                 -10.211
REMARK INTRA:                  -2.403
REMARK UNBOUND:                -2.469
REMARK SMILES CCCCCCCCCCCCCCCCCCCCCCCC(=O)[O-]
REMARK SMILES IDX 13 1 14 2 15 3 16 4 17 5 18 6 19 7 20 8 21 9 22 10 23 11
REMARK SMILES IDX 24 12 25 13 26 14 12 15 11 16 10 17 9 18 8 19 7 20 6 21 5 22
REMARK SMILES IDX 4 23 3 24 2 25 1 26
REMARK H PARENT
REMARK Flexibility Score: inf
ROOT
ATOM      1  C   UNL     1      27.990   0.394  39.346  1.00  0.00     0.000 C 
ENDROOT
BRANCH   1   2
ATOM      2  C   UNL     1      26.560   0.332  38.787  1.00  0.00     0.000 C 
BRANCH   2   3
ATOM      3  C   UNL     1      25.696   1.524  39.235  1.00  0.00     0.000 C 
BRANCH   3   4
ATOM      4  C   UNL     1      26.554   2.716  39.706  1.00  0.00     0.000 C 
BRANCH   4   5
ATOM      5  C   UNL     1      26.310   3.117  41.171  1.00  0.00     0.000 C 
BRANCH   5   6
ATOM      6  C   UNL     1      25.513   2.060  41.955  1.00  0.00     0.000 C 
BRANCH   6   7
ATOM      7  C   UNL     1      25.862   2.053  43.453  1.00  0.00     0.000 C 
BRANCH   7   8
ATOM      8  C   UNL     1      26.622   0.783  43.873  1.00  0.00     0.000 C 
BRANCH   8   9
ATOM      9  C   UNL     1      26.649  -0.289  42.769  1.00  0.00     0.000 C 
BRANCH   9  10
ATOM     10  C   UNL     1      27.689  -1.408  42.973  1.00  0.00     0.006 C 
BRANCH  10  11
ATOM     11  C   UNL     1      28.039  -1.696  44.442  1.00  0.00     0.053 C 
BRANCH  11  12
ATOM     12  C   UNL     1      28.081  -3.165  44.736  1.00  0.00     0.041 C 
ATOM     13  O   UNL     1      27.943  -4.002  43.803  1.00  0.00    -0.550 OA
ATOM     14  O   UNL     1      28.304  -3.611  46.032  1.00  0.00    -0.550 OA
ENDBRANCH  11  12
ENDBRANCH  10  11
ENDBRANCH   9  10
ENDBRANCH   8   9
ENDBRANCH   7   8
ENDBRANCH   6   7
ENDBRANCH   5   6
ENDBRANCH   4   5
ENDBRANCH   3   4
ENDBRANCH   2   3
ENDBRANCH   1   2
BRANCH   1  15
ATOM     15  C   UNL     1      28.652  -0.992  39.429  1.00  0.00     0.000 C 
BRANCH  15  16
ATOM     16  C   UNL     1      28.267  -1.913  38.258  1.00  0.00     0.000 C 
BRANCH  16  17
ATOM     17  C   UNL     1      29.111  -3.203  38.176  1.00  0.00     0.000 C 
BRANCH  17  18
ATOM     18  C   UNL     1      29.601  -3.496  36.747  1.00  0.00    -0.000 C 
BRANCH  18  19
ATOM     19  C   UNL     1      28.471  -3.360  35.702  1.00  0.00    -0.000 C 
BRANCH  19  20
ATOM     20  C   UNL     1      27.934  -4.711  35.202  1.00  0.00    -0.000 C 
BRANCH  20  21
ATOM     21  C   UNL     1      26.413  -4.852  35.379  1.00  0.00    -0.000 C 
BRANCH  21  22
ATOM     22  C   UNL     1      25.790  -3.633  36.089  1.00  0.00    -0.000 C 
BRANCH  22  23
ATOM     23  C   UNL     1      24.466  -3.150  35.466  1.00  0.00    -0.000 C 
BRANCH  23  24
ATOM     24  C   UNL     1      23.316  -2.978  36.477  1.00  0.00    -0.000 C 
BRANCH  24  25
ATOM     25  C   UNL     1      22.119  -3.888  36.168  1.00  0.00    -0.003 C 
ATOM     26  C   UNL     1      22.534  -5.064  35.288  1.00  0.00     0.004 C 
ENDBRANCH  24  25
ENDBRANCH  23  24
ENDBRANCH  22  23
ENDBRANCH  21  22
ENDBRANCH  20  21
ENDBRANCH  19  20
ENDBRANCH  18  19
ENDBRANCH  17  18
ENDBRANCH  16  17
ENDBRANCH  15  16
ENDBRANCH   1  15
TORSDOF 22
ENDMDL
MODEL 8
REMARK VINA RESULT:    -4.425      2.050      4.737
REMARK INTER + INTRA:         -12.584
REMARK INTER:                 -10.657
REMARK INTRA:                  -1.927
REMARK UNBOUND:                -2.469
REMARK SMILES CCCCCCCCCCCCCCCCCCCCCCCC(=O)[O-]
REMARK SMILES IDX 13 1 14 2 15 3 16 4 17 5 18 6 19 7 20 8 21 9 22 10 23 11
REMARK SMILES IDX 24 12 25 13 26 14 12 15 11 16 10 17 9 18 8 19 7 20 6 21 5 22
REMARK SMILES IDX 4 23 3 24 2 25 1 26
REMARK H PARENT
REMARK Flexibility Score: inf
ROOT
ATOM      1  C   UNL     1      26.483   2.230  39.793  1.00  0.00     0.000 C 
ENDROOT
BRANCH   1   2
ATOM      2  C   UNL     1      25.028   2.602  40.114  1.00  0.00     0.000 C 
BRANCH   2   3
ATOM      3  C   UNL     1      24.832   3.014  41.584  1.00  0.00     0.000 C 
BRANCH   3   4
ATOM      4  C   UNL     1      25.947   2.457  42.494  1.00  0.00     0.000 C 
BRANCH   4   5
ATOM      5  C   UNL     1      25.428   1.570  43.639  1.00  0.00     0.000 C 
BRANCH   5   6
ATOM      6  C   UNL     1      26.350   0.374  43.935  1.00  0.00     0.000 C 
BRANCH   6   7
ATOM      7  C   UNL     1      26.749  -0.390  42.662  1.00  0.00     0.000 C 
BRANCH   7   8
ATOM      8  C   UNL     1      27.807  -1.472  42.934  1.00  0.00     0.000 C 
BRANCH   8   9
ATOM      9  C   UNL     1      27.926  -1.829  44.426  1.00  0.00     0.000 C 
BRANCH   9  10
ATOM     10  C   UNL     1      27.578  -3.290  44.775  1.00  0.00     0.006 C 
BRANCH  10  11
ATOM     11  C   UNL     1      26.437  -3.894  43.940  1.00  0.00     0.053 C 
BRANCH  11  12
ATOM     12  C   UNL     1      26.386  -5.387  44.050  1.00  0.00     0.041 C 
ATOM     13  O   UNL     1      25.949  -5.931  45.100  1.00  0.00    -0.550 OA
ATOM     14  O   UNL     1      26.791  -6.179  42.982  1.00  0.00    -0.550 OA
ENDBRANCH  11  12
ENDBRANCH  10  11
ENDBRANCH   9  10
ENDBRANCH   8   9
ENDBRANCH   7   8
ENDBRANCH   6   7
ENDBRANCH   5   6
ENDBRANCH   4   5
ENDBRANCH   3   4
ENDBRANCH   2   3
ENDBRANCH   1   2
BRANCH   1  15
ATOM     15  C   UNL     1      26.613   0.820  39.192  1.00  0.00     0.000 C 
BRANCH  15  16
ATOM     16  C   UNL     1      25.658   0.581  38.008  1.00  0.00     0.000 C 
BRANCH  16  17
ATOM     17  C   UNL     1      25.959  -0.709  37.216  1.00  0.00     0.000 C 
BRANCH  17  18
ATOM     18  C   UNL     1      24.679  -1.458  36.803  1.00  0.00    -0.000 C 
BRANCH  18  19
ATOM     19  C   UNL     1      24.988  -2.797  36.098  1.00  0.00    -0.000 C 
BRANCH  19  20
ATOM     20  C   UNL     1      26.489  -3.035  35.865  1.00  0.00    -0.000 C 
BRANCH  20  21
ATOM     21  C   UNL     1      26.869  -4.526  35.888  1.00  0.00    -0.000 C 
BRANCH  21  22
ATOM     22  C   UNL     1      25.665  -5.432  36.214  1.00  0.00    -0.000 C 
BRANCH  22  23
ATOM     23  C   UNL     1      25.079  -6.165  34.992  1.00  0.00    -0.000 C 
BRANCH  23  24
ATOM     24  C   UNL     1      23.572  -6.464  35.097  1.00  0.00    -0.000 C 
BRANCH  24  25
ATOM     25  C   UNL     1      22.714  -5.192  35.040  1.00  0.00    -0.003 C 
ATOM     26  C   UNL     1      21.959  -4.980  36.350  1.00  0.00     0.004 C 
ENDBRANCH  24  25
ENDBRANCH  23  24
ENDBRANCH  22  23
ENDBRANCH  21  22
ENDBRANCH  20  21
ENDBRANCH  19  20
ENDBRANCH  18  19
ENDBRANCH  17  18
ENDBRANCH  16  17
ENDBRANCH  15  16
ENDBRANCH   1  15
TORSDOF 22
ENDMDL
MODEL 9
REMARK VINA RESULT:    -4.409      2.710      6.067
REMARK INTER + INTRA:         -12.547
REMARK INTER:                  -9.358
REMARK INTRA:                  -3.189
REMARK UNBOUND:                -2.469
REMARK SMILES CCCCCCCCCCCCCCCCCCCCCCCC(=O)[O-]
REMARK SMILES IDX 13 1 14 2 15 3 16 4 17 5 18 6 19 7 20 8 21 9 22 10 23 11
REMARK SMILES IDX 24 12 25 13 26 14 12 15 11 16 10 17 9 18 8 19 7 20 6 21 5 22
REMARK SMILES IDX 4 23 3 24 2 25 1 26
REMARK H PARENT
REMARK Flexibility Score: inf
ROOT
ATOM      1  C   UNL     1      25.827  -5.994  35.875  1.00  0.00     0.000 C 
ENDROOT
BRANCH   1   2
ATOM      2  C   UNL     1      24.344  -6.342  36.074  1.00  0.00     0.000 C 
BRANCH   2   3
ATOM      3  C   UNL     1      23.490  -6.026  34.834  1.00  0.00     0.000 C 
BRANCH   3   4
ATOM      4  C   UNL     1      22.786  -4.658  34.948  1.00  0.00     0.000 C 
BRANCH   4   5
ATOM      5  C   UNL     1      22.532  -4.210  36.398  1.00  0.00     0.000 C 
BRANCH   5   6
ATOM      6  C   UNL     1      23.107  -2.816  36.703  1.00  0.00     0.000 C 
BRANCH   6   7
ATOM      7  C   UNL     1      24.337  -2.485  35.841  1.00  0.00     0.000 C 
BRANCH   7   8
ATOM      8  C   UNL     1      25.554  -2.076  36.688  1.00  0.00     0.000 C 
BRANCH   8   9
ATOM      9  C   UNL     1      25.565  -0.576  37.032  1.00  0.00     0.000 C 
BRANCH   9  10
ATOM     10  C   UNL     1      26.060  -0.238  38.452  1.00  0.00     0.006 C 
BRANCH  10  11
ATOM     11  C   UNL     1      26.878   1.060  38.553  1.00  0.00     0.053 C 
BRANCH  11  12
ATOM     12  C   UNL     1      26.115   2.158  39.230  1.00  0.00     0.041 C 
ATOM     13  O   UNL     1      26.725   3.029  39.907  1.00  0.00    -0.550 OA
ATOM     14  O   UNL     1      24.736   2.238  39.087  1.00  0.00    -0.550 OA
ENDBRANCH  11  12
ENDBRANCH  10  11
ENDBRANCH   9  10
ENDBRANCH   8   9
ENDBRANCH   7   8
ENDBRANCH   6   7
ENDBRANCH   5   6
ENDBRANCH   4   5
ENDBRANCH   3   4
ENDBRANCH   2   3
ENDBRANCH   1   2
BRANCH   1  15
ATOM     15  C   UNL     1      26.359  -6.442  34.503  1.00  0.00     0.000 C 
BRANCH  15  16
ATOM     16  C   UNL     1      27.017  -5.298  33.711  1.00  0.00     0.000 C 
BRANCH  16  17
ATOM     17  C   UNL     1      28.255  -4.692  34.404  1.00  0.00     0.000 C 
BRANCH  17  18
ATOM     18  C   UNL     1      29.207  -4.000  33.411  1.00  0.00    -0.000 C 
BRANCH  18  19
ATOM     19  C   UNL     1      29.585  -2.572  33.861  1.00  0.00    -0.000 C 
BRANCH  19  20
ATOM     20  C   UNL     1      30.918  -2.504  34.625  1.00  0.00    -0.000 C 
BRANCH  20  21
ATOM     21  C   UNL     1      31.818  -3.725  34.366  1.00  0.00    -0.000 C 
BRANCH  21  22
ATOM     22  C   UNL     1      32.118  -4.516  35.655  1.00  0.00    -0.000 C 
BRANCH  22  23
ATOM     23  C   UNL     1      31.351  -4.015  36.894  1.00  0.00    -0.000 C 
BRANCH  23  24
ATOM     24  C   UNL     1      30.163  -4.906  37.306  1.00  0.00    -0.000 C 
BRANCH  24  25
ATOM     25  C   UNL     1      28.981  -4.095  37.855  1.00  0.00    -0.003 C 
ATOM     26  C   UNL     1      29.334  -2.614  37.965  1.00  0.00     0.004 C 
ENDBRANCH  24  25
ENDBRANCH  23  24
ENDBRANCH  22  23
ENDBRANCH  21  22
ENDBRANCH  20  21
ENDBRANCH  19  20
ENDBRANCH  18  19
ENDBRANCH  17  18
ENDBRANCH  16  17
ENDBRANCH  15  16
ENDBRANCH   1  15
TORSDOF 22
ENDMDL
