MODEL 1
REMARK VINA RESULT:    -3.108      0.000      0.000
REMARK INTER + INTRA:          -3.152
REMARK INTER:                  -3.744
REMARK INTRA:                   0.592
REMARK UNBOUND:                 0.592
REMARK SMILES O=c1c(O)c(-c2ccc(O)cc2O)oc2cc(O)cc(O)c12
REMARK SMILES IDX 5 1 3 2 2 3 1 4 22 5 20 6 19 7 17 8 16 9 15 10 14 11 6 12
REMARK SMILES IDX 8 13 7 14 9 15 11 16 12 17 10 18 13 20 4 22 21 24 18 26
REMARK H PARENT 10 19 13 21 4 23 21 25 18 27
REMARK Flexibility Score: inf
ROOT
ATOM      1  C   UNL     1      -9.024  -5.205   3.478  1.00  0.00     0.184 A 
ATOM      2  C   UNL     1      -9.431  -5.744   2.247  1.00  0.00     0.208 A 
ATOM      3  C   UNL     1      -9.144  -7.088   1.964  1.00  0.00     0.238 A 
ATOM      4  O   UNL     1      -9.446  -7.544   0.830  1.00  0.00    -0.285 OA
ATOM      5  C   UNL     1      -8.504  -7.892   2.940  1.00  0.00     0.111 A 
ATOM      6  C   UNL     1      -8.204  -9.279   2.780  1.00  0.00     0.134 A 
ATOM      7  C   UNL     1      -7.474  -9.946   3.771  1.00  0.00     0.093 A 
ATOM      8  C   UNL     1      -7.087  -9.297   4.942  1.00  0.00     0.123 A 
ATOM      9  C   UNL     1      -7.423  -7.956   5.134  1.00  0.00     0.094 A 
ATOM     10  C   UNL     1      -8.117  -7.252   4.147  1.00  0.00     0.146 A 
ATOM     11  O   UNL     1      -8.398  -5.972   4.361  1.00  0.00    -0.451 OA
ENDROOT
BRANCH   1  12
ATOM     12  C   UNL     1      -9.288  -3.795   3.834  1.00  0.00     0.063 A 
ATOM     13  C   UNL     1     -10.125  -1.609   3.176  1.00  0.00     0.047 A 
ATOM     14  C   UNL     1      -9.856  -2.946   2.871  1.00  0.00     0.020 A 
ATOM     15  C   UNL     1      -9.841  -1.109   4.452  1.00  0.00     0.119 A 
ATOM     16  C   UNL     1      -9.296  -1.953   5.424  1.00  0.00     0.093 A 
ATOM     17  C   UNL     1      -9.029  -3.299   5.127  1.00  0.00     0.130 A 
BRANCH  15  18
ATOM     18  O   UNL     1     -10.099   0.224   4.767  1.00  0.00    -0.508 OA
ATOM     19  H   UNL     1      -9.434   0.957   4.551  1.00  0.00     0.293 HD
ENDBRANCH  15  18
BRANCH  17  20
ATOM     20  O   UNL     1      -8.531  -4.142   6.121  1.00  0.00    -0.507 OA
ATOM     21  H   UNL     1      -8.352  -5.123   5.944  1.00  0.00     0.293 HD
ENDBRANCH  17  20
ENDBRANCH   1  12
BRANCH   2  22
ATOM     22  O   UNL     1     -10.125  -4.948   1.331  1.00  0.00    -0.502 OA
ATOM     23  H   UNL     1     -11.122  -4.784   1.399  1.00  0.00     0.293 HD
ENDBRANCH   2  22
BRANCH   6  24
ATOM     24  O   UNL     1      -8.618 -10.049   1.688  1.00  0.00    -0.507 OA
ATOM     25  H   UNL     1      -9.290 -10.799   1.732  1.00  0.00     0.293 HD
ENDBRANCH   6  24
BRANCH   8  26
ATOM     26  O   UNL     1      -6.377  -9.997   5.915  1.00  0.00    -0.508 OA
ATOM     27  H   UNL     1      -5.428  -9.743   6.164  1.00  0.00     0.293 HD
ENDBRANCH   8  26
TORSDOF 6
ENDMDL
MODEL 2
REMARK VINA RESULT:    -2.219     17.230     20.430
REMARK INTER + INTRA:          -2.081
REMARK INTER:                  -2.348
REMARK INTRA:                   0.267
REMARK UNBOUND:                 0.592
REMARK SMILES O=c1c(O)c(-c2ccc(O)cc2O)oc2cc(O)cc(O)c12
REMARK SMILES IDX 5 1 3 2 2 3 1 4 22 5 20 6 19 7 17 8 16 9 15 10 14 11 6 12
REMARK SMILES IDX 8 13 7 14 9 15 11 16 12 17 10 18 13 20 4 22 21 24 18 26
REMARK H PARENT 10 19 13 21 4 23 21 25 18 27
REMARK Flexibility Score: inf
ROOT
ATOM      1  C   UNL     1      -7.832   8.940  -9.130  1.00  0.00     0.184 A 
ATOM      2  C   UNL     1      -8.753   9.122 -10.173  1.00  0.00     0.208 A 
ATOM      3  C   UNL     1      -8.279   9.482 -11.444  1.00  0.00     0.238 A 
ATOM      4  O   UNL     1      -9.115   9.716 -12.356  1.00  0.00    -0.285 OA
ATOM      5  C   UNL     1      -6.885   9.600 -11.668  1.00  0.00     0.111 A 
ATOM      6  C   UNL     1      -6.288   9.917 -12.926  1.00  0.00     0.134 A 
ATOM      7  C   UNL     1      -4.904  10.111 -13.005  1.00  0.00     0.093 A 
ATOM      8  C   UNL     1      -4.087   9.940 -11.888  1.00  0.00     0.123 A 
ATOM      9  C   UNL     1      -4.653   9.577 -10.666  1.00  0.00     0.094 A 
ATOM     10  C   UNL     1      -6.035   9.413 -10.546  1.00  0.00     0.146 A 
ATOM     11  O   UNL     1      -6.534   9.088  -9.359  1.00  0.00    -0.451 OA
ENDROOT
BRANCH   1  12
ATOM     12  C   UNL     1      -8.267   8.568  -7.767  1.00  0.00     0.063 A 
ATOM     13  C   UNL     1     -10.012   8.558  -6.074  1.00  0.00     0.047 A 
ATOM     14  C   UNL     1      -9.566   8.900  -7.353  1.00  0.00     0.020 A 
ATOM     15  C   UNL     1      -9.167   7.866  -5.198  1.00  0.00     0.119 A 
ATOM     16  C   UNL     1      -7.880   7.511  -5.609  1.00  0.00     0.093 A 
ATOM     17  C   UNL     1      -7.427   7.846  -6.894  1.00  0.00     0.130 A 
BRANCH  15  18
ATOM     18  O   UNL     1      -9.599   7.524  -3.918  1.00  0.00    -0.508 OA
ATOM     19  H   UNL     1     -10.554   7.687  -3.620  1.00  0.00     0.293 HD
ENDBRANCH  15  18
BRANCH  17  20
ATOM     20  O   UNL     1      -6.158   7.442  -7.310  1.00  0.00    -0.507 OA
ATOM     21  H   UNL     1      -5.327   7.667  -6.776  1.00  0.00     0.293 HD
ENDBRANCH  17  20
ENDBRANCH   1  12
BRANCH   2  22
ATOM     22  O   UNL     1     -10.118   8.928  -9.943  1.00  0.00    -0.502 OA
ATOM     23  H   UNL     1     -10.620   9.416  -9.211  1.00  0.00     0.293 HD
ENDBRANCH   2  22
BRANCH   6  24
ATOM     24  O   UNL     1      -7.000  10.026 -14.125  1.00  0.00    -0.507 OA
ATOM     25  H   UNL     1      -7.171  10.887 -14.619  1.00  0.00     0.293 HD
ENDBRANCH   6  24
BRANCH   8  26
ATOM     26  O   UNL     1      -2.712  10.125 -12.007  1.00  0.00    -0.508 OA
ATOM     27  H   UNL     1      -2.071   9.817 -11.286  1.00  0.00     0.293 HD
ENDBRANCH   8  26
TORSDOF 6
ENDMDL
MODEL 3
REMARK VINA RESULT:    -0.360     13.595     15.235
REMARK INTER + INTRA:           0.157
REMARK INTER:                   0.197
REMARK INTRA:                  -0.039
REMARK UNBOUND:                 0.592
REMARK SMILES O=c1c(O)c(-c2ccc(O)cc2O)oc2cc(O)cc(O)c12
REMARK SMILES IDX 5 1 3 2 2 3 1 4 22 5 20 6 19 7 17 8 16 9 15 10 14 11 6 12
REMARK SMILES IDX 8 13 7 14 9 15 11 16 12 17 10 18 13 20 4 22 21 24 18 26
REMARK H PARENT 10 19 13 21 4 23 21 25 18 27
REMARK Flexibility Score: inf
ROOT
ATOM      1  C   UNL     1      -8.650  -5.222 -11.808  1.00  0.00     0.184 A 
ATOM      2  C   UNL     1      -8.096  -5.772 -12.975  1.00  0.00     0.208 A 
ATOM      3  C   UNL     1      -7.766  -7.136 -12.994  1.00  0.00     0.238 A 
ATOM      4  O   UNL     1      -7.202  -7.605 -14.017  1.00  0.00    -0.285 OA
ATOM      5  C   UNL     1      -8.047  -7.944 -11.865  1.00  0.00     0.111 A 
ATOM      6  C   UNL     1      -7.795  -9.348 -11.789  1.00  0.00     0.134 A 
ATOM      7  C   UNL     1      -8.016 -10.025 -10.583  1.00  0.00     0.093 A 
ATOM      8  C   UNL     1      -8.536  -9.365  -9.471  1.00  0.00     0.123 A 
ATOM      9  C   UNL     1      -8.837  -8.005  -9.551  1.00  0.00     0.094 A 
ATOM     10  C   UNL     1      -8.593  -7.293 -10.727  1.00  0.00     0.146 A 
ATOM     11  O   UNL     1      -8.874  -5.996 -10.754  1.00  0.00    -0.451 OA
ENDROOT
BRANCH   1  12
ATOM     12  C   UNL     1      -9.013  -3.792 -11.719  1.00  0.00     0.063 A 
ATOM     13  C   UNL     1     -10.017  -1.836 -12.757  1.00  0.00     0.047 A 
ATOM     14  C   UNL     1      -9.654  -3.185 -12.810  1.00  0.00     0.020 A 
ATOM     15  C   UNL     1      -9.755  -1.083 -11.607  1.00  0.00     0.119 A 
ATOM     16  C   UNL     1      -9.137  -1.685 -10.508  1.00  0.00     0.093 A 
ATOM     17  C   UNL     1      -8.775  -3.040 -10.551  1.00  0.00     0.130 A 
BRANCH  15  18
ATOM     18  O   UNL     1     -10.108   0.264 -11.545  1.00  0.00    -0.508 OA
ATOM     19  H   UNL     1     -10.886   0.633 -12.079  1.00  0.00     0.293 HD
ENDBRANCH  15  18
BRANCH  17  20
ATOM     20  O   UNL     1      -8.204  -3.642  -9.429  1.00  0.00    -0.507 OA
ATOM     21  H   UNL     1      -8.317  -4.630  -9.240  1.00  0.00     0.293 HD
ENDBRANCH  17  20
ENDBRANCH   1  12
BRANCH   2  22
ATOM     22  O   UNL     1      -7.896  -4.967 -14.100  1.00  0.00    -0.502 OA
ATOM     23  H   UNL     1      -8.600  -4.322 -14.438  1.00  0.00     0.293 HD
ENDBRANCH   2  22
BRANCH   6  24
ATOM     24  O   UNL     1      -7.357 -10.125 -12.866  1.00  0.00    -0.507 OA
ATOM     25  H   UNL     1      -6.615 -10.805 -12.824  1.00  0.00     0.293 HD
ENDBRANCH   6  24
BRANCH   8  26
ATOM     26  O   UNL     1      -8.759 -10.073  -8.293  1.00  0.00    -0.508 OA
ATOM     27  H   UNL     1      -8.813 -11.085  -8.285  1.00  0.00     0.293 HD
ENDBRANCH   8  26
TORSDOF 6
ENDMDL
