MODEL 1
REMARK VINA RESULT:    -5.377      0.000      0.000
REMARK INTER + INTRA:          -6.610
REMARK INTER:                  -6.320
REMARK INTRA:                  -0.290
REMARK UNBOUND:                -0.290
REMARK SMILES O=c1c(O)c(-c2ccc(O)cc2)oc2cc(O)cc(O)c12
REMARK SMILES IDX 5 1 3 2 2 3 1 4 21 5 19 6 18 7 16 8 15 9 14 10 13 11 6 12
REMARK SMILES IDX 7 13 8 14 9 15 12 16 11 17 10 18 4 20 20 22 17 24
REMARK H PARENT 10 19 4 21 20 23 17 25
REMARK Flexibility Score: inf
ROOT
ATOM      1  C   UNL     1      53.907  10.114   9.276  1.00  0.00     0.180 A 
ATOM      2  C   UNL     1      55.284  10.311   9.052  1.00  0.00     0.208 A 
ATOM      3  C   UNL     1      55.727  10.577   7.747  1.00  0.00     0.238 A 
ATOM      4  O   UNL     1      56.956  10.766   7.536  1.00  0.00    -0.285 OA
ATOM      5  C   UNL     1      54.796  10.621   6.689  1.00  0.00     0.111 A 
ATOM      6  C   UNL     1      55.161  10.879   5.346  1.00  0.00     0.134 A 
ATOM      7  C   UNL     1      54.174  10.897   4.348  1.00  0.00     0.093 A 
ATOM      8  C   UNL     1      52.834  10.664   4.667  1.00  0.00     0.123 A 
ATOM      9  C   UNL     1      52.468  10.409   5.992  1.00  0.00     0.094 A 
ATOM     10  C   UNL     1      53.436  10.388   7.000  1.00  0.00     0.146 A 
ATOM     11  O   UNL     1      53.059  10.149   8.252  1.00  0.00    -0.452 OA
ENDROOT
BRANCH   1  12
ATOM     12  C   UNL     1      53.360   9.848  10.625  1.00  0.00     0.021 A 
ATOM     13  C   UNL     1      53.227   8.535  11.117  1.00  0.00     0.016 A 
ATOM     14  C   UNL     1      52.730   8.310  12.404  1.00  0.00     0.047 A 
ATOM     15  C   UNL     1      52.373   9.391  13.221  1.00  0.00     0.115 A 
ATOM     16  C   UNL     1      53.019  10.926  11.458  1.00  0.00     0.016 A 
ATOM     17  C   UNL     1      52.521  10.697  12.745  1.00  0.00     0.047 A 
BRANCH  15  18
ATOM     18  O   UNL     1      51.875   9.179  14.504  1.00  0.00    -0.508 OA
ATOM     19  H   UNL     1      50.985   9.566  14.798  1.00  0.00     0.293 HD
ENDBRANCH  15  18
ENDBRANCH   1  12
BRANCH   2  20
ATOM     20  O   UNL     1      56.192  10.212  10.109  1.00  0.00    -0.502 OA
ATOM     21  H   UNL     1      56.241   9.396  10.707  1.00  0.00     0.293 HD
ENDBRANCH   2  20
BRANCH   6  22
ATOM     22  O   UNL     1      56.490  11.115   4.996  1.00  0.00    -0.507 OA
ATOM     23  H   UNL     1      57.233  11.104   5.685  1.00  0.00     0.293 HD
ENDBRANCH   6  22
BRANCH   8  24
ATOM     24  O   UNL     1      51.875  10.687   3.657  1.00  0.00    -0.508 OA
ATOM     25  H   UNL     1      51.308  11.509   3.483  1.00  0.00     0.293 HD
ENDBRANCH   8  24
TORSDOF 5
ENDMDL
MODEL 2
REMARK VINA RESULT:    -4.812      1.468      6.390
REMARK INTER + INTRA:          -5.946
REMARK INTER:                  -6.100
REMARK INTRA:                   0.154
REMARK UNBOUND:                -0.290
REMARK SMILES O=c1c(O)c(-c2ccc(O)cc2)oc2cc(O)cc(O)c12
REMARK SMILES IDX 5 1 3 2 2 3 1 4 21 5 19 6 18 7 16 8 15 9 14 10 13 11 6 12
REMARK SMILES IDX 7 13 8 14 9 15 12 16 11 17 10 18 4 20 20 22 17 24
REMARK H PARENT 10 19 4 21 20 23 17 25
REMARK Flexibility Score: inf
ROOT
ATOM      1  C   UNL     1      54.383  10.002   7.312  1.00  0.00     0.180 A 
ATOM      2  C   UNL     1      55.743  10.238   7.591  1.00  0.00     0.208 A 
ATOM      3  C   UNL     1      56.242   9.907   8.861  1.00  0.00     0.238 A 
ATOM      4  O   UNL     1      57.460  10.104   9.119  1.00  0.00    -0.285 OA
ATOM      5  C   UNL     1      55.374   9.366   9.831  1.00  0.00     0.111 A 
ATOM      6  C   UNL     1      55.796   9.009  11.135  1.00  0.00     0.134 A 
ATOM      7  C   UNL     1      54.869   8.484  12.048  1.00  0.00     0.093 A 
ATOM      8  C   UNL     1      53.531   8.310  11.683  1.00  0.00     0.123 A 
ATOM      9  C   UNL     1      53.109   8.661  10.397  1.00  0.00     0.094 A 
ATOM     10  C   UNL     1      54.018   9.184   9.473  1.00  0.00     0.146 A 
ATOM     11  O   UNL     1      53.591   9.504   8.256  1.00  0.00    -0.452 OA
ENDROOT
BRANCH   1  12
ATOM     12  C   UNL     1      53.786  10.307   5.992  1.00  0.00     0.021 A 
ATOM     13  C   UNL     1      54.489  10.066   4.796  1.00  0.00     0.016 A 
ATOM     14  C   UNL     1      53.895  10.341   3.560  1.00  0.00     0.047 A 
ATOM     15  C   UNL     1      52.589  10.844   3.503  1.00  0.00     0.115 A 
ATOM     16  C   UNL     1      52.470  10.793   5.924  1.00  0.00     0.016 A 
ATOM     17  C   UNL     1      51.879  11.067   4.686  1.00  0.00     0.047 A 
BRANCH  15  18
ATOM     18  O   UNL     1      51.987  11.123   2.277  1.00  0.00    -0.508 OA
ATOM     19  H   UNL     1      50.979  11.143   2.175  1.00  0.00     0.293 HD
ENDBRANCH  15  18
ENDBRANCH   1  12
BRANCH   2  20
ATOM     20  O   UNL     1      56.570  10.822   6.629  1.00  0.00    -0.502 OA
ATOM     21  H   UNL     1      56.728  11.822   6.584  1.00  0.00     0.293 HD
ENDBRANCH   2  20
BRANCH   6  22
ATOM     22  O   UNL     1      57.125   9.170  11.528  1.00  0.00    -0.507 OA
ATOM     23  H   UNL     1      57.393   9.190  12.506  1.00  0.00     0.293 HD
ENDBRANCH   6  22
BRANCH   8  24
ATOM     24  O   UNL     1      52.631   7.788  12.608  1.00  0.00    -0.508 OA
ATOM     25  H   UNL     1      52.643   8.073  13.581  1.00  0.00     0.293 HD
ENDBRANCH   8  24
TORSDOF 5
ENDMDL
MODEL 3
REMARK VINA RESULT:    -4.767      1.558      2.011
REMARK INTER + INTRA:          -5.893
REMARK INTER:                  -5.674
REMARK INTRA:                  -0.219
REMARK UNBOUND:                -0.290
REMARK SMILES O=c1c(O)c(-c2ccc(O)cc2)oc2cc(O)cc(O)c12
REMARK SMILES IDX 5 1 3 2 2 3 1 4 21 5 19 6 18 7 16 8 15 9 14 10 13 11 6 12
REMARK SMILES IDX 7 13 8 14 9 15 12 16 11 17 10 18 4 20 20 22 17 24
REMARK H PARENT 10 19 4 21 20 23 17 25
REMARK Flexibility Score: inf
ROOT
ATOM      1  C   UNL     1      54.426   8.782  10.233  1.00  0.00     0.180 A 
ATOM      2  C   UNL     1      55.808   9.049  10.254  1.00  0.00     0.208 A 
ATOM      3  C   UNL     1      56.385   9.724   9.167  1.00  0.00     0.238 A 
ATOM      4  O   UNL     1      57.620   9.979   9.180  1.00  0.00    -0.285 OA
ATOM      5  C   UNL     1      55.579  10.101   8.073  1.00  0.00     0.111 A 
ATOM      6  C   UNL     1      56.083  10.779   6.937  1.00  0.00     0.134 A 
ATOM      7  C   UNL     1      55.217  11.112   5.884  1.00  0.00     0.093 A 
ATOM      8  C   UNL     1      53.862  10.780   5.945  1.00  0.00     0.123 A 
ATOM      9  C   UNL     1      53.359  10.109   7.064  1.00  0.00     0.094 A 
ATOM     10  C   UNL     1      54.205   9.771   8.124  1.00  0.00     0.146 A 
ATOM     11  O   UNL     1      53.699   9.139   9.178  1.00  0.00    -0.452 OA
ENDROOT
BRANCH   1  12
ATOM     12  C   UNL     1      53.740   8.091  11.349  1.00  0.00     0.021 A 
ATOM     13  C   UNL     1      53.350   6.743  11.248  1.00  0.00     0.016 A 
ATOM     14  C   UNL     1      52.725   6.105  12.324  1.00  0.00     0.047 A 
ATOM     15  C   UNL     1      52.497   6.801  13.519  1.00  0.00     0.115 A 
ATOM     16  C   UNL     1      53.526   8.775  12.557  1.00  0.00     0.016 A 
ATOM     17  C   UNL     1      52.901   8.135  13.632  1.00  0.00     0.047 A 
BRANCH  15  18
ATOM     18  O   UNL     1      51.875   6.177  14.597  1.00  0.00    -0.508 OA
ATOM     19  H   UNL     1      50.867   6.075  14.641  1.00  0.00     0.293 HD
ENDBRANCH  15  18
ENDBRANCH   1  12
BRANCH   2  20
ATOM     20  O   UNL     1      56.594   8.621  11.327  1.00  0.00    -0.502 OA
ATOM     21  H   UNL     1      56.839   7.648  11.465  1.00  0.00     0.293 HD
ENDBRANCH   2  20
BRANCH   6  22
ATOM     22  O   UNL     1      57.432  11.125   6.847  1.00  0.00    -0.507 OA
ATOM     23  H   UNL     1      57.885  11.693   7.553  1.00  0.00     0.293 HD
ENDBRANCH   6  22
BRANCH   8  24
ATOM     24  O   UNL     1      53.024  11.121   4.886  1.00  0.00    -0.508 OA
ATOM     25  H   UNL     1      52.018  11.010   4.948  1.00  0.00     0.293 HD
ENDBRANCH   8  24
TORSDOF 5
ENDMDL
MODEL 4
REMARK VINA RESULT:    -4.357      2.638      7.396
REMARK INTER + INTRA:          -5.411
REMARK INTER:                  -5.645
REMARK INTRA:                   0.235
REMARK UNBOUND:                -0.290
REMARK SMILES O=c1c(O)c(-c2ccc(O)cc2)oc2cc(O)cc(O)c12
REMARK SMILES IDX 5 1 3 2 2 3 1 4 21 5 19 6 18 7 16 8 15 9 14 10 13 11 6 12
REMARK SMILES IDX 7 13 8 14 9 15 12 16 11 17 10 18 4 20 20 22 17 24
REMARK H PARENT 10 19 4 21 20 23 17 25
REMARK Flexibility Score: inf
ROOT
ATOM      1  C   UNL     1      54.248  10.636   5.308  1.00  0.00     0.180 A 
ATOM      2  C   UNL     1      53.211  10.556   6.259  1.00  0.00     0.208 A 
ATOM      3  C   UNL     1      53.535  10.630   7.622  1.00  0.00     0.238 A 
ATOM      4  O   UNL     1      52.614  10.571   8.482  1.00  0.00    -0.285 OA
ATOM      5  C   UNL     1      54.883  10.762   8.013  1.00  0.00     0.111 A 
ATOM      6  C   UNL     1      55.293  10.839   9.366  1.00  0.00     0.134 A 
ATOM      7  C   UNL     1      56.657  10.960   9.674  1.00  0.00     0.093 A 
ATOM      8  C   UNL     1      57.615  11.005   8.658  1.00  0.00     0.123 A 
ATOM      9  C   UNL     1      57.216  10.929   7.320  1.00  0.00     0.094 A 
ATOM     10  C   UNL     1      55.862  10.810   6.993  1.00  0.00     0.146 A 
ATOM     11  O   UNL     1      55.509  10.745   5.714  1.00  0.00    -0.452 OA
ENDROOT
BRANCH   1  12
ATOM     12  C   UNL     1      53.986  10.584   3.852  1.00  0.00     0.021 A 
ATOM     13  C   UNL     1      52.809  11.125   3.299  1.00  0.00     0.016 A 
ATOM     14  C   UNL     1      52.595  11.085   1.918  1.00  0.00     0.047 A 
ATOM     15  C   UNL     1      53.558  10.520   1.072  1.00  0.00     0.115 A 
ATOM     16  C   UNL     1      54.954  10.039   2.994  1.00  0.00     0.016 A 
ATOM     17  C   UNL     1      54.737  10.000   1.613  1.00  0.00     0.047 A 
BRANCH  15  18
ATOM     18  O   UNL     1      53.355  10.474  -0.306  1.00  0.00    -0.508 OA
ATOM     19  H   UNL     1      53.234  11.320  -0.852  1.00  0.00     0.293 HD
ENDBRANCH  15  18
ENDBRANCH   1  12
BRANCH   2  20
ATOM     20  O   UNL     1      51.888  10.375   5.847  1.00  0.00    -0.502 OA
ATOM     21  H   UNL     1      51.645   9.828   5.030  1.00  0.00     0.293 HD
ENDBRANCH   2  20
BRANCH   6  22
ATOM     22  O   UNL     1      54.361  10.797  10.403  1.00  0.00    -0.507 OA
ATOM     23  H   UNL     1      53.427  11.176  10.295  1.00  0.00     0.293 HD
ENDBRANCH   6  22
BRANCH   8  24
ATOM     24  O   UNL     1      58.962  11.125   8.991  1.00  0.00    -0.508 OA
ATOM     25  H   UNL     1      59.575  11.766   8.500  1.00  0.00     0.293 HD
ENDBRANCH   8  24
TORSDOF 5
ENDMDL
MODEL 5
REMARK VINA RESULT:    -4.269      3.759      6.916
REMARK INTER + INTRA:          -5.307
REMARK INTER:                  -5.436
REMARK INTRA:                   0.129
REMARK UNBOUND:                -0.290
REMARK SMILES O=c1c(O)c(-c2ccc(O)cc2)oc2cc(O)cc(O)c12
REMARK SMILES IDX 5 1 3 2 2 3 1 4 21 5 19 6 18 7 16 8 15 9 14 10 13 11 6 12
REMARK SMILES IDX 7 13 8 14 9 15 12 16 11 17 10 18 4 20 20 22 17 24
REMARK H PARENT 10 19 4 21 20 23 17 25
REMARK Flexibility Score: inf
ROOT
ATOM      1  C   UNL     1      56.591   8.926   9.933  1.00  0.00     0.180 A 
ATOM      2  C   UNL     1      55.477   9.735  10.231  1.00  0.00     0.208 A 
ATOM      3  C   UNL     1      54.281   9.120  10.633  1.00  0.00     0.238 A 
ATOM      4  O   UNL     1      53.280   9.834  10.914  1.00  0.00    -0.285 OA
ATOM      5  C   UNL     1      54.212   7.714  10.712  1.00  0.00     0.111 A 
ATOM      6  C   UNL     1      53.044   7.017  11.104  1.00  0.00     0.134 A 
ATOM      7  C   UNL     1      53.053   5.614  11.149  1.00  0.00     0.093 A 
ATOM      8  C   UNL     1      54.203   4.898  10.808  1.00  0.00     0.123 A 
ATOM      9  C   UNL     1      55.359   5.581  10.420  1.00  0.00     0.094 A 
ATOM     10  C   UNL     1      55.371   6.978  10.371  1.00  0.00     0.146 A 
ATOM     11  O   UNL     1      56.485   7.603  10.003  1.00  0.00    -0.452 OA
ENDROOT
BRANCH   1  12
ATOM     12  C   UNL     1      57.892   9.500   9.519  1.00  0.00     0.021 A 
ATOM     13  C   UNL     1      59.105   9.022  10.049  1.00  0.00     0.016 A 
ATOM     14  C   UNL     1      60.323   9.563   9.625  1.00  0.00     0.047 A 
ATOM     15  C   UNL     1      60.344  10.577   8.658  1.00  0.00     0.115 A 
ATOM     16  C   UNL     1      57.924  10.502   8.536  1.00  0.00     0.016 A 
ATOM     17  C   UNL     1      59.143  11.042   8.114  1.00  0.00     0.047 A 
BRANCH  15  18
ATOM     18  O   UNL     1      61.551  11.125   8.230  1.00  0.00    -0.508 OA
ATOM     19  H   UNL     1      62.387  11.079   8.802  1.00  0.00     0.293 HD
ENDBRANCH  15  18
ENDBRANCH   1  12
BRANCH   2  20
ATOM     20  O   UNL     1      55.556  11.123  10.096  1.00  0.00    -0.502 OA
ATOM     21  H   UNL     1      55.988  11.712  10.798  1.00  0.00     0.293 HD
ENDBRANCH   2  20
BRANCH   6  22
ATOM     22  O   UNL     1      51.880   7.703  11.450  1.00  0.00    -0.507 OA
ATOM     23  H   UNL     1      51.823   8.714  11.402  1.00  0.00     0.293 HD
ENDBRANCH   6  22
BRANCH   8  24
ATOM     24  O   UNL     1      54.185   3.506  10.860  1.00  0.00    -0.508 OA
ATOM     25  H   UNL     1      53.322   2.991  10.995  1.00  0.00     0.293 HD
ENDBRANCH   8  24
TORSDOF 5
ENDMDL
MODEL 6
REMARK VINA RESULT:    -3.780      2.385      4.180
REMARK INTER + INTRA:          -4.733
REMARK INTER:                  -4.527
REMARK INTRA:                  -0.206
REMARK UNBOUND:                -0.290
REMARK SMILES O=c1c(O)c(-c2ccc(O)cc2)oc2cc(O)cc(O)c12
REMARK SMILES IDX 5 1 3 2 2 3 1 4 21 5 19 6 18 7 16 8 15 9 14 10 13 11 6 12
REMARK SMILES IDX 7 13 8 14 9 15 12 16 11 17 10 18 4 20 20 22 17 24
REMARK H PARENT 10 19 4 21 20 23 17 25
REMARK Flexibility Score: inf
ROOT
ATOM      1  C   UNL     1      54.759   8.805  10.391  1.00  0.00     0.180 A 
ATOM      2  C   UNL     1      54.158   9.245   9.196  1.00  0.00     0.208 A 
ATOM      3  C   UNL     1      54.958   9.864   8.222  1.00  0.00     0.238 A 
ATOM      4  O   UNL     1      54.433  10.252   7.143  1.00  0.00    -0.285 OA
ATOM      5  C   UNL     1      56.334  10.050   8.466  1.00  0.00     0.111 A 
ATOM      6  C   UNL     1      57.208  10.667   7.540  1.00  0.00     0.134 A 
ATOM      7  C   UNL     1      58.565  10.824   7.861  1.00  0.00     0.093 A 
ATOM      8  C   UNL     1      59.063  10.376   9.087  1.00  0.00     0.123 A 
ATOM      9  C   UNL     1      58.204   9.765  10.006  1.00  0.00     0.094 A 
ATOM     10  C   UNL     1      56.850   9.599   9.704  1.00  0.00     0.146 A 
ATOM     11  O   UNL     1      56.057   9.010  10.593  1.00  0.00    -0.452 OA
ENDROOT
BRANCH   1  12
ATOM     12  C   UNL     1      53.986   8.127  11.457  1.00  0.00     0.021 A 
ATOM     13  C   UNL     1      53.472   6.829  11.277  1.00  0.00     0.016 A 
ATOM     14  C   UNL     1      52.766   6.200  12.308  1.00  0.00     0.047 A 
ATOM     15  C   UNL     1      52.578   6.853  13.533  1.00  0.00     0.115 A 
ATOM     16  C   UNL     1      53.811   8.765  12.695  1.00  0.00     0.016 A 
ATOM     17  C   UNL     1      53.104   8.134  13.724  1.00  0.00     0.047 A 
BRANCH  15  18
ATOM     18  O   UNL     1      51.875   6.237  14.566  1.00  0.00    -0.508 OA
ATOM     19  H   UNL     1      50.867   6.311  14.638  1.00  0.00     0.293 HD
ENDBRANCH  15  18
ENDBRANCH   1  12
BRANCH   2  20
ATOM     20  O   UNL     1      52.783   9.094   8.999  1.00  0.00    -0.502 OA
ATOM     21  H   UNL     1      52.158   8.803   9.742  1.00  0.00     0.293 HD
ENDBRANCH   2  20
BRANCH   6  22
ATOM     22  O   UNL     1      56.741  11.125   6.307  1.00  0.00    -0.507 OA
ATOM     23  H   UNL     1      57.374  11.357   5.550  1.00  0.00     0.293 HD
ENDBRANCH   6  22
BRANCH   8  24
ATOM     24  O   UNL     1      60.414  10.544   9.381  1.00  0.00    -0.508 OA
ATOM     25  H   UNL     1      61.038   9.751   9.480  1.00  0.00     0.293 HD
ENDBRANCH   8  24
TORSDOF 5
ENDMDL
