MODEL 1
REMARK VINA RESULT:    26.742      0.000      0.000
REMARK INTER + INTRA:          31.154
REMARK INTER:                  31.433
REMARK INTRA:                  -0.278
REMARK UNBOUND:                -0.278
REMARK SMILES O=c1cc(-c2ccc(O)c(O)c2)oc2cc(O)cc(O)c12
REMARK SMILES IDX 4 1 3 2 2 3 1 4 21 5 19 6 18 7 16 8 15 9 14 10 13 11 5 12
REMARK SMILES IDX 6 13 7 14 8 15 12 16 10 17 9 18 11 20 20 22 17 24
REMARK H PARENT 9 19 11 21 20 23 17 25
REMARK Flexibility Score: inf
ROOT
ATOM      1  C   UNL     1      21.272  14.412   2.193  1.00  0.00     0.138 A 
ATOM      2  C   UNL     1      21.500  14.219   3.563  1.00  0.00     0.100 A 
ATOM      3  C   UNL     1      22.809  14.170   4.045  1.00  0.00     0.197 A 
ATOM      4  O   UNL     1      22.981  14.058   5.286  1.00  0.00    -0.289 OA
ATOM      5  C   UNL     1      23.895  14.285   3.144  1.00  0.00     0.107 A 
ATOM      6  C   UNL     1      25.270  14.210   3.516  1.00  0.00     0.134 A 
ATOM      7  C   UNL     1      26.259  14.453   2.555  1.00  0.00     0.093 A 
ATOM      8  C   UNL     1      25.925  14.709   1.225  1.00  0.00     0.123 A 
ATOM      9  C   UNL     1      24.584  14.733   0.840  1.00  0.00     0.094 A 
ATOM     10  C   UNL     1      23.573  14.528   1.782  1.00  0.00     0.146 A 
ATOM     11  O   UNL     1      22.308  14.571   1.377  1.00  0.00    -0.456 OA
ENDROOT
BRANCH   1  12
ATOM     12  C   UNL     1      19.900  14.470   1.628  1.00  0.00     0.021 A 
ATOM     13  C   UNL     1      19.584  13.876   0.391  1.00  0.00     0.016 A 
ATOM     14  C   UNL     1      18.287  13.956  -0.121  1.00  0.00     0.051 A 
ATOM     15  C   UNL     1      17.286  14.633   0.585  1.00  0.00     0.157 A 
ATOM     16  C   UNL     1      18.892  15.161   2.325  1.00  0.00     0.062 A 
ATOM     17  C   UNL     1      17.592  15.241   1.814  1.00  0.00     0.158 A 
BRANCH  15  18
ATOM     18  O   UNL     1      15.992  14.709   0.071  1.00  0.00    -0.504 OA
ATOM     19  H   UNL     1      15.776  14.400  -0.870  1.00  0.00     0.293 HD
ENDBRANCH  15  18
BRANCH  17  20
ATOM     20  O   UNL     1      16.620  15.927   2.541  1.00  0.00    -0.504 OA
ATOM     21  H   UNL     1      16.073  16.676   2.134  1.00  0.00     0.293 HD
ENDBRANCH  17  20
ENDBRANCH   1  12
BRANCH   6  22
ATOM     22  O   UNL     1      25.715  13.876   4.798  1.00  0.00    -0.507 OA
ATOM     23  H   UNL     1      26.025  12.959   5.081  1.00  0.00     0.293 HD
ENDBRANCH   6  22
BRANCH   8  24
ATOM     24  O   UNL     1      26.936  14.933   0.293  1.00  0.00    -0.508 OA
ATOM     25  H   UNL     1      27.892  14.646   0.470  1.00  0.00     0.293 HD
ENDBRANCH   8  24
TORSDOF 5
ENDMDL
