MODEL 1
REMARK VINA RESULT:    12.927      0.000      0.000
REMARK INTER + INTRA:          16.143
REMARK INTER:                  17.083
REMARK INTRA:                  -0.940
REMARK UNBOUND:                -0.940
REMARK SMILES CC[C@H](C=C[C@@H](C)[C@@H]1CC[C@@H]2C3=CC[C@H]4C[C@H](O)CC[C@@]4(C)[C@H]3CC[C@@]21C)C(C)C
REMARK SMILES IDX 6 1 7 2 5 3 4 4 3 5 2 6 1 7 28 8 29 9 30 10 8 11 9 12 26 13
REMARK SMILES IDX 10 14 11 15 25 16 27 17 12 18 24 19 23 20 13 21 21 22 14 23
REMARK SMILES IDX 15 24 20 25 22 26 16 27 19 28 17 29 18 30
REMARK H PARENT 18 31
REMARK Flexibility Score: inf
ROOT
ATOM      1  C   UNL     1     135.795 133.872 139.287  1.00  0.00     0.012 C 
ATOM      2  C   UNL     1     135.514 134.374 140.709  1.00  0.00     0.012 C 
ENDROOT
BRANCH   1   3
ATOM      3  C   UNL     1     137.129 134.412 138.802  1.00  0.00    -0.028 C 
ATOM      4  C   UNL     1     138.331 134.231 139.388  1.00  0.00    -0.027 C 
BRANCH   4   5
ATOM      5  C   UNL     1     138.605 133.478 140.681  1.00  0.00     0.014 C 
BRANCH   5   6
ATOM      6  C   UNL     1     138.576 131.959 140.380  1.00  0.00     0.004 C 
ATOM      7  C   UNL     1     137.353 131.249 140.961  1.00  0.00     0.004 C 
ENDBRANCH   5   6
BRANCH   5   8
ATOM      8  C   UNL     1     139.934 133.955 141.352  1.00  0.00    -0.011 C 
ATOM      9  C   UNL     1     140.929 132.796 141.519  1.00  0.00     0.008 C 
ATOM     10  C   UNL     1     139.726 134.664 142.702  1.00  0.00     0.008 C 
ENDBRANCH   5   8
ENDBRANCH   4   5
ENDBRANCH   1   3
BRANCH   1  11
ATOM     11  C   UNL     1     134.578 134.085 138.320  1.00  0.00     0.002 C 
ATOM     12  C   UNL     1     133.283 134.433 139.040  1.00  0.00     0.005 C 
ATOM     13  C   UNL     1     134.176 133.041 137.216  1.00  0.00    -0.023 C 
ATOM     14  C   UNL     1     132.218 134.405 137.960  1.00  0.00     0.009 C 
ATOM     15  C   UNL     1     132.663 133.352 136.931  1.00  0.00     0.021 C 
ATOM     16  C   UNL     1     134.381 131.534 137.599  1.00  0.00     0.008 C 
ATOM     17  C   UNL     1     134.987 133.305 135.920  1.00  0.00     0.012 C 
ATOM     18  C   UNL     1     131.801 132.100 137.007  1.00  0.00    -0.067 C 
ATOM     19  C   UNL     1     133.354 130.942 138.593  1.00  0.00     0.009 C 
ATOM     20  C   UNL     1     131.867 131.314 138.304  1.00  0.00     0.021 C 
ATOM     21  C   UNL     1     131.288 131.575 135.876  1.00  0.00    -0.027 C 
ATOM     22  C   UNL     1     130.791 130.159 138.398  1.00  0.00    -0.023 C 
ATOM     23  C   UNL     1     130.482 130.308 135.831  1.00  0.00     0.031 C 
ATOM     24  C   UNL     1     130.690 129.377 137.045  1.00  0.00     0.002 C 
ATOM     25  C   UNL     1     131.072 129.179 139.605  1.00  0.00     0.010 C 
ATOM     26  C   UNL     1     129.407 130.822 138.667  1.00  0.00     0.012 C 
ATOM     27  C   UNL     1     131.869 128.406 136.824  1.00  0.00     0.036 C 
ATOM     28  C   UNL     1     131.147 127.696 139.209  1.00  0.00     0.032 C 
ATOM     29  C   UNL     1     132.110 127.456 138.030  1.00  0.00     0.114 C 
BRANCH  29  30
ATOM     30  O   UNL     1     132.049 126.112 137.624  1.00  0.00    -0.393 OA
ATOM     31  H   UNL     1     131.559 126.083 136.760  1.00  0.00     0.210 HD
ENDBRANCH  29  30
ENDBRANCH   1  11
TORSDOF 6
ENDMDL
MODEL 2
REMARK VINA RESULT:    15.667      2.583      7.368
REMARK INTER + INTRA:          19.764
REMARK INTER:                  20.690
REMARK INTRA:                  -0.926
REMARK UNBOUND:                -0.940
REMARK SMILES CC[C@H](C=C[C@@H](C)[C@@H]1CC[C@@H]2C3=CC[C@H]4C[C@H](O)CC[C@@]4(C)[C@H]3CC[C@@]21C)C(C)C
REMARK SMILES IDX 6 1 7 2 5 3 4 4 3 5 2 6 1 7 28 8 29 9 30 10 8 11 9 12 26 13
REMARK SMILES IDX 10 14 11 15 25 16 27 17 12 18 24 19 23 20 13 21 21 22 14 23
REMARK SMILES IDX 15 24 20 25 22 26 16 27 19 28 17 29 18 30
REMARK H PARENT 18 31
REMARK Flexibility Score: inf
ROOT
ATOM      1  C   UNL     1     131.882 128.110 137.527  1.00  0.00     0.012 C 
ATOM      2  C   UNL     1     132.800 127.489 136.467  1.00  0.00     0.012 C 
ENDROOT
BRANCH   1   3
ATOM      3  C   UNL     1     130.832 127.099 137.958  1.00  0.00    -0.028 C 
ATOM      4  C   UNL     1     130.785 126.443 139.135  1.00  0.00    -0.027 C 
BRANCH   4   5
ATOM      5  C   UNL     1     131.791 126.543 140.272  1.00  0.00     0.014 C 
BRANCH   5   6
ATOM      6  C   UNL     1     131.149 127.354 141.425  1.00  0.00     0.004 C 
ATOM      7  C   UNL     1     130.724 128.763 141.011  1.00  0.00     0.004 C 
ENDBRANCH   5   6
BRANCH   5   8
ATOM      8  C   UNL     1     132.302 125.133 140.712  1.00  0.00    -0.011 C 
ATOM      9  C   UNL     1     132.339 124.998 142.241  1.00  0.00     0.008 C 
ATOM     10  C   UNL     1     133.673 124.759 140.121  1.00  0.00     0.008 C 
ENDBRANCH   5   8
ENDBRANCH   4   5
ENDBRANCH   1   3
BRANCH   1  11
ATOM     11  C   UNL     1     131.341 129.521 137.106  1.00  0.00     0.002 C 
ATOM     12  C   UNL     1     131.891 130.009 135.773  1.00  0.00     0.005 C 
ATOM     13  C   UNL     1     131.386 130.768 138.060  1.00  0.00    -0.023 C 
ATOM     14  C   UNL     1     131.403 131.441 135.653  1.00  0.00     0.009 C 
ATOM     15  C   UNL     1     131.316 131.997 137.084  1.00  0.00     0.021 C 
ATOM     16  C   UNL     1     132.639 130.862 138.998  1.00  0.00     0.008 C 
ATOM     17  C   UNL     1     130.127 130.786 138.967  1.00  0.00     0.012 C 
ATOM     18  C   UNL     1     132.422 133.005 137.358  1.00  0.00    -0.067 C 
ATOM     19  C   UNL     1     133.965 131.282 138.317  1.00  0.00     0.009 C 
ATOM     20  C   UNL     1     133.844 132.474 137.318  1.00  0.00     0.021 C 
ATOM     21  C   UNL     1     132.117 134.193 137.917  1.00  0.00    -0.027 C 
ATOM     22  C   UNL     1     134.945 133.607 137.392  1.00  0.00    -0.023 C 
ATOM     23  C   UNL     1     133.138 135.231 138.290  1.00  0.00     0.031 C 
ATOM     24  C   UNL     1     134.570 134.681 138.468  1.00  0.00     0.002 C 
ATOM     25  C   UNL     1     136.388 133.020 137.649  1.00  0.00     0.010 C 
ATOM     26  C   UNL     1     134.985 134.318 136.007  1.00  0.00     0.012 C 
ATOM     27  C   UNL     1     134.819 134.196 139.912  1.00  0.00     0.036 C 
ATOM     28  C   UNL     1     137.117 133.641 138.852  1.00  0.00     0.032 C 
ATOM     29  C   UNL     1     136.251 133.631 140.127  1.00  0.00     0.114 C 
BRANCH  29  30
ATOM     30  O   UNL     1     136.907 134.320 141.160  1.00  0.00    -0.393 OA
ATOM     31  H   UNL     1     136.231 134.527 141.858  1.00  0.00     0.210 HD
ENDBRANCH  29  30
ENDBRANCH   1  11
TORSDOF 6
ENDMDL
