MODEL 1
REMARK VINA RESULT:    -4.998      0.000      0.000
REMARK INTER + INTRA:          -5.487
REMARK INTER:                  -5.436
REMARK INTRA:                  -0.051
REMARK UNBOUND:                -0.051
REMARK SMILES COc1cc2ccc(=O)oc2cc1O
REMARK SMILES IDX 3 1 13 2 12 3 11 4 5 5 4 6 6 7 7 8 8 9 9 10 10 11 2 12 1 13
REMARK SMILES IDX 14 14
REMARK H PARENT 14 15
REMARK Flexibility Score: inf
ROOT
ATOM      1  C   UNL     1      -7.679   1.114  -8.761  1.00  0.00     0.161 A 
ATOM      2  C   UNL     1      -7.330   2.144  -9.648  1.00  0.00     0.161 A 
ATOM      3  C   UNL     1      -5.998   2.309 -10.055  1.00  0.00     0.098 A 
ATOM      4  C   UNL     1      -5.006   1.448  -9.579  1.00  0.00     0.142 A 
ATOM      5  C   UNL     1      -5.347   0.409  -8.687  1.00  0.00     0.022 A 
ATOM      6  C   UNL     1      -6.679   0.244  -8.280  1.00  0.00     0.062 A 
ATOM      7  C   UNL     1      -4.331  -0.436  -8.228  1.00  0.00     0.019 A 
ATOM      8  C   UNL     1      -3.022  -0.231  -8.662  1.00  0.00     0.094 A 
ATOM      9  C   UNL     1      -2.757   0.820  -9.547  1.00  0.00     0.336 A 
ATOM     10  O   UNL     1      -1.582   1.022  -9.950  1.00  0.00    -0.246 OA
ATOM     11  O   UNL     1      -3.743   1.610  -9.968  1.00  0.00    -0.423 OA
ENDROOT
BRANCH   1  12
ATOM     12  O   UNL     1      -9.024   0.987  -8.382  1.00  0.00    -0.493 OA
ATOM     13  C   UNL     1      -9.715  -0.253  -8.261  1.00  0.00     0.278 C 
ENDBRANCH   1  12
BRANCH   2  14
ATOM     14  O   UNL     1      -8.318   3.005 -10.125  1.00  0.00    -0.504 OA
ATOM     15  H   UNL     1      -8.872   2.777 -10.942  1.00  0.00     0.293 HD
ENDBRANCH   2  14
TORSDOF 2
ENDMDL
MODEL 2
REMARK VINA RESULT:    -4.579      1.725      5.167
REMARK INTER + INTRA:          -5.032
REMARK INTER:                  -4.971
REMARK INTRA:                  -0.060
REMARK UNBOUND:                -0.051
REMARK SMILES COc1cc2ccc(=O)oc2cc1O
REMARK SMILES IDX 3 1 13 2 12 3 11 4 5 5 4 6 6 7 7 8 8 9 9 10 10 11 2 12 1 13
REMARK SMILES IDX 14 14
REMARK H PARENT 14 15
REMARK Flexibility Score: inf
ROOT
ATOM      1  C   UNL     1      -4.450  -0.808  -9.539  1.00  0.00     0.161 A 
ATOM      2  C   UNL     1      -4.334   0.295  -8.678  1.00  0.00     0.161 A 
ATOM      3  C   UNL     1      -5.480   0.978  -8.243  1.00  0.00     0.098 A 
ATOM      4  C   UNL     1      -6.746   0.566  -8.663  1.00  0.00     0.142 A 
ATOM      5  C   UNL     1      -6.872  -0.541  -9.529  1.00  0.00     0.022 A 
ATOM      6  C   UNL     1      -5.729  -1.224  -9.964  1.00  0.00     0.062 A 
ATOM      7  C   UNL     1      -8.155  -0.929  -9.933  1.00  0.00     0.019 A 
ATOM      8  C   UNL     1      -9.262  -0.217  -9.473  1.00  0.00     0.094 A 
ATOM      9  C   UNL     1      -9.061   0.871  -8.616  1.00  0.00     0.336 A 
ATOM     10  O   UNL     1     -10.047   1.526  -8.190  1.00  0.00    -0.246 OA
ATOM     11  O   UNL     1      -7.830   1.219  -8.248  1.00  0.00    -0.423 OA
ENDROOT
BRANCH   1  12
ATOM     12  O   UNL     1      -3.277  -1.461  -9.948  1.00  0.00    -0.493 OA
ATOM     13  C   UNL     1      -2.752  -2.635  -9.336  1.00  0.00     0.278 C 
ENDBRANCH   1  12
BRANCH   2  14
ATOM     14  O   UNL     1      -3.071   0.708  -8.256  1.00  0.00    -0.504 OA
ATOM     15  H   UNL     1      -2.227   0.387  -8.715  1.00  0.00     0.293 HD
ENDBRANCH   2  14
TORSDOF 2
ENDMDL
MODEL 3
REMARK VINA RESULT:    -4.331      2.837      4.686
REMARK INTER + INTRA:          -4.762
REMARK INTER:                  -4.698
REMARK INTRA:                  -0.065
REMARK UNBOUND:                -0.051
REMARK SMILES COc1cc2ccc(=O)oc2cc1O
REMARK SMILES IDX 3 1 13 2 12 3 11 4 5 5 4 6 6 7 7 8 8 9 9 10 10 11 2 12 1 13
REMARK SMILES IDX 14 14
REMARK H PARENT 14 15
REMARK Flexibility Score: inf
ROOT
ATOM      1  C   UNL     1      -4.793  -2.651  -9.699  1.00  0.00     0.161 A 
ATOM      2  C   UNL     1      -3.692  -2.162  -8.979  1.00  0.00     0.161 A 
ATOM      3  C   UNL     1      -3.636  -0.812  -8.601  1.00  0.00     0.098 A 
ATOM      4  C   UNL     1      -4.677   0.056  -8.938  1.00  0.00     0.142 A 
ATOM      5  C   UNL     1      -5.787  -0.427  -9.662  1.00  0.00     0.022 A 
ATOM      6  C   UNL     1      -5.844  -1.775 -10.040  1.00  0.00     0.062 A 
ATOM      7  C   UNL     1      -6.812   0.468  -9.985  1.00  0.00     0.019 A 
ATOM      8  C   UNL     1      -6.710   1.800  -9.586  1.00  0.00     0.094 A 
ATOM      9  C   UNL     1      -5.579   2.209  -8.870  1.00  0.00     0.336 A 
ATOM     10  O   UNL     1      -5.467   3.407  -8.501  1.00  0.00    -0.246 OA
ATOM     11  O   UNL     1      -4.617   1.336  -8.576  1.00  0.00    -0.423 OA
ENDROOT
BRANCH   1  12
ATOM     12  O   UNL     1      -4.806  -4.009 -10.057  1.00  0.00    -0.493 OA
ATOM     13  C   UNL     1      -5.535  -5.018  -9.364  1.00  0.00     0.278 C 
ENDBRANCH   1  12
BRANCH   2  14
ATOM     14  O   UNL     1      -2.652  -3.027  -8.641  1.00  0.00    -0.504 OA
ATOM     15  H   UNL     1      -1.682  -2.755  -8.739  1.00  0.00     0.293 HD
ENDBRANCH   2  14
TORSDOF 2
ENDMDL
MODEL 4
REMARK VINA RESULT:    -3.922      1.872      2.417
REMARK INTER + INTRA:          -4.317
REMARK INTER:                  -4.252
REMARK INTRA:                  -0.065
REMARK UNBOUND:                -0.051
REMARK SMILES COc1cc2ccc(=O)oc2cc1O
REMARK SMILES IDX 3 1 13 2 12 3 11 4 5 5 4 6 6 7 7 8 8 9 9 10 10 11 2 12 1 13
REMARK SMILES IDX 14 14
REMARK H PARENT 14 15
REMARK Flexibility Score: inf
ROOT
ATOM      1  C   UNL     1      -8.168  -0.025  -8.772  1.00  0.00     0.161 A 
ATOM      2  C   UNL     1      -8.072  -1.099  -9.670  1.00  0.00     0.161 A 
ATOM      3  C   UNL     1      -6.818  -1.545 -10.112  1.00  0.00     0.098 A 
ATOM      4  C   UNL     1      -5.652  -0.922  -9.661  1.00  0.00     0.142 A 
ATOM      5  C   UNL     1      -5.738   0.159  -8.758  1.00  0.00     0.022 A 
ATOM      6  C   UNL     1      -6.991   0.605  -8.316  1.00  0.00     0.062 A 
ATOM      7  C   UNL     1      -4.552   0.763  -8.326  1.00  0.00     0.019 A 
ATOM      8  C   UNL     1      -3.330   0.283  -8.794  1.00  0.00     0.094 A 
ATOM      9  C   UNL     1      -3.321  -0.793  -9.689  1.00  0.00     0.336 A 
ATOM     10  O   UNL     1      -2.227  -1.240 -10.124  1.00  0.00    -0.246 OA
ATOM     11  O   UNL     1      -4.464  -1.348 -10.085  1.00  0.00    -0.423 OA
ENDROOT
BRANCH   1  12
ATOM     12  O   UNL     1      -9.444   0.386  -8.357  1.00  0.00    -0.493 OA
ATOM     13  C   UNL     1     -10.083   1.586  -8.783  1.00  0.00     0.278 C 
ENDBRANCH   1  12
BRANCH   2  14
ATOM     14  O   UNL     1      -9.234  -1.724 -10.121  1.00  0.00    -0.504 OA
ATOM     15  H   UNL     1      -9.460  -2.677  -9.863  1.00  0.00     0.293 HD
ENDBRANCH   2  14
TORSDOF 2
ENDMDL
MODEL 5
REMARK VINA RESULT:    -3.733      3.297      4.749
REMARK INTER + INTRA:          -4.111
REMARK INTER:                  -4.065
REMARK INTRA:                  -0.046
REMARK UNBOUND:                -0.051
REMARK SMILES COc1cc2ccc(=O)oc2cc1O
REMARK SMILES IDX 3 1 13 2 12 3 11 4 5 5 4 6 6 7 7 8 8 9 9 10 10 11 2 12 1 13
REMARK SMILES IDX 14 14
REMARK H PARENT 14 15
REMARK Flexibility Score: inf
ROOT
ATOM      1  C   UNL     1      -4.717   0.526  -9.082  1.00  0.00     0.161 A 
ATOM      2  C   UNL     1      -3.514  -0.063  -8.663  1.00  0.00     0.161 A 
ATOM      3  C   UNL     1      -3.350  -1.455  -8.718  1.00  0.00     0.098 A 
ATOM      4  C   UNL     1      -4.384  -2.267  -9.190  1.00  0.00     0.142 A 
ATOM      5  C   UNL     1      -5.597  -1.683  -9.613  1.00  0.00     0.022 A 
ATOM      6  C   UNL     1      -5.762  -0.292  -9.559  1.00  0.00     0.062 A 
ATOM      7  C   UNL     1      -6.614  -2.523 -10.080  1.00  0.00     0.019 A 
ATOM      8  C   UNL     1      -6.402  -3.901 -10.114  1.00  0.00     0.094 A 
ATOM      9  C   UNL     1      -5.173  -4.409  -9.679  1.00  0.00     0.336 A 
ATOM     10  O   UNL     1      -4.963  -5.650  -9.702  1.00  0.00    -0.246 OA
ATOM     11  O   UNL     1      -4.223  -3.588  -9.239  1.00  0.00    -0.423 OA
ENDROOT
BRANCH   1  12
ATOM     12  O   UNL     1      -4.836   1.923  -9.010  1.00  0.00    -0.493 OA
ATOM     13  C   UNL     1      -6.074   2.624  -8.937  1.00  0.00     0.278 C 
ENDBRANCH   1  12
BRANCH   2  14
ATOM     14  O   UNL     1      -2.480   0.745  -8.192  1.00  0.00    -0.504 OA
ATOM     15  H   UNL     1      -1.688   0.357  -7.694  1.00  0.00     0.293 HD
ENDBRANCH   2  14
TORSDOF 2
ENDMDL
MODEL 6
REMARK VINA RESULT:    -3.713      1.699      5.381
REMARK INTER + INTRA:          -4.090
REMARK INTER:                  -4.034
REMARK INTRA:                  -0.056
REMARK UNBOUND:                -0.051
REMARK SMILES COc1cc2ccc(=O)oc2cc1O
REMARK SMILES IDX 3 1 13 2 12 3 11 4 5 5 4 6 6 7 7 8 8 9 9 10 10 11 2 12 1 13
REMARK SMILES IDX 14 14
REMARK H PARENT 14 15
REMARK Flexibility Score: inf
ROOT
ATOM      1  C   UNL     1      -3.905   0.170  -9.220  1.00  0.00     0.161 A 
ATOM      2  C   UNL     1      -4.312  -1.094  -9.672  1.00  0.00     0.161 A 
ATOM      3  C   UNL     1      -5.676  -1.399  -9.792  1.00  0.00     0.098 A 
ATOM      4  C   UNL     1      -6.642  -0.446  -9.462  1.00  0.00     0.142 A 
ATOM      5  C   UNL     1      -6.242   0.828  -9.006  1.00  0.00     0.022 A 
ATOM      6  C   UNL     1      -4.879   1.134  -8.885  1.00  0.00     0.062 A 
ATOM      7  C   UNL     1      -7.233   1.761  -8.682  1.00  0.00     0.019 A 
ATOM      8  C   UNL     1      -8.575   1.410  -8.818  1.00  0.00     0.094 A 
ATOM      9  C   UNL     1      -8.897   0.127  -9.276  1.00  0.00     0.336 A 
ATOM     10  O   UNL     1     -10.103  -0.209  -9.405  1.00  0.00    -0.246 OA
ATOM     11  O   UNL     1      -7.935  -0.741  -9.577  1.00  0.00    -0.423 OA
ENDROOT
BRANCH   1  12
ATOM     12  O   UNL     1      -2.530   0.431  -9.115  1.00  0.00    -0.493 OA
ATOM     13  C   UNL     1      -1.751   1.067 -10.124  1.00  0.00     0.278 C 
ENDBRANCH   1  12
BRANCH   2  14
ATOM     14  O   UNL     1      -3.351  -2.048 -10.003  1.00  0.00    -0.504 OA
ATOM     15  H   UNL     1      -2.420  -2.024  -9.605  1.00  0.00     0.293 HD
ENDBRANCH   2  14
TORSDOF 2
ENDMDL
MODEL 7
REMARK VINA RESULT:    -3.576      2.193      2.428
REMARK INTER + INTRA:          -3.940
REMARK INTER:                  -3.877
REMARK INTRA:                  -0.063
REMARK UNBOUND:                -0.051
REMARK SMILES COc1cc2ccc(=O)oc2cc1O
REMARK SMILES IDX 3 1 13 2 12 3 11 4 5 5 4 6 6 7 7 8 8 9 9 10 10 11 2 12 1 13
REMARK SMILES IDX 14 14
REMARK H PARENT 14 15
REMARK Flexibility Score: inf
ROOT
ATOM      1  C   UNL     1      -7.619   1.034  -9.453  1.00  0.00     0.161 A 
ATOM      2  C   UNL     1      -6.565   1.688  -8.797  1.00  0.00     0.161 A 
ATOM      3  C   UNL     1      -5.343   1.031  -8.589  1.00  0.00     0.098 A 
ATOM      4  C   UNL     1      -5.166  -0.282  -9.033  1.00  0.00     0.142 A 
ATOM      5  C   UNL     1      -6.220  -0.947  -9.693  1.00  0.00     0.022 A 
ATOM      6  C   UNL     1      -7.441  -0.292  -9.901  1.00  0.00     0.062 A 
ATOM      7  C   UNL     1      -6.011  -2.261 -10.125  1.00  0.00     0.019 A 
ATOM      8  C   UNL     1      -4.779  -2.871  -9.894  1.00  0.00     0.094 A 
ATOM      9  C   UNL     1      -3.779  -2.149  -9.233  1.00  0.00     0.336 A 
ATOM     10  O   UNL     1      -2.660  -2.682  -9.014  1.00  0.00    -0.246 OA
ATOM     11  O   UNL     1      -4.004  -0.900  -8.832  1.00  0.00    -0.423 OA
ENDROOT
BRANCH   1  12
ATOM     12  O   UNL     1      -8.824   1.730  -9.639  1.00  0.00    -0.493 OA
ATOM     13  C   UNL     1     -10.052   1.401  -8.999  1.00  0.00     0.278 C 
ENDBRANCH   1  12
BRANCH   2  14
ATOM     14  O   UNL     1      -6.739   2.998  -8.354  1.00  0.00    -0.504 OA
ATOM     15  H   UNL     1      -6.039   3.465  -7.790  1.00  0.00     0.293 HD
ENDBRANCH   2  14
TORSDOF 2
ENDMDL
MODEL 8
REMARK VINA RESULT:    -3.502      3.715      4.750
REMARK INTER + INTRA:          -3.861
REMARK INTER:                  -3.844
REMARK INTRA:                  -0.016
REMARK UNBOUND:                -0.051
REMARK SMILES COc1cc2ccc(=O)oc2cc1O
REMARK SMILES IDX 3 1 13 2 12 3 11 4 5 5 4 6 6 7 7 8 8 9 9 10 10 11 2 12 1 13
REMARK SMILES IDX 14 14
REMARK H PARENT 14 15
REMARK Flexibility Score: inf
ROOT
ATOM      1  C   UNL     1      -5.016  -4.259  -9.323  1.00  0.00     0.161 A 
ATOM      2  C   UNL     1      -6.139  -3.600  -9.847  1.00  0.00     0.161 A 
ATOM      3  C   UNL     1      -6.100  -2.219 -10.092  1.00  0.00     0.098 A 
ATOM      4  C   UNL     1      -4.942  -1.488  -9.815  1.00  0.00     0.142 A 
ATOM      5  C   UNL     1      -3.809  -2.142  -9.288  1.00  0.00     0.022 A 
ATOM      6  C   UNL     1      -3.847  -3.522  -9.043  1.00  0.00     0.062 A 
ATOM      7  C   UNL     1      -2.665  -1.382  -9.020  1.00  0.00     0.019 A 
ATOM      8  C   UNL     1      -2.677  -0.012  -9.280  1.00  0.00     0.094 A 
ATOM      9  C   UNL     1      -3.838   0.569  -9.803  1.00  0.00     0.336 A 
ATOM     10  O   UNL     1      -3.869   1.804 -10.045  1.00  0.00    -0.246 OA
ATOM     11  O   UNL     1      -4.912  -0.177 -10.048  1.00  0.00    -0.423 OA
ENDROOT
BRANCH   1  12
ATOM     12  O   UNL     1      -5.100  -5.641  -9.095  1.00  0.00    -0.493 OA
ATOM     13  C   UNL     1      -5.611  -6.232  -7.904  1.00  0.00     0.278 C 
ENDBRANCH   1  12
BRANCH   2  14
ATOM     14  O   UNL     1      -7.295  -4.327 -10.125  1.00  0.00    -0.504 OA
ATOM     15  H   UNL     1      -8.126  -4.244  -9.552  1.00  0.00     0.293 HD
ENDBRANCH   2  14
TORSDOF 2
ENDMDL
MODEL 9
REMARK VINA RESULT:    -3.465      2.907      3.559
REMARK INTER + INTRA:          -3.820
REMARK INTER:                  -3.768
REMARK INTRA:                  -0.052
REMARK UNBOUND:                -0.051
REMARK SMILES COc1cc2ccc(=O)oc2cc1O
REMARK SMILES IDX 3 1 13 2 12 3 11 4 5 5 4 6 6 7 7 8 8 9 9 10 10 11 2 12 1 13
REMARK SMILES IDX 14 14
REMARK H PARENT 14 15
REMARK Flexibility Score: inf
ROOT
ATOM      1  C   UNL     1      -6.269   0.849  -8.978  1.00  0.00     0.161 A 
ATOM      2  C   UNL     1      -7.197   0.122  -9.739  1.00  0.00     0.161 A 
ATOM      3  C   UNL     1      -6.926  -1.202 -10.113  1.00  0.00     0.098 A 
ATOM      4  C   UNL     1      -5.727  -1.809  -9.731  1.00  0.00     0.142 A 
ATOM      5  C   UNL     1      -4.787  -1.086  -8.966  1.00  0.00     0.022 A 
ATOM      6  C   UNL     1      -5.058   0.238  -8.592  1.00  0.00     0.062 A 
ATOM      7  C   UNL     1      -3.596  -1.721  -8.600  1.00  0.00     0.019 A 
ATOM      8  C   UNL     1      -3.372  -3.039  -8.997  1.00  0.00     0.094 A 
ATOM      9  C   UNL     1      -4.349  -3.694  -9.755  1.00  0.00     0.336 A 
ATOM     10  O   UNL     1      -4.166  -4.883 -10.123  1.00  0.00    -0.246 OA
ATOM     11  O   UNL     1      -5.474  -3.066 -10.090  1.00  0.00    -0.423 OA
ENDROOT
BRANCH   1  12
ATOM     12  O   UNL     1      -6.583   2.171  -8.626  1.00  0.00    -0.493 OA
ATOM     13  C   UNL     1      -5.666   3.259  -8.678  1.00  0.00     0.278 C 
ENDBRANCH   1  12
BRANCH   2  14
ATOM     14  O   UNL     1      -8.395   0.725 -10.121  1.00  0.00    -0.504 OA
ATOM     15  H   UNL     1      -9.275   0.223 -10.093  1.00  0.00     0.293 HD
ENDBRANCH   2  14
TORSDOF 2
ENDMDL
