MODEL 1
REMARK VINA RESULT:    -5.326      0.000      0.000
REMARK INTER + INTRA:          -6.181
REMARK INTER:                  -6.416
REMARK INTRA:                   0.235
REMARK UNBOUND:                 0.235
REMARK SMILES O=c1c(O)c(-c2ccc(O)cc2O)oc2cc(O)cc(O)c12
REMARK SMILES IDX 5 1 3 2 2 3 1 4 22 5 20 6 19 7 17 8 16 9 15 10 14 11 6 12
REMARK SMILES IDX 8 13 7 14 9 15 11 16 12 17 10 18 13 20 4 22 21 24 18 26
REMARK H PARENT 10 19 13 21 4 23 21 25 18 27
REMARK Flexibility Score: inf
ROOT
ATOM      1  C   UNL     1      -1.371  -1.164  -9.446  1.00  0.00     0.184 A 
ATOM      2  C   UNL     1      -1.408  -2.552  -9.648  1.00  0.00     0.208 A 
ATOM      3  C   UNL     1      -0.198  -3.259  -9.735  1.00  0.00     0.238 A 
ATOM      4  O   UNL     1      -0.237  -4.510  -9.863  1.00  0.00    -0.285 OA
ATOM      5  C   UNL     1       1.032  -2.564  -9.636  1.00  0.00     0.111 A 
ATOM      6  C   UNL     1       2.318  -3.171  -9.750  1.00  0.00     0.134 A 
ATOM      7  C   UNL     1       3.466  -2.409  -9.506  1.00  0.00     0.093 A 
ATOM      8  C   UNL     1       3.378  -1.045  -9.215  1.00  0.00     0.123 A 
ATOM      9  C   UNL     1       2.130  -0.430  -9.160  1.00  0.00     0.094 A 
ATOM     10  C   UNL     1       0.964  -1.171  -9.363  1.00  0.00     0.146 A 
ATOM     11  O   UNL     1      -0.206  -0.548  -9.291  1.00  0.00    -0.451 OA
ENDROOT
BRANCH   1  12
ATOM     12  C   UNL     1      -2.608  -0.358  -9.362  1.00  0.00     0.063 A 
ATOM     13  C   UNL     1      -4.965  -0.226  -8.783  1.00  0.00     0.047 A 
ATOM     14  C   UNL     1      -3.780  -0.960  -8.879  1.00  0.00     0.020 A 
ATOM     15  C   UNL     1      -4.991   1.121  -9.154  1.00  0.00     0.119 A 
ATOM     16  C   UNL     1      -3.821   1.737  -9.615  1.00  0.00     0.093 A 
ATOM     17  C   UNL     1      -2.626   1.009  -9.710  1.00  0.00     0.130 A 
BRANCH  15  18
ATOM     18  O   UNL     1      -6.181   1.838  -9.055  1.00  0.00    -0.508 OA
ATOM     19  H   UNL     1      -6.391   2.604  -9.685  1.00  0.00     0.293 HD
ENDBRANCH  15  18
BRANCH  17  20
ATOM     20  O   UNL     1      -1.456   1.646 -10.125  1.00  0.00    -0.507 OA
ATOM     21  H   UNL     1      -1.240   2.596  -9.844  1.00  0.00     0.293 HD
ENDBRANCH  17  20
ENDBRANCH   1  12
BRANCH   2  22
ATOM     22  O   UNL     1      -2.635  -3.215  -9.725  1.00  0.00    -0.502 OA
ATOM     23  H   UNL     1      -2.933  -3.888  -9.029  1.00  0.00     0.293 HD
ENDBRANCH   2  22
BRANCH   6  24
ATOM     24  O   UNL     1       2.521  -4.503 -10.125  1.00  0.00    -0.507 OA
ATOM     25  H   UNL     1       2.668  -5.265  -9.481  1.00  0.00     0.293 HD
ENDBRANCH   6  24
BRANCH   8  26
ATOM     26  O   UNL     1       4.527  -0.291  -8.989  1.00  0.00    -0.508 OA
ATOM     27  H   UNL     1       4.562   0.698  -9.206  1.00  0.00     0.293 HD
ENDBRANCH   8  26
TORSDOF 6
ENDMDL
MODEL 2
REMARK VINA RESULT:    -4.890      1.410      3.481
REMARK INTER + INTRA:          -5.656
REMARK INTER:                  -6.210
REMARK INTRA:                   0.554
REMARK UNBOUND:                 0.235
REMARK SMILES O=c1c(O)c(-c2ccc(O)cc2O)oc2cc(O)cc(O)c12
REMARK SMILES IDX 5 1 3 2 2 3 1 4 22 5 20 6 19 7 17 8 16 9 15 10 14 11 6 12
REMARK SMILES IDX 8 13 7 14 9 15 11 16 12 17 10 18 13 20 4 22 21 24 18 26
REMARK H PARENT 10 19 13 21 4 23 21 25 18 27
REMARK Flexibility Score: inf
ROOT
ATOM      1  C   UNL     1       0.248  -1.250  -9.563  1.00  0.00     0.184 A 
ATOM      2  C   UNL     1       1.295  -0.333  -9.738  1.00  0.00     0.208 A 
ATOM      3  C   UNL     1       2.601  -0.817  -9.915  1.00  0.00     0.238 A 
ATOM      4  O   UNL     1       3.528   0.007 -10.125  1.00  0.00    -0.285 OA
ATOM      5  C   UNL     1       2.842  -2.213  -9.897  1.00  0.00     0.111 A 
ATOM      6  C   UNL     1       4.129  -2.815 -10.026  1.00  0.00     0.134 A 
ATOM      7  C   UNL     1       4.234  -4.207 -10.125  1.00  0.00     0.093 A 
ATOM      8  C   UNL     1       3.104  -5.023 -10.034  1.00  0.00     0.123 A 
ATOM      9  C   UNL     1       1.849  -4.449  -9.848  1.00  0.00     0.094 A 
ATOM     10  C   UNL     1       1.708  -3.060  -9.783  1.00  0.00     0.146 A 
ATOM     11  O   UNL     1       0.492  -2.552  -9.616  1.00  0.00    -0.451 OA
ENDROOT
BRANCH   1  12
ATOM     12  C   UNL     1      -1.147  -0.805  -9.355  1.00  0.00     0.063 A 
ATOM     13  C   UNL     1      -2.779   0.997  -9.384  1.00  0.00     0.047 A 
ATOM     14  C   UNL     1      -1.469   0.544  -9.567  1.00  0.00     0.020 A 
ATOM     15  C   UNL     1      -3.784   0.105  -9.000  1.00  0.00     0.119 A 
ATOM     16  C   UNL     1      -3.477  -1.247  -8.807  1.00  0.00     0.093 A 
ATOM     17  C   UNL     1      -2.167  -1.711  -8.994  1.00  0.00     0.130 A 
BRANCH  15  18
ATOM     18  O   UNL     1      -5.084   0.573  -8.818  1.00  0.00    -0.508 OA
ATOM     19  H   UNL     1      -5.375   1.479  -9.166  1.00  0.00     0.293 HD
ENDBRANCH  15  18
BRANCH  17  20
ATOM     20  O   UNL     1      -1.883  -3.069  -8.847  1.00  0.00    -0.507 OA
ATOM     21  H   UNL     1      -1.147  -3.519  -9.378  1.00  0.00     0.293 HD
ENDBRANCH  17  20
ENDBRANCH   1  12
BRANCH   2  22
ATOM     22  O   UNL     1       1.026   1.038  -9.769  1.00  0.00    -0.502 OA
ATOM     23  H   UNL     1       0.115   1.408 -10.013  1.00  0.00     0.293 HD
ENDBRANCH   2  22
BRANCH   6  24
ATOM     24  O   UNL     1       5.329  -2.096 -10.034  1.00  0.00    -0.507 OA
ATOM     25  H   UNL     1       6.014  -2.112  -9.294  1.00  0.00     0.293 HD
ENDBRANCH   6  24
BRANCH   8  26
ATOM     26  O   UNL     1       3.219  -6.409 -10.118  1.00  0.00    -0.508 OA
ATOM     27  H   UNL     1       2.870  -7.015  -9.385  1.00  0.00     0.293 HD
ENDBRANCH   8  26
TORSDOF 6
ENDMDL
MODEL 3
REMARK VINA RESULT:    -4.285      1.532      7.054
REMARK INTER + INTRA:          -4.926
REMARK INTER:                  -5.276
REMARK INTRA:                   0.349
REMARK UNBOUND:                 0.235
REMARK SMILES O=c1c(O)c(-c2ccc(O)cc2O)oc2cc(O)cc(O)c12
REMARK SMILES IDX 5 1 3 2 2 3 1 4 22 5 20 6 19 7 17 8 16 9 15 10 14 11 6 12
REMARK SMILES IDX 8 13 7 14 9 15 11 16 12 17 10 18 13 20 4 22 21 24 18 26
REMARK H PARENT 10 19 13 21 4 23 21 25 18 27
REMARK Flexibility Score: inf
ROOT
ATOM      1  C   UNL     1       0.743  -1.641  -9.640  1.00  0.00     0.184 A 
ATOM      2  C   UNL     1       1.093  -0.309  -9.908  1.00  0.00     0.208 A 
ATOM      3  C   UNL     1       0.086   0.670  -9.918  1.00  0.00     0.238 A 
ATOM      4  O   UNL     1       0.412   1.871 -10.105  1.00  0.00    -0.285 OA
ATOM      5  C   UNL     1      -1.259   0.298  -9.677  1.00  0.00     0.111 A 
ATOM      6  C   UNL     1      -2.366   1.198  -9.701  1.00  0.00     0.134 A 
ATOM      7  C   UNL     1      -3.634   0.744  -9.320  1.00  0.00     0.093 A 
ATOM      8  C   UNL     1      -3.848  -0.593  -8.977  1.00  0.00     0.123 A 
ATOM      9  C   UNL     1      -2.786  -1.493  -9.007  1.00  0.00     0.094 A 
ATOM     10  C   UNL     1      -1.501  -1.063  -9.348  1.00  0.00     0.146 A 
ATOM     11  O   UNL     1      -0.514  -1.951  -9.353  1.00  0.00    -0.451 OA
ENDROOT
BRANCH   1  12
ATOM     12  C   UNL     1       1.751  -2.722  -9.632  1.00  0.00     0.063 A 
ATOM     13  C   UNL     1       4.074  -3.394  -9.374  1.00  0.00     0.047 A 
ATOM     14  C   UNL     1       3.096  -2.396  -9.393  1.00  0.00     0.020 A 
ATOM     15  C   UNL     1       3.720  -4.730  -9.579  1.00  0.00     0.119 A 
ATOM     16  C   UNL     1       2.378  -5.068  -9.796  1.00  0.00     0.093 A 
ATOM     17  C   UNL     1       1.390  -4.074  -9.811  1.00  0.00     0.130 A 
BRANCH  15  18
ATOM     18  O   UNL     1       4.707  -5.713  -9.560  1.00  0.00    -0.508 OA
ATOM     19  H   UNL     1       4.567  -6.595  -9.081  1.00  0.00     0.293 HD
ENDBRANCH  15  18
BRANCH  17  20
ATOM     20  O   UNL     1       0.050  -4.429  -9.980  1.00  0.00    -0.507 OA
ATOM     21  H   UNL     1      -0.285  -5.358  -9.754  1.00  0.00     0.293 HD
ENDBRANCH  17  20
ENDBRANCH   1  12
BRANCH   2  22
ATOM     22  O   UNL     1       2.430   0.033 -10.125  1.00  0.00    -0.502 OA
ATOM     23  H   UNL     1       2.710   0.720 -10.815  1.00  0.00     0.293 HD
ENDBRANCH   2  22
BRANCH   6  24
ATOM     24  O   UNL     1      -2.278   2.531 -10.116  1.00  0.00    -0.507 OA
ATOM     25  H   UNL     1      -2.475   2.856 -11.050  1.00  0.00     0.293 HD
ENDBRANCH   6  24
BRANCH   8  26
ATOM     26  O   UNL     1      -5.117  -1.039  -8.614  1.00  0.00    -0.508 OA
ATOM     27  H   UNL     1      -5.394  -2.006  -8.736  1.00  0.00     0.293 HD
ENDBRANCH   8  26
TORSDOF 6
ENDMDL
MODEL 4
REMARK VINA RESULT:    -3.607      1.450      2.408
REMARK INTER + INTRA:          -4.110
REMARK INTER:                  -3.982
REMARK INTRA:                  -0.128
REMARK UNBOUND:                 0.235
REMARK SMILES O=c1c(O)c(-c2ccc(O)cc2O)oc2cc(O)cc(O)c12
REMARK SMILES IDX 5 1 3 2 2 3 1 4 22 5 20 6 19 7 17 8 16 9 15 10 14 11 6 12
REMARK SMILES IDX 8 13 7 14 9 15 11 16 12 17 10 18 13 20 4 22 21 24 18 26
REMARK H PARENT 10 19 13 21 4 23 21 25 18 27
REMARK Flexibility Score: inf
ROOT
ATOM      1  C   UNL     1      -3.146  -0.509  -9.353  1.00  0.00     0.184 A 
ATOM      2  C   UNL     1      -3.240  -1.867  -9.692  1.00  0.00     0.208 A 
ATOM      3  C   UNL     1      -2.064  -2.631  -9.776  1.00  0.00     0.238 A 
ATOM      4  O   UNL     1      -2.159  -3.860 -10.028  1.00  0.00    -0.285 OA
ATOM      5  C   UNL     1      -0.810  -2.019  -9.536  1.00  0.00     0.111 A 
ATOM      6  C   UNL     1       0.448  -2.686  -9.632  1.00  0.00     0.134 A 
ATOM      7  C   UNL     1       1.616  -2.017  -9.246  1.00  0.00     0.093 A 
ATOM      8  C   UNL     1       1.578  -0.684  -8.828  1.00  0.00     0.123 A 
ATOM      9  C   UNL     1       0.363  -0.006  -8.788  1.00  0.00     0.094 A 
ATOM     10  C   UNL     1      -0.824  -0.657  -9.132  1.00  0.00     0.146 A 
ATOM     11  O   UNL     1      -1.963   0.022  -9.069  1.00  0.00    -0.451 OA
ENDROOT
BRANCH   1  12
ATOM     12  C   UNL     1      -4.342   0.355  -9.265  1.00  0.00     0.063 A 
ATOM     13  C   UNL     1      -5.567   2.295 -10.070  1.00  0.00     0.047 A 
ATOM     14  C   UNL     1      -4.447   1.461 -10.123  1.00  0.00     0.020 A 
ATOM     15  C   UNL     1      -6.601   2.027  -9.169  1.00  0.00     0.119 A 
ATOM     16  C   UNL     1      -6.516   0.913  -8.325  1.00  0.00     0.093 A 
ATOM     17  C   UNL     1      -5.399   0.068  -8.375  1.00  0.00     0.130 A 
BRANCH  15  18
ATOM     18  O   UNL     1      -7.710   2.870  -9.125  1.00  0.00    -0.508 OA
ATOM     19  H   UNL     1      -7.698   3.733  -8.594  1.00  0.00     0.293 HD
ENDBRANCH  15  18
BRANCH  17  20
ATOM     20  O   UNL     1      -5.348  -1.066  -7.564  1.00  0.00    -0.507 OA
ATOM     21  H   UNL     1      -4.705  -1.133  -6.784  1.00  0.00     0.293 HD
ENDBRANCH  17  20
ENDBRANCH   1  12
BRANCH   2  22
ATOM     22  O   UNL     1      -4.492  -2.448  -9.907  1.00  0.00    -0.502 OA
ATOM     23  H   UNL     1      -5.352  -1.911  -9.885  1.00  0.00     0.293 HD
ENDBRANCH   2  22
BRANCH   6  24
ATOM     24  O   UNL     1       0.606  -3.986 -10.122  1.00  0.00    -0.507 OA
ATOM     25  H   UNL     1      -0.131  -4.540 -10.530  1.00  0.00     0.293 HD
ENDBRANCH   6  24
BRANCH   8  26
ATOM     26  O   UNL     1       2.747  -0.021  -8.461  1.00  0.00    -0.508 OA
ATOM     27  H   UNL     1       3.644  -0.266  -8.864  1.00  0.00     0.293 HD
ENDBRANCH   8  26
TORSDOF 6
ENDMDL
MODEL 5
REMARK VINA RESULT:    -2.423     12.473     13.387
REMARK INTER + INTRA:          -2.683
REMARK INTER:                  -2.260
REMARK INTRA:                  -0.423
REMARK UNBOUND:                 0.235
REMARK SMILES O=c1c(O)c(-c2ccc(O)cc2O)oc2cc(O)cc(O)c12
REMARK SMILES IDX 5 1 3 2 2 3 1 4 22 5 20 6 19 7 17 8 16 9 15 10 14 11 6 12
REMARK SMILES IDX 8 13 7 14 9 15 11 16 12 17 10 18 13 20 4 22 21 24 18 26
REMARK H PARENT 10 19 13 21 4 23 21 25 18 27
REMARK Flexibility Score: inf
ROOT
ATOM      1  C   UNL     1      -2.981   8.109  -0.378  1.00  0.00     0.184 A 
ATOM      2  C   UNL     1      -2.839   6.765  -0.002  1.00  0.00     0.208 A 
ATOM      3  C   UNL     1      -1.579   6.304   0.414  1.00  0.00     0.238 A 
ATOM      4  O   UNL     1      -1.470   5.112   0.801  1.00  0.00    -0.285 OA
ATOM      5  C   UNL     1      -0.476   7.192   0.431  1.00  0.00     0.111 A 
ATOM      6  C   UNL     1       0.854   6.825   0.796  1.00  0.00     0.134 A 
ATOM      7  C   UNL     1       1.839   7.815   0.902  1.00  0.00     0.093 A 
ATOM      8  C   UNL     1       1.557   9.148   0.594  1.00  0.00     0.123 A 
ATOM      9  C   UNL     1       0.277   9.506   0.179  1.00  0.00     0.094 A 
ATOM     10  C   UNL     1      -0.737   8.548   0.099  1.00  0.00     0.146 A 
ATOM     11  O   UNL     1      -1.946   8.934  -0.290  1.00  0.00    -0.451 OA
ENDROOT
BRANCH   1  12
ATOM     12  C   UNL     1      -4.275   8.653  -0.842  1.00  0.00     0.063 A 
ATOM     13  C   UNL     1      -5.951   8.816  -2.596  1.00  0.00     0.047 A 
ATOM     14  C   UNL     1      -4.730   8.323  -2.128  1.00  0.00     0.020 A 
ATOM     15  C   UNL     1      -6.738   9.633  -1.781  1.00  0.00     0.119 A 
ATOM     16  C   UNL     1      -6.303   9.951  -0.488  1.00  0.00     0.093 A 
ATOM     17  C   UNL     1      -5.083   9.456  -0.008  1.00  0.00     0.130 A 
BRANCH  15  18
ATOM     18  O   UNL     1      -7.951  10.120  -2.264  1.00  0.00    -0.508 OA
ATOM     19  H   UNL     1      -8.639   9.506  -2.683  1.00  0.00     0.293 HD
ENDBRANCH  15  18
BRANCH  17  20
ATOM     20  O   UNL     1      -4.684   9.739   1.299  1.00  0.00    -0.507 OA
ATOM     21  H   UNL     1      -5.015   9.193   2.085  1.00  0.00     0.293 HD
ENDBRANCH  17  20
ENDBRANCH   1  12
BRANCH   2  22
ATOM     22  O   UNL     1      -3.949   5.916  -0.011  1.00  0.00    -0.502 OA
ATOM     23  H   UNL     1      -4.309   5.502  -0.863  1.00  0.00     0.293 HD
ENDBRANCH   2  22
BRANCH   6  24
ATOM     24  O   UNL     1       1.262   5.510   1.035  1.00  0.00    -0.507 OA
ATOM     25  H   UNL     1       1.447   5.122   1.948  1.00  0.00     0.293 HD
ENDBRANCH   6  24
BRANCH   8  26
ATOM     26  O   UNL     1       2.548  10.123   0.687  1.00  0.00    -0.508 OA
ATOM     27  H   UNL     1       3.448   9.925   1.107  1.00  0.00     0.293 HD
ENDBRANCH   8  26
TORSDOF 6
ENDMDL
MODEL 6
REMARK VINA RESULT:    -2.341     11.113     11.801
REMARK INTER + INTRA:          -2.585
REMARK INTER:                  -2.213
REMARK INTRA:                  -0.371
REMARK UNBOUND:                 0.235
REMARK SMILES O=c1c(O)c(-c2ccc(O)cc2O)oc2cc(O)cc(O)c12
REMARK SMILES IDX 5 1 3 2 2 3 1 4 22 5 20 6 19 7 17 8 16 9 15 10 14 11 6 12
REMARK SMILES IDX 8 13 7 14 9 15 11 16 12 17 10 18 13 20 4 22 21 24 18 26
REMARK H PARENT 10 19 13 21 4 23 21 25 18 27
REMARK Flexibility Score: inf
ROOT
ATOM      1  C   UNL     1       0.368   3.329   1.074  1.00  0.00     0.184 A 
ATOM      2  C   UNL     1      -0.238   2.673   2.157  1.00  0.00     0.208 A 
ATOM      3  C   UNL     1      -0.276   1.270   2.168  1.00  0.00     0.238 A 
ATOM      4  O   UNL     1      -0.772   0.686   3.166  1.00  0.00    -0.285 OA
ATOM      5  C   UNL     1       0.278   0.543   1.086  1.00  0.00     0.111 A 
ATOM      6  C   UNL     1       0.261  -0.880   0.972  1.00  0.00     0.134 A 
ATOM      7  C   UNL     1       0.953  -1.497  -0.077  1.00  0.00     0.093 A 
ATOM      8  C   UNL     1       1.609  -0.741  -1.051  1.00  0.00     0.123 A 
ATOM      9  C   UNL     1       1.581   0.649  -0.982  1.00  0.00     0.094 A 
ATOM     10  C   UNL     1       0.930   1.294   0.072  1.00  0.00     0.146 A 
ATOM     11  O   UNL     1       0.938   2.622   0.107  1.00  0.00    -0.451 OA
ENDROOT
BRANCH   1  12
ATOM     12  C   UNL     1       0.426   4.803   0.993  1.00  0.00     0.063 A 
ATOM     13  C   UNL     1      -0.754   6.923   0.828  1.00  0.00     0.047 A 
ATOM     14  C   UNL     1      -0.773   5.527   0.902  1.00  0.00     0.020 A 
ATOM     15  C   UNL     1       0.461   7.612   0.859  1.00  0.00     0.119 A 
ATOM     16  C   UNL     1       1.661   6.901   0.973  1.00  0.00     0.093 A 
ATOM     17  C   UNL     1       1.652   5.501   1.053  1.00  0.00     0.130 A 
BRANCH  15  18
ATOM     18  O   UNL     1       0.463   9.004   0.781  1.00  0.00    -0.508 OA
ATOM     19  H   UNL     1      -0.104   9.497   0.102  1.00  0.00     0.293 HD
ENDBRANCH  15  18
BRANCH  17  20
ATOM     20  O   UNL     1       2.851   4.806   1.215  1.00  0.00    -0.507 OA
ATOM     21  H   UNL     1       3.480   5.005   1.984  1.00  0.00     0.293 HD
ENDBRANCH  17  20
ENDBRANCH   1  12
BRANCH   2  22
ATOM     22  O   UNL     1      -0.761   3.415   3.219  1.00  0.00    -0.502 OA
ATOM     23  H   UNL     1      -0.221   3.631   4.049  1.00  0.00     0.293 HD
ENDBRANCH   2  22
BRANCH   6  24
ATOM     24  O   UNL     1      -0.440  -1.723   1.840  1.00  0.00    -0.507 OA
ATOM     25  H   UNL     1      -1.417  -1.955   1.752  1.00  0.00     0.293 HD
ENDBRANCH   6  24
BRANCH   8  26
ATOM     26  O   UNL     1       2.282  -1.364  -2.100  1.00  0.00    -0.508 OA
ATOM     27  H   UNL     1       2.526  -0.862  -2.946  1.00  0.00     0.293 HD
ENDBRANCH   8  26
TORSDOF 6
ENDMDL
