MODEL 1
REMARK VINA RESULT:    -6.843      0.000      0.000
REMARK INTER + INTRA:          -7.493
REMARK INTER:                  -7.443
REMARK INTRA:                  -0.050
REMARK UNBOUND:                -0.050
REMARK SMILES COc1cc2ccc(=O)oc2cc1O
REMARK SMILES IDX 3 1 13 2 12 3 11 4 5 5 4 6 6 7 7 8 8 9 9 10 10 11 2 12 1 13
REMARK SMILES IDX 14 14
REMARK H PARENT 14 15
REMARK Flexibility Score: inf
ROOT
ATOM      1  C   UNL     1       9.761 -46.133  37.125  1.00  0.00     0.161 A 
ATOM      2  C   UNL     1       9.768 -46.566  38.466  1.00  0.00     0.161 A 
ATOM      3  C   UNL     1      10.979 -46.832  39.115  1.00  0.00     0.098 A 
ATOM      4  C   UNL     1      12.193 -46.672  38.442  1.00  0.00     0.142 A 
ATOM      5  C   UNL     1      12.197 -46.241  37.099  1.00  0.00     0.022 A 
ATOM      6  C   UNL     1      10.987 -45.972  36.445  1.00  0.00     0.062 A 
ATOM      7  C   UNL     1      13.427 -46.090  36.452  1.00  0.00     0.019 A 
ATOM      8  C   UNL     1      14.604 -46.369  37.146  1.00  0.00     0.094 A 
ATOM      9  C   UNL     1      14.523 -46.794  38.476  1.00  0.00     0.336 A 
ATOM     10  O   UNL     1      15.573 -47.051  39.119  1.00  0.00    -0.246 OA
ATOM     11  O   UNL     1      13.338 -46.929  39.068  1.00  0.00    -0.423 OA
ENDROOT
BRANCH   1  12
ATOM     12  O   UNL     1       8.528 -45.875  36.504  1.00  0.00    -0.493 OA
ATOM     13  C   UNL     1       8.168 -46.331  35.204  1.00  0.00     0.278 C 
ENDBRANCH   1  12
BRANCH   2  14
ATOM     14  O   UNL     1       8.577 -46.737  39.171  1.00  0.00    -0.504 OA
ATOM     15  H   UNL     1       7.815 -47.303  38.818  1.00  0.00     0.293 HD
ENDBRANCH   2  14
TORSDOF 2
ENDMDL
MODEL 2
REMARK VINA RESULT:    -6.802      1.437      4.917
REMARK INTER + INTRA:          -7.449
REMARK INTER:                  -7.392
REMARK INTRA:                  -0.057
REMARK UNBOUND:                -0.050
REMARK SMILES COc1cc2ccc(=O)oc2cc1O
REMARK SMILES IDX 3 1 13 2 12 3 11 4 5 5 4 6 6 7 7 8 8 9 9 10 10 11 2 12 1 13
REMARK SMILES IDX 14 14
REMARK H PARENT 14 15
REMARK Flexibility Score: inf
ROOT
ATOM      1  C   UNL     1      13.019 -46.578  38.158  1.00  0.00     0.161 A 
ATOM      2  C   UNL     1      12.638 -47.169  39.380  1.00  0.00     0.161 A 
ATOM      3  C   UNL     1      11.286 -47.253  39.731  1.00  0.00     0.098 A 
ATOM      4  C   UNL     1      10.300 -46.753  38.877  1.00  0.00     0.142 A 
ATOM      5  C   UNL     1      10.671 -46.158  37.653  1.00  0.00     0.022 A 
ATOM      6  C   UNL     1      12.024 -46.072  37.296  1.00  0.00     0.062 A 
ATOM      7  C   UNL     1       9.662 -45.667  36.819  1.00  0.00     0.019 A 
ATOM      8  C   UNL     1       8.330 -45.776  37.218  1.00  0.00     0.094 A 
ATOM      9  C   UNL     1       8.038 -46.377  38.447  1.00  0.00     0.336 A 
ATOM     10  O   UNL     1       6.843 -46.485  38.825  1.00  0.00    -0.246 OA
ATOM     11  O   UNL     1       9.018 -46.837  39.221  1.00  0.00    -0.423 OA
ENDROOT
BRANCH   1  12
ATOM     12  O   UNL     1      14.384 -46.510  37.837  1.00  0.00    -0.493 OA
ATOM     13  C   UNL     1      15.087 -47.493  37.085  1.00  0.00     0.278 C 
ENDBRANCH   1  12
BRANCH   2  14
ATOM     14  O   UNL     1      13.592 -47.680  40.259  1.00  0.00    -0.504 OA
ATOM     15  H   UNL     1      14.257 -48.392  39.980  1.00  0.00     0.293 HD
ENDBRANCH   2  14
TORSDOF 2
ENDMDL
MODEL 3
REMARK VINA RESULT:    -6.796      1.431      1.756
REMARK INTER + INTRA:          -7.443
REMARK INTER:                  -7.386
REMARK INTRA:                  -0.057
REMARK UNBOUND:                -0.050
REMARK SMILES COc1cc2ccc(=O)oc2cc1O
REMARK SMILES IDX 3 1 13 2 12 3 11 4 5 5 4 6 6 7 7 8 8 9 9 10 10 11 2 12 1 13
REMARK SMILES IDX 14 14
REMARK H PARENT 14 15
REMARK Flexibility Score: inf
ROOT
ATOM      1  C   UNL     1       8.771 -46.472  36.269  1.00  0.00     0.161 A 
ATOM      2  C   UNL     1       8.330 -47.199  37.393  1.00  0.00     0.161 A 
ATOM      3  C   UNL     1       9.227 -47.531  38.415  1.00  0.00     0.098 A 
ATOM      4  C   UNL     1      10.568 -47.147  38.331  1.00  0.00     0.142 A 
ATOM      5  C   UNL     1      11.020 -46.421  37.210  1.00  0.00     0.022 A 
ATOM      6  C   UNL     1      10.126 -46.085  36.185  1.00  0.00     0.062 A 
ATOM      7  C   UNL     1      12.368 -46.051  37.155  1.00  0.00     0.019 A 
ATOM      8  C   UNL     1      13.219 -46.409  38.201  1.00  0.00     0.094 A 
ATOM      9  C   UNL     1      12.700 -47.130  39.281  1.00  0.00     0.336 A 
ATOM     10  O   UNL     1      13.451 -47.463  40.234  1.00  0.00    -0.246 OA
ATOM     11  O   UNL     1      11.413 -47.469  39.308  1.00  0.00    -0.423 OA
ENDROOT
BRANCH   1  12
ATOM     12  O   UNL     1       7.845 -46.155  35.263  1.00  0.00    -0.493 OA
ATOM     13  C   UNL     1       7.965 -46.553  33.900  1.00  0.00     0.278 C 
ENDBRANCH   1  12
BRANCH   2  14
ATOM     14  O   UNL     1       7.000 -47.598  37.513  1.00  0.00    -0.504 OA
ATOM     15  H   UNL     1       6.724 -48.573  37.494  1.00  0.00     0.293 HD
ENDBRANCH   2  14
TORSDOF 2
ENDMDL
MODEL 4
REMARK VINA RESULT:    -6.759      1.940      3.151
REMARK INTER + INTRA:          -7.403
REMARK INTER:                  -7.338
REMARK INTRA:                  -0.064
REMARK UNBOUND:                -0.050
REMARK SMILES COc1cc2ccc(=O)oc2cc1O
REMARK SMILES IDX 3 1 13 2 12 3 11 4 5 5 4 6 6 7 7 8 8 9 9 10 10 11 2 12 1 13
REMARK SMILES IDX 14 14
REMARK H PARENT 14 15
REMARK Flexibility Score: inf
ROOT
ATOM      1  C   UNL     1       9.108 -46.071  35.444  1.00  0.00     0.161 A 
ATOM      2  C   UNL     1      10.409 -45.718  35.034  1.00  0.00     0.161 A 
ATOM      3  C   UNL     1      11.493 -45.887  35.904  1.00  0.00     0.098 A 
ATOM      4  C   UNL     1      11.297 -46.406  37.186  1.00  0.00     0.142 A 
ATOM      5  C   UNL     1       9.999 -46.761  37.607  1.00  0.00     0.022 A 
ATOM      6  C   UNL     1       8.911 -46.594  36.739  1.00  0.00     0.062 A 
ATOM      7  C   UNL     1       9.834 -47.279  38.896  1.00  0.00     0.019 A 
ATOM      8  C   UNL     1      10.948 -47.426  39.721  1.00  0.00     0.094 A 
ATOM      9  C   UNL     1      12.206 -47.052  39.237  1.00  0.00     0.336 A 
ATOM     10  O   UNL     1      13.224 -47.177  39.966  1.00  0.00    -0.246 OA
ATOM     11  O   UNL     1      12.334 -46.563  38.005  1.00  0.00    -0.423 OA
ENDROOT
BRANCH   1  12
ATOM     12  O   UNL     1       8.044 -45.888  34.547  1.00  0.00    -0.493 OA
ATOM     13  C   UNL     1       7.401 -46.937  33.832  1.00  0.00     0.278 C 
ENDBRANCH   1  12
BRANCH   2  14
ATOM     14  O   UNL     1      10.645 -45.197  33.763  1.00  0.00    -0.504 OA
ATOM     15  H   UNL     1      10.029 -45.383  32.980  1.00  0.00     0.293 HD
ENDBRANCH   2  14
TORSDOF 2
ENDMDL
MODEL 5
REMARK VINA RESULT:    -6.730      1.330      2.444
REMARK INTER + INTRA:          -7.371
REMARK INTER:                  -7.338
REMARK INTRA:                  -0.032
REMARK UNBOUND:                -0.050
REMARK SMILES COc1cc2ccc(=O)oc2cc1O
REMARK SMILES IDX 3 1 13 2 12 3 11 4 5 5 4 6 6 7 7 8 8 9 9 10 10 11 2 12 1 13
REMARK SMILES IDX 14 14
REMARK H PARENT 14 15
REMARK Flexibility Score: inf
ROOT
ATOM      1  C   UNL     1       9.665 -46.130  38.488  1.00  0.00     0.161 A 
ATOM      2  C   UNL     1       9.779 -45.721  37.144  1.00  0.00     0.161 A 
ATOM      3  C   UNL     1      11.009 -45.809  36.482  1.00  0.00     0.098 A 
ATOM      4  C   UNL     1      12.136 -46.301  37.145  1.00  0.00     0.142 A 
ATOM      5  C   UNL     1      12.033 -46.712  38.490  1.00  0.00     0.022 A 
ATOM      6  C   UNL     1      10.803 -46.627  39.157  1.00  0.00     0.062 A 
ATOM      7  C   UNL     1      13.178 -47.201  39.126  1.00  0.00     0.019 A 
ATOM      8  C   UNL     1      14.379 -47.267  38.419  1.00  0.00     0.094 A 
ATOM      9  C   UNL     1      14.405 -46.841  37.088  1.00  0.00     0.336 A 
ATOM     10  O   UNL     1      15.478 -46.892  36.432  1.00  0.00    -0.246 OA
ATOM     11  O   UNL     1      13.300 -46.380  36.506  1.00  0.00    -0.423 OA
ENDROOT
BRANCH   1  12
ATOM     12  O   UNL     1       8.417 -46.028  39.122  1.00  0.00    -0.493 OA
ATOM     13  C   UNL     1       7.395 -47.018  39.059  1.00  0.00     0.278 C 
ENDBRANCH   1  12
BRANCH   2  14
ATOM     14  O   UNL     1       8.677 -45.224  36.449  1.00  0.00    -0.504 OA
ATOM     15  H   UNL     1       7.991 -45.832  36.017  1.00  0.00     0.293 HD
ENDBRANCH   2  14
TORSDOF 2
ENDMDL
MODEL 6
REMARK VINA RESULT:    -6.706      4.197      8.383
REMARK INTER + INTRA:          -7.345
REMARK INTER:                  -7.289
REMARK INTRA:                  -0.056
REMARK UNBOUND:                -0.050
REMARK SMILES COc1cc2ccc(=O)oc2cc1O
REMARK SMILES IDX 3 1 13 2 12 3 11 4 5 5 4 6 6 7 7 8 8 9 9 10 10 11 2 12 1 13
REMARK SMILES IDX 14 14
REMARK H PARENT 14 15
REMARK Flexibility Score: inf
ROOT
ATOM      1  C   UNL     1       9.364 -45.365  33.567  1.00  0.00     0.161 A 
ATOM      2  C   UNL     1       9.176 -44.076  33.028  1.00  0.00     0.161 A 
ATOM      3  C   UNL     1       8.055 -43.798  32.237  1.00  0.00     0.098 A 
ATOM      4  C   UNL     1       7.112 -44.794  31.971  1.00  0.00     0.142 A 
ATOM      5  C   UNL     1       7.292 -46.088  32.504  1.00  0.00     0.022 A 
ATOM      6  C   UNL     1       8.412 -46.370  33.298  1.00  0.00     0.062 A 
ATOM      7  C   UNL     1       6.331 -47.064  32.221  1.00  0.00     0.019 A 
ATOM      8  C   UNL     1       5.234 -46.733  31.426  1.00  0.00     0.094 A 
ATOM      9  C   UNL     1       5.122 -45.430  30.932  1.00  0.00     0.336 A 
ATOM     10  O   UNL     1       4.140 -45.111  30.213  1.00  0.00    -0.246 OA
ATOM     11  O   UNL     1       6.051 -44.520  31.217  1.00  0.00    -0.423 OA
ENDROOT
BRANCH   1  12
ATOM     12  O   UNL     1      10.499 -45.609  34.356  1.00  0.00    -0.493 OA
ATOM     13  C   UNL     1      10.463 -46.068  35.703  1.00  0.00     0.278 C 
ENDBRANCH   1  12
BRANCH   2  14
ATOM     14  O   UNL     1      10.095 -43.055  33.272  1.00  0.00    -0.504 OA
ATOM     15  H   UNL     1      10.611 -42.603  32.526  1.00  0.00     0.293 HD
ENDBRANCH   2  14
TORSDOF 2
ENDMDL
MODEL 7
REMARK VINA RESULT:    -6.607      3.353      5.695
REMARK INTER + INTRA:          -7.237
REMARK INTER:                  -7.182
REMARK INTRA:                  -0.055
REMARK UNBOUND:                -0.050
REMARK SMILES COc1cc2ccc(=O)oc2cc1O
REMARK SMILES IDX 3 1 13 2 12 3 11 4 5 5 4 6 6 7 7 8 8 9 9 10 10 11 2 12 1 13
REMARK SMILES IDX 14 14
REMARK H PARENT 14 15
REMARK Flexibility Score: inf
ROOT
ATOM      1  C   UNL     1       7.491 -46.327  32.134  1.00  0.00     0.161 A 
ATOM      2  C   UNL     1       8.583 -45.565  31.672  1.00  0.00     0.161 A 
ATOM      3  C   UNL     1       9.672 -45.312  32.514  1.00  0.00     0.098 A 
ATOM      4  C   UNL     1       9.688 -45.809  33.820  1.00  0.00     0.142 A 
ATOM      5  C   UNL     1       8.599 -46.571  34.292  1.00  0.00     0.022 A 
ATOM      6  C   UNL     1       7.507 -46.828  33.452  1.00  0.00     0.062 A 
ATOM      7  C   UNL     1       8.645 -47.055  35.603  1.00  0.00     0.019 A 
ATOM      8  C   UNL     1       9.753 -46.772  36.400  1.00  0.00     0.094 A 
ATOM      9  C   UNL     1      10.796 -46.009  35.864  1.00  0.00     0.336 A 
ATOM     10  O   UNL     1      11.806 -45.742  36.566  1.00  0.00    -0.246 OA
ATOM     11  O   UNL     1      10.728 -45.561  34.612  1.00  0.00    -0.423 OA
ENDROOT
BRANCH   1  12
ATOM     12  O   UNL     1       6.415 -46.563  31.263  1.00  0.00    -0.493 OA
ATOM     13  C   UNL     1       5.060 -46.228  31.545  1.00  0.00     0.278 C 
ENDBRANCH   1  12
BRANCH   2  14
ATOM     14  O   UNL     1       8.604 -45.053  30.376  1.00  0.00    -0.504 OA
ATOM     15  H   UNL     1       8.842 -45.623  29.573  1.00  0.00     0.293 HD
ENDBRANCH   2  14
TORSDOF 2
ENDMDL
MODEL 8
REMARK VINA RESULT:    -6.440      1.813      2.969
REMARK INTER + INTRA:          -7.056
REMARK INTER:                  -6.995
REMARK INTRA:                  -0.061
REMARK UNBOUND:                -0.050
REMARK SMILES COc1cc2ccc(=O)oc2cc1O
REMARK SMILES IDX 3 1 13 2 12 3 11 4 5 5 4 6 6 7 7 8 8 9 9 10 10 11 2 12 1 13
REMARK SMILES IDX 14 14
REMARK H PARENT 14 15
REMARK Flexibility Score: inf
ROOT
ATOM      1  C   UNL     1       9.223 -46.075  34.638  1.00  0.00     0.161 A 
ATOM      2  C   UNL     1       8.306 -46.779  35.444  1.00  0.00     0.161 A 
ATOM      3  C   UNL     1       8.662 -47.171  36.739  1.00  0.00     0.098 A 
ATOM      4  C   UNL     1       9.928 -46.870  37.247  1.00  0.00     0.142 A 
ATOM      5  C   UNL     1      10.854 -46.167  36.448  1.00  0.00     0.022 A 
ATOM      6  C   UNL     1      10.501 -45.771  35.150  1.00  0.00     0.062 A 
ATOM      7  C   UNL     1      12.113 -45.879  36.984  1.00  0.00     0.019 A 
ATOM      8  C   UNL     1      12.416 -46.294  38.280  1.00  0.00     0.094 A 
ATOM      9  C   UNL     1      11.448 -46.988  39.014  1.00  0.00     0.336 A 
ATOM     10  O   UNL     1      11.701 -47.370  40.185  1.00  0.00    -0.246 OA
ATOM     11  O   UNL     1      10.257 -47.247  38.480  1.00  0.00    -0.423 OA
ENDROOT
BRANCH   1  12
ATOM     12  O   UNL     1       8.833 -45.697  33.343  1.00  0.00    -0.493 OA
ATOM     13  C   UNL     1       8.640 -44.352  32.917  1.00  0.00     0.278 C 
ENDBRANCH   1  12
BRANCH   2  14
ATOM     14  O   UNL     1       7.033 -47.098  34.973  1.00  0.00    -0.504 OA
ATOM     15  H   UNL     1       6.888 -47.632  34.124  1.00  0.00     0.293 HD
ENDBRANCH   2  14
TORSDOF 2
ENDMDL
MODEL 9
REMARK VINA RESULT:    -6.204      2.613      5.161
REMARK INTER + INTRA:          -6.798
REMARK INTER:                  -6.739
REMARK INTRA:                  -0.059
REMARK UNBOUND:                -0.050
REMARK SMILES COc1cc2ccc(=O)oc2cc1O
REMARK SMILES IDX 3 1 13 2 12 3 11 4 5 5 4 6 6 7 7 8 8 9 9 10 10 11 2 12 1 13
REMARK SMILES IDX 14 14
REMARK H PARENT 14 15
REMARK Flexibility Score: inf
ROOT
ATOM      1  C   UNL     1       9.748 -46.981  37.872  1.00  0.00     0.161 A 
ATOM      2  C   UNL     1       8.726 -47.888  37.528  1.00  0.00     0.161 A 
ATOM      3  C   UNL     1       8.252 -47.950  36.213  1.00  0.00     0.098 A 
ATOM      4  C   UNL     1       8.784 -47.115  35.228  1.00  0.00     0.142 A 
ATOM      5  C   UNL     1       9.806 -46.202  35.562  1.00  0.00     0.022 A 
ATOM      6  C   UNL     1      10.286 -46.137  36.878  1.00  0.00     0.062 A 
ATOM      7  C   UNL     1      10.320 -45.379  34.554  1.00  0.00     0.019 A 
ATOM      8  C   UNL     1       9.810 -45.482  33.261  1.00  0.00     0.094 A 
ATOM      9  C   UNL     1       8.796 -46.410  33.003  1.00  0.00     0.336 A 
ATOM     10  O   UNL     1       8.322 -46.518  31.843  1.00  0.00    -0.246 OA
ATOM     11  O   UNL     1       8.326 -47.181  33.981  1.00  0.00    -0.423 OA
ENDROOT
BRANCH   1  12
ATOM     12  O   UNL     1      10.201 -46.944  39.201  1.00  0.00    -0.493 OA
ATOM     13  C   UNL     1      11.526 -47.261  39.612  1.00  0.00     0.278 C 
ENDBRANCH   1  12
BRANCH   2  14
ATOM     14  O   UNL     1       8.170 -48.738  38.483  1.00  0.00    -0.504 OA
ATOM     15  H   UNL     1       7.515 -48.410  39.183  1.00  0.00     0.293 HD
ENDBRANCH   2  14
TORSDOF 2
ENDMDL
