MODEL 1
REMARK VINA RESULT:    -4.954      0.000      0.000
REMARK INTER + INTRA:         -11.396
REMARK INTER:                  -9.009
REMARK INTRA:                  -2.387
REMARK UNBOUND:                -2.387
REMARK SMILES CCCCCCCCCCCCCCCC(=O)[O-]
REMARK SMILES IDX 9 1 10 2 11 3 12 4 13 5 14 6 15 7 16 8 17 9 18 10 8 11 7 12
REMARK SMILES IDX 6 13 5 14 4 15 3 16 2 17 1 18
REMARK H PARENT
REMARK Flexibility Score: inf
ROOT
ATOM      1  C   UNL     1     122.374 177.860 126.391  1.00  0.00     0.000 C 
ENDROOT
BRANCH   1   2
ATOM      2  C   UNL     1     121.365 176.853 125.815  1.00  0.00     0.000 C 
BRANCH   2   3
ATOM      3  C   UNL     1     120.647 177.376 124.556  1.00  0.00     0.000 C 
BRANCH   3   4
ATOM      4  C   UNL     1     119.123 177.548 124.695  1.00  0.00     0.000 C 
BRANCH   4   5
ATOM      5  C   UNL     1     118.719 178.937 125.211  1.00  0.00     0.000 C 
BRANCH   5   6
ATOM      6  C   UNL     1     117.871 178.824 126.487  1.00  0.00     0.006 C 
BRANCH   6   7
ATOM      7  C   UNL     1     116.513 179.525 126.345  1.00  0.00     0.053 C 
BRANCH   7   8
ATOM      8  C   UNL     1     115.445 178.579 125.887  1.00  0.00     0.041 C 
ATOM      9  O   UNL     1     114.443 178.355 126.616  1.00  0.00    -0.550 OA
ATOM     10  O   UNL     1     115.572 177.920 124.672  1.00  0.00    -0.550 OA
ENDBRANCH   7   8
ENDBRANCH   6   7
ENDBRANCH   5   6
ENDBRANCH   4   5
ENDBRANCH   3   4
ENDBRANCH   2   3
ENDBRANCH   1   2
BRANCH   1  11
ATOM     11  C   UNL     1     121.732 178.826 127.400  1.00  0.00     0.000 C 
BRANCH  11  12
ATOM     12  C   UNL     1     121.673 178.246 128.824  1.00  0.00    -0.000 C 
BRANCH  12  13
ATOM     13  C   UNL     1     120.266 177.758 129.205  1.00  0.00    -0.000 C 
BRANCH  13  14
ATOM     14  C   UNL     1     120.189 176.229 129.341  1.00  0.00    -0.000 C 
BRANCH  14  15
ATOM     15  C   UNL     1     119.037 175.661 128.504  1.00  0.00    -0.000 C 
BRANCH  15  16
ATOM     16  C   UNL     1     117.681 176.158 129.027  1.00  0.00    -0.000 C 
BRANCH  16  17
ATOM     17  C   UNL     1     116.517 175.794 128.091  1.00  0.00    -0.003 C 
ATOM     18  C   UNL     1     116.991 175.232 126.750  1.00  0.00     0.004 C 
ENDBRANCH  16  17
ENDBRANCH  15  16
ENDBRANCH  14  15
ENDBRANCH  13  14
ENDBRANCH  12  13
ENDBRANCH  11  12
ENDBRANCH   1  11
TORSDOF 14
ENDMDL
MODEL 2
REMARK VINA RESULT:    -4.887      1.332      2.060
REMARK INTER + INTRA:         -11.274
REMARK INTER:                  -9.000
REMARK INTRA:                  -2.274
REMARK UNBOUND:                -2.387
REMARK SMILES CCCCCCCCCCCCCCCC(=O)[O-]
REMARK SMILES IDX 9 1 10 2 11 3 12 4 13 5 14 6 15 7 16 8 17 9 18 10 8 11 7 12
REMARK SMILES IDX 6 13 5 14 4 15 3 16 2 17 1 18
REMARK H PARENT
REMARK Flexibility Score: inf
ROOT
ATOM      1  C   UNL     1     121.325 176.778 124.862  1.00  0.00     0.000 C 
ENDROOT
BRANCH   1   2
ATOM      2  C   UNL     1     119.792 176.897 124.905  1.00  0.00     0.000 C 
BRANCH   2   3
ATOM      3  C   UNL     1     119.279 178.248 124.373  1.00  0.00     0.000 C 
BRANCH   3   4
ATOM      4  C   UNL     1     118.785 179.232 125.450  1.00  0.00     0.000 C 
BRANCH   4   5
ATOM      5  C   UNL     1     118.437 178.544 126.778  1.00  0.00     0.000 C 
BRANCH   5   6
ATOM      6  C   UNL     1     117.081 179.033 127.311  1.00  0.00     0.006 C 
BRANCH   6   7
ATOM      7  C   UNL     1     116.097 179.359 126.180  1.00  0.00     0.053 C 
BRANCH   7   8
ATOM      8  C   UNL     1     115.199 178.200 125.873  1.00  0.00     0.041 C 
ATOM      9  O   UNL     1     114.120 178.050 126.505  1.00  0.00    -0.550 OA
ATOM     10  O   UNL     1     115.569 177.267 124.913  1.00  0.00    -0.550 OA
ENDBRANCH   7   8
ENDBRANCH   6   7
ENDBRANCH   5   6
ENDBRANCH   4   5
ENDBRANCH   3   4
ENDBRANCH   2   3
ENDBRANCH   1   2
BRANCH   1  11
ATOM     11  C   UNL     1     121.965 176.911 126.253  1.00  0.00     0.000 C 
BRANCH  11  12
ATOM     12  C   UNL     1     122.349 178.362 126.595  1.00  0.00    -0.000 C 
BRANCH  12  13
ATOM     13  C   UNL     1     121.849 178.793 127.982  1.00  0.00    -0.000 C 
BRANCH  13  14
ATOM     14  C   UNL     1     121.591 177.599 128.914  1.00  0.00    -0.000 C 
BRANCH  14  15
ATOM     15  C   UNL     1     120.448 177.900 129.890  1.00  0.00    -0.000 C 
BRANCH  15  16
ATOM     16  C   UNL     1     119.398 176.779 129.870  1.00  0.00    -0.000 C 
BRANCH  16  17
ATOM     17  C   UNL     1     119.623 175.780 128.724  1.00  0.00    -0.003 C 
ATOM     18  C   UNL     1     119.756 174.338 129.214  1.00  0.00     0.004 C 
ENDBRANCH  16  17
ENDBRANCH  15  16
ENDBRANCH  14  15
ENDBRANCH  13  14
ENDBRANCH  12  13
ENDBRANCH  11  12
ENDBRANCH   1  11
TORSDOF 14
ENDMDL
MODEL 3
REMARK VINA RESULT:    -4.848      1.268      3.468
REMARK INTER + INTRA:         -11.203
REMARK INTER:                  -8.586
REMARK INTRA:                  -2.617
REMARK UNBOUND:                -2.387
REMARK SMILES CCCCCCCCCCCCCCCC(=O)[O-]
REMARK SMILES IDX 9 1 10 2 11 3 12 4 13 5 14 6 15 7 16 8 17 9 18 10 8 11 7 12
REMARK SMILES IDX 6 13 5 14 4 15 3 16 2 17 1 18
REMARK H PARENT
REMARK Flexibility Score: inf
ROOT
ATOM      1  C   UNL     1     120.218 176.580 130.882  1.00  0.00     0.000 C 
ENDROOT
BRANCH   1   2
ATOM      2  C   UNL     1     119.572 175.752 129.758  1.00  0.00     0.000 C 
BRANCH   2   3
ATOM      3  C   UNL     1     118.188 176.284 129.340  1.00  0.00     0.000 C 
BRANCH   3   4
ATOM      4  C   UNL     1     118.087 176.777 127.885  1.00  0.00     0.000 C 
BRANCH   4   5
ATOM      5  C   UNL     1     118.217 178.302 127.758  1.00  0.00     0.000 C 
BRANCH   5   6
ATOM      6  C   UNL     1     118.134 178.740 126.288  1.00  0.00     0.006 C 
BRANCH   6   7
ATOM      7  C   UNL     1     117.367 177.730 125.424  1.00  0.00     0.053 C 
BRANCH   7   8
ATOM      8  C   UNL     1     116.000 178.227 125.067  1.00  0.00     0.041 C 
ATOM      9  O   UNL     1     115.429 179.084 125.792  1.00  0.00    -0.550 OA
ATOM     10  O   UNL     1     115.342 177.720 123.954  1.00  0.00    -0.550 OA
ENDBRANCH   7   8
ENDBRANCH   6   7
ENDBRANCH   5   6
ENDBRANCH   4   5
ENDBRANCH   3   4
ENDBRANCH   2   3
ENDBRANCH   1   2
BRANCH   1  11
ATOM     11  C   UNL     1     120.859 177.877 130.363  1.00  0.00     0.000 C 
BRANCH  11  12
ATOM     12  C   UNL     1     121.767 177.646 129.142  1.00  0.00    -0.000 C 
BRANCH  12  13
ATOM     13  C   UNL     1     121.907 178.900 128.265  1.00  0.00    -0.000 C 
BRANCH  13  14
ATOM     14  C   UNL     1     121.892 178.573 126.763  1.00  0.00    -0.000 C 
BRANCH  14  15
ATOM     15  C   UNL     1     121.534 177.101 126.525  1.00  0.00    -0.000 C 
BRANCH  15  16
ATOM     16  C   UNL     1     121.343 176.817 125.028  1.00  0.00    -0.000 C 
BRANCH  16  17
ATOM     17  C   UNL     1     120.418 175.618 124.767  1.00  0.00    -0.003 C 
ATOM     18  C   UNL     1     120.425 174.606 125.914  1.00  0.00     0.004 C 
ENDBRANCH  16  17
ENDBRANCH  15  16
ENDBRANCH  14  15
ENDBRANCH  13  14
ENDBRANCH  12  13
ENDBRANCH  11  12
ENDBRANCH   1  11
TORSDOF 14
ENDMDL
MODEL 4
REMARK VINA RESULT:    -4.831      1.246      3.264
REMARK INTER + INTRA:         -11.172
REMARK INTER:                  -8.849
REMARK INTRA:                  -2.323
REMARK UNBOUND:                -2.387
REMARK SMILES CCCCCCCCCCCCCCCC(=O)[O-]
REMARK SMILES IDX 9 1 10 2 11 3 12 4 13 5 14 6 15 7 16 8 17 9 18 10 8 11 7 12
REMARK SMILES IDX 6 13 5 14 4 15 3 16 2 17 1 18
REMARK H PARENT
REMARK Flexibility Score: inf
ROOT
ATOM      1  C   UNL     1     120.327 174.858 126.644  1.00  0.00     0.000 C 
ENDROOT
BRANCH   1   2
ATOM      2  C   UNL     1     119.452 175.228 125.434  1.00  0.00     0.000 C 
BRANCH   2   3
ATOM      3  C   UNL     1     118.527 176.429 125.708  1.00  0.00     0.000 C 
BRANCH   3   4
ATOM      4  C   UNL     1     118.684 177.613 124.736  1.00  0.00     0.000 C 
BRANCH   4   5
ATOM      5  C   UNL     1     118.484 178.977 125.415  1.00  0.00     0.000 C 
BRANCH   5   6
ATOM      6  C   UNL     1     117.521 178.862 126.606  1.00  0.00     0.006 C 
BRANCH   6   7
ATOM      7  C   UNL     1     116.168 179.530 126.326  1.00  0.00     0.053 C 
BRANCH   7   8
ATOM      8  C   UNL     1     115.176 178.562 125.759  1.00  0.00     0.041 C 
ATOM      9  O   UNL     1     115.140 178.346 124.518  1.00  0.00    -0.550 OA
ATOM     10  O   UNL     1     114.269 177.924 126.594  1.00  0.00    -0.550 OA
ENDBRANCH   7   8
ENDBRANCH   6   7
ENDBRANCH   5   6
ENDBRANCH   4   5
ENDBRANCH   3   4
ENDBRANCH   2   3
ENDBRANCH   1   2
BRANCH   1  11
ATOM     11  C   UNL     1     119.502 174.625 127.919  1.00  0.00     0.000 C 
BRANCH  11  12
ATOM     12  C   UNL     1     120.039 175.412 129.128  1.00  0.00    -0.000 C 
BRANCH  12  13
ATOM     13  C   UNL     1     119.182 176.644 129.459  1.00  0.00    -0.000 C 
BRANCH  13  14
ATOM     14  C   UNL     1     119.902 177.964 129.148  1.00  0.00    -0.000 C 
BRANCH  14  15
ATOM     15  C   UNL     1     121.417 177.751 129.035  1.00  0.00    -0.000 C 
BRANCH  15  16
ATOM     16  C   UNL     1     122.012 178.616 127.915  1.00  0.00    -0.000 C 
BRANCH  16  17
ATOM     17  C   UNL     1     121.783 178.015 126.519  1.00  0.00    -0.003 C 
ATOM     18  C   UNL     1     123.085 177.601 125.833  1.00  0.00     0.004 C 
ENDBRANCH  16  17
ENDBRANCH  15  16
ENDBRANCH  14  15
ENDBRANCH  13  14
ENDBRANCH  12  13
ENDBRANCH  11  12
ENDBRANCH   1  11
TORSDOF 14
ENDMDL
MODEL 5
REMARK VINA RESULT:    -4.813      1.489      3.163
REMARK INTER + INTRA:         -11.139
REMARK INTER:                  -8.634
REMARK INTRA:                  -2.504
REMARK UNBOUND:                -2.387
REMARK SMILES CCCCCCCCCCCCCCCC(=O)[O-]
REMARK SMILES IDX 9 1 10 2 11 3 12 4 13 5 14 6 15 7 16 8 17 9 18 10 8 11 7 12
REMARK SMILES IDX 6 13 5 14 4 15 3 16 2 17 1 18
REMARK H PARENT
REMARK Flexibility Score: inf
ROOT
ATOM      1  C   UNL     1     121.650 178.310 128.761  1.00  0.00     0.000 C 
ENDROOT
BRANCH   1   2
ATOM      2  C   UNL     1     120.586 177.209 128.908  1.00  0.00     0.000 C 
BRANCH   2   3
ATOM      3  C   UNL     1     119.167 177.770 129.117  1.00  0.00     0.000 C 
BRANCH   3   4
ATOM      4  C   UNL     1     118.352 177.988 127.829  1.00  0.00     0.000 C 
BRANCH   4   5
ATOM      5  C   UNL     1     117.154 177.035 127.707  1.00  0.00     0.000 C 
BRANCH   5   6
ATOM      6  C   UNL     1     117.012 176.511 126.270  1.00  0.00     0.006 C 
BRANCH   6   7
ATOM      7  C   UNL     1     117.144 177.630 125.228  1.00  0.00     0.053 C 
BRANCH   7   8
ATOM      8  C   UNL     1     115.809 178.185 124.836  1.00  0.00     0.041 C 
ATOM      9  O   UNL     1     115.226 179.016 125.580  1.00  0.00    -0.550 OA
ATOM     10  O   UNL     1     115.194 177.758 123.666  1.00  0.00    -0.550 OA
ENDBRANCH   7   8
ENDBRANCH   6   7
ENDBRANCH   5   6
ENDBRANCH   4   5
ENDBRANCH   3   4
ENDBRANCH   2   3
ENDBRANCH   1   2
BRANCH   1  11
ATOM     11  C   UNL     1     121.997 178.601 127.292  1.00  0.00     0.000 C 
BRANCH  11  12
ATOM     12  C   UNL     1     121.958 177.340 126.410  1.00  0.00    -0.000 C 
BRANCH  12  13
ATOM     13  C   UNL     1     120.886 177.420 125.312  1.00  0.00    -0.000 C 
BRANCH  13  14
ATOM     14  C   UNL     1     120.635 176.065 124.633  1.00  0.00    -0.000 C 
BRANCH  14  15
ATOM     15  C   UNL     1     121.071 174.908 125.540  1.00  0.00    -0.000 C 
BRANCH  15  16
ATOM     16  C   UNL     1     119.862 174.273 126.242  1.00  0.00    -0.000 C 
BRANCH  16  17
ATOM     17  C   UNL     1     120.188 173.798 127.667  1.00  0.00    -0.003 C 
ATOM     18  C   UNL     1     118.986 173.881 128.608  1.00  0.00     0.004 C 
ENDBRANCH  16  17
ENDBRANCH  15  16
ENDBRANCH  14  15
ENDBRANCH  13  14
ENDBRANCH  12  13
ENDBRANCH  11  12
ENDBRANCH   1  11
TORSDOF 14
ENDMDL
MODEL 6
REMARK VINA RESULT:    -4.806      1.577      2.972
REMARK INTER + INTRA:         -11.127
REMARK INTER:                  -8.496
REMARK INTRA:                  -2.631
REMARK UNBOUND:                -2.387
REMARK SMILES CCCCCCCCCCCCCCCC(=O)[O-]
REMARK SMILES IDX 9 1 10 2 11 3 12 4 13 5 14 6 15 7 16 8 17 9 18 10 8 11 7 12
REMARK SMILES IDX 6 13 5 14 4 15 3 16 2 17 1 18
REMARK H PARENT
REMARK Flexibility Score: inf
ROOT
ATOM      1  C   UNL     1     121.897 176.817 126.260  1.00  0.00     0.000 C 
ENDROOT
BRANCH   1   2
ATOM      2  C   UNL     1     121.308 178.228 126.434  1.00  0.00     0.000 C 
BRANCH   2   3
ATOM      3  C   UNL     1     119.932 178.223 127.125  1.00  0.00     0.000 C 
BRANCH   3   4
ATOM      4  C   UNL     1     118.783 178.837 126.303  1.00  0.00     0.000 C 
BRANCH   4   5
ATOM      5  C   UNL     1     119.015 178.747 124.787  1.00  0.00     0.000 C 
BRANCH   5   6
ATOM      6  C   UNL     1     117.978 177.825 124.127  1.00  0.00     0.006 C 
BRANCH   6   7
ATOM      7  C   UNL     1     116.822 177.479 125.074  1.00  0.00     0.053 C 
BRANCH   7   8
ATOM      8  C   UNL     1     115.493 177.841 124.485  1.00  0.00     0.041 C 
ATOM      9  O   UNL     1     115.341 177.869 123.235  1.00  0.00    -0.550 OA
ATOM     10  O   UNL     1     114.432 178.182 125.314  1.00  0.00    -0.550 OA
ENDBRANCH   7   8
ENDBRANCH   6   7
ENDBRANCH   5   6
ENDBRANCH   4   5
ENDBRANCH   3   4
ENDBRANCH   2   3
ENDBRANCH   1   2
BRANCH   1  11
ATOM     11  C   UNL     1     121.729 176.281 124.830  1.00  0.00     0.000 C 
BRANCH  11  12
ATOM     12  C   UNL     1     120.565 175.283 124.701  1.00  0.00    -0.000 C 
BRANCH  12  13
ATOM     13  C   UNL     1     120.243 174.577 126.028  1.00  0.00    -0.000 C 
BRANCH  13  14
ATOM     14  C   UNL     1     118.787 174.789 126.470  1.00  0.00    -0.000 C 
BRANCH  14  15
ATOM     15  C   UNL     1     118.622 174.514 127.970  1.00  0.00    -0.000 C 
BRANCH  15  16
ATOM     16  C   UNL     1     119.985 174.494 128.678  1.00  0.00    -0.000 C 
BRANCH  16  17
ATOM     17  C   UNL     1     120.104 175.578 129.761  1.00  0.00    -0.003 C 
ATOM     18  C   UNL     1     118.757 176.205 130.119  1.00  0.00     0.004 C 
ENDBRANCH  16  17
ENDBRANCH  15  16
ENDBRANCH  14  15
ENDBRANCH  13  14
ENDBRANCH  12  13
ENDBRANCH  11  12
ENDBRANCH   1  11
TORSDOF 14
ENDMDL
MODEL 7
REMARK VINA RESULT:    -4.792      1.661      4.294
REMARK INTER + INTRA:         -11.102
REMARK INTER:                  -8.385
REMARK INTRA:                  -2.717
REMARK UNBOUND:                -2.387
REMARK SMILES CCCCCCCCCCCCCCCC(=O)[O-]
REMARK SMILES IDX 9 1 10 2 11 3 12 4 13 5 14 6 15 7 16 8 17 9 18 10 8 11 7 12
REMARK SMILES IDX 6 13 5 14 4 15 3 16 2 17 1 18
REMARK H PARENT
REMARK Flexibility Score: inf
ROOT
ATOM      1  C   UNL     1     118.660 175.345 130.198  1.00  0.00     0.000 C 
ENDROOT
BRANCH   1   2
ATOM      2  C   UNL     1     119.368 176.622 130.684  1.00  0.00     0.000 C 
BRANCH   2   3
ATOM      3  C   UNL     1     119.454 177.711 129.598  1.00  0.00     0.000 C 
BRANCH   3   4
ATOM      4  C   UNL     1     120.708 177.649 128.706  1.00  0.00     0.000 C 
BRANCH   4   5
ATOM      5  C   UNL     1     120.441 178.096 127.261  1.00  0.00     0.000 C 
BRANCH   5   6
ATOM      6  C   UNL     1     118.937 178.293 127.017  1.00  0.00     0.006 C 
BRANCH   6   7
ATOM      7  C   UNL     1     118.650 178.939 125.655  1.00  0.00     0.053 C 
BRANCH   7   8
ATOM      8  C   UNL     1     117.815 178.051 124.783  1.00  0.00     0.041 C 
ATOM      9  O   UNL     1     116.839 177.421 125.272  1.00  0.00    -0.550 OA
ATOM     10  O   UNL     1     118.134 177.891 123.441  1.00  0.00    -0.550 OA
ENDBRANCH   7   8
ENDBRANCH   6   7
ENDBRANCH   5   6
ENDBRANCH   4   5
ENDBRANCH   3   4
ENDBRANCH   2   3
ENDBRANCH   1   2
BRANCH   1  11
ATOM     11  C   UNL     1     117.200 175.600 129.792  1.00  0.00     0.000 C 
BRANCH  11  12
ATOM     12  C   UNL     1     116.964 175.426 128.281  1.00  0.00    -0.000 C 
BRANCH  12  13
ATOM     13  C   UNL     1     117.760 174.251 127.690  1.00  0.00    -0.000 C 
BRANCH  13  14
ATOM     14  C   UNL     1     118.738 174.695 126.592  1.00  0.00    -0.000 C 
BRANCH  14  15
ATOM     15  C   UNL     1     120.180 174.322 126.957  1.00  0.00    -0.000 C 
BRANCH  15  16
ATOM     16  C   UNL     1     121.141 174.648 125.804  1.00  0.00    -0.000 C 
BRANCH  16  17
ATOM     17  C   UNL     1     120.450 175.396 124.652  1.00  0.00    -0.003 C 
ATOM     18  C   UNL     1     121.337 176.475 124.031  1.00  0.00     0.004 C 
ENDBRANCH  16  17
ENDBRANCH  15  16
ENDBRANCH  14  15
ENDBRANCH  13  14
ENDBRANCH  12  13
ENDBRANCH  11  12
ENDBRANCH   1  11
TORSDOF 14
ENDMDL
MODEL 8
REMARK VINA RESULT:    -4.763      1.562      3.802
REMARK INTER + INTRA:         -11.048
REMARK INTER:                  -8.746
REMARK INTRA:                  -2.301
REMARK UNBOUND:                -2.387
REMARK SMILES CCCCCCCCCCCCCCCC(=O)[O-]
REMARK SMILES IDX 9 1 10 2 11 3 12 4 13 5 14 6 15 7 16 8 17 9 18 10 8 11 7 12
REMARK SMILES IDX 6 13 5 14 4 15 3 16 2 17 1 18
REMARK H PARENT
REMARK Flexibility Score: inf
ROOT
ATOM      1  C   UNL     1     119.965 175.609 130.379  1.00  0.00     0.000 C 
ENDROOT
BRANCH   1   2
ATOM      2  C   UNL     1     120.853 176.864 130.433  1.00  0.00     0.000 C 
BRANCH   2   3
ATOM      3  C   UNL     1     120.561 177.854 129.290  1.00  0.00     0.000 C 
BRANCH   3   4
ATOM      4  C   UNL     1     121.584 177.846 128.138  1.00  0.00     0.000 C 
BRANCH   4   5
ATOM      5  C   UNL     1     121.080 178.573 126.882  1.00  0.00     0.000 C 
BRANCH   5   6
ATOM      6  C   UNL     1     119.544 178.597 126.840  1.00  0.00     0.006 C 
BRANCH   6   7
ATOM      7  C   UNL     1     119.007 179.010 125.464  1.00  0.00     0.053 C 
BRANCH   7   8
ATOM      8  C   UNL     1     117.608 178.523 125.244  1.00  0.00     0.041 C 
ATOM      9  O   UNL     1     117.374 177.640 124.376  1.00  0.00    -0.550 OA
ATOM     10  O   UNL     1     116.558 179.068 125.971  1.00  0.00    -0.550 OA
ENDBRANCH   7   8
ENDBRANCH   6   7
ENDBRANCH   5   6
ENDBRANCH   4   5
ENDBRANCH   3   4
ENDBRANCH   2   3
ENDBRANCH   1   2
BRANCH   1  11
ATOM     11  C   UNL     1     118.573 175.846 130.986  1.00  0.00     0.000 C 
BRANCH  11  12
ATOM     12  C   UNL     1     117.505 174.896 130.413  1.00  0.00    -0.000 C 
BRANCH  12  13
ATOM     13  C   UNL     1     116.413 175.641 129.628  1.00  0.00    -0.000 C 
BRANCH  13  14
ATOM     14  C   UNL     1     116.959 176.334 128.370  1.00  0.00    -0.000 C 
BRANCH  14  15
ATOM     15  C   UNL     1     116.450 175.644 127.099  1.00  0.00    -0.000 C 
BRANCH  15  16
ATOM     16  C   UNL     1     117.477 174.631 126.574  1.00  0.00    -0.000 C 
BRANCH  16  17
ATOM     17  C   UNL     1     118.905 175.200 126.540  1.00  0.00    -0.003 C 
ATOM     18  C   UNL     1     119.958 174.179 126.970  1.00  0.00     0.004 C 
ENDBRANCH  16  17
ENDBRANCH  15  16
ENDBRANCH  14  15
ENDBRANCH  13  14
ENDBRANCH  12  13
ENDBRANCH  11  12
ENDBRANCH   1  11
TORSDOF 14
ENDMDL
MODEL 9
REMARK VINA RESULT:    -4.752      1.325      3.766
REMARK INTER + INTRA:         -11.027
REMARK INTER:                  -8.457
REMARK INTRA:                  -2.570
REMARK UNBOUND:                -2.387
REMARK SMILES CCCCCCCCCCCCCCCC(=O)[O-]
REMARK SMILES IDX 9 1 10 2 11 3 12 4 13 5 14 6 15 7 16 8 17 9 18 10 8 11 7 12
REMARK SMILES IDX 6 13 5 14 4 15 3 16 2 17 1 18
REMARK H PARENT
REMARK Flexibility Score: inf
ROOT
ATOM      1  C   UNL     1     119.380 177.816 128.793  1.00  0.00     0.000 C 
ENDROOT
BRANCH   1   2
ATOM      2  C   UNL     1     119.255 176.700 129.845  1.00  0.00     0.000 C 
BRANCH   2   3
ATOM      3  C   UNL     1     118.223 175.624 129.459  1.00  0.00     0.000 C 
BRANCH   3   4
ATOM      4  C   UNL     1     117.007 176.136 128.665  1.00  0.00     0.000 C 
BRANCH   4   5
ATOM      5  C   UNL     1     116.820 175.417 127.321  1.00  0.00     0.000 C 
BRANCH   5   6
ATOM      6  C   UNL     1     116.340 176.393 126.237  1.00  0.00     0.006 C 
BRANCH   6   7
ATOM      7  C   UNL     1     115.527 177.556 126.822  1.00  0.00     0.053 C 
BRANCH   7   8
ATOM      8  C   UNL     1     115.428 178.703 125.864  1.00  0.00     0.041 C 
ATOM      9  O   UNL     1     115.840 179.845 126.199  1.00  0.00    -0.550 OA
ATOM     10  O   UNL     1     114.849 178.520 124.615  1.00  0.00    -0.550 OA
ENDBRANCH   7   8
ENDBRANCH   6   7
ENDBRANCH   5   6
ENDBRANCH   4   5
ENDBRANCH   3   4
ENDBRANCH   2   3
ENDBRANCH   1   2
BRANCH   1  11
ATOM     11  C   UNL     1     120.762 177.837 128.120  1.00  0.00     0.000 C 
BRANCH  11  12
ATOM     12  C   UNL     1     120.766 178.621 126.795  1.00  0.00    -0.000 C 
BRANCH  12  13
ATOM     13  C   UNL     1     119.348 178.907 126.274  1.00  0.00    -0.000 C 
BRANCH  13  14
ATOM     14  C   UNL     1     119.109 178.334 124.869  1.00  0.00    -0.000 C 
BRANCH  14  15
ATOM     15  C   UNL     1     120.221 177.353 124.480  1.00  0.00    -0.000 C 
BRANCH  15  16
ATOM     16  C   UNL     1     119.795 175.903 124.750  1.00  0.00    -0.000 C 
BRANCH  16  17
ATOM     17  C   UNL     1     120.882 175.093 125.475  1.00  0.00    -0.003 C 
ATOM     18  C   UNL     1     120.339 174.320 126.677  1.00  0.00     0.004 C 
ENDBRANCH  16  17
ENDBRANCH  15  16
ENDBRANCH  14  15
ENDBRANCH  13  14
ENDBRANCH  12  13
ENDBRANCH  11  12
ENDBRANCH   1  11
TORSDOF 14
ENDMDL
