MODEL 1
REMARK VINA RESULT:    -2.609      0.000      0.000
REMARK INTER + INTRA:         -10.042
REMARK INTER:                  -5.659
REMARK INTRA:                  -4.383
REMARK UNBOUND:                -4.383
REMARK SMILES CCCCCCCCCCCCCCCCCCCCCC(=O)[O-]
REMARK SMILES IDX 12 1 11 2 10 3 9 4 8 5 7 6 6 7 5 8 4 9 3 10 2 11 1 12 13 13
REMARK SMILES IDX 14 14 15 15 16 16 17 17 18 18 19 19 20 20 21 21 22 22 23 23
REMARK SMILES IDX 24 24
REMARK H PARENT
REMARK Flexibility Score: inf
ROOT
ATOM      1  C   UNL     1      25.659   0.840   5.673  1.00  0.00     0.000 C 
ENDROOT
BRANCH   1   2
ATOM      2  C   UNL     1      25.630  -0.666   5.963  1.00  0.00     0.000 C 
BRANCH   2   3
ATOM      3  C   UNL     1      24.988  -0.950   7.329  1.00  0.00     0.000 C 
BRANCH   3   4
ATOM      4  C   UNL     1      25.787  -1.966   8.160  1.00  0.00    -0.000 C 
BRANCH   4   5
ATOM      5  C   UNL     1      26.725  -1.297   9.176  1.00  0.00    -0.000 C 
BRANCH   5   6
ATOM      6  C   UNL     1      26.183   0.074   9.604  1.00  0.00    -0.000 C 
BRANCH   6   7
ATOM      7  C   UNL     1      27.223   1.200   9.461  1.00  0.00    -0.000 C 
BRANCH   7   8
ATOM      8  C   UNL     1      28.363   0.904   8.471  1.00  0.00    -0.000 C 
BRANCH   8   9
ATOM      9  C   UNL     1      28.599   2.049   7.470  1.00  0.00    -0.000 C 
BRANCH   9  10
ATOM     10  C   UNL     1      29.233   1.550   6.154  1.00  0.00    -0.000 C 
BRANCH  10  11
ATOM     11  C   UNL     1      29.339   0.018   6.067  1.00  0.00    -0.003 C 
ATOM     12  C   UNL     1      29.094  -0.520   4.658  1.00  0.00     0.004 C 
ENDBRANCH  10  11
ENDBRANCH   9  10
ENDBRANCH   8   9
ENDBRANCH   7   8
ENDBRANCH   6   7
ENDBRANCH   5   6
ENDBRANCH   4   5
ENDBRANCH   3   4
ENDBRANCH   2   3
ENDBRANCH   1   2
BRANCH   1  13
ATOM     13  C   UNL     1      24.723   1.603   6.618  1.00  0.00     0.000 C 
BRANCH  13  14
ATOM     14  C   UNL     1      24.274   2.931   5.993  1.00  0.00     0.000 C 
BRANCH  14  15
ATOM     15  C   UNL     1      22.748   3.018   5.833  1.00  0.00     0.000 C 
BRANCH  15  16
ATOM     16  C   UNL     1      22.040   1.701   6.198  1.00  0.00     0.000 C 
BRANCH  16  17
ATOM     17  C   UNL     1      21.434   1.005   4.969  1.00  0.00     0.000 C 
BRANCH  17  18
ATOM     18  C   UNL     1      22.051  -0.378   4.715  1.00  0.00     0.000 C 
BRANCH  18  19
ATOM     19  C   UNL     1      22.875  -0.383   3.422  1.00  0.00     0.000 C 
BRANCH  19  20
ATOM     20  C   UNL     1      22.812   0.982   2.724  1.00  0.00     0.006 C 
BRANCH  20  21
ATOM     21  C   UNL     1      24.213   1.575   2.549  1.00  0.00     0.053 C 
BRANCH  21  22
ATOM     22  C   UNL     1      24.131   2.972   2.017  1.00  0.00     0.041 C 
ATOM     23  O   UNL     1      24.992   3.390   1.198  1.00  0.00    -0.550 OA
ATOM     24  O   UNL     1      23.111   3.817   2.437  1.00  0.00    -0.550 OA
ENDBRANCH  21  22
ENDBRANCH  20  21
ENDBRANCH  19  20
ENDBRANCH  18  19
ENDBRANCH  17  18
ENDBRANCH  16  17
ENDBRANCH  15  16
ENDBRANCH  14  15
ENDBRANCH  13  14
ENDBRANCH   1  13
TORSDOF 20
ENDMDL
MODEL 2
REMARK VINA RESULT:    -2.581     10.834     12.821
REMARK INTER + INTRA:          -9.983
REMARK INTER:                  -7.894
REMARK INTRA:                  -2.088
REMARK UNBOUND:                -4.383
REMARK SMILES CCCCCCCCCCCCCCCCCCCCCC(=O)[O-]
REMARK SMILES IDX 12 1 11 2 10 3 9 4 8 5 7 6 6 7 5 8 4 9 3 10 2 11 1 12 13 13
REMARK SMILES IDX 14 14 15 15 16 16 17 17 18 18 19 19 20 20 21 21 22 22 23 23
REMARK SMILES IDX 24 24
REMARK H PARENT
REMARK Flexibility Score: inf
ROOT
ATOM      1  C   UNL     1      16.293  -4.845  14.876  1.00  0.00     0.000 C 
ENDROOT
BRANCH   1   2
ATOM      2  C   UNL     1      15.165  -5.665  15.513  1.00  0.00     0.000 C 
BRANCH   2   3
ATOM      3  C   UNL     1      14.887  -5.195  16.948  1.00  0.00     0.000 C 
BRANCH   3   4
ATOM      4  C   UNL     1      15.446  -3.792  17.231  1.00  0.00    -0.000 C 
BRANCH   4   5
ATOM      5  C   UNL     1      14.354  -2.785  17.623  1.00  0.00    -0.000 C 
BRANCH   5   6
ATOM      6  C   UNL     1      13.879  -1.986  16.401  1.00  0.00    -0.000 C 
BRANCH   6   7
ATOM      7  C   UNL     1      14.815  -0.815  16.051  1.00  0.00    -0.000 C 
BRANCH   7   8
ATOM      8  C   UNL     1      15.741  -1.066  14.847  1.00  0.00    -0.000 C 
BRANCH   8   9
ATOM      9  C   UNL     1      17.232  -1.049  15.225  1.00  0.00    -0.000 C 
BRANCH   9  10
ATOM     10  C   UNL     1      17.479  -0.372  16.590  1.00  0.00    -0.000 C 
BRANCH  10  11
ATOM     11  C   UNL     1      18.773  -0.836  17.280  1.00  0.00    -0.003 C 
ATOM     12  C   UNL     1      18.576  -2.077  18.150  1.00  0.00     0.004 C 
ENDBRANCH  10  11
ENDBRANCH   9  10
ENDBRANCH   8   9
ENDBRANCH   7   8
ENDBRANCH   6   7
ENDBRANCH   5   6
ENDBRANCH   4   5
ENDBRANCH   3   4
ENDBRANCH   2   3
ENDBRANCH   1   2
BRANCH   1  13
ATOM     13  C   UNL     1      15.977  -4.514  13.412  1.00  0.00     0.000 C 
BRANCH  13  14
ATOM     14  C   UNL     1      15.916  -5.790  12.561  1.00  0.00     0.000 C 
BRANCH  14  15
ATOM     15  C   UNL     1      15.439  -5.517  11.126  1.00  0.00     0.000 C 
BRANCH  15  16
ATOM     16  C   UNL     1      15.166  -6.810  10.337  1.00  0.00     0.000 C 
BRANCH  16  17
ATOM     17  C   UNL     1      15.917  -6.845   8.997  1.00  0.00     0.000 C 
BRANCH  17  18
ATOM     18  C   UNL     1      16.709  -5.556   8.735  1.00  0.00     0.000 C 
BRANCH  18  19
ATOM     19  C   UNL     1      17.471  -5.639   7.408  1.00  0.00     0.000 C 
BRANCH  19  20
ATOM     20  C   UNL     1      18.208  -4.326   7.113  1.00  0.00     0.006 C 
BRANCH  20  21
ATOM     21  C   UNL     1      19.537  -4.259   7.871  1.00  0.00     0.053 C 
BRANCH  21  22
ATOM     22  C   UNL     1      20.311  -3.042   7.472  1.00  0.00     0.041 C 
ATOM     23  O   UNL     1      20.240  -1.991   8.162  1.00  0.00    -0.550 OA
ATOM     24  O   UNL     1      21.100  -3.063   6.328  1.00  0.00    -0.550 OA
ENDBRANCH  21  22
ENDBRANCH  20  21
ENDBRANCH  19  20
ENDBRANCH  18  19
ENDBRANCH  17  18
ENDBRANCH  16  17
ENDBRANCH  15  16
ENDBRANCH  14  15
ENDBRANCH  13  14
ENDBRANCH   1  13
TORSDOF 20
ENDMDL
MODEL 3
REMARK VINA RESULT:    -2.554     11.243     13.606
REMARK INTER + INTRA:          -9.922
REMARK INTER:                  -8.322
REMARK INTRA:                  -1.600
REMARK UNBOUND:                -4.383
REMARK SMILES CCCCCCCCCCCCCCCCCCCCCC(=O)[O-]
REMARK SMILES IDX 12 1 11 2 10 3 9 4 8 5 7 6 6 7 5 8 4 9 3 10 2 11 1 12 13 13
REMARK SMILES IDX 14 14 15 15 16 16 17 17 18 18 19 19 20 20 21 21 22 22 23 23
REMARK SMILES IDX 24 24
REMARK H PARENT
REMARK Flexibility Score: inf
ROOT
ATOM      1  C   UNL     1      16.469  -0.649  14.515  1.00  0.00     0.000 C 
ENDROOT
BRANCH   1   2
ATOM      2  C   UNL     1      16.450   0.190  15.799  1.00  0.00     0.000 C 
BRANCH   2   3
ATOM      3  C   UNL     1      15.433  -0.367  16.804  1.00  0.00     0.000 C 
BRANCH   3   4
ATOM      4  C   UNL     1      14.512   0.719  17.380  1.00  0.00    -0.000 C 
BRANCH   4   5
ATOM      5  C   UNL     1      14.325   1.908  16.426  1.00  0.00    -0.000 C 
BRANCH   5   6
ATOM      6  C   UNL     1      14.963   3.180  17.002  1.00  0.00    -0.000 C 
BRANCH   6   7
ATOM      7  C   UNL     1      15.232   4.254  15.931  1.00  0.00    -0.000 C 
BRANCH   7   8
ATOM      8  C   UNL     1      16.038   3.764  14.715  1.00  0.00    -0.000 C 
BRANCH   8   9
ATOM      9  C   UNL     1      16.708   4.912  13.940  1.00  0.00    -0.000 C 
BRANCH   9  10
ATOM     10  C   UNL     1      16.147   6.293  14.346  1.00  0.00    -0.000 C 
BRANCH  10  11
ATOM     11  C   UNL     1      15.666   7.134  13.151  1.00  0.00    -0.003 C 
ATOM     12  C   UNL     1      14.279   6.728  12.653  1.00  0.00     0.004 C 
ENDBRANCH  10  11
ENDBRANCH   9  10
ENDBRANCH   8   9
ENDBRANCH   7   8
ENDBRANCH   6   7
ENDBRANCH   5   6
ENDBRANCH   4   5
ENDBRANCH   3   4
ENDBRANCH   2   3
ENDBRANCH   1   2
BRANCH   1  13
ATOM     13  C   UNL     1      15.273  -1.608  14.464  1.00  0.00     0.000 C 
BRANCH  13  14
ATOM     14  C   UNL     1      15.676  -2.957  13.853  1.00  0.00     0.000 C 
BRANCH  14  15
ATOM     15  C   UNL     1      16.102  -3.980  14.918  1.00  0.00     0.000 C 
BRANCH  15  16
ATOM     16  C   UNL     1      15.985  -5.433  14.421  1.00  0.00     0.000 C 
BRANCH  16  17
ATOM     17  C   UNL     1      16.641  -5.632  13.045  1.00  0.00     0.000 C 
BRANCH  17  18
ATOM     18  C   UNL     1      15.720  -6.361  12.057  1.00  0.00     0.000 C 
BRANCH  18  19
ATOM     19  C   UNL     1      15.607  -5.588  10.738  1.00  0.00     0.000 C 
BRANCH  19  20
ATOM     20  C   UNL     1      15.985  -6.476   9.545  1.00  0.00     0.006 C 
BRANCH  20  21
ATOM     21  C   UNL     1      17.471  -6.333   9.202  1.00  0.00     0.053 C 
BRANCH  21  22
ATOM     22  C   UNL     1      17.644  -5.626   7.894  1.00  0.00     0.041 C 
ATOM     23  O   UNL     1      17.357  -4.404   7.791  1.00  0.00    -0.550 OA
ATOM     24  O   UNL     1      18.109  -6.321   6.784  1.00  0.00    -0.550 OA
ENDBRANCH  21  22
ENDBRANCH  20  21
ENDBRANCH  19  20
ENDBRANCH  18  19
ENDBRANCH  17  18
ENDBRANCH  16  17
ENDBRANCH  15  16
ENDBRANCH  14  15
ENDBRANCH  13  14
ENDBRANCH   1  13
TORSDOF 20
ENDMDL
MODEL 4
REMARK VINA RESULT:    -2.491      3.726      7.068
REMARK INTER + INTRA:          -9.786
REMARK INTER:                  -6.559
REMARK INTRA:                  -3.228
REMARK UNBOUND:                -4.383
REMARK SMILES CCCCCCCCCCCCCCCCCCCCCC(=O)[O-]
REMARK SMILES IDX 12 1 11 2 10 3 9 4 8 5 7 6 6 7 5 8 4 9 3 10 2 11 1 12 13 13
REMARK SMILES IDX 14 14 15 15 16 16 17 17 18 18 19 19 20 20 21 21 22 22 23 23
REMARK SMILES IDX 24 24
REMARK H PARENT
REMARK Flexibility Score: inf
ROOT
ATOM      1  C   UNL     1      27.940   0.894   7.215  1.00  0.00     0.000 C 
ENDROOT
BRANCH   1   2
ATOM      2  C   UNL     1      27.343   1.551   5.964  1.00  0.00     0.000 C 
BRANCH   2   3
ATOM      3  C   UNL     1      26.464   0.559   5.190  1.00  0.00     0.000 C 
BRANCH   3   4
ATOM      4  C   UNL     1      25.005   1.027   5.069  1.00  0.00    -0.000 C 
BRANCH   4   5
ATOM      5  C   UNL     1      24.449   1.586   6.388  1.00  0.00    -0.000 C 
BRANCH   5   6
ATOM      6  C   UNL     1      23.969   3.034   6.211  1.00  0.00    -0.000 C 
BRANCH   6   7
ATOM      7  C   UNL     1      23.094   3.227   4.959  1.00  0.00    -0.000 C 
BRANCH   7   8
ATOM      8  C   UNL     1      21.583   3.316   5.236  1.00  0.00    -0.000 C 
BRANCH   8   9
ATOM      9  C   UNL     1      20.866   1.962   5.086  1.00  0.00    -0.000 C 
BRANCH   9  10
ATOM     10  C   UNL     1      21.462   1.113   3.942  1.00  0.00    -0.000 C 
BRANCH  10  11
ATOM     11  C   UNL     1      21.285  -0.402   4.147  1.00  0.00    -0.003 C 
ATOM     12  C   UNL     1      21.908  -0.906   5.448  1.00  0.00     0.004 C 
ENDBRANCH  10  11
ENDBRANCH   9  10
ENDBRANCH   8   9
ENDBRANCH   7   8
ENDBRANCH   6   7
ENDBRANCH   5   6
ENDBRANCH   4   5
ENDBRANCH   3   4
ENDBRANCH   2   3
ENDBRANCH   1   2
BRANCH   1  13
ATOM     13  C   UNL     1      27.952   1.870   8.398  1.00  0.00     0.000 C 
BRANCH  13  14
ATOM     14  C   UNL     1      27.414   1.199   9.670  1.00  0.00     0.000 C 
BRANCH  14  15
ATOM     15  C   UNL     1      26.214   0.281   9.386  1.00  0.00     0.000 C 
BRANCH  15  16
ATOM     16  C   UNL     1      26.451  -1.164   9.860  1.00  0.00     0.000 C 
BRANCH  16  17
ATOM     17  C   UNL     1      26.186  -2.192   8.748  1.00  0.00     0.000 C 
BRANCH  17  18
ATOM     18  C   UNL     1      25.025  -1.778   7.832  1.00  0.00     0.000 C 
BRANCH  18  19
ATOM     19  C   UNL     1      24.133  -2.979   7.499  1.00  0.00     0.000 C 
BRANCH  19  20
ATOM     20  C   UNL     1      22.936  -3.058   8.455  1.00  0.00     0.006 C 
BRANCH  20  21
ATOM     21  C   UNL     1      23.126  -4.177   9.484  1.00  0.00     0.053 C 
BRANCH  21  22
ATOM     22  C   UNL     1      22.861  -3.671  10.868  1.00  0.00     0.041 C 
ATOM     23  O   UNL     1      23.042  -4.421  11.863  1.00  0.00    -0.550 OA
ATOM     24  O   UNL     1      22.398  -2.375  11.057  1.00  0.00    -0.550 OA
ENDBRANCH  21  22
ENDBRANCH  20  21
ENDBRANCH  19  20
ENDBRANCH  18  19
ENDBRANCH  17  18
ENDBRANCH  16  17
ENDBRANCH  15  16
ENDBRANCH  14  15
ENDBRANCH  13  14
ENDBRANCH   1  13
TORSDOF 20
ENDMDL
MODEL 5
REMARK VINA RESULT:    -2.466      1.406      2.466
REMARK INTER + INTRA:          -9.732
REMARK INTER:                  -6.050
REMARK INTRA:                  -3.682
REMARK UNBOUND:                -4.383
REMARK SMILES CCCCCCCCCCCCCCCCCCCCCC(=O)[O-]
REMARK SMILES IDX 12 1 11 2 10 3 9 4 8 5 7 6 6 7 5 8 4 9 3 10 2 11 1 12 13 13
REMARK SMILES IDX 14 14 15 15 16 16 17 17 18 18 19 19 20 20 21 21 22 22 23 23
REMARK SMILES IDX 24 24
REMARK H PARENT
REMARK Flexibility Score: inf
ROOT
ATOM      1  C   UNL     1      24.229  -1.378   5.383  1.00  0.00     0.000 C 
ENDROOT
BRANCH   1   2
ATOM      2  C   UNL     1      24.256  -1.358   6.917  1.00  0.00     0.000 C 
BRANCH   2   3
ATOM      3  C   UNL     1      25.690  -1.195   7.439  1.00  0.00     0.000 C 
BRANCH   3   4
ATOM      4  C   UNL     1      25.812  -0.096   8.506  1.00  0.00    -0.000 C 
BRANCH   4   5
ATOM      5  C   UNL     1      26.470  -0.596   9.801  1.00  0.00    -0.000 C 
BRANCH   5   6
ATOM      6  C   UNL     1      27.380   0.483  10.407  1.00  0.00    -0.000 C 
BRANCH   6   7
ATOM      7  C   UNL     1      27.610   1.674   9.459  1.00  0.00    -0.000 C 
BRANCH   7   8
ATOM      8  C   UNL     1      29.059   2.191   9.412  1.00  0.00    -0.000 C 
BRANCH   8   9
ATOM      9  C   UNL     1      29.861   1.614   8.232  1.00  0.00    -0.000 C 
BRANCH   9  10
ATOM     10  C   UNL     1      29.484   2.281   6.891  1.00  0.00    -0.000 C 
BRANCH  10  11
ATOM     11  C   UNL     1      28.927   1.294   5.851  1.00  0.00    -0.003 C 
ATOM     12  C   UNL     1      28.963  -0.158   6.325  1.00  0.00     0.004 C 
ENDBRANCH  10  11
ENDBRANCH   9  10
ENDBRANCH   8   9
ENDBRANCH   7   8
ENDBRANCH   6   7
ENDBRANCH   5   6
ENDBRANCH   4   5
ENDBRANCH   3   4
ENDBRANCH   2   3
ENDBRANCH   1   2
BRANCH   1  13
ATOM     13  C   UNL     1      25.425  -0.617   4.800  1.00  0.00     0.000 C 
BRANCH  13  14
ATOM     14  C   UNL     1      24.958   0.529   3.890  1.00  0.00     0.000 C 
BRANCH  14  15
ATOM     15  C   UNL     1      25.570   1.881   4.288  1.00  0.00     0.000 C 
BRANCH  15  16
ATOM     16  C   UNL     1      25.329   2.226   5.769  1.00  0.00     0.000 C 
BRANCH  16  17
ATOM     17  C   UNL     1      24.012   2.989   5.982  1.00  0.00     0.000 C 
BRANCH  17  18
ATOM     18  C   UNL     1      22.860   2.063   6.399  1.00  0.00     0.000 C 
BRANCH  18  19
ATOM     19  C   UNL     1      21.640   2.262   5.491  1.00  0.00     0.000 C 
BRANCH  19  20
ATOM     20  C   UNL     1      21.600   3.688   4.927  1.00  0.00     0.006 C 
BRANCH  20  21
ATOM     21  C   UNL     1      21.209   3.682   3.446  1.00  0.00     0.053 C 
BRANCH  21  22
ATOM     22  C   UNL     1      22.337   3.172   2.605  1.00  0.00     0.041 C 
ATOM     23  O   UNL     1      23.376   3.866   2.449  1.00  0.00    -0.550 OA
ATOM     24  O   UNL     1      22.235   1.934   1.980  1.00  0.00    -0.550 OA
ENDBRANCH  21  22
ENDBRANCH  20  21
ENDBRANCH  19  20
ENDBRANCH  18  19
ENDBRANCH  17  18
ENDBRANCH  16  17
ENDBRANCH  15  16
ENDBRANCH  14  15
ENDBRANCH  13  14
ENDBRANCH   1  13
TORSDOF 20
ENDMDL
MODEL 6
REMARK VINA RESULT:    -2.440      2.095      4.030
REMARK INTER + INTRA:          -9.676
REMARK INTER:                  -6.207
REMARK INTRA:                  -3.469
REMARK UNBOUND:                -4.383
REMARK SMILES CCCCCCCCCCCCCCCCCCCCCC(=O)[O-]
REMARK SMILES IDX 12 1 11 2 10 3 9 4 8 5 7 6 6 7 5 8 4 9 3 10 2 11 1 12 13 13
REMARK SMILES IDX 14 14 15 15 16 16 17 17 18 18 19 19 20 20 21 21 22 22 23 23
REMARK SMILES IDX 24 24
REMARK H PARENT
REMARK Flexibility Score: inf
ROOT
ATOM      1  C   UNL     1      26.543   0.418   9.847  1.00  0.00     0.000 C 
ENDROOT
BRANCH   1   2
ATOM      2  C   UNL     1      27.675  -0.149  10.713  1.00  0.00     0.000 C 
BRANCH   2   3
ATOM      3  C   UNL     1      28.981   0.626  10.485  1.00  0.00     0.000 C 
BRANCH   3   4
ATOM      4  C   UNL     1      28.742   2.110  10.164  1.00  0.00    -0.000 C 
BRANCH   4   5
ATOM      5  C   UNL     1      29.968   2.987  10.459  1.00  0.00    -0.000 C 
BRANCH   5   6
ATOM      6  C   UNL     1      30.571   3.543   9.161  1.00  0.00    -0.000 C 
BRANCH   6   7
ATOM      7  C   UNL     1      31.427   2.510   8.406  1.00  0.00    -0.000 C 
BRANCH   7   8
ATOM      8  C   UNL     1      31.095   2.365   6.910  1.00  0.00    -0.000 C 
BRANCH   8   9
ATOM      9  C   UNL     1      29.652   1.891   6.661  1.00  0.00    -0.000 C 
BRANCH   9  10
ATOM     10  C   UNL     1      29.519   0.356   6.766  1.00  0.00    -0.000 C 
BRANCH  10  11
ATOM     11  C   UNL     1      28.833  -0.284   5.546  1.00  0.00    -0.003 C 
ATOM     12  C   UNL     1      28.272  -1.675   5.837  1.00  0.00     0.004 C 
ENDBRANCH  10  11
ENDBRANCH   9  10
ENDBRANCH   8   9
ENDBRANCH   7   8
ENDBRANCH   6   7
ENDBRANCH   5   6
ENDBRANCH   4   5
ENDBRANCH   3   4
ENDBRANCH   2   3
ENDBRANCH   1   2
BRANCH   1  13
ATOM     13  C   UNL     1      26.158  -0.562   8.732  1.00  0.00     0.000 C 
BRANCH  13  14
ATOM     14  C   UNL     1      25.555   0.181   7.531  1.00  0.00     0.000 C 
BRANCH  14  15
ATOM     15  C   UNL     1      26.124   1.600   7.372  1.00  0.00     0.000 C 
BRANCH  15  16
ATOM     16  C   UNL     1      25.458   2.378   6.224  1.00  0.00     0.000 C 
BRANCH  16  17
ATOM     17  C   UNL     1      26.082   2.049   4.858  1.00  0.00     0.000 C 
BRANCH  17  18
ATOM     18  C   UNL     1      25.029   1.654   3.813  1.00  0.00     0.000 C 
BRANCH  18  19
ATOM     19  C   UNL     1      24.503   0.237   4.070  1.00  0.00     0.000 C 
BRANCH  19  20
ATOM     20  C   UNL     1      22.970   0.212   4.082  1.00  0.00     0.006 C 
BRANCH  20  21
ATOM     21  C   UNL     1      22.429   0.300   5.512  1.00  0.00     0.053 C 
BRANCH  21  22
ATOM     22  C   UNL     1      21.629   1.552   5.697  1.00  0.00     0.041 C 
ATOM     23  O   UNL     1      22.021   2.444   6.495  1.00  0.00    -0.550 OA
ATOM     24  O   UNL     1      20.441   1.728   4.996  1.00  0.00    -0.550 OA
ENDBRANCH  21  22
ENDBRANCH  20  21
ENDBRANCH  19  20
ENDBRANCH  18  19
ENDBRANCH  17  18
ENDBRANCH  16  17
ENDBRANCH  15  16
ENDBRANCH  14  15
ENDBRANCH  13  14
ENDBRANCH   1  13
TORSDOF 20
ENDMDL
MODEL 7
REMARK VINA RESULT:    -2.432      3.129      4.581
REMARK INTER + INTRA:          -9.659
REMARK INTER:                  -6.093
REMARK INTRA:                  -3.566
REMARK UNBOUND:                -4.383
REMARK SMILES CCCCCCCCCCCCCCCCCCCCCC(=O)[O-]
REMARK SMILES IDX 12 1 11 2 10 3 9 4 8 5 7 6 6 7 5 8 4 9 3 10 2 11 1 12 13 13
REMARK SMILES IDX 14 14 15 15 16 16 17 17 18 18 19 19 20 20 21 21 22 22 23 23
REMARK SMILES IDX 24 24
REMARK H PARENT
REMARK Flexibility Score: inf
ROOT
ATOM      1  C   UNL     1      23.231   2.759   4.985  1.00  0.00     0.000 C 
ENDROOT
BRANCH   1   2
ATOM      2  C   UNL     1      24.353   2.602   6.019  1.00  0.00     0.000 C 
BRANCH   2   3
ATOM      3  C   UNL     1      25.668   2.189   5.344  1.00  0.00     0.000 C 
BRANCH   3   4
ATOM      4  C   UNL     1      26.694   1.625   6.339  1.00  0.00    -0.000 C 
BRANCH   4   5
ATOM      5  C   UNL     1      26.043   1.070   7.615  1.00  0.00    -0.000 C 
BRANCH   5   6
ATOM      6  C   UNL     1      26.449  -0.392   7.848  1.00  0.00    -0.000 C 
BRANCH   6   7
ATOM      7  C   UNL     1      25.838  -0.987   9.130  1.00  0.00    -0.000 C 
BRANCH   7   8
ATOM      8  C   UNL     1      26.848  -1.262  10.259  1.00  0.00    -0.000 C 
BRANCH   8   9
ATOM      9  C   UNL     1      28.178  -0.512  10.068  1.00  0.00    -0.000 C 
BRANCH   9  10
ATOM     10  C   UNL     1      28.279   0.733  10.976  1.00  0.00    -0.000 C 
BRANCH  10  11
ATOM     11  C   UNL     1      28.628   2.022  10.211  1.00  0.00    -0.003 C 
ATOM     12  C   UNL     1      29.431   1.763   8.937  1.00  0.00     0.004 C 
ENDBRANCH  10  11
ENDBRANCH   9  10
ENDBRANCH   8   9
ENDBRANCH   7   8
ENDBRANCH   6   7
ENDBRANCH   5   6
ENDBRANCH   4   5
ENDBRANCH   3   4
ENDBRANCH   2   3
ENDBRANCH   1   2
BRANCH   1  13
ATOM     13  C   UNL     1      21.873   2.954   5.669  1.00  0.00     0.000 C 
BRANCH  13  14
ATOM     14  C   UNL     1      20.849   1.929   5.160  1.00  0.00     0.000 C 
BRANCH  14  15
ATOM     15  C   UNL     1      20.809   1.850   3.626  1.00  0.00     0.000 C 
BRANCH  15  16
ATOM     16  C   UNL     1      20.878   0.403   3.107  1.00  0.00     0.000 C 
BRANCH  16  17
ATOM     17  C   UNL     1      21.587  -0.537   4.096  1.00  0.00     0.000 C 
BRANCH  17  18
ATOM     18  C   UNL     1      23.062  -0.762   3.735  1.00  0.00     0.000 C 
BRANCH  18  19
ATOM     19  C   UNL     1      23.905  -1.000   4.992  1.00  0.00     0.000 C 
BRANCH  19  20
ATOM     20  C   UNL     1      23.047  -0.897   6.259  1.00  0.00     0.006 C 
BRANCH  20  21
ATOM     21  C   UNL     1      23.007  -2.233   7.007  1.00  0.00     0.053 C 
BRANCH  21  22
ATOM     22  C   UNL     1      21.595  -2.699   7.180  1.00  0.00     0.041 C 
ATOM     23  O   UNL     1      21.253  -3.846   6.788  1.00  0.00    -0.550 OA
ATOM     24  O   UNL     1      20.652  -1.859   7.761  1.00  0.00    -0.550 OA
ENDBRANCH  21  22
ENDBRANCH  20  21
ENDBRANCH  19  20
ENDBRANCH  18  19
ENDBRANCH  17  18
ENDBRANCH  16  17
ENDBRANCH  15  16
ENDBRANCH  14  15
ENDBRANCH  13  14
ENDBRANCH   1  13
TORSDOF 20
ENDMDL
MODEL 8
REMARK VINA RESULT:    -2.422     10.905     12.833
REMARK INTER + INTRA:          -9.638
REMARK INTER:                  -7.530
REMARK INTRA:                  -2.107
REMARK UNBOUND:                -4.383
REMARK SMILES CCCCCCCCCCCCCCCCCCCCCC(=O)[O-]
REMARK SMILES IDX 12 1 11 2 10 3 9 4 8 5 7 6 6 7 5 8 4 9 3 10 2 11 1 12 13 13
REMARK SMILES IDX 14 14 15 15 16 16 17 17 18 18 19 19 20 20 21 21 22 22 23 23
REMARK SMILES IDX 24 24
REMARK H PARENT
REMARK Flexibility Score: inf
ROOT
ATOM      1  C   UNL     1      16.660  -5.599  14.274  1.00  0.00     0.000 C 
ENDROOT
BRANCH   1   2
ATOM      2  C   UNL     1      15.967  -6.831  14.870  1.00  0.00     0.000 C 
BRANCH   2   3
ATOM      3  C   UNL     1      14.879  -6.418  15.871  1.00  0.00     0.000 C 
BRANCH   3   4
ATOM      4  C   UNL     1      15.326  -5.276  16.796  1.00  0.00    -0.000 C 
BRANCH   4   5
ATOM      5  C   UNL     1      14.286  -4.149  16.895  1.00  0.00    -0.000 C 
BRANCH   5   6
ATOM      6  C   UNL     1      14.817  -2.985  17.744  1.00  0.00    -0.000 C 
BRANCH   6   7
ATOM      7  C   UNL     1      16.330  -3.080  18.013  1.00  0.00    -0.000 C 
BRANCH   7   8
ATOM      8  C   UNL     1      17.161  -1.917  17.442  1.00  0.00    -0.000 C 
BRANCH   8   9
ATOM      9  C   UNL     1      16.326  -0.648  17.197  1.00  0.00    -0.000 C 
BRANCH   9  10
ATOM     10  C   UNL     1      16.391  -0.183  15.726  1.00  0.00    -0.000 C 
BRANCH  10  11
ATOM     11  C   UNL     1      16.588  -1.337  14.727  1.00  0.00    -0.003 C 
ATOM     12  C   UNL     1      15.275  -1.852  14.141  1.00  0.00     0.004 C 
ENDBRANCH  10  11
ENDBRANCH   9  10
ENDBRANCH   8   9
ENDBRANCH   7   8
ENDBRANCH   6   7
ENDBRANCH   5   6
ENDBRANCH   4   5
ENDBRANCH   3   4
ENDBRANCH   2   3
ENDBRANCH   1   2
BRANCH   1  13
ATOM     13  C   UNL     1      15.997  -5.175  12.959  1.00  0.00     0.000 C 
BRANCH  13  14
ATOM     14  C   UNL     1      15.739  -6.390  12.056  1.00  0.00     0.000 C 
BRANCH  14  15
ATOM     15  C   UNL     1      15.067  -6.003  10.729  1.00  0.00     0.000 C 
BRANCH  15  16
ATOM     16  C   UNL     1      15.152  -7.122   9.675  1.00  0.00     0.000 C 
BRANCH  16  17
ATOM     17  C   UNL     1      16.064  -6.744   8.497  1.00  0.00     0.000 C 
BRANCH  17  18
ATOM     18  C   UNL     1      16.699  -5.357   8.668  1.00  0.00     0.000 C 
BRANCH  18  19
ATOM     19  C   UNL     1      18.190  -5.387   8.313  1.00  0.00     0.000 C 
BRANCH  19  20
ATOM     20  C   UNL     1      18.640  -4.049   7.713  1.00  0.00     0.006 C 
BRANCH  20  21
ATOM     21  C   UNL     1      20.037  -4.166   7.097  1.00  0.00     0.053 C 
BRANCH  21  22
ATOM     22  C   UNL     1      20.769  -2.864   7.199  1.00  0.00     0.041 C 
ATOM     23  O   UNL     1      21.811  -2.667   6.520  1.00  0.00    -0.550 OA
ATOM     24  O   UNL     1      20.306  -1.872   8.055  1.00  0.00    -0.550 OA
ENDBRANCH  21  22
ENDBRANCH  20  21
ENDBRANCH  19  20
ENDBRANCH  18  19
ENDBRANCH  17  18
ENDBRANCH  16  17
ENDBRANCH  15  16
ENDBRANCH  14  15
ENDBRANCH  13  14
ENDBRANCH   1  13
TORSDOF 20
ENDMDL
MODEL 9
REMARK VINA RESULT:    -2.413      3.133      4.289
REMARK INTER + INTRA:          -9.618
REMARK INTER:                  -6.064
REMARK INTRA:                  -3.554
REMARK UNBOUND:                -4.383
REMARK SMILES CCCCCCCCCCCCCCCCCCCCCC(=O)[O-]
REMARK SMILES IDX 12 1 11 2 10 3 9 4 8 5 7 6 6 7 5 8 4 9 3 10 2 11 1 12 13 13
REMARK SMILES IDX 14 14 15 15 16 16 17 17 18 18 19 19 20 20 21 21 22 22 23 23
REMARK SMILES IDX 24 24
REMARK H PARENT
REMARK Flexibility Score: inf
ROOT
ATOM      1  C   UNL     1      25.493   2.249   5.887  1.00  0.00     0.000 C 
ENDROOT
BRANCH   1   2
ATOM      2  C   UNL     1      25.865   1.280   7.016  1.00  0.00     0.000 C 
BRANCH   2   3
ATOM      3  C   UNL     1      27.170   1.710   7.701  1.00  0.00     0.000 C 
BRANCH   3   4
ATOM      4  C   UNL     1      27.314   1.133   9.118  1.00  0.00    -0.000 C 
BRANCH   4   5
ATOM      5  C   UNL     1      26.187   0.154   9.479  1.00  0.00    -0.000 C 
BRANCH   5   6
ATOM      6  C   UNL     1      26.748  -1.105  10.156  1.00  0.00    -0.000 C 
BRANCH   6   7
ATOM      7  C   UNL     1      27.495  -2.029   9.177  1.00  0.00    -0.000 C 
BRANCH   7   8
ATOM      8  C   UNL     1      26.764  -2.285   7.847  1.00  0.00    -0.000 C 
BRANCH   8   9
ATOM      9  C   UNL     1      27.610  -1.909   6.617  1.00  0.00    -0.000 C 
BRANCH   9  10
ATOM     10  C   UNL     1      26.817  -2.051   5.300  1.00  0.00    -0.000 C 
BRANCH  10  11
ATOM     11  C   UNL     1      27.421  -1.252   4.132  1.00  0.00    -0.003 C 
ATOM     12  C   UNL     1      26.429  -0.278   3.498  1.00  0.00     0.004 C 
ENDBRANCH  10  11
ENDBRANCH   9  10
ENDBRANCH   8   9
ENDBRANCH   7   8
ENDBRANCH   6   7
ENDBRANCH   5   6
ENDBRANCH   4   5
ENDBRANCH   3   4
ENDBRANCH   2   3
ENDBRANCH   1   2
BRANCH   1  13
ATOM     13  C   UNL     1      24.208   3.016   6.218  1.00  0.00     0.000 C 
BRANCH  13  14
ATOM     14  C   UNL     1      23.232   2.993   5.033  1.00  0.00     0.000 C 
BRANCH  14  15
ATOM     15  C   UNL     1      21.772   3.184   5.471  1.00  0.00     0.000 C 
BRANCH  15  16
ATOM     16  C   UNL     1      20.888   1.971   5.129  1.00  0.00     0.000 C 
BRANCH  16  17
ATOM     17  C   UNL     1      21.334   0.699   5.867  1.00  0.00     0.000 C 
BRANCH  17  18
ATOM     18  C   UNL     1      21.801  -0.403   4.905  1.00  0.00     0.000 C 
BRANCH  18  19
ATOM     19  C   UNL     1      23.251  -0.808   5.195  1.00  0.00     0.000 C 
BRANCH  19  20
ATOM     20  C   UNL     1      23.373  -1.468   6.574  1.00  0.00     0.006 C 
BRANCH  20  21
ATOM     21  C   UNL     1      22.479  -2.708   6.671  1.00  0.00     0.053 C 
BRANCH  21  22
ATOM     22  C   UNL     1      21.602  -2.632   7.883  1.00  0.00     0.041 C 
ATOM     23  O   UNL     1      22.031  -3.020   9.002  1.00  0.00    -0.550 OA
ATOM     24  O   UNL     1      20.305  -2.145   7.773  1.00  0.00    -0.550 OA
ENDBRANCH  21  22
ENDBRANCH  20  21
ENDBRANCH  19  20
ENDBRANCH  18  19
ENDBRANCH  17  18
ENDBRANCH  16  17
ENDBRANCH  15  16
ENDBRANCH  14  15
ENDBRANCH  13  14
ENDBRANCH   1  13
TORSDOF 20
ENDMDL
