MODEL 1
REMARK VINA RESULT:    -6.827      0.000      0.000
REMARK INTER + INTRA:         -11.169
REMARK INTER:                  -9.821
REMARK INTRA:                  -1.348
REMARK UNBOUND:                -1.348
REMARK SMILES O=c1c(O[C@@H]2O[C@H](CO)[C@H](O)[C@@H](O)[C@@H]2O)c(-c2ccc(O)cc2)oc2cc(O)cc(O)c12
REMARK SMILES IDX 4 1 3 2 16 3 24 4 2 5 25 6 1 7 32 8 26 9 30 10 27 11 29 12
REMARK SMILES IDX 17 13 18 14 19 15 20 16 23 17 22 18 21 19 31 21 28 23 5 25
REMARK SMILES IDX 14 26 6 27 12 28 7 29 10 30 15 31 13 33 8 35 9 36 11 38
REMARK H PARENT 21 20 31 22 28 24 15 32 13 34 9 37 11 39
REMARK Flexibility Score: inf
ROOT
ATOM      1  O   UNL     1       8.605 -14.380  12.251  1.00  0.00    -0.454 OA
ENDROOT
BRANCH   1   2
ATOM      2  C   UNL     1       7.422 -15.124  12.109  1.00  0.00     0.214 A 
ATOM      3  C   UNL     1       7.160 -16.205  12.968  1.00  0.00     0.180 A 
ATOM      4  O   UNL     1       6.066 -16.938  12.797  1.00  0.00    -0.452 OA
ATOM      5  C   UNL     1       6.536 -14.880  11.045  1.00  0.00     0.239 A 
ATOM      6  C   UNL     1       5.173 -16.706  11.842  1.00  0.00     0.146 A 
ATOM      7  O   UNL     1       6.861 -14.042  10.163  1.00  0.00    -0.285 OA
ATOM      8  C   UNL     1       5.347 -15.635  10.929  1.00  0.00     0.111 A 
ATOM      9  C   UNL     1       4.062 -17.548  11.743  1.00  0.00     0.094 A 
ATOM     10  C   UNL     1       4.353 -15.425   9.927  1.00  0.00     0.134 A 
ATOM     11  C   UNL     1       3.123 -17.364  10.726  1.00  0.00     0.123 A 
ATOM     12  C   UNL     1       3.278 -16.315   9.822  1.00  0.00     0.093 A 
BRANCH   3  13
ATOM     13  C   UNL     1       8.104 -16.603  14.031  1.00  0.00     0.021 A 
ATOM     14  C   UNL     1       7.952 -16.152  15.350  1.00  0.00     0.016 A 
ATOM     15  C   UNL     1       8.882 -16.518  16.328  1.00  0.00     0.047 A 
ATOM     16  C   UNL     1       9.960 -17.350  16.001  1.00  0.00     0.115 A 
ATOM     17  C   UNL     1       9.167 -17.466  13.719  1.00  0.00     0.016 A 
ATOM     18  C   UNL     1      10.094 -17.829  14.697  1.00  0.00     0.047 A 
BRANCH  16  19
ATOM     19  O   UNL     1      10.903 -17.703  16.960  1.00  0.00    -0.508 OA
ATOM     20  H   UNL     1      10.770 -18.514  17.553  1.00  0.00     0.293 HD
ENDBRANCH  16  19
ENDBRANCH   3  13
BRANCH  10  21
ATOM     21  O   UNL     1       4.357 -14.338   9.052  1.00  0.00    -0.507 OA
ATOM     22  H   UNL     1       3.536 -13.971   8.593  1.00  0.00     0.293 HD
ENDBRANCH  10  21
BRANCH  11  23
ATOM     23  O   UNL     1       2.016 -18.203  10.621  1.00  0.00    -0.508 OA
ATOM     24  H   UNL     1       1.135 -17.880  10.250  1.00  0.00     0.293 HD
ENDBRANCH  11  23
ENDBRANCH   1   2
BRANCH   1  25
ATOM     25  C   UNL     1       8.772 -13.272  13.146  1.00  0.00     0.339 C 
ATOM     26  C   UNL     1       9.040 -12.002  12.319  1.00  0.00     0.214 C 
ATOM     27  O   UNL     1       7.624 -13.090  13.953  1.00  0.00    -0.332 OA
ATOM     28  C   UNL     1       8.962 -10.718  13.196  1.00  0.00     0.180 C 
ATOM     29  C   UNL     1       7.801 -12.116  14.980  1.00  0.00     0.179 C 
ATOM     30  C   UNL     1       8.926 -11.063  14.690  1.00  0.00     0.177 C 
BRANCH  26  31
ATOM     31  O   UNL     1       8.086 -11.917  11.284  1.00  0.00    -0.384 OA
ATOM     32  H   UNL     1       8.469 -12.395  10.505  1.00  0.00     0.211 HD
ENDBRANCH  26  31
BRANCH  28  33
ATOM     33  O   UNL     1      10.064  -9.890  12.936  1.00  0.00    -0.387 OA
ATOM     34  H   UNL     1      10.393 -10.143  12.030  1.00  0.00     0.211 HD
ENDBRANCH  28  33
BRANCH  29  35
ATOM     35  C   UNL     1       6.433 -11.443  15.223  1.00  0.00     0.191 C 
BRANCH  35  36
ATOM     36  O   UNL     1       5.765 -11.242  14.009  1.00  0.00    -0.394 OA
ATOM     37  H   UNL     1       6.424 -11.419  13.287  1.00  0.00     0.210 HD
ENDBRANCH  35  36
ENDBRANCH  29  35
BRANCH  30  38
ATOM     38  O   UNL     1       8.766  -9.892  15.450  1.00  0.00    -0.387 OA
ATOM     39  H   UNL     1       7.791  -9.715  15.491  1.00  0.00     0.211 HD
ENDBRANCH  30  38
ENDBRANCH   1  25
TORSDOF 11
ENDMDL
MODEL 2
REMARK VINA RESULT:    -6.796      3.531      7.152
REMARK INTER + INTRA:         -11.124
REMARK INTER:                  -9.543
REMARK INTRA:                  -1.581
REMARK UNBOUND:                -1.348
REMARK SMILES O=c1c(O[C@@H]2O[C@H](CO)[C@H](O)[C@@H](O)[C@@H]2O)c(-c2ccc(O)cc2)oc2cc(O)cc(O)c12
REMARK SMILES IDX 4 1 3 2 16 3 24 4 2 5 25 6 1 7 32 8 26 9 30 10 27 11 29 12
REMARK SMILES IDX 17 13 18 14 19 15 20 16 23 17 22 18 21 19 31 21 28 23 5 25
REMARK SMILES IDX 14 26 6 27 12 28 7 29 10 30 15 31 13 33 8 35 9 36 11 38
REMARK H PARENT 21 20 31 22 28 24 15 32 13 34 9 37 11 39
REMARK Flexibility Score: inf
ROOT
ATOM      1  O   UNL     1       5.457 -14.880   9.515  1.00  0.00    -0.454 OA
ENDROOT
BRANCH   1   2
ATOM      2  C   UNL     1       6.661 -15.289   8.918  1.00  0.00     0.214 A 
ATOM      3  C   UNL     1       7.637 -15.953   9.679  1.00  0.00     0.180 A 
ATOM      4  O   UNL     1       8.794 -16.292   9.124  1.00  0.00    -0.452 OA
ATOM      5  C   UNL     1       6.961 -14.947   7.587  1.00  0.00     0.239 A 
ATOM      6  C   UNL     1       9.097 -16.041   7.855  1.00  0.00     0.146 A 
ATOM      7  O   UNL     1       6.174 -14.189   6.962  1.00  0.00    -0.285 OA
ATOM      8  C   UNL     1       8.175 -15.380   7.004  1.00  0.00     0.111 A 
ATOM      9  C   UNL     1      10.350 -16.430   7.373  1.00  0.00     0.094 A 
ATOM     10  C   UNL     1       8.546 -15.143   5.648  1.00  0.00     0.134 A 
ATOM     11  C   UNL     1      10.723 -16.147   6.058  1.00  0.00     0.123 A 
ATOM     12  C   UNL     1       9.827 -15.498   5.209  1.00  0.00     0.093 A 
BRANCH   3  13
ATOM     13  C   UNL     1       7.447 -16.236  11.116  1.00  0.00     0.021 A 
ATOM     14  C   UNL     1       6.787 -17.393  11.552  1.00  0.00     0.016 A 
ATOM     15  C   UNL     1       6.592 -17.616  12.918  1.00  0.00     0.047 A 
ATOM     16  C   UNL     1       7.069 -16.695  13.860  1.00  0.00     0.115 A 
ATOM     17  C   UNL     1       7.954 -15.334  12.067  1.00  0.00     0.016 A 
ATOM     18  C   UNL     1       7.757 -15.560  13.429  1.00  0.00     0.047 A 
BRANCH  16  19
ATOM     19  O   UNL     1       6.862 -16.896  15.220  1.00  0.00    -0.508 OA
ATOM     20  H   UNL     1       6.380 -16.207  15.785  1.00  0.00     0.293 HD
ENDBRANCH  16  19
ENDBRANCH   3  13
BRANCH  10  21
ATOM     21  O   UNL     1       7.681 -14.609   4.692  1.00  0.00    -0.507 OA
ATOM     22  H   UNL     1       7.612 -14.933   3.739  1.00  0.00     0.293 HD
ENDBRANCH  10  21
BRANCH  11  23
ATOM     23  O   UNL     1      11.972 -16.528   5.575  1.00  0.00    -0.508 OA
ATOM     24  H   UNL     1      12.217 -16.440   4.601  1.00  0.00     0.293 HD
ENDBRANCH  11  23
ENDBRANCH   1   2
BRANCH   1  25
ATOM     25  C   UNL     1       4.224 -15.609   9.455  1.00  0.00     0.339 C 
ATOM     26  C   UNL     1       3.094 -14.641   9.059  1.00  0.00     0.214 C 
ATOM     27  O   UNL     1       4.303 -16.668   8.519  1.00  0.00    -0.332 OA
ATOM     28  C   UNL     1       1.782 -15.401   8.707  1.00  0.00     0.180 C 
ATOM     29  C   UNL     1       3.168 -17.532   8.544  1.00  0.00     0.179 C 
ATOM     30  C   UNL     1       1.865 -16.877   9.119  1.00  0.00     0.177 C 
BRANCH  26  31
ATOM     31  O   UNL     1       3.507 -13.885   7.942  1.00  0.00    -0.384 OA
ATOM     32  H   UNL     1       3.442 -12.932   8.205  1.00  0.00     0.211 HD
ENDBRANCH  26  31
BRANCH  28  33
ATOM     33  O   UNL     1       0.690 -14.800   9.350  1.00  0.00    -0.387 OA
ATOM     34  H   UNL     1       0.919 -14.775  10.320  1.00  0.00     0.211 HD
ENDBRANCH  28  33
BRANCH  29  35
ATOM     35  C   UNL     1       2.959 -18.066   7.111  1.00  0.00     0.191 C 
BRANCH  35  36
ATOM     36  O   UNL     1       3.448 -17.149   6.172  1.00  0.00    -0.394 OA
ATOM     37  H   UNL     1       2.718 -16.994   5.517  1.00  0.00     0.210 HD
ENDBRANCH  35  36
ENDBRANCH  29  35
BRANCH  30  38
ATOM     38  O   UNL     1       0.704 -17.556   8.710  1.00  0.00    -0.387 OA
ATOM     39  H   UNL     1       0.862 -17.843   7.774  1.00  0.00     0.211 HD
ENDBRANCH  30  38
ENDBRANCH   1  25
TORSDOF 11
ENDMDL
MODEL 3
REMARK VINA RESULT:    -6.781      3.129      5.838
REMARK INTER + INTRA:         -11.102
REMARK INTER:                 -10.398
REMARK INTRA:                  -0.704
REMARK UNBOUND:                -1.348
REMARK SMILES O=c1c(O[C@@H]2O[C@H](CO)[C@H](O)[C@@H](O)[C@@H]2O)c(-c2ccc(O)cc2)oc2cc(O)cc(O)c12
REMARK SMILES IDX 4 1 3 2 16 3 24 4 2 5 25 6 1 7 32 8 26 9 30 10 27 11 29 12
REMARK SMILES IDX 17 13 18 14 19 15 20 16 23 17 22 18 21 19 31 21 28 23 5 25
REMARK SMILES IDX 14 26 6 27 12 28 7 29 10 30 15 31 13 33 8 35 9 36 11 38
REMARK H PARENT 21 20 31 22 28 24 15 32 13 34 9 37 11 39
REMARK Flexibility Score: inf
ROOT
ATOM      1  O   UNL     1       7.787 -14.638  12.001  1.00  0.00    -0.454 OA
ENDROOT
BRANCH   1   2
ATOM      2  C   UNL     1       8.489 -15.177  10.911  1.00  0.00     0.214 A 
ATOM      3  C   UNL     1       7.792 -15.658   9.789  1.00  0.00     0.180 A 
ATOM      4  O   UNL     1       8.456 -16.213   8.784  1.00  0.00    -0.452 OA
ATOM      5  C   UNL     1       9.884 -15.350  10.962  1.00  0.00     0.239 A 
ATOM      6  C   UNL     1       9.777 -16.344   8.764  1.00  0.00     0.146 A 
ATOM      7  O   UNL     1      10.489 -15.099  12.036  1.00  0.00    -0.285 OA
ATOM      8  C   UNL     1      10.570 -15.885   9.847  1.00  0.00     0.111 A 
ATOM      9  C   UNL     1      10.375 -16.957   7.659  1.00  0.00     0.094 A 
ATOM     10  C   UNL     1      11.985 -16.042   9.771  1.00  0.00     0.134 A 
ATOM     11  C   UNL     1      11.757 -17.152   7.619  1.00  0.00     0.123 A 
ATOM     12  C   UNL     1      12.550 -16.705   8.676  1.00  0.00     0.093 A 
BRANCH   3  13
ATOM     13  C   UNL     1       6.317 -15.625   9.716  1.00  0.00     0.021 A 
ATOM     14  C   UNL     1       5.526 -16.419  10.558  1.00  0.00     0.016 A 
ATOM     15  C   UNL     1       4.133 -16.392  10.442  1.00  0.00     0.047 A 
ATOM     16  C   UNL     1       3.519 -15.561   9.496  1.00  0.00     0.115 A 
ATOM     17  C   UNL     1       5.694 -14.767   8.795  1.00  0.00     0.016 A 
ATOM     18  C   UNL     1       4.303 -14.744   8.681  1.00  0.00     0.047 A 
BRANCH  16  19
ATOM     19  O   UNL     1       2.135 -15.542   9.357  1.00  0.00    -0.508 OA
ATOM     20  H   UNL     1       1.585 -14.760   9.691  1.00  0.00     0.293 HD
ENDBRANCH  16  19
ENDBRANCH   3  13
BRANCH  10  21
ATOM     21  O   UNL     1      12.871 -15.526  10.718  1.00  0.00    -0.507 OA
ATOM     22  H   UNL     1      13.639 -16.042  11.122  1.00  0.00     0.293 HD
ENDBRANCH  10  21
BRANCH  11  23
ATOM     23  O   UNL     1      12.358 -17.766   6.523  1.00  0.00    -0.508 OA
ATOM     24  H   UNL     1      12.775 -18.682   6.586  1.00  0.00     0.293 HD
ENDBRANCH  11  23
ENDBRANCH   1   2
BRANCH   1  25
ATOM     25  C   UNL     1       8.163 -13.449  12.709  1.00  0.00     0.339 C 
ATOM     26  C   UNL     1       7.494 -12.237  12.035  1.00  0.00     0.214 C 
ATOM     27  O   UNL     1       7.775 -13.520  14.068  1.00  0.00    -0.332 OA
ATOM     28  C   UNL     1       7.630 -10.950  12.900  1.00  0.00     0.180 C 
ATOM     29  C   UNL     1       8.276 -12.444  14.859  1.00  0.00     0.179 C 
ATOM     30  C   UNL     1       8.629 -11.151  14.046  1.00  0.00     0.177 C 
BRANCH  26  31
ATOM     31  O   UNL     1       6.127 -12.520  11.833  1.00  0.00    -0.384 OA
ATOM     32  H   UNL     1       5.672 -12.350  12.696  1.00  0.00     0.211 HD
ENDBRANCH  26  31
BRANCH  28  33
ATOM     33  O   UNL     1       8.047  -9.875  12.102  1.00  0.00    -0.387 OA
ATOM     34  H   UNL     1       8.668 -10.260  11.422  1.00  0.00     0.211 HD
ENDBRANCH  28  33
BRANCH  29  35
ATOM     35  C   UNL     1       7.242 -12.161  15.969  1.00  0.00     0.191 C 
BRANCH  35  36
ATOM     36  O   UNL     1       6.039 -11.711  15.411  1.00  0.00    -0.394 OA
ATOM     37  H   UNL     1       5.740 -10.940  15.961  1.00  0.00     0.210 HD
ENDBRANCH  35  36
ENDBRANCH  29  35
BRANCH  30  38
ATOM     38  O   UNL     1       8.664 -10.005  14.859  1.00  0.00    -0.387 OA
ATOM     39  H   UNL     1       7.791  -9.550  14.741  1.00  0.00     0.211 HD
ENDBRANCH  30  38
ENDBRANCH   1  25
TORSDOF 11
ENDMDL
MODEL 4
REMARK VINA RESULT:    -6.758      2.936      4.212
REMARK INTER + INTRA:         -11.069
REMARK INTER:                  -9.837
REMARK INTRA:                  -1.231
REMARK UNBOUND:                -1.348
REMARK SMILES O=c1c(O[C@@H]2O[C@H](CO)[C@H](O)[C@@H](O)[C@@H]2O)c(-c2ccc(O)cc2)oc2cc(O)cc(O)c12
REMARK SMILES IDX 4 1 3 2 16 3 24 4 2 5 25 6 1 7 32 8 26 9 30 10 27 11 29 12
REMARK SMILES IDX 17 13 18 14 19 15 20 16 23 17 22 18 21 19 31 21 28 23 5 25
REMARK SMILES IDX 14 26 6 27 12 28 7 29 10 30 15 31 13 33 8 35 9 36 11 38
REMARK H PARENT 21 20 31 22 28 24 15 32 13 34 9 37 11 39
REMARK Flexibility Score: inf
ROOT
ATOM      1  O   UNL     1       7.851 -15.201  12.018  1.00  0.00    -0.454 OA
ENDROOT
BRANCH   1   2
ATOM      2  C   UNL     1       7.882 -15.323  10.619  1.00  0.00     0.214 A 
ATOM      3  C   UNL     1       8.994 -15.903   9.984  1.00  0.00     0.180 A 
ATOM      4  O   UNL     1       9.041 -15.969   8.660  1.00  0.00    -0.452 OA
ATOM      5  C   UNL     1       6.863 -14.772   9.822  1.00  0.00     0.239 A 
ATOM      6  C   UNL     1       8.075 -15.514   7.870  1.00  0.00     0.146 A 
ATOM      7  O   UNL     1       5.963 -14.085  10.373  1.00  0.00    -0.285 OA
ATOM      8  C   UNL     1       6.911 -14.917   8.416  1.00  0.00     0.111 A 
ATOM      9  C   UNL     1       8.233 -15.623   6.485  1.00  0.00     0.094 A 
ATOM     10  C   UNL     1       5.900 -14.452   7.523  1.00  0.00     0.134 A 
ATOM     11  C   UNL     1       7.260 -15.118   5.620  1.00  0.00     0.123 A 
ATOM     12  C   UNL     1       6.108 -14.529   6.142  1.00  0.00     0.093 A 
BRANCH   3  13
ATOM     13  C   UNL     1      10.160 -16.391  10.748  1.00  0.00     0.021 A 
ATOM     14  C   UNL     1      10.097 -17.570  11.503  1.00  0.00     0.016 A 
ATOM     15  C   UNL     1      11.207 -17.989  12.242  1.00  0.00     0.047 A 
ATOM     16  C   UNL     1      12.393 -17.243  12.220  1.00  0.00     0.115 A 
ATOM     17  C   UNL     1      11.363 -15.668  10.700  1.00  0.00     0.016 A 
ATOM     18  C   UNL     1      12.469 -16.089  11.440  1.00  0.00     0.047 A 
BRANCH  16  19
ATOM     19  O   UNL     1      13.496 -17.639  12.968  1.00  0.00    -0.508 OA
ATOM     20  H   UNL     1      14.167 -16.963  13.312  1.00  0.00     0.293 HD
ENDBRANCH  16  19
ENDBRANCH   3  13
BRANCH  10  21
ATOM     21  O   UNL     1       4.665 -13.956   7.946  1.00  0.00    -0.507 OA
ATOM     22  H   UNL     1       4.432 -12.976   7.999  1.00  0.00     0.293 HD
ENDBRANCH  10  21
BRANCH  11  23
ATOM     23  O   UNL     1       7.414 -15.219   4.240  1.00  0.00    -0.508 OA
ATOM     24  H   UNL     1       7.374 -14.411   3.638  1.00  0.00     0.293 HD
ENDBRANCH  11  23
ENDBRANCH   1   2
BRANCH   1  25
ATOM     25  C   UNL     1       8.051 -13.977  12.737  1.00  0.00     0.339 C 
ATOM     26  C   UNL     1       8.180 -14.299  14.237  1.00  0.00     0.214 C 
ATOM     27  O   UNL     1       9.210 -13.303  12.286  1.00  0.00    -0.332 OA
ATOM     28  C   UNL     1       8.668 -13.064  15.051  1.00  0.00     0.180 C 
ATOM     29  C   UNL     1       9.361 -11.998  12.843  1.00  0.00     0.179 C 
ATOM     30  C   UNL     1       8.616 -11.784  14.206  1.00  0.00     0.177 C 
BRANCH  26  31
ATOM     31  O   UNL     1       9.098 -15.356  14.403  1.00  0.00    -0.384 OA
ATOM     32  H   UNL     1      10.002 -14.967  14.298  1.00  0.00     0.211 HD
ENDBRANCH  26  31
BRANCH  28  33
ATOM     33  O   UNL     1       7.875 -12.897  16.196  1.00  0.00    -0.387 OA
ATOM     34  H   UNL     1       8.422 -13.228  16.961  1.00  0.00     0.211 HD
ENDBRANCH  28  33
BRANCH  29  35
ATOM     35  C   UNL     1      10.873 -11.716  12.964  1.00  0.00     0.191 C 
BRANCH  35  36
ATOM     36  O   UNL     1      11.104 -10.342  13.098  1.00  0.00    -0.394 OA
ATOM     37  H   UNL     1      11.706 -10.227  13.880  1.00  0.00     0.210 HD
ENDBRANCH  35  36
ENDBRANCH  29  35
BRANCH  30  38
ATOM     38  O   UNL     1       9.144 -10.705  14.936  1.00  0.00    -0.387 OA
ATOM     39  H   UNL     1       8.458  -9.990  14.916  1.00  0.00     0.211 HD
ENDBRANCH  30  38
ENDBRANCH   1  25
TORSDOF 11
ENDMDL
MODEL 5
REMARK VINA RESULT:    -6.641      3.261      6.101
REMARK INTER + INTRA:         -10.901
REMARK INTER:                  -9.736
REMARK INTRA:                  -1.165
REMARK UNBOUND:                -1.348
REMARK SMILES O=c1c(O[C@@H]2O[C@H](CO)[C@H](O)[C@@H](O)[C@@H]2O)c(-c2ccc(O)cc2)oc2cc(O)cc(O)c12
REMARK SMILES IDX 4 1 3 2 16 3 24 4 2 5 25 6 1 7 32 8 26 9 30 10 27 11 29 12
REMARK SMILES IDX 17 13 18 14 19 15 20 16 23 17 22 18 21 19 31 21 28 23 5 25
REMARK SMILES IDX 14 26 6 27 12 28 7 29 10 30 15 31 13 33 8 35 9 36 11 38
REMARK H PARENT 21 20 31 22 28 24 15 32 13 34 9 37 11 39
REMARK Flexibility Score: inf
ROOT
ATOM      1  O   UNL     1       8.192 -15.240  12.424  1.00  0.00    -0.454 OA
ENDROOT
BRANCH   1   2
ATOM      2  C   UNL     1       8.868 -15.627  11.255  1.00  0.00     0.214 A 
ATOM      3  C   UNL     1       8.145 -15.959  10.097  1.00  0.00     0.180 A 
ATOM      4  O   UNL     1       8.785 -16.374   9.012  1.00  0.00    -0.452 OA
ATOM      5  C   UNL     1      10.264 -15.799  11.250  1.00  0.00     0.239 A 
ATOM      6  C   UNL     1      10.106 -16.495   8.943  1.00  0.00     0.146 A 
ATOM      7  O   UNL     1      10.895 -15.688  12.334  1.00  0.00    -0.285 OA
ATOM      8  C   UNL     1      10.924 -16.179  10.058  1.00  0.00     0.111 A 
ATOM      9  C   UNL     1      10.678 -16.953   7.753  1.00  0.00     0.094 A 
ATOM     10  C   UNL     1      12.337 -16.318   9.929  1.00  0.00     0.134 A 
ATOM     11  C   UNL     1      12.059 -17.135   7.655  1.00  0.00     0.123 A 
ATOM     12  C   UNL     1      12.876 -16.827   8.742  1.00  0.00     0.093 A 
BRANCH   3  13
ATOM     13  C   UNL     1       6.669 -15.925  10.064  1.00  0.00     0.021 A 
ATOM     14  C   UNL     1       5.901 -16.953  10.627  1.00  0.00     0.016 A 
ATOM     15  C   UNL     1       4.506 -16.909  10.550  1.00  0.00     0.047 A 
ATOM     16  C   UNL     1       3.866 -15.830   9.926  1.00  0.00     0.115 A 
ATOM     17  C   UNL     1       6.020 -14.828   9.472  1.00  0.00     0.016 A 
ATOM     18  C   UNL     1       4.628 -14.788   9.396  1.00  0.00     0.047 A 
BRANCH  16  19
ATOM     19  O   UNL     1       2.480 -15.787   9.825  1.00  0.00    -0.508 OA
ATOM     20  H   UNL     1       1.902 -15.563  10.626  1.00  0.00     0.293 HD
ENDBRANCH  16  19
ENDBRANCH   3  13
BRANCH  10  21
ATOM     21  O   UNL     1      13.245 -15.927  10.914  1.00  0.00    -0.507 OA
ATOM     22  H   UNL     1      13.011 -15.801  11.888  1.00  0.00     0.293 HD
ENDBRANCH  10  21
BRANCH  11  23
ATOM     23  O   UNL     1      12.633 -17.596   6.473  1.00  0.00    -0.508 OA
ATOM     24  H   UNL     1      12.404 -18.498   6.084  1.00  0.00     0.293 HD
ENDBRANCH  11  23
ENDBRANCH   1   2
BRANCH   1  25
ATOM     25  C   UNL     1       8.192 -13.913  12.968  1.00  0.00     0.339 C 
ATOM     26  C   UNL     1       8.288 -14.005  14.501  1.00  0.00     0.214 C 
ATOM     27  O   UNL     1       9.272 -13.153  12.460  1.00  0.00    -0.332 OA
ATOM     28  C   UNL     1       8.566 -12.615  15.145  1.00  0.00     0.180 C 
ATOM     29  C   UNL     1       9.221 -11.776  12.831  1.00  0.00     0.179 C 
ATOM     30  C   UNL     1       8.387 -11.482  14.125  1.00  0.00     0.177 C 
BRANCH  26  31
ATOM     31  O   UNL     1       9.329 -14.893  14.844  1.00  0.00    -0.384 OA
ATOM     32  H   UNL     1      10.175 -14.387  14.753  1.00  0.00     0.211 HD
ENDBRANCH  26  31
BRANCH  28  33
ATOM     33  O   UNL     1       7.703 -12.405  16.230  1.00  0.00    -0.387 OA
ATOM     34  H   UNL     1       7.933 -11.506  16.596  1.00  0.00     0.211 HD
ENDBRANCH  28  33
BRANCH  29  35
ATOM     35  C   UNL     1      10.674 -11.274  12.956  1.00  0.00     0.191 C 
BRANCH  35  36
ATOM     36  O   UNL     1      10.715  -9.876  12.886  1.00  0.00    -0.394 OA
ATOM     37  H   UNL     1      11.247  -9.645  12.079  1.00  0.00     0.210 HD
ENDBRANCH  35  36
ENDBRANCH  29  35
BRANCH  30  38
ATOM     38  O   UNL     1       8.730 -10.251  14.710  1.00  0.00    -0.387 OA
ATOM     39  H   UNL     1       9.543 -10.416  15.255  1.00  0.00     0.211 HD
ENDBRANCH  30  38
ENDBRANCH   1  25
TORSDOF 11
ENDMDL
MODEL 6
REMARK VINA RESULT:    -6.624      3.314      4.754
REMARK INTER + INTRA:         -10.876
REMARK INTER:                  -9.998
REMARK INTRA:                  -0.877
REMARK UNBOUND:                -1.348
REMARK SMILES O=c1c(O[C@@H]2O[C@H](CO)[C@H](O)[C@@H](O)[C@@H]2O)c(-c2ccc(O)cc2)oc2cc(O)cc(O)c12
REMARK SMILES IDX 4 1 3 2 16 3 24 4 2 5 25 6 1 7 32 8 26 9 30 10 27 11 29 12
REMARK SMILES IDX 17 13 18 14 19 15 20 16 23 17 22 18 21 19 31 21 28 23 5 25
REMARK SMILES IDX 14 26 6 27 12 28 7 29 10 30 15 31 13 33 8 35 9 36 11 38
REMARK H PARENT 21 20 31 22 28 24 15 32 13 34 9 37 11 39
REMARK Flexibility Score: inf
ROOT
ATOM      1  O   UNL     1       8.450 -16.444  12.234  1.00  0.00    -0.454 OA
ENDROOT
BRANCH   1   2
ATOM      2  C   UNL     1       8.429 -16.338  10.834  1.00  0.00     0.214 A 
ATOM      3  C   UNL     1       9.415 -16.976  10.062  1.00  0.00     0.180 A 
ATOM      4  O   UNL     1       9.421 -16.831   8.743  1.00  0.00    -0.452 OA
ATOM      5  C   UNL     1       7.498 -15.508  10.185  1.00  0.00     0.239 A 
ATOM      6  C   UNL     1       8.527 -16.104   8.083  1.00  0.00     0.146 A 
ATOM      7  O   UNL     1       6.737 -14.786  10.881  1.00  0.00    -0.285 OA
ATOM      8  C   UNL     1       7.490 -15.425   8.773  1.00  0.00     0.111 A 
ATOM      9  C   UNL     1       8.633 -16.007   6.693  1.00  0.00     0.094 A 
ATOM     10  C   UNL     1       6.550 -14.665   8.016  1.00  0.00     0.134 A 
ATOM     11  C   UNL     1       7.739 -15.217   5.968  1.00  0.00     0.123 A 
ATOM     12  C   UNL     1       6.713 -14.546   6.631  1.00  0.00     0.093 A 
BRANCH   3  13
ATOM     13  C   UNL     1      10.500 -17.764  10.681  1.00  0.00     0.021 A 
ATOM     14  C   UNL     1      10.234 -18.936  11.400  1.00  0.00     0.016 A 
ATOM     15  C   UNL     1      11.279 -19.642  12.003  1.00  0.00     0.047 A 
ATOM     16  C   UNL     1      12.600 -19.192  11.878  1.00  0.00     0.115 A 
ATOM     17  C   UNL     1      11.830 -17.338  10.528  1.00  0.00     0.016 A 
ATOM     18  C   UNL     1      12.871 -18.045  11.132  1.00  0.00     0.047 A 
BRANCH  16  19
ATOM     19  O   UNL     1      13.645 -19.874  12.491  1.00  0.00    -0.508 OA
ATOM     20  H   UNL     1      13.990 -19.596  13.402  1.00  0.00     0.293 HD
ENDBRANCH  16  19
ENDBRANCH   3  13
BRANCH  10  21
ATOM     21  O   UNL     1       5.425 -14.054   8.571  1.00  0.00    -0.507 OA
ATOM     22  H   UNL     1       5.334 -13.803   9.545  1.00  0.00     0.293 HD
ENDBRANCH  10  21
BRANCH  11  23
ATOM     23  O   UNL     1       7.843 -15.114   4.583  1.00  0.00    -0.508 OA
ATOM     24  H   UNL     1       8.732 -15.168   4.109  1.00  0.00     0.293 HD
ENDBRANCH  11  23
ENDBRANCH   1   2
BRANCH   1  25
ATOM     25  C   UNL     1       9.553 -16.064  13.068  1.00  0.00     0.339 C 
ATOM     26  C   UNL     1       9.794 -14.552  12.912  1.00  0.00     0.214 C 
ATOM     27  O   UNL     1       9.298 -16.375  14.425  1.00  0.00    -0.332 OA
ATOM     28  C   UNL     1      10.789 -14.014  13.982  1.00  0.00     0.180 C 
ATOM     29  C   UNL     1      10.428 -16.180  15.273  1.00  0.00     0.179 C 
ATOM     30  C   UNL     1      11.486 -15.163  14.722  1.00  0.00     0.177 C 
BRANCH  26  31
ATOM     31  O   UNL     1       8.563 -13.874  13.040  1.00  0.00    -0.384 OA
ATOM     32  H   UNL     1       7.965 -14.468  13.561  1.00  0.00     0.211 HD
ENDBRANCH  26  31
BRANCH  28  33
ATOM     33  O   UNL     1      11.755 -13.199  13.375  1.00  0.00    -0.387 OA
ATOM     34  H   UNL     1      12.388 -13.816  12.914  1.00  0.00     0.211 HD
ENDBRANCH  28  33
BRANCH  29  35
ATOM     35  C   UNL     1       9.900 -15.764  16.662  1.00  0.00     0.191 C 
BRANCH  35  36
ATOM     36  O   UNL     1      10.758 -16.223  17.668  1.00  0.00    -0.394 OA
ATOM     37  H   UNL     1      11.554 -15.629  17.660  1.00  0.00     0.210 HD
ENDBRANCH  35  36
ENDBRANCH  29  35
BRANCH  30  38
ATOM     38  O   UNL     1      12.310 -14.651  15.738  1.00  0.00    -0.387 OA
ATOM     39  H   UNL     1      12.737 -15.432  16.175  1.00  0.00     0.211 HD
ENDBRANCH  30  38
ENDBRANCH   1  25
TORSDOF 11
ENDMDL
MODEL 7
REMARK VINA RESULT:    -6.457      2.066      5.914
REMARK INTER + INTRA:         -10.636
REMARK INTER:                  -9.056
REMARK INTRA:                  -1.580
REMARK UNBOUND:                -1.348
REMARK SMILES O=c1c(O[C@@H]2O[C@H](CO)[C@H](O)[C@@H](O)[C@@H]2O)c(-c2ccc(O)cc2)oc2cc(O)cc(O)c12
REMARK SMILES IDX 4 1 3 2 16 3 24 4 2 5 25 6 1 7 32 8 26 9 30 10 27 11 29 12
REMARK SMILES IDX 17 13 18 14 19 15 20 16 23 17 22 18 21 19 31 21 28 23 5 25
REMARK SMILES IDX 14 26 6 27 12 28 7 29 10 30 15 31 13 33 8 35 9 36 11 38
REMARK H PARENT 21 20 31 22 28 24 15 32 13 34 9 37 11 39
REMARK Flexibility Score: inf
ROOT
ATOM      1  O   UNL     1       7.726 -14.731  13.431  1.00  0.00    -0.454 OA
ENDROOT
BRANCH   1   2
ATOM      2  C   UNL     1       8.312 -15.946  13.041  1.00  0.00     0.214 A 
ATOM      3  C   UNL     1       7.958 -16.541  11.818  1.00  0.00     0.180 A 
ATOM      4  O   UNL     1       8.475 -17.715  11.478  1.00  0.00    -0.452 OA
ATOM      5  C   UNL     1       9.172 -16.645  13.907  1.00  0.00     0.239 A 
ATOM      6  C   UNL     1       9.336 -18.383  12.238  1.00  0.00     0.146 A 
ATOM      7  O   UNL     1       9.342 -16.212  15.077  1.00  0.00    -0.285 OA
ATOM      8  C   UNL     1       9.759 -17.862  13.488  1.00  0.00     0.111 A 
ATOM      9  C   UNL     1       9.810 -19.619  11.790  1.00  0.00     0.094 A 
ATOM     10  C   UNL     1      10.691 -18.615  14.261  1.00  0.00     0.134 A 
ATOM     11  C   UNL     1      10.683 -20.371  12.578  1.00  0.00     0.123 A 
ATOM     12  C   UNL     1      11.109 -19.872  13.809  1.00  0.00     0.093 A 
BRANCH   3  13
ATOM     13  C   UNL     1       6.966 -15.930  10.912  1.00  0.00     0.021 A 
ATOM     14  C   UNL     1       5.589 -16.108  11.108  1.00  0.00     0.016 A 
ATOM     15  C   UNL     1       4.675 -15.545  10.214  1.00  0.00     0.047 A 
ATOM     16  C   UNL     1       5.126 -14.784   9.127  1.00  0.00     0.115 A 
ATOM     17  C   UNL     1       7.410 -15.136   9.842  1.00  0.00     0.016 A 
ATOM     18  C   UNL     1       6.494 -14.575   8.951  1.00  0.00     0.047 A 
BRANCH  16  19
ATOM     19  O   UNL     1       4.226 -14.236   8.220  1.00  0.00    -0.508 OA
ATOM     20  H   UNL     1       4.061 -14.668   7.319  1.00  0.00     0.293 HD
ENDBRANCH  16  19
ENDBRANCH   3  13
BRANCH  10  21
ATOM     21  O   UNL     1      11.266 -18.151  15.445  1.00  0.00    -0.507 OA
ATOM     22  H   UNL     1      11.363 -17.176  15.688  1.00  0.00     0.293 HD
ENDBRANCH  10  21
BRANCH  11  23
ATOM     23  O   UNL     1      11.154 -21.605  12.138  1.00  0.00    -0.508 OA
ATOM     24  H   UNL     1      10.535 -22.317  11.780  1.00  0.00     0.293 HD
ENDBRANCH  11  23
ENDBRANCH   1   2
BRANCH   1  25
ATOM     25  C   UNL     1       8.362 -13.449  13.338  1.00  0.00     0.339 C 
ATOM     26  C   UNL     1       8.172 -12.702  14.671  1.00  0.00     0.214 C 
ATOM     27  O   UNL     1       9.741 -13.582  13.051  1.00  0.00    -0.332 OA
ATOM     28  C   UNL     1       9.059 -11.425  14.746  1.00  0.00     0.180 C 
ATOM     29  C   UNL     1      10.386 -12.340  12.774  1.00  0.00     0.179 C 
ATOM     30  C   UNL     1       9.666 -11.086  13.379  1.00  0.00     0.177 C 
BRANCH  26  31
ATOM     31  O   UNL     1       8.509 -13.566  15.733  1.00  0.00    -0.384 OA
ATOM     32  H   UNL     1       9.306 -14.077  15.442  1.00  0.00     0.211 HD
ENDBRANCH  26  31
BRANCH  28  33
ATOM     33  O   UNL     1       8.299 -10.337  15.200  1.00  0.00    -0.387 OA
ATOM     34  H   UNL     1       8.759  -9.519  14.865  1.00  0.00     0.211 HD
ENDBRANCH  28  33
BRANCH  29  35
ATOM     35  C   UNL     1      11.846 -12.456  13.261  1.00  0.00     0.191 C 
BRANCH  35  36
ATOM     36  O   UNL     1      12.691 -11.683  12.456  1.00  0.00    -0.394 OA
ATOM     37  H   UNL     1      12.598 -10.743  12.762  1.00  0.00     0.210 HD
ENDBRANCH  35  36
ENDBRANCH  29  35
BRANCH  30  38
ATOM     38  O   UNL     1      10.530  -9.984  13.497  1.00  0.00    -0.387 OA
ATOM     39  H   UNL     1      10.901 -10.015  14.416  1.00  0.00     0.211 HD
ENDBRANCH  30  38
ENDBRANCH   1  25
TORSDOF 11
ENDMDL
MODEL 8
REMARK VINA RESULT:    -6.436      5.360      6.829
REMARK INTER + INTRA:         -10.605
REMARK INTER:                  -9.305
REMARK INTRA:                  -1.300
REMARK UNBOUND:                -1.348
REMARK SMILES O=c1c(O[C@@H]2O[C@H](CO)[C@H](O)[C@@H](O)[C@@H]2O)c(-c2ccc(O)cc2)oc2cc(O)cc(O)c12
REMARK SMILES IDX 4 1 3 2 16 3 24 4 2 5 25 6 1 7 32 8 26 9 30 10 27 11 29 12
REMARK SMILES IDX 17 13 18 14 19 15 20 16 23 17 22 18 21 19 31 21 28 23 5 25
REMARK SMILES IDX 14 26 6 27 12 28 7 29 10 30 15 31 13 33 8 35 9 36 11 38
REMARK H PARENT 21 20 31 22 28 24 15 32 13 34 9 37 11 39
REMARK Flexibility Score: inf
ROOT
ATOM      1  O   UNL     1      10.824 -16.689   7.903  1.00  0.00    -0.454 OA
ENDROOT
BRANCH   1   2
ATOM      2  C   UNL     1       9.520 -16.178   8.015  1.00  0.00     0.214 A 
ATOM      3  C   UNL     1       8.850 -16.217   9.250  1.00  0.00     0.180 A 
ATOM      4  O   UNL     1       7.600 -15.780   9.340  1.00  0.00    -0.452 OA
ATOM      5  C   UNL     1       8.821 -15.724   6.883  1.00  0.00     0.239 A 
ATOM      6  C   UNL     1       6.922 -15.289   8.309  1.00  0.00     0.146 A 
ATOM      7  O   UNL     1       9.345 -15.865   5.747  1.00  0.00    -0.285 OA
ATOM      8  C   UNL     1       7.513 -15.204   7.023  1.00  0.00     0.111 A 
ATOM      9  C   UNL     1       5.604 -14.867   8.512  1.00  0.00     0.094 A 
ATOM     10  C   UNL     1       6.743 -14.660   5.952  1.00  0.00     0.134 A 
ATOM     11  C   UNL     1       4.843 -14.385   7.445  1.00  0.00     0.123 A 
ATOM     12  C   UNL     1       5.411 -14.294   6.175  1.00  0.00     0.093 A 
BRANCH   3  13
ATOM     13  C   UNL     1       9.474 -16.795  10.457  1.00  0.00     0.021 A 
ATOM     14  C   UNL     1       9.591 -18.181  10.627  1.00  0.00     0.016 A 
ATOM     15  C   UNL     1      10.156 -18.699  11.796  1.00  0.00     0.047 A 
ATOM     16  C   UNL     1      10.622 -17.837  12.797  1.00  0.00     0.115 A 
ATOM     17  C   UNL     1       9.977 -15.936  11.449  1.00  0.00     0.016 A 
ATOM     18  C   UNL     1      10.539 -16.457  12.615  1.00  0.00     0.047 A 
BRANCH  16  19
ATOM     19  O   UNL     1      11.166 -18.342  13.973  1.00  0.00    -0.508 OA
ATOM     20  H   UNL     1      11.252 -17.766  14.801  1.00  0.00     0.293 HD
ENDBRANCH  16  19
ENDBRANCH   3  13
BRANCH  10  21
ATOM     21  O   UNL     1       7.256 -14.420   4.677  1.00  0.00    -0.507 OA
ATOM     22  H   UNL     1       7.939 -13.708   4.461  1.00  0.00     0.293 HD
ENDBRANCH  10  21
BRANCH  11  23
ATOM     23  O   UNL     1       3.529 -13.969   7.640  1.00  0.00    -0.508 OA
ATOM     24  H   UNL     1       3.221 -13.561   8.510  1.00  0.00     0.293 HD
ENDBRANCH  11  23
ENDBRANCH   1   2
BRANCH   1  25
ATOM     25  C   UNL     1      12.005 -15.892   7.746  1.00  0.00     0.339 C 
ATOM     26  C   UNL     1      12.693 -15.750   9.115  1.00  0.00     0.214 C 
ATOM     27  O   UNL     1      12.896 -16.477   6.815  1.00  0.00    -0.332 OA
ATOM     28  C   UNL     1      14.117 -15.134   8.983  1.00  0.00     0.180 C 
ATOM     29  C   UNL     1      14.005 -15.642   6.489  1.00  0.00     0.179 C 
ATOM     30  C   UNL     1      14.350 -14.566   7.577  1.00  0.00     0.177 C 
BRANCH  26  31
ATOM     31  O   UNL     1      12.792 -17.023   9.714  1.00  0.00    -0.384 OA
ATOM     32  H   UNL     1      12.683 -17.688   8.988  1.00  0.00     0.211 HD
ENDBRANCH  26  31
BRANCH  28  33
ATOM     33  O   UNL     1      14.290 -14.114   9.930  1.00  0.00    -0.387 OA
ATOM     34  H   UNL     1      13.506 -13.507   9.830  1.00  0.00     0.211 HD
ENDBRANCH  28  33
BRANCH  29  35
ATOM     35  C   UNL     1      15.208 -16.562   6.189  1.00  0.00     0.191 C 
BRANCH  35  36
ATOM     36  O   UNL     1      15.846 -16.161   5.009  1.00  0.00    -0.394 OA
ATOM     37  H   UNL     1      16.801 -16.013   5.236  1.00  0.00     0.210 HD
ENDBRANCH  35  36
ENDBRANCH  29  35
BRANCH  30  38
ATOM     38  O   UNL     1      15.670 -14.098   7.460  1.00  0.00    -0.387 OA
ATOM     39  H   UNL     1      15.674 -13.176   7.827  1.00  0.00     0.211 HD
ENDBRANCH  30  38
ENDBRANCH   1  25
TORSDOF 11
ENDMDL
MODEL 9
REMARK VINA RESULT:    -6.391      4.389      7.640
REMARK INTER + INTRA:         -10.541
REMARK INTER:                  -9.237
REMARK INTRA:                  -1.304
REMARK UNBOUND:                -1.348
REMARK SMILES O=c1c(O[C@@H]2O[C@H](CO)[C@H](O)[C@@H](O)[C@@H]2O)c(-c2ccc(O)cc2)oc2cc(O)cc(O)c12
REMARK SMILES IDX 4 1 3 2 16 3 24 4 2 5 25 6 1 7 32 8 26 9 30 10 27 11 29 12
REMARK SMILES IDX 17 13 18 14 19 15 20 16 23 17 22 18 21 19 31 21 28 23 5 25
REMARK SMILES IDX 14 26 6 27 12 28 7 29 10 30 15 31 13 33 8 35 9 36 11 38
REMARK H PARENT 21 20 31 22 28 24 15 32 13 34 9 37 11 39
REMARK Flexibility Score: inf
ROOT
ATOM      1  O   UNL     1      12.249 -16.963  13.548  1.00  0.00    -0.454 OA
ENDROOT
BRANCH   1   2
ATOM      2  C   UNL     1      12.378 -18.301  13.143  1.00  0.00     0.214 A 
ATOM      3  C   UNL     1      12.605 -18.612  11.792  1.00  0.00     0.180 A 
ATOM      4  O   UNL     1      12.675 -19.880  11.406  1.00  0.00    -0.452 OA
ATOM      5  C   UNL     1      12.172 -19.355  14.051  1.00  0.00     0.239 A 
ATOM      6  C   UNL     1      12.545 -20.906  12.238  1.00  0.00     0.146 A 
ATOM      7  O   UNL     1      11.780 -19.086  15.217  1.00  0.00    -0.285 OA
ATOM      8  C   UNL     1      12.318 -20.695  13.622  1.00  0.00     0.111 A 
ATOM      9  C   UNL     1      12.623 -22.203  11.724  1.00  0.00     0.094 A 
ATOM     10  C   UNL     1      12.194 -21.832  14.475  1.00  0.00     0.134 A 
ATOM     11  C   UNL     1      12.449 -23.308  12.560  1.00  0.00     0.123 A 
ATOM     12  C   UNL     1      12.226 -23.117  13.923  1.00  0.00     0.093 A 
BRANCH   3  13
ATOM     13  C   UNL     1      12.707 -17.563  10.758  1.00  0.00     0.021 A 
ATOM     14  C   UNL     1      13.931 -16.952  10.454  1.00  0.00     0.016 A 
ATOM     15  C   UNL     1      13.990 -15.938   9.494  1.00  0.00     0.047 A 
ATOM     16  C   UNL     1      12.831 -15.538   8.817  1.00  0.00     0.115 A 
ATOM     17  C   UNL     1      11.555 -17.183  10.049  1.00  0.00     0.016 A 
ATOM     18  C   UNL     1      11.618 -16.170   9.091  1.00  0.00     0.047 A 
BRANCH  16  19
ATOM     19  O   UNL     1      12.874 -14.516   7.875  1.00  0.00    -0.508 OA
ATOM     20  H   UNL     1      12.026 -14.150   7.459  1.00  0.00     0.293 HD
ENDBRANCH  16  19
ENDBRANCH   3  13
BRANCH  10  21
ATOM     21  O   UNL     1      12.087 -21.747  15.864  1.00  0.00    -0.507 OA
ATOM     22  H   UNL     1      12.774 -21.314  16.464  1.00  0.00     0.293 HD
ENDBRANCH  10  21
BRANCH  11  23
ATOM     23  O   UNL     1      12.521 -24.602  12.051  1.00  0.00    -0.508 OA
ATOM     24  H   UNL     1      11.694 -25.132  11.820  1.00  0.00     0.293 HD
ENDBRANCH  11  23
ENDBRANCH   1   2
BRANCH   1  25
ATOM     25  C   UNL     1      11.001 -16.286  13.753  1.00  0.00     0.339 C 
ATOM     26  C   UNL     1      10.947 -15.773  15.203  1.00  0.00     0.214 C 
ATOM     27  O   UNL     1      10.854 -15.204  12.852  1.00  0.00    -0.332 OA
ATOM     28  C   UNL     1       9.753 -14.798  15.424  1.00  0.00     0.180 C 
ATOM     29  C   UNL     1       9.560 -14.605  12.892  1.00  0.00     0.179 C 
ATOM     30  C   UNL     1       8.783 -14.825  14.236  1.00  0.00     0.177 C 
BRANCH  26  31
ATOM     31  O   UNL     1      12.153 -15.106  15.501  1.00  0.00    -0.384 OA
ATOM     32  H   UNL     1      12.161 -14.955  16.479  1.00  0.00     0.211 HD
ENDBRANCH  26  31
BRANCH  28  33
ATOM     33  O   UNL     1       9.062 -15.141  16.596  1.00  0.00    -0.387 OA
ATOM     34  H   UNL     1       8.125 -15.334  16.318  1.00  0.00     0.211 HD
ENDBRANCH  28  33
BRANCH  29  35
ATOM     35  C   UNL     1       9.731 -13.106  12.566  1.00  0.00     0.191 C 
BRANCH  35  36
ATOM     36  O   UNL     1       8.624 -12.633  11.852  1.00  0.00    -0.394 OA
ATOM     37  H   UNL     1       7.839 -12.713  12.455  1.00  0.00     0.210 HD
ENDBRANCH  35  36
ENDBRANCH  29  35
BRANCH  30  38
ATOM     38  O   UNL     1       7.767 -13.874  14.424  1.00  0.00    -0.387 OA
ATOM     39  H   UNL     1       7.463 -13.604  13.518  1.00  0.00     0.211 HD
ENDBRANCH  30  38
ENDBRANCH   1  25
TORSDOF 11
ENDMDL
