MODEL 1
REMARK VINA RESULT:    -5.892      0.000      0.000
REMARK INTER + INTRA:          -7.197
REMARK INTER:                  -6.925
REMARK INTRA:                  -0.272
REMARK UNBOUND:                -0.272
REMARK SMILES O=c1c(O)c(-c2ccc(O)cc2)oc2cc(O)cc(O)c12
REMARK SMILES IDX 5 1 3 2 2 3 1 4 21 5 19 6 18 7 16 8 15 9 14 10 13 11 6 12
REMARK SMILES IDX 7 13 8 14 9 15 12 16 11 17 10 18 4 20 20 22 17 24
REMARK H PARENT 10 19 4 21 20 23 17 25
REMARK Flexibility Score: inf
ROOT
ATOM      1  C   UNL     1     110.264 103.641 100.681  1.00  0.00     0.180 A 
ATOM      2  C   UNL     1     110.111 104.829 101.415  1.00  0.00     0.208 A 
ATOM      3  C   UNL     1     109.110 104.900 102.397  1.00  0.00     0.238 A 
ATOM      4  O   UNL     1     109.014 105.948 103.088  1.00  0.00    -0.285 OA
ATOM      5  C   UNL     1     108.264 103.788 102.621  1.00  0.00     0.111 A 
ATOM      6  C   UNL     1     107.191 103.763 103.562  1.00  0.00     0.134 A 
ATOM      7  C   UNL     1     106.502 102.565 103.793  1.00  0.00     0.093 A 
ATOM      8  C   UNL     1     106.806 101.409 103.069  1.00  0.00     0.123 A 
ATOM      9  C   UNL     1     107.812 101.440 102.107  1.00  0.00     0.094 A 
ATOM     10  C   UNL     1     108.541 102.610 101.880  1.00  0.00     0.146 A 
ATOM     11  O   UNL     1     109.497 102.592 100.960  1.00  0.00    -0.452 OA
ENDROOT
BRANCH   1  12
ATOM     12  C   UNL     1     111.279 103.498  99.613  1.00  0.00     0.021 A 
ATOM     13  C   UNL     1     111.013 104.008  98.331  1.00  0.00     0.016 A 
ATOM     14  C   UNL     1     111.967 103.903  97.314  1.00  0.00     0.047 A 
ATOM     15  C   UNL     1     113.204 103.305  97.569  1.00  0.00     0.115 A 
ATOM     16  C   UNL     1     112.534 102.914  99.868  1.00  0.00     0.016 A 
ATOM     17  C   UNL     1     113.487 102.813  98.850  1.00  0.00     0.047 A 
BRANCH  15  18
ATOM     18  O   UNL     1     114.145 103.207  96.546  1.00  0.00    -0.508 OA
ATOM     19  H   UNL     1     114.193 102.391  95.948  1.00  0.00     0.293 HD
ENDBRANCH  15  18
ENDBRANCH   1  12
BRANCH   2  20
ATOM     20  O   UNL     1     110.972 105.908 101.193  1.00  0.00    -0.502 OA
ATOM     21  H   UNL     1     110.965 106.739 101.773  1.00  0.00     0.293 HD
ENDBRANCH   2  20
BRANCH   6  22
ATOM     22  O   UNL     1     106.747 104.883 104.270  1.00  0.00    -0.507 OA
ATOM     23  H   UNL     1     105.779 105.102 104.450  1.00  0.00     0.293 HD
ENDBRANCH   6  22
BRANCH   8  24
ATOM     24  O   UNL     1     106.105 100.225 103.294  1.00  0.00    -0.508 OA
ATOM     25  H   UNL     1     105.145 100.232 103.616  1.00  0.00     0.293 HD
ENDBRANCH   8  24
TORSDOF 5
ENDMDL
MODEL 2
REMARK VINA RESULT:    -5.859      1.947      7.304
REMARK INTER + INTRA:          -7.159
REMARK INTER:                  -6.878
REMARK INTRA:                  -0.281
REMARK UNBOUND:                -0.272
REMARK SMILES O=c1c(O)c(-c2ccc(O)cc2)oc2cc(O)cc(O)c12
REMARK SMILES IDX 5 1 3 2 2 3 1 4 21 5 19 6 18 7 16 8 15 9 14 10 13 11 6 12
REMARK SMILES IDX 7 13 8 14 9 15 12 16 11 17 10 18 4 20 20 22 17 24
REMARK H PARENT 10 19 4 21 20 23 17 25
REMARK Flexibility Score: inf
ROOT
ATOM      1  C   UNL     1     110.437 104.495 100.149  1.00  0.00     0.180 A 
ATOM      2  C   UNL     1     111.316 103.407 100.023  1.00  0.00     0.208 A 
ATOM      3  C   UNL     1     112.234 103.390  98.960  1.00  0.00     0.238 A 
ATOM      4  O   UNL     1     113.055 102.440  98.884  1.00  0.00    -0.285 OA
ATOM      5  C   UNL     1     112.248 104.455  98.026  1.00  0.00     0.111 A 
ATOM      6  C   UNL     1     113.106 104.522  96.888  1.00  0.00     0.134 A 
ATOM      7  C   UNL     1     113.124 105.685  96.106  1.00  0.00     0.093 A 
ATOM      8  C   UNL     1     112.269 106.754  96.384  1.00  0.00     0.123 A 
ATOM      9  C   UNL     1     111.386 106.672  97.457  1.00  0.00     0.094 A 
ATOM     10  C   UNL     1     111.370 105.541  98.278  1.00  0.00     0.146 A 
ATOM     11  O   UNL     1     110.519 105.510  99.296  1.00  0.00    -0.452 OA
ENDROOT
BRANCH   1  12
ATOM     12  C   UNL     1     109.427 104.572 101.229  1.00  0.00     0.021 A 
ATOM     13  C   UNL     1     108.129 104.083 101.000  1.00  0.00     0.016 A 
ATOM     14  C   UNL     1     107.167 104.125 102.012  1.00  0.00     0.047 A 
ATOM     15  C   UNL     1     107.492 104.640 103.271  1.00  0.00     0.115 A 
ATOM     16  C   UNL     1     109.753 105.071 102.504  1.00  0.00     0.016 A 
ATOM     17  C   UNL     1     108.789 105.110 103.516  1.00  0.00     0.047 A 
BRANCH  15  18
ATOM     18  O   UNL     1     106.522 104.677 104.271  1.00  0.00    -0.508 OA
ATOM     19  H   UNL     1     106.528 105.394 104.987  1.00  0.00     0.293 HD
ENDBRANCH  15  18
ENDBRANCH   1  12
BRANCH   2  20
ATOM     20  O   UNL     1     111.301 102.377 100.968  1.00  0.00    -0.502 OA
ATOM     21  H   UNL     1     110.702 102.395 101.785  1.00  0.00     0.293 HD
ENDBRANCH   2  20
BRANCH   6  22
ATOM     22  O   UNL     1     113.932 103.476  96.470  1.00  0.00    -0.507 OA
ATOM     23  H   UNL     1     113.638 102.515  96.376  1.00  0.00     0.293 HD
ENDBRANCH   6  22
BRANCH   8  24
ATOM     24  O   UNL     1     112.284 107.899  95.590  1.00  0.00    -0.508 OA
ATOM     25  H   UNL     1     111.445 108.238  95.133  1.00  0.00     0.293 HD
ENDBRANCH   8  24
TORSDOF 5
ENDMDL
MODEL 3
REMARK VINA RESULT:    -5.829      9.732     11.160
REMARK INTER + INTRA:          -7.123
REMARK INTER:                  -6.836
REMARK INTRA:                  -0.287
REMARK UNBOUND:                -0.272
REMARK SMILES O=c1c(O)c(-c2ccc(O)cc2)oc2cc(O)cc(O)c12
REMARK SMILES IDX 5 1 3 2 2 3 1 4 21 5 19 6 18 7 16 8 15 9 14 10 13 11 6 12
REMARK SMILES IDX 7 13 8 14 9 15 12 16 11 17 10 18 4 20 20 22 17 24
REMARK H PARENT 10 19 4 21 20 23 17 25
REMARK Flexibility Score: inf
ROOT
ATOM      1  C   UNL     1     105.953 110.219  95.535  1.00  0.00     0.180 A 
ATOM      2  C   UNL     1     106.634 110.906  94.515  1.00  0.00     0.208 A 
ATOM      3  C   UNL     1     106.187 112.182  94.137  1.00  0.00     0.238 A 
ATOM      4  O   UNL     1     106.833 112.814  93.261  1.00  0.00    -0.285 OA
ATOM      5  C   UNL     1     105.055 112.748  94.771  1.00  0.00     0.111 A 
ATOM      6  C   UNL     1     104.490 114.016  94.439  1.00  0.00     0.134 A 
ATOM      7  C   UNL     1     103.449 114.534  95.221  1.00  0.00     0.093 A 
ATOM      8  C   UNL     1     102.910 113.800  96.281  1.00  0.00     0.123 A 
ATOM      9  C   UNL     1     103.416 112.536  96.574  1.00  0.00     0.094 A 
ATOM     10  C   UNL     1     104.478 112.008  95.836  1.00  0.00     0.146 A 
ATOM     11  O   UNL     1     104.935 110.804  96.156  1.00  0.00    -0.452 OA
ENDROOT
BRANCH   1  12
ATOM     12  C   UNL     1     106.350 108.861  95.972  1.00  0.00     0.021 A 
ATOM     13  C   UNL     1     105.856 107.740  95.284  1.00  0.00     0.016 A 
ATOM     14  C   UNL     1     106.235 106.450  95.666  1.00  0.00     0.047 A 
ATOM     15  C   UNL     1     107.125 106.264  96.728  1.00  0.00     0.115 A 
ATOM     16  C   UNL     1     107.260 108.668  97.028  1.00  0.00     0.016 A 
ATOM     17  C   UNL     1     107.640 107.376  97.406  1.00  0.00     0.047 A 
BRANCH  15  18
ATOM     18  O   UNL     1     107.494 104.972  97.098  1.00  0.00    -0.508 OA
ATOM     19  H   UNL     1     108.158 104.435  96.553  1.00  0.00     0.293 HD
ENDBRANCH  15  18
ENDBRANCH   1  12
BRANCH   2  20
ATOM     20  O   UNL     1     107.763 110.338  93.917  1.00  0.00    -0.502 OA
ATOM     21  H   UNL     1     108.330 110.836  93.241  1.00  0.00     0.293 HD
ENDBRANCH   2  20
BRANCH   6  22
ATOM     22  O   UNL     1     104.893 114.788  93.346  1.00  0.00    -0.507 OA
ATOM     23  H   UNL     1     104.676 115.765  93.223  1.00  0.00     0.293 HD
ENDBRANCH   6  22
BRANCH   8  24
ATOM     24  O   UNL     1     101.864 114.317  97.043  1.00  0.00    -0.508 OA
ATOM     25  H   UNL     1     101.571 115.282  96.955  1.00  0.00     0.293 HD
ENDBRANCH   8  24
TORSDOF 5
ENDMDL
MODEL 4
REMARK VINA RESULT:    -5.749      9.443     11.313
REMARK INTER + INTRA:          -7.029
REMARK INTER:                  -7.146
REMARK INTRA:                   0.117
REMARK UNBOUND:                -0.272
REMARK SMILES O=c1c(O)c(-c2ccc(O)cc2)oc2cc(O)cc(O)c12
REMARK SMILES IDX 5 1 3 2 2 3 1 4 21 5 19 6 18 7 16 8 15 9 14 10 13 11 6 12
REMARK SMILES IDX 7 13 8 14 9 15 12 16 11 17 10 18 4 20 20 22 17 24
REMARK H PARENT 10 19 4 21 20 23 17 25
REMARK Flexibility Score: inf
ROOT
ATOM      1  C   UNL     1     105.502 109.662  95.527  1.00  0.00     0.180 A 
ATOM      2  C   UNL     1     104.419 110.432  95.984  1.00  0.00     0.208 A 
ATOM      3  C   UNL     1     104.346 111.788  95.624  1.00  0.00     0.238 A 
ATOM      4  O   UNL     1     103.346 112.458  95.990  1.00  0.00    -0.285 OA
ATOM      5  C   UNL     1     105.366 112.360  94.825  1.00  0.00     0.111 A 
ATOM      6  C   UNL     1     105.416 113.731  94.435  1.00  0.00     0.134 A 
ATOM      7  C   UNL     1     106.402 114.158  93.535  1.00  0.00     0.093 A 
ATOM      8  C   UNL     1     107.378 113.276  93.065  1.00  0.00     0.123 A 
ATOM      9  C   UNL     1     107.373 111.949  93.488  1.00  0.00     0.094 A 
ATOM     10  C   UNL     1     106.381 111.485  94.356  1.00  0.00     0.146 A 
ATOM     11  O   UNL     1     106.408 110.211  94.726  1.00  0.00    -0.452 OA
ENDROOT
BRANCH   1  12
ATOM     12  C   UNL     1     105.660 108.234  95.885  1.00  0.00     0.021 A 
ATOM     13  C   UNL     1     106.125 107.325  94.920  1.00  0.00     0.016 A 
ATOM     14  C   UNL     1     106.302 105.977  95.243  1.00  0.00     0.047 A 
ATOM     15  C   UNL     1     106.034 105.522  96.538  1.00  0.00     0.115 A 
ATOM     16  C   UNL     1     105.410 107.774  97.192  1.00  0.00     0.016 A 
ATOM     17  C   UNL     1     105.590 106.425  97.513  1.00  0.00     0.047 A 
BRANCH  15  18
ATOM     18  O   UNL     1     106.214 104.175  96.845  1.00  0.00    -0.508 OA
ATOM     19  H   UNL     1     105.499 103.487  96.642  1.00  0.00     0.293 HD
ENDBRANCH  15  18
ENDBRANCH   1  12
BRANCH   2  20
ATOM     20  O   UNL     1     103.411 109.843  96.753  1.00  0.00    -0.502 OA
ATOM     21  H   UNL     1     103.485 108.902  97.120  1.00  0.00     0.293 HD
ENDBRANCH   2  20
BRANCH   6  22
ATOM     22  O   UNL     1     104.545 114.712  94.917  1.00  0.00    -0.507 OA
ATOM     23  H   UNL     1     104.771 115.692  94.995  1.00  0.00     0.293 HD
ENDBRANCH   6  22
BRANCH   8  24
ATOM     24  O   UNL     1     108.365 113.713  92.184  1.00  0.00    -0.508 OA
ATOM     25  H   UNL     1     108.389 113.403  91.219  1.00  0.00     0.293 HD
ENDBRANCH   8  24
TORSDOF 5
ENDMDL
MODEL 5
REMARK VINA RESULT:    -5.742      3.166      6.700
REMARK INTER + INTRA:          -7.021
REMARK INTER:                  -6.984
REMARK INTRA:                  -0.037
REMARK UNBOUND:                -0.272
REMARK SMILES O=c1c(O)c(-c2ccc(O)cc2)oc2cc(O)cc(O)c12
REMARK SMILES IDX 5 1 3 2 2 3 1 4 21 5 19 6 18 7 16 8 15 9 14 10 13 11 6 12
REMARK SMILES IDX 7 13 8 14 9 15 12 16 11 17 10 18 4 20 20 22 17 24
REMARK H PARENT 10 19 4 21 20 23 17 25
REMARK Flexibility Score: inf
ROOT
ATOM      1  C   UNL     1     111.701 106.348 101.404  1.00  0.00     0.180 A 
ATOM      2  C   UNL     1     110.627 105.483 101.674  1.00  0.00     0.208 A 
ATOM      3  C   UNL     1     110.432 104.361 100.853  1.00  0.00     0.238 A 
ATOM      4  O   UNL     1     109.502 103.561 101.133  1.00  0.00    -0.285 OA
ATOM      5  C   UNL     1     111.304 104.127  99.762  1.00  0.00     0.111 A 
ATOM      6  C   UNL     1     111.176 103.045  98.840  1.00  0.00     0.134 A 
ATOM      7  C   UNL     1     112.171 102.837  97.877  1.00  0.00     0.093 A 
ATOM      8  C   UNL     1     113.256 103.711  97.762  1.00  0.00     0.123 A 
ATOM      9  C   UNL     1     113.357 104.804  98.618  1.00  0.00     0.094 A 
ATOM     10  C   UNL     1     112.399 105.017  99.612  1.00  0.00     0.146 A 
ATOM     11  O   UNL     1     112.540 106.066 100.413  1.00  0.00    -0.452 OA
ENDROOT
BRANCH   1  12
ATOM     12  C   UNL     1     111.956 107.564 102.209  1.00  0.00     0.021 A 
ATOM     13  C   UNL     1     113.241 107.793 102.729  1.00  0.00     0.016 A 
ATOM     14  C   UNL     1     113.509 108.946 103.474  1.00  0.00     0.047 A 
ATOM     15  C   UNL     1     112.503 109.891 103.695  1.00  0.00     0.115 A 
ATOM     16  C   UNL     1     110.953 108.528 102.419  1.00  0.00     0.016 A 
ATOM     17  C   UNL     1     111.224 109.681 103.163  1.00  0.00     0.047 A 
BRANCH  15  18
ATOM     18  O   UNL     1     112.784 111.034 104.440  1.00  0.00    -0.508 OA
ATOM     19  H   UNL     1     112.589 111.961 104.080  1.00  0.00     0.293 HD
ENDBRANCH  15  18
ENDBRANCH   1  12
BRANCH   2  20
ATOM     20  O   UNL     1     109.792 105.720 102.770  1.00  0.00    -0.502 OA
ATOM     21  H   UNL     1     109.722 105.079 103.550  1.00  0.00     0.293 HD
ENDBRANCH   2  20
BRANCH   6  22
ATOM     22  O   UNL     1     110.087 102.169  98.811  1.00  0.00    -0.507 OA
ATOM     23  H   UNL     1     109.845 101.529  99.553  1.00  0.00     0.293 HD
ENDBRANCH   6  22
BRANCH   8  24
ATOM     24  O   UNL     1     114.233 103.505  96.789  1.00  0.00    -0.508 OA
ATOM     25  H   UNL     1     115.091 103.008  96.997  1.00  0.00     0.293 HD
ENDBRANCH   8  24
TORSDOF 5
ENDMDL
MODEL 6
REMARK VINA RESULT:    -5.727      5.543      7.964
REMARK INTER + INTRA:          -7.003
REMARK INTER:                  -6.704
REMARK INTRA:                  -0.300
REMARK UNBOUND:                -0.272
REMARK SMILES O=c1c(O)c(-c2ccc(O)cc2)oc2cc(O)cc(O)c12
REMARK SMILES IDX 5 1 3 2 2 3 1 4 21 5 19 6 18 7 16 8 15 9 14 10 13 11 6 12
REMARK SMILES IDX 7 13 8 14 9 15 12 16 11 17 10 18 4 20 20 22 17 24
REMARK H PARENT 10 19 4 21 20 23 17 25
REMARK Flexibility Score: inf
ROOT
ATOM      1  C   UNL     1     106.300 103.303  96.973  1.00  0.00     0.180 A 
ATOM      2  C   UNL     1     106.599 103.337  95.600  1.00  0.00     0.208 A 
ATOM      3  C   UNL     1     107.487 102.387  95.071  1.00  0.00     0.238 A 
ATOM      4  O   UNL     1     107.708 102.389  93.832  1.00  0.00    -0.285 OA
ATOM      5  C   UNL     1     108.079 101.425  95.925  1.00  0.00     0.111 A 
ATOM      6  C   UNL     1     109.024 100.442  95.505  1.00  0.00     0.134 A 
ATOM      7  C   UNL     1     109.445  99.458  96.410  1.00  0.00     0.093 A 
ATOM      8  C   UNL     1     109.004  99.462  97.736  1.00  0.00     0.123 A 
ATOM      9  C   UNL     1     108.128 100.454  98.170  1.00  0.00     0.094 A 
ATOM     10  C   UNL     1     107.662 101.427  97.282  1.00  0.00     0.146 A 
ATOM     11  O   UNL     1     106.820 102.347  97.735  1.00  0.00    -0.452 OA
ENDROOT
BRANCH   1  12
ATOM     12  C   UNL     1     105.392 104.285  97.607  1.00  0.00     0.021 A 
ATOM     13  C   UNL     1     104.035 103.964  97.779  1.00  0.00     0.016 A 
ATOM     14  C   UNL     1     103.166 104.869  98.395  1.00  0.00     0.047 A 
ATOM     15  C   UNL     1     103.643 106.097  98.862  1.00  0.00     0.115 A 
ATOM     16  C   UNL     1     105.871 105.515  98.096  1.00  0.00     0.016 A 
ATOM     17  C   UNL     1     104.999 106.417  98.714  1.00  0.00     0.047 A 
BRANCH  15  18
ATOM     18  O   UNL     1     102.764 106.990  99.474  1.00  0.00    -0.508 OA
ATOM     19  H   UNL     1     103.032 107.947  99.666  1.00  0.00     0.293 HD
ENDBRANCH  15  18
ENDBRANCH   1  12
BRANCH   2  20
ATOM     20  O   UNL     1     105.986 104.281  94.770  1.00  0.00    -0.502 OA
ATOM     21  H   UNL     1     105.044 104.167  94.418  1.00  0.00     0.293 HD
ENDBRANCH   2  20
BRANCH   6  22
ATOM     22  O   UNL     1     109.596 100.403  94.231  1.00  0.00    -0.507 OA
ATOM     23  H   UNL     1     109.075 100.391  93.368  1.00  0.00     0.293 HD
ENDBRANCH   6  22
BRANCH   8  24
ATOM     24  O   UNL     1     109.440  98.489  98.632  1.00  0.00    -0.508 OA
ATOM     25  H   UNL     1     108.845  97.717  98.908  1.00  0.00     0.293 HD
ENDBRANCH   8  24
TORSDOF 5
ENDMDL
MODEL 7
REMARK VINA RESULT:    -5.701      4.555      6.250
REMARK INTER + INTRA:          -6.973
REMARK INTER:                  -6.677
REMARK INTRA:                  -0.296
REMARK UNBOUND:                -0.272
REMARK SMILES O=c1c(O)c(-c2ccc(O)cc2)oc2cc(O)cc(O)c12
REMARK SMILES IDX 5 1 3 2 2 3 1 4 21 5 19 6 18 7 16 8 15 9 14 10 13 11 6 12
REMARK SMILES IDX 7 13 8 14 9 15 12 16 11 17 10 18 4 20 20 22 17 24
REMARK H PARENT 10 19 4 21 20 23 17 25
REMARK Flexibility Score: inf
ROOT
ATOM      1  C   UNL     1     110.283 102.156  97.058  1.00  0.00     0.180 A 
ATOM      2  C   UNL     1     110.128 101.212  98.087  1.00  0.00     0.208 A 
ATOM      3  C   UNL     1     109.179 100.188  97.937  1.00  0.00     0.238 A 
ATOM      4  O   UNL     1     109.084  99.315  98.838  1.00  0.00    -0.285 OA
ATOM      5  C   UNL     1     108.384 100.131  96.767  1.00  0.00     0.111 A 
ATOM      6  C   UNL     1     107.364  99.163  96.527  1.00  0.00     0.134 A 
ATOM      7  C   UNL     1     106.730  99.122  95.278  1.00  0.00     0.093 A 
ATOM      8  C   UNL     1     107.035 100.057  94.285  1.00  0.00     0.123 A 
ATOM      9  C   UNL     1     107.986 101.043  94.532  1.00  0.00     0.094 A 
ATOM     10  C   UNL     1     108.662 101.087  95.755  1.00  0.00     0.146 A 
ATOM     11  O   UNL     1     109.568 102.037  95.944  1.00  0.00    -0.452 OA
ENDROOT
BRANCH   1  12
ATOM     12  C   UNL     1     111.245 103.277  97.154  1.00  0.00     0.021 A 
ATOM     13  C   UNL     1     112.510 103.158  96.554  1.00  0.00     0.016 A 
ATOM     14  C   UNL     1     113.425 104.212  96.614  1.00  0.00     0.047 A 
ATOM     15  C   UNL     1     113.083 105.405  97.258  1.00  0.00     0.115 A 
ATOM     16  C   UNL     1     110.899 104.487  97.784  1.00  0.00     0.016 A 
ATOM     17  C   UNL     1     111.816 105.541  97.841  1.00  0.00     0.047 A 
BRANCH  15  18
ATOM     18  O   UNL     1     114.005 106.448  97.311  1.00  0.00    -0.508 OA
ATOM     19  H   UNL     1     114.951 106.300  97.642  1.00  0.00     0.293 HD
ENDBRANCH  15  18
ENDBRANCH   1  12
BRANCH   2  20
ATOM     20  O   UNL     1     110.938 101.273  99.225  1.00  0.00    -0.502 OA
ATOM     21  H   UNL     1     110.563 101.229 100.164  1.00  0.00     0.293 HD
ENDBRANCH   2  20
BRANCH   6  22
ATOM     22  O   UNL     1     106.920  98.243  97.482  1.00  0.00    -0.507 OA
ATOM     23  H   UNL     1     106.923  97.242  97.359  1.00  0.00     0.293 HD
ENDBRANCH   6  22
BRANCH   8  24
ATOM     24  O   UNL     1     106.387 100.019  93.052  1.00  0.00    -0.508 OA
ATOM     25  H   UNL     1     105.391  99.848  92.981  1.00  0.00     0.293 HD
ENDBRANCH   8  24
TORSDOF 5
ENDMDL
MODEL 8
REMARK VINA RESULT:    -5.635      6.165      6.875
REMARK INTER + INTRA:          -6.895
REMARK INTER:                  -6.597
REMARK INTRA:                  -0.298
REMARK UNBOUND:                -0.272
REMARK SMILES O=c1c(O)c(-c2ccc(O)cc2)oc2cc(O)cc(O)c12
REMARK SMILES IDX 5 1 3 2 2 3 1 4 21 5 19 6 18 7 16 8 15 9 14 10 13 11 6 12
REMARK SMILES IDX 7 13 8 14 9 15 12 16 11 17 10 18 4 20 20 22 17 24
REMARK H PARENT 10 19 4 21 20 23 17 25
REMARK Flexibility Score: inf
ROOT
ATOM      1  C   UNL     1     104.811 105.910  98.309  1.00  0.00     0.180 A 
ATOM      2  C   UNL     1     105.409 105.626  99.549  1.00  0.00     0.208 A 
ATOM      3  C   UNL     1     104.761 104.748 100.433  1.00  0.00     0.238 A 
ATOM      4  O   UNL     1     105.328 104.455 101.517  1.00  0.00    -0.285 OA
ATOM      5  C   UNL     1     103.516 104.178 100.073  1.00  0.00     0.111 A 
ATOM      6  C   UNL     1     102.752 103.309 100.908  1.00  0.00     0.134 A 
ATOM      7  C   UNL     1     101.597 102.701 100.397  1.00  0.00     0.093 A 
ATOM      8  C   UNL     1     101.145 102.983  99.105  1.00  0.00     0.123 A 
ATOM      9  C   UNL     1     101.852 103.877  98.306  1.00  0.00     0.094 A 
ATOM     10  C   UNL     1     103.027 104.471  98.773  1.00  0.00     0.146 A 
ATOM     11  O   UNL     1     103.675 105.309  97.974  1.00  0.00    -0.452 OA
ENDROOT
BRANCH   1  12
ATOM     12  C   UNL     1     105.421 106.844  97.336  1.00  0.00     0.021 A 
ATOM     13  C   UNL     1     106.217 106.338  96.295  1.00  0.00     0.016 A 
ATOM     14  C   UNL     1     106.784 107.200  95.353  1.00  0.00     0.047 A 
ATOM     15  C   UNL     1     106.550 108.577  95.427  1.00  0.00     0.115 A 
ATOM     16  C   UNL     1     105.173 108.229  97.394  1.00  0.00     0.016 A 
ATOM     17  C   UNL     1     105.740 109.089  96.449  1.00  0.00     0.047 A 
BRANCH  15  18
ATOM     18  O   UNL     1     107.122 109.425  94.481  1.00  0.00    -0.508 OA
ATOM     19  H   UNL     1     108.127 109.508  94.385  1.00  0.00     0.293 HD
ENDBRANCH  15  18
ENDBRANCH   1  12
BRANCH   2  20
ATOM     20  O   UNL     1     106.649 106.181  99.875  1.00  0.00    -0.502 OA
ATOM     21  H   UNL     1     107.395 105.640 100.295  1.00  0.00     0.293 HD
ENDBRANCH   2  20
BRANCH   6  22
ATOM     22  O   UNL     1     103.065 103.032 102.241  1.00  0.00    -0.507 OA
ATOM     23  H   UNL     1     103.094 103.719 102.978  1.00  0.00     0.293 HD
ENDBRANCH   6  22
BRANCH   8  24
ATOM     24  O   UNL     1      99.987 102.386  98.612  1.00  0.00    -0.508 OA
ATOM     25  H   UNL     1      99.329 102.900  98.038  1.00  0.00     0.293 HD
ENDBRANCH   8  24
TORSDOF 5
ENDMDL
MODEL 9
REMARK VINA RESULT:    -5.571      5.825      6.991
REMARK INTER + INTRA:          -6.820
REMARK INTER:                  -6.531
REMARK INTRA:                  -0.289
REMARK UNBOUND:                -0.272
REMARK SMILES O=c1c(O)c(-c2ccc(O)cc2)oc2cc(O)cc(O)c12
REMARK SMILES IDX 5 1 3 2 2 3 1 4 21 5 19 6 18 7 16 8 15 9 14 10 13 11 6 12
REMARK SMILES IDX 7 13 8 14 9 15 12 16 11 17 10 18 4 20 20 22 17 24
REMARK H PARENT 10 19 4 21 20 23 17 25
REMARK Flexibility Score: inf
ROOT
ATOM      1  C   UNL     1     106.769 103.886  96.685  1.00  0.00     0.180 A 
ATOM      2  C   UNL     1     106.008 103.806  97.863  1.00  0.00     0.208 A 
ATOM      3  C   UNL     1     105.326 104.948  98.314  1.00  0.00     0.238 A 
ATOM      4  O   UNL     1     104.602 104.856  99.339  1.00  0.00    -0.285 OA
ATOM      5  C   UNL     1     105.428 106.160  97.589  1.00  0.00     0.111 A 
ATOM      6  C   UNL     1     104.813 107.389  97.975  1.00  0.00     0.134 A 
ATOM      7  C   UNL     1     104.874 108.492  97.113  1.00  0.00     0.093 A 
ATOM      8  C   UNL     1     105.582 108.428  95.910  1.00  0.00     0.123 A 
ATOM      9  C   UNL     1     106.235 107.251  95.554  1.00  0.00     0.094 A 
ATOM     10  C   UNL     1     106.163 106.123  96.375  1.00  0.00     0.146 A 
ATOM     11  O   UNL     1     106.792 105.019  95.992  1.00  0.00    -0.452 OA
ENDROOT
BRANCH   1  12
ATOM     12  C   UNL     1     107.535 102.732  96.161  1.00  0.00     0.021 A 
ATOM     13  C   UNL     1     108.853 102.519  96.599  1.00  0.00     0.016 A 
ATOM     14  C   UNL     1     109.585 101.423  96.134  1.00  0.00     0.047 A 
ATOM     15  C   UNL     1     109.007 100.518  95.239  1.00  0.00     0.115 A 
ATOM     16  C   UNL     1     106.951 101.807  95.275  1.00  0.00     0.016 A 
ATOM     17  C   UNL     1     107.686 100.711  94.813  1.00  0.00     0.047 A 
BRANCH  15  18
ATOM     18  O   UNL     1     109.749  99.431  94.783  1.00  0.00    -0.508 OA
ATOM     19  H   UNL     1     109.588  98.495  95.136  1.00  0.00     0.293 HD
ENDBRANCH  15  18
ENDBRANCH   1  12
BRANCH   2  20
ATOM     20  O   UNL     1     105.902 102.594  98.552  1.00  0.00    -0.502 OA
ATOM     21  H   UNL     1     105.393 101.801  98.183  1.00  0.00     0.293 HD
ENDBRANCH   2  20
BRANCH   6  22
ATOM     22  O   UNL     1     104.160 107.586  99.194  1.00  0.00    -0.507 OA
ATOM     23  H   UNL     1     103.521 108.342  99.388  1.00  0.00     0.293 HD
ENDBRANCH   6  22
BRANCH   8  24
ATOM     24  O   UNL     1     105.650 109.536  95.067  1.00  0.00    -0.508 OA
ATOM     25  H   UNL     1     106.174 109.511  94.200  1.00  0.00     0.293 HD
ENDBRANCH   8  24
TORSDOF 5
ENDMDL
