MODEL 1
REMARK VINA RESULT:    -6.698      0.000      0.000
REMARK INTER + INTRA:          -8.627
REMARK INTER:                  -8.264
REMARK INTRA:                  -0.363
REMARK UNBOUND:                -0.363
REMARK SMILES Oc1cc(O)c2cc(O)c(-c3cc(O)c(O)c(O)c3)[o+]c2c1
REMARK SMILES IDX 10 1 20 2 21 3 22 4 2 5 3 6 4 7 6 8 7 9 8 10 11 11 12 12
REMARK SMILES IDX 13 13 19 14 15 15 17 16 14 17 16 19 18 21 9 23 1 25 5 27
REMARK H PARENT 14 18 16 20 18 22 9 24 1 26 5 28
REMARK Flexibility Score: inf
ROOT
ATOM      1  C   UNL     1     107.386 122.091 119.205  1.00  0.00     0.402 A 
ATOM      2  O   UNL     1     106.188 121.748 119.670  1.00  0.00    -0.202 OA
ATOM      3  C   UNL     1     105.082 122.439 119.418  1.00  0.00     0.368 A 
ATOM      4  C   UNL     1     103.868 122.002 119.956  1.00  0.00     0.162 A 
ATOM      5  C   UNL     1     102.690 122.711 119.709  1.00  0.00     0.128 A 
ATOM      6  C   UNL     1     102.726 123.865 118.922  1.00  0.00     0.093 A 
ATOM      7  C   UNL     1     103.929 124.325 118.372  1.00  0.00     0.136 A 
ATOM      8  C   UNL     1     105.127 123.607 118.618  1.00  0.00     0.125 A 
ATOM      9  C   UNL     1     106.375 123.985 118.098  1.00  0.00     0.078 A 
ATOM     10  C   UNL     1     107.514 123.223 118.380  1.00  0.00     0.223 A 
ENDROOT
BRANCH   1  11
ATOM     11  C   UNL     1     108.546 121.243 119.564  1.00  0.00     0.091 A 
ATOM     12  C   UNL     1     108.848 120.075 118.844  1.00  0.00     0.068 A 
ATOM     13  C   UNL     1     109.961 119.292 119.177  1.00  0.00     0.162 A 
ATOM     14  C   UNL     1     109.397 121.641 120.604  1.00  0.00     0.068 A 
ATOM     15  C   UNL     1     110.799 119.688 120.247  1.00  0.00     0.200 A 
ATOM     16  C   UNL     1     110.510 120.866 120.949  1.00  0.00     0.162 A 
BRANCH  13  17
ATOM     17  O   UNL     1     110.197 118.144 118.419  1.00  0.00    -0.504 OA
ATOM     18  H   UNL     1     110.469 117.254 118.810  1.00  0.00     0.293 HD
ENDBRANCH  13  17
BRANCH  15  19
ATOM     19  O   UNL     1     111.918 118.949 120.636  1.00  0.00    -0.502 OA
ATOM     20  H   UNL     1     112.073 117.983 120.386  1.00  0.00     0.293 HD
ENDBRANCH  15  19
BRANCH  16  21
ATOM     21  O   UNL     1     111.341 121.263 121.997  1.00  0.00    -0.504 OA
ATOM     22  H   UNL     1     112.069 120.658 122.356  1.00  0.00     0.293 HD
ENDBRANCH  16  21
ENDBRANCH   1  11
BRANCH  10  23
ATOM     23  O   UNL     1     108.744 123.571 117.822  1.00  0.00    -0.500 OA
ATOM     24  H   UNL     1     109.308 122.901 117.314  1.00  0.00     0.294 HD
ENDBRANCH  10  23
BRANCH   5  25
ATOM     25  O   UNL     1     101.477 122.281 120.240  1.00  0.00    -0.507 OA
ATOM     26  H   UNL     1     100.846 121.690 119.710  1.00  0.00     0.293 HD
ENDBRANCH   5  25
BRANCH   7  27
ATOM     27  O   UNL     1     103.879 125.489 117.599  1.00  0.00    -0.507 OA
ATOM     28  H   UNL     1     103.814 125.502 116.591  1.00  0.00     0.293 HD
ENDBRANCH   7  27
TORSDOF 7
ENDMDL
MODEL 2
REMARK VINA RESULT:    -6.648      1.028      3.160
REMARK INTER + INTRA:          -8.566
REMARK INTER:                  -8.187
REMARK INTRA:                  -0.379
REMARK UNBOUND:                -0.363
REMARK SMILES Oc1cc(O)c2cc(O)c(-c3cc(O)c(O)c(O)c3)[o+]c2c1
REMARK SMILES IDX 10 1 20 2 21 3 22 4 2 5 3 6 4 7 6 8 7 9 8 10 11 11 12 12
REMARK SMILES IDX 13 13 19 14 15 15 17 16 14 17 16 19 18 21 9 23 1 25 5 27
REMARK H PARENT 14 18 16 20 18 22 9 24 1 26 5 28
REMARK Flexibility Score: inf
ROOT
ATOM      1  C   UNL     1     106.819 121.252 120.148  1.00  0.00     0.402 A 
ATOM      2  O   UNL     1     106.584 122.332 119.408  1.00  0.00    -0.202 OA
ATOM      3  C   UNL     1     105.368 122.828 119.205  1.00  0.00     0.368 A 
ATOM      4  C   UNL     1     105.221 123.966 118.407  1.00  0.00     0.162 A 
ATOM      5  C   UNL     1     103.954 124.506 118.175  1.00  0.00     0.128 A 
ATOM      6  C   UNL     1     102.827 123.905 118.741  1.00  0.00     0.093 A 
ATOM      7  C   UNL     1     102.947 122.763 119.544  1.00  0.00     0.136 A 
ATOM      8  C   UNL     1     104.232 122.212 119.784  1.00  0.00     0.125 A 
ATOM      9  C   UNL     1     104.449 121.079 120.585  1.00  0.00     0.078 A 
ATOM     10  C   UNL     1     105.747 120.596 120.781  1.00  0.00     0.223 A 
ENDROOT
BRANCH   1  11
ATOM     11  C   UNL     1     108.219 120.792 120.291  1.00  0.00     0.091 A 
ATOM     12  C   UNL     1     109.029 121.235 121.350  1.00  0.00     0.068 A 
ATOM     13  C   UNL     1     110.345 120.776 121.490  1.00  0.00     0.162 A 
ATOM     14  C   UNL     1     108.733 119.851 119.389  1.00  0.00     0.068 A 
ATOM     15  C   UNL     1     110.863 119.846 120.558  1.00  0.00     0.200 A 
ATOM     16  C   UNL     1     110.047 119.386 119.516  1.00  0.00     0.162 A 
BRANCH  13  17
ATOM     17  O   UNL     1     111.091 121.263 122.566  1.00  0.00    -0.504 OA
ATOM     18  H   UNL     1     110.690 121.715 123.374  1.00  0.00     0.293 HD
ENDBRANCH  13  17
BRANCH  15  19
ATOM     19  O   UNL     1     112.169 119.356 120.635  1.00  0.00    -0.502 OA
ATOM     20  H   UNL     1     112.755 119.175 119.833  1.00  0.00     0.293 HD
ENDBRANCH  15  19
BRANCH  16  21
ATOM     21  O   UNL     1     110.553 118.461 118.603  1.00  0.00    -0.504 OA
ATOM     22  H   UNL     1     111.495 118.097 118.682  1.00  0.00     0.293 HD
ENDBRANCH  16  21
ENDBRANCH   1  11
BRANCH  10  23
ATOM     23  O   UNL     1     105.967 119.502 121.617  1.00  0.00    -0.500 OA
ATOM     24  H   UNL     1     106.112 119.612 122.613  1.00  0.00     0.294 HD
ENDBRANCH  10  23
BRANCH   5  25
ATOM     25  O   UNL     1     103.800 125.641 117.382  1.00  0.00    -0.507 OA
ATOM     26  H   UNL     1     103.514 126.529 117.779  1.00  0.00     0.293 HD
ENDBRANCH   5  25
BRANCH   7  27
ATOM     27  O   UNL     1     101.771 122.220 120.070  1.00  0.00    -0.507 OA
ATOM     28  H   UNL     1     101.723 121.686 120.926  1.00  0.00     0.293 HD
ENDBRANCH   7  27
TORSDOF 7
ENDMDL
MODEL 3
REMARK VINA RESULT:    -6.604      0.320      1.821
REMARK INTER + INTRA:          -8.512
REMARK INTER:                  -8.127
REMARK INTRA:                  -0.385
REMARK UNBOUND:                -0.363
REMARK SMILES Oc1cc(O)c2cc(O)c(-c3cc(O)c(O)c(O)c3)[o+]c2c1
REMARK SMILES IDX 10 1 20 2 21 3 22 4 2 5 3 6 4 7 6 8 7 9 8 10 11 11 12 12
REMARK SMILES IDX 13 13 19 14 15 15 17 16 14 17 16 19 18 21 9 23 1 25 5 27
REMARK H PARENT 14 18 16 20 18 22 9 24 1 26 5 28
REMARK Flexibility Score: inf
ROOT
ATOM      1  C   UNL     1     107.441 122.120 119.330  1.00  0.00     0.402 A 
ATOM      2  O   UNL     1     106.251 121.720 119.771  1.00  0.00    -0.202 OA
ATOM      3  C   UNL     1     105.112 122.321 119.444  1.00  0.00     0.368 A 
ATOM      4  C   UNL     1     103.911 121.830 119.962  1.00  0.00     0.162 A 
ATOM      5  C   UNL     1     102.699 122.445 119.637  1.00  0.00     0.128 A 
ATOM      6  C   UNL     1     102.688 123.558 118.793  1.00  0.00     0.093 A 
ATOM      7  C   UNL     1     103.879 124.071 118.262  1.00  0.00     0.136 A 
ATOM      8  C   UNL     1     105.111 123.448 118.587  1.00  0.00     0.125 A 
ATOM      9  C   UNL     1     106.351 123.884 118.092  1.00  0.00     0.078 A 
ATOM     10  C   UNL     1     107.525 123.216 118.452  1.00  0.00     0.223 A 
ENDROOT
BRANCH   1  11
ATOM     11  C   UNL     1     108.640 121.371 119.773  1.00  0.00     0.091 A 
ATOM     12  C   UNL     1     109.350 121.744 120.927  1.00  0.00     0.068 A 
ATOM     13  C   UNL     1     110.468 121.016 121.350  1.00  0.00     0.162 A 
ATOM     14  C   UNL     1     109.044 120.233 119.063  1.00  0.00     0.068 A 
ATOM     15  C   UNL     1     110.884 119.883 120.611  1.00  0.00     0.200 A 
ATOM     16  C   UNL     1     110.162 119.498 119.473  1.00  0.00     0.162 A 
BRANCH  13  17
ATOM     17  O   UNL     1     111.125 121.447 122.505  1.00  0.00    -0.504 OA
ATOM     18  H   UNL     1     112.126 121.555 122.579  1.00  0.00     0.293 HD
ENDBRANCH  13  17
BRANCH  15  19
ATOM     19  O   UNL     1     111.997 119.119 120.973  1.00  0.00    -0.502 OA
ATOM     20  H   UNL     1     112.794 118.961 120.375  1.00  0.00     0.293 HD
ENDBRANCH  15  19
BRANCH  16  21
ATOM     21  O   UNL     1     110.565 118.375 118.750  1.00  0.00    -0.504 OA
ATOM     22  H   UNL     1     111.544 118.159 118.605  1.00  0.00     0.293 HD
ENDBRANCH  16  21
ENDBRANCH   1  11
BRANCH  10  23
ATOM     23  O   UNL     1     108.750 123.618 117.920  1.00  0.00    -0.500 OA
ATOM     24  H   UNL     1     109.625 123.431 118.395  1.00  0.00     0.294 HD
ENDBRANCH  10  23
BRANCH   5  25
ATOM     25  O   UNL     1     101.497 121.960 120.148  1.00  0.00    -0.507 OA
ATOM     26  H   UNL     1     101.083 122.350 120.988  1.00  0.00     0.293 HD
ENDBRANCH   5  25
BRANCH   7  27
ATOM     27  O   UNL     1     103.782 125.189 117.429  1.00  0.00    -0.507 OA
ATOM     28  H   UNL     1     103.502 126.109 117.738  1.00  0.00     0.293 HD
ENDBRANCH   7  27
TORSDOF 7
ENDMDL
MODEL 4
REMARK VINA RESULT:    -5.980      2.120      7.334
REMARK INTER + INTRA:          -7.742
REMARK INTER:                  -7.519
REMARK INTRA:                  -0.223
REMARK UNBOUND:                -0.363
REMARK SMILES Oc1cc(O)c2cc(O)c(-c3cc(O)c(O)c(O)c3)[o+]c2c1
REMARK SMILES IDX 10 1 20 2 21 3 22 4 2 5 3 6 4 7 6 8 7 9 8 10 11 11 12 12
REMARK SMILES IDX 13 13 19 14 15 15 17 16 14 17 16 19 18 21 9 23 1 25 5 27
REMARK H PARENT 14 18 16 20 18 22 9 24 1 26 5 28
REMARK Flexibility Score: inf
ROOT
ATOM      1  C   UNL     1     106.283 121.490 119.942  1.00  0.00     0.402 A 
ATOM      2  O   UNL     1     107.599 121.626 119.804  1.00  0.00    -0.202 OA
ATOM      3  C   UNL     1     108.480 121.067 120.628  1.00  0.00     0.368 A 
ATOM      4  C   UNL     1     109.844 121.271 120.404  1.00  0.00     0.162 A 
ATOM      5  C   UNL     1     110.792 120.698 121.256  1.00  0.00     0.128 A 
ATOM      6  C   UNL     1     110.374 119.920 122.339  1.00  0.00     0.093 A 
ATOM      7  C   UNL     1     109.013 119.701 122.585  1.00  0.00     0.136 A 
ATOM      8  C   UNL     1     108.047 120.279 121.721  1.00  0.00     0.125 A 
ATOM      9  C   UNL     1     106.663 120.103 121.883  1.00  0.00     0.078 A 
ATOM     10  C   UNL     1     105.770 120.700 120.987  1.00  0.00     0.223 A 
ENDROOT
BRANCH   1  11
ATOM     11  C   UNL     1     105.403 122.170 118.963  1.00  0.00     0.091 A 
ATOM     12  C   UNL     1     105.362 123.571 118.867  1.00  0.00     0.068 A 
ATOM     13  C   UNL     1     104.544 124.203 117.922  1.00  0.00     0.162 A 
ATOM     14  C   UNL     1     104.638 121.403 118.074  1.00  0.00     0.068 A 
ATOM     15  C   UNL     1     103.754 123.420 117.047  1.00  0.00     0.200 A 
ATOM     16  C   UNL     1     103.813 122.022 117.128  1.00  0.00     0.162 A 
BRANCH  13  17
ATOM     17  O   UNL     1     104.553 125.599 117.886  1.00  0.00    -0.504 OA
ATOM     18  H   UNL     1     104.969 126.143 117.144  1.00  0.00     0.293 HD
ENDBRANCH  13  17
BRANCH  15  19
ATOM     19  O   UNL     1     102.910 123.988 116.089  1.00  0.00    -0.502 OA
ATOM     20  H   UNL     1     102.213 123.472 115.572  1.00  0.00     0.293 HD
ENDBRANCH  15  19
BRANCH  16  21
ATOM     21  O   UNL     1     103.044 121.250 116.258  1.00  0.00    -0.504 OA
ATOM     22  H   UNL     1     102.519 120.447 116.582  1.00  0.00     0.293 HD
ENDBRANCH  16  21
ENDBRANCH   1  11
BRANCH  10  23
ATOM     23  O   UNL     1     104.399 120.485 121.119  1.00  0.00    -0.500 OA
ATOM     24  H   UNL     1     103.946 120.468 122.024  1.00  0.00     0.294 HD
ENDBRANCH  10  23
BRANCH   5  25
ATOM     25  O   UNL     1     112.154 120.896 121.039  1.00  0.00    -0.507 OA
ATOM     26  H   UNL     1     112.779 121.154 121.795  1.00  0.00     0.293 HD
ENDBRANCH   5  25
BRANCH   7  27
ATOM     27  O   UNL     1     108.678 118.913 123.690  1.00  0.00    -0.507 OA
ATOM     28  H   UNL     1     108.170 118.042 123.636  1.00  0.00     0.293 HD
ENDBRANCH   7  27
TORSDOF 7
ENDMDL
MODEL 5
REMARK VINA RESULT:    -5.971      2.126      7.140
REMARK INTER + INTRA:          -7.730
REMARK INTER:                  -7.504
REMARK INTRA:                  -0.226
REMARK UNBOUND:                -0.363
REMARK SMILES Oc1cc(O)c2cc(O)c(-c3cc(O)c(O)c(O)c3)[o+]c2c1
REMARK SMILES IDX 10 1 20 2 21 3 22 4 2 5 3 6 4 7 6 8 7 9 8 10 11 11 12 12
REMARK SMILES IDX 13 13 19 14 15 15 17 16 14 17 16 19 18 21 9 23 1 25 5 27
REMARK H PARENT 14 18 16 20 18 22 9 24 1 26 5 28
REMARK Flexibility Score: inf
ROOT
ATOM      1  C   UNL     1     106.278 121.417 119.823  1.00  0.00     0.402 A 
ATOM      2  O   UNL     1     107.594 121.558 119.685  1.00  0.00    -0.202 OA
ATOM      3  C   UNL     1     108.477 121.026 120.524  1.00  0.00     0.368 A 
ATOM      4  C   UNL     1     109.840 121.234 120.299  1.00  0.00     0.162 A 
ATOM      5  C   UNL     1     110.790 120.689 121.167  1.00  0.00     0.128 A 
ATOM      6  C   UNL     1     110.375 119.934 122.267  1.00  0.00     0.093 A 
ATOM      7  C   UNL     1     109.014 119.712 122.515  1.00  0.00     0.136 A 
ATOM      8  C   UNL     1     108.046 120.262 121.635  1.00  0.00     0.125 A 
ATOM      9  C   UNL     1     106.663 120.080 121.798  1.00  0.00     0.078 A 
ATOM     10  C   UNL     1     105.769 120.649 120.886  1.00  0.00     0.223 A 
ENDROOT
BRANCH   1  11
ATOM     11  C   UNL     1     105.396 122.066 118.826  1.00  0.00     0.091 A 
ATOM     12  C   UNL     1     104.591 121.308 117.959  1.00  0.00     0.068 A 
ATOM     13  C   UNL     1     103.743 121.932 117.036  1.00  0.00     0.162 A 
ATOM     14  C   UNL     1     105.315 123.464 118.782  1.00  0.00     0.068 A 
ATOM     15  C   UNL     1     103.688 123.345 116.981  1.00  0.00     0.200 A 
ATOM     16  C   UNL     1     104.474 124.100 117.862  1.00  0.00     0.162 A 
BRANCH  13  17
ATOM     17  O   UNL     1     102.974 121.114 116.204  1.00  0.00    -0.504 OA
ATOM     18  H   UNL     1     102.105 120.682 116.483  1.00  0.00     0.293 HD
ENDBRANCH  13  17
BRANCH  15  19
ATOM     19  O   UNL     1     102.871 124.029 116.078  1.00  0.00    -0.502 OA
ATOM     20  H   UNL     1     102.128 123.598 115.547  1.00  0.00     0.293 HD
ENDBRANCH  15  19
BRANCH  16  21
ATOM     21  O   UNL     1     104.413 125.493 117.817  1.00  0.00    -0.504 OA
ATOM     22  H   UNL     1     105.250 126.061 117.769  1.00  0.00     0.293 HD
ENDBRANCH  16  21
ENDBRANCH   1  11
BRANCH  10  23
ATOM     23  O   UNL     1     104.398 120.426 121.019  1.00  0.00    -0.500 OA
ATOM     24  H   UNL     1     103.795 120.314 120.213  1.00  0.00     0.294 HD
ENDBRANCH  10  23
BRANCH   5  25
ATOM     25  O   UNL     1     112.150 120.891 120.948  1.00  0.00    -0.507 OA
ATOM     26  H   UNL     1     112.553 121.821 120.942  1.00  0.00     0.293 HD
ENDBRANCH   5  25
BRANCH   7  27
ATOM     27  O   UNL     1     108.682 118.949 123.638  1.00  0.00    -0.507 OA
ATOM     28  H   UNL     1     107.784 118.976 124.101  1.00  0.00     0.293 HD
ENDBRANCH   7  27
TORSDOF 7
ENDMDL
MODEL 6
REMARK VINA RESULT:    -5.867      1.915      6.897
REMARK INTER + INTRA:          -7.602
REMARK INTER:                  -7.539
REMARK INTRA:                  -0.063
REMARK UNBOUND:                -0.363
REMARK SMILES Oc1cc(O)c2cc(O)c(-c3cc(O)c(O)c(O)c3)[o+]c2c1
REMARK SMILES IDX 10 1 20 2 21 3 22 4 2 5 3 6 4 7 6 8 7 9 8 10 11 11 12 12
REMARK SMILES IDX 13 13 19 14 15 15 17 16 14 17 16 19 18 21 9 23 1 25 5 27
REMARK H PARENT 14 18 16 20 18 22 9 24 1 26 5 28
REMARK Flexibility Score: inf
ROOT
ATOM      1  C   UNL     1     106.875 122.002 119.394  1.00  0.00     0.402 A 
ATOM      2  O   UNL     1     106.816 121.178 120.437  1.00  0.00    -0.202 OA
ATOM      3  C   UNL     1     107.890 120.755 121.095  1.00  0.00     0.368 A 
ATOM      4  C   UNL     1     107.727 119.887 122.178  1.00  0.00     0.162 A 
ATOM      5  C   UNL     1     108.839 119.424 122.885  1.00  0.00     0.128 A 
ATOM      6  C   UNL     1     110.122 119.829 122.507  1.00  0.00     0.093 A 
ATOM      7  C   UNL     1     110.313 120.699 121.426  1.00  0.00     0.136 A 
ATOM      8  C   UNL     1     109.186 121.173 120.706  1.00  0.00     0.125 A 
ATOM      9  C   UNL     1     109.280 122.056 119.618  1.00  0.00     0.078 A 
ATOM     10  C   UNL     1     108.123 122.485 118.960  1.00  0.00     0.223 A 
ENDROOT
BRANCH   1  11
ATOM     11  C   UNL     1     105.607 122.395 118.738  1.00  0.00     0.091 A 
ATOM     12  C   UNL     1     105.292 123.744 118.505  1.00  0.00     0.068 A 
ATOM     13  C   UNL     1     104.100 124.104 117.864  1.00  0.00     0.162 A 
ATOM     14  C   UNL     1     104.726 121.402 118.287  1.00  0.00     0.068 A 
ATOM     15  C   UNL     1     103.205 123.095 117.436  1.00  0.00     0.200 A 
ATOM     16  C   UNL     1     103.531 121.748 117.648  1.00  0.00     0.162 A 
BRANCH  13  17
ATOM     17  O   UNL     1     103.853 125.465 117.669  1.00  0.00    -0.504 OA
ATOM     18  H   UNL     1     103.710 125.889 116.764  1.00  0.00     0.293 HD
ENDBRANCH  13  17
BRANCH  15  19
ATOM     19  O   UNL     1     101.996 123.386 116.799  1.00  0.00    -0.502 OA
ATOM     20  H   UNL     1     101.924 123.762 115.865  1.00  0.00     0.293 HD
ENDBRANCH  15  19
BRANCH  16  21
ATOM     21  O   UNL     1     102.654 120.753 117.216  1.00  0.00    -0.504 OA
ATOM     22  H   UNL     1     101.780 120.977 116.757  1.00  0.00     0.293 HD
ENDBRANCH  16  21
ENDBRANCH   1  11
BRANCH  10  23
ATOM     23  O   UNL     1     108.214 123.401 117.912  1.00  0.00    -0.500 OA
ATOM     24  H   UNL     1     107.856 123.192 116.988  1.00  0.00     0.294 HD
ENDBRANCH  10  23
BRANCH   5  25
ATOM     25  O   UNL     1     108.684 118.559 123.965  1.00  0.00    -0.507 OA
ATOM     26  H   UNL     1     108.600 117.557 123.834  1.00  0.00     0.293 HD
ENDBRANCH   5  25
BRANCH   7  27
ATOM     27  O   UNL     1     111.627 121.054 121.111  1.00  0.00    -0.507 OA
ATOM     28  H   UNL     1     112.446 120.650 121.542  1.00  0.00     0.293 HD
ENDBRANCH   7  27
TORSDOF 7
ENDMDL
MODEL 7
REMARK VINA RESULT:    -5.750      9.862     11.546
REMARK INTER + INTRA:          -7.458
REMARK INTER:                  -7.153
REMARK INTRA:                  -0.305
REMARK UNBOUND:                -0.363
REMARK SMILES Oc1cc(O)c2cc(O)c(-c3cc(O)c(O)c(O)c3)[o+]c2c1
REMARK SMILES IDX 10 1 20 2 21 3 22 4 2 5 3 6 4 7 6 8 7 9 8 10 11 11 12 12
REMARK SMILES IDX 13 13 19 14 15 15 17 16 14 17 16 19 18 21 9 23 1 25 5 27
REMARK H PARENT 14 18 16 20 18 22 9 24 1 26 5 28
REMARK Flexibility Score: inf
ROOT
ATOM      1  C   UNL     1     102.004 115.461 113.371  1.00  0.00     0.402 A 
ATOM      2  O   UNL     1     102.473 114.747 114.391  1.00  0.00    -0.202 OA
ATOM      3  C   UNL     1     102.060 113.515 114.670  1.00  0.00     0.368 A 
ATOM      4  C   UNL     1     102.609 112.845 115.767  1.00  0.00     0.162 A 
ATOM      5  C   UNL     1     102.191 111.550 116.084  1.00  0.00     0.128 A 
ATOM      6  C   UNL     1     101.218 110.922 115.303  1.00  0.00     0.093 A 
ATOM      7  C   UNL     1     100.651 111.572 114.198  1.00  0.00     0.136 A 
ATOM      8  C   UNL     1     101.074 112.886 113.871  1.00  0.00     0.125 A 
ATOM      9  C   UNL     1     100.572 113.609 112.776  1.00  0.00     0.078 A 
ATOM     10  C   UNL     1     101.042 114.899 112.512  1.00  0.00     0.223 A 
ENDROOT
BRANCH   1  11
ATOM     11  C   UNL     1     102.538 116.828 113.170  1.00  0.00     0.091 A 
ATOM     12  C   UNL     1     103.827 117.040 112.653  1.00  0.00     0.068 A 
ATOM     13  C   UNL     1     104.314 118.337 112.444  1.00  0.00     0.162 A 
ATOM     14  C   UNL     1     101.723 117.935 113.443  1.00  0.00     0.068 A 
ATOM     15  C   UNL     1     103.493 119.448 112.749  1.00  0.00     0.200 A 
ATOM     16  C   UNL     1     102.199 119.236 113.242  1.00  0.00     0.162 A 
BRANCH  13  17
ATOM     17  O   UNL     1     105.605 118.470 111.930  1.00  0.00    -0.504 OA
ATOM     18  H   UNL     1     105.867 119.145 111.226  1.00  0.00     0.293 HD
ENDBRANCH  13  17
BRANCH  15  19
ATOM     19  O   UNL     1     103.921 120.767 112.573  1.00  0.00    -0.502 OA
ATOM     20  H   UNL     1     103.759 121.508 113.239  1.00  0.00     0.293 HD
ENDBRANCH  15  19
BRANCH  16  21
ATOM     21  O   UNL     1     101.385 120.331 113.532  1.00  0.00    -0.504 OA
ATOM     22  H   UNL     1     101.024 120.933 112.803  1.00  0.00     0.293 HD
ENDBRANCH  16  21
ENDBRANCH   1  11
BRANCH  10  23
ATOM     23  O   UNL     1     100.580 115.597 111.397  1.00  0.00    -0.500 OA
ATOM     24  H   UNL     1      99.776 116.210 111.446  1.00  0.00     0.294 HD
ENDBRANCH  10  23
BRANCH   5  25
ATOM     25  O   UNL     1     102.734 110.876 117.175  1.00  0.00    -0.507 OA
ATOM     26  H   UNL     1     103.448 110.166 117.057  1.00  0.00     0.293 HD
ENDBRANCH   5  25
BRANCH   7  27
ATOM     27  O   UNL     1      99.682 110.876 113.470  1.00  0.00    -0.507 OA
ATOM     28  H   UNL     1      99.843 110.450 112.569  1.00  0.00     0.293 HD
ENDBRANCH   7  27
TORSDOF 7
ENDMDL
MODEL 8
REMARK VINA RESULT:    -5.742      3.105      4.468
REMARK INTER + INTRA:          -7.448
REMARK INTER:                  -7.064
REMARK INTRA:                  -0.384
REMARK UNBOUND:                -0.363
REMARK SMILES Oc1cc(O)c2cc(O)c(-c3cc(O)c(O)c(O)c3)[o+]c2c1
REMARK SMILES IDX 10 1 20 2 21 3 22 4 2 5 3 6 4 7 6 8 7 9 8 10 11 11 12 12
REMARK SMILES IDX 13 13 19 14 15 15 17 16 14 17 16 19 18 21 9 23 1 25 5 27
REMARK H PARENT 14 18 16 20 18 22 9 24 1 26 5 28
REMARK Flexibility Score: inf
ROOT
ATOM      1  C   UNL     1     106.921 120.215 121.372  1.00  0.00     0.402 A 
ATOM      2  O   UNL     1     106.442 119.223 122.118  1.00  0.00    -0.202 OA
ATOM      3  C   UNL     1     105.143 118.988 122.273  1.00  0.00     0.368 A 
ATOM      4  C   UNL     1     104.736 117.924 123.081  1.00  0.00     0.162 A 
ATOM      5  C   UNL     1     103.377 117.656 123.263  1.00  0.00     0.128 A 
ATOM      6  C   UNL     1     102.419 118.458 122.636  1.00  0.00     0.093 A 
ATOM      7  C   UNL     1     102.801 119.531 121.822  1.00  0.00     0.136 A 
ATOM      8  C   UNL     1     104.181 119.806 121.632  1.00  0.00     0.125 A 
ATOM      9  C   UNL     1     104.656 120.851 120.823  1.00  0.00     0.078 A 
ATOM     10  C   UNL     1     106.032 121.057 120.680  1.00  0.00     0.223 A 
ENDROOT
BRANCH   1  11
ATOM     11  C   UNL     1     108.390 120.380 121.286  1.00  0.00     0.091 A 
ATOM     12  C   UNL     1     109.090 121.186 122.199  1.00  0.00     0.068 A 
ATOM     13  C   UNL     1     110.483 121.317 122.123  1.00  0.00     0.162 A 
ATOM     14  C   UNL     1     109.108 119.673 120.312  1.00  0.00     0.068 A 
ATOM     15  C   UNL     1     111.196 120.620 121.119  1.00  0.00     0.200 A 
ATOM     16  C   UNL     1     110.500 119.798 120.223  1.00  0.00     0.162 A 
BRANCH  13  17
ATOM     17  O   UNL     1     111.110 122.137 123.064  1.00  0.00    -0.504 OA
ATOM     18  H   UNL     1     110.936 123.127 123.157  1.00  0.00     0.293 HD
ENDBRANCH  13  17
BRANCH  15  19
ATOM     19  O   UNL     1     112.583 120.714 120.982  1.00  0.00    -0.502 OA
ATOM     20  H   UNL     1     113.047 121.120 120.183  1.00  0.00     0.293 HD
ENDBRANCH  15  19
BRANCH  16  21
ATOM     21  O   UNL     1     111.203 119.102 119.239  1.00  0.00    -0.504 OA
ATOM     22  H   UNL     1     111.161 118.093 119.170  1.00  0.00     0.293 HD
ENDBRANCH  16  21
ENDBRANCH   1  11
BRANCH  10  23
ATOM     23  O   UNL     1     106.503 122.064 119.837  1.00  0.00    -0.500 OA
ATOM     24  H   UNL     1     105.874 122.662 119.317  1.00  0.00     0.294 HD
ENDBRANCH  10  23
BRANCH   5  25
ATOM     25  O   UNL     1     102.963 116.596 124.067  1.00  0.00    -0.507 OA
ATOM     26  H   UNL     1     102.116 116.651 124.622  1.00  0.00     0.293 HD
ENDBRANCH   5  25
BRANCH   7  27
ATOM     27  O   UNL     1     101.783 120.286 121.233  1.00  0.00    -0.507 OA
ATOM     28  H   UNL     1     100.833 119.965 121.111  1.00  0.00     0.293 HD
ENDBRANCH   7  27
TORSDOF 7
ENDMDL
MODEL 9
REMARK VINA RESULT:    -5.731      2.551      3.676
REMARK INTER + INTRA:          -7.434
REMARK INTER:                  -7.159
REMARK INTRA:                  -0.275
REMARK UNBOUND:                -0.363
REMARK SMILES Oc1cc(O)c2cc(O)c(-c3cc(O)c(O)c(O)c3)[o+]c2c1
REMARK SMILES IDX 10 1 20 2 21 3 22 4 2 5 3 6 4 7 6 8 7 9 8 10 11 11 12 12
REMARK SMILES IDX 13 13 19 14 15 15 17 16 14 17 16 19 18 21 9 23 1 25 5 27
REMARK H PARENT 14 18 16 20 18 22 9 24 1 26 5 28
REMARK Flexibility Score: inf
ROOT
ATOM      1  C   UNL     1     106.645 121.264 121.062  1.00  0.00     0.402 A 
ATOM      2  O   UNL     1     106.178 120.883 122.248  1.00  0.00    -0.202 OA
ATOM      3  C   UNL     1     105.019 121.302 122.745  1.00  0.00     0.368 A 
ATOM      4  C   UNL     1     104.615 120.849 124.003  1.00  0.00     0.162 A 
ATOM      5  C   UNL     1     103.402 121.275 124.551  1.00  0.00     0.128 A 
ATOM      6  C   UNL     1     102.590 122.161 123.837  1.00  0.00     0.093 A 
ATOM      7  C   UNL     1     102.973 122.631 122.574  1.00  0.00     0.136 A 
ATOM      8  C   UNL     1     104.203 122.198 122.014  1.00  0.00     0.125 A 
ATOM      9  C   UNL     1     104.661 122.606 120.750  1.00  0.00     0.078 A 
ATOM     10  C   UNL     1     105.882 122.133 120.261  1.00  0.00     0.223 A 
ENDROOT
BRANCH   1  11
ATOM     11  C   UNL     1     107.957 120.734 120.623  1.00  0.00     0.091 A 
ATOM     12  C   UNL     1     109.152 121.131 121.246  1.00  0.00     0.068 A 
ATOM     13  C   UNL     1     110.384 120.606 120.838  1.00  0.00     0.162 A 
ATOM     14  C   UNL     1     108.006 119.773 119.604  1.00  0.00     0.068 A 
ATOM     15  C   UNL     1     110.427 119.656 119.790  1.00  0.00     0.200 A 
ATOM     16  C   UNL     1     109.232 119.243 119.185  1.00  0.00     0.162 A 
BRANCH  13  17
ATOM     17  O   UNL     1     111.530 121.050 121.502  1.00  0.00    -0.504 OA
ATOM     18  H   UNL     1     111.794 120.757 122.431  1.00  0.00     0.293 HD
ENDBRANCH  13  17
BRANCH  15  19
ATOM     19  O   UNL     1     111.623 119.101 119.329  1.00  0.00    -0.502 OA
ATOM     20  H   UNL     1     112.169 119.483 118.571  1.00  0.00     0.293 HD
ENDBRANCH  15  19
BRANCH  16  21
ATOM     21  O   UNL     1     109.272 118.298 118.159  1.00  0.00    -0.504 OA
ATOM     22  H   UNL     1     108.427 117.961 117.715  1.00  0.00     0.293 HD
ENDBRANCH  16  21
ENDBRANCH   1  11
BRANCH  10  23
ATOM     23  O   UNL     1     106.313 122.498 118.985  1.00  0.00    -0.500 OA
ATOM     24  H   UNL     1     107.270 122.776 118.805  1.00  0.00     0.294 HD
ENDBRANCH  10  23
BRANCH   5  25
ATOM     25  O   UNL     1     102.992 120.827 125.804  1.00  0.00    -0.507 OA
ATOM     26  H   UNL     1     102.054 120.474 125.959  1.00  0.00     0.293 HD
ENDBRANCH   5  25
BRANCH   7  27
ATOM     27  O   UNL     1     102.107 123.516 121.928  1.00  0.00    -0.507 OA
ATOM     28  H   UNL     1     101.744 124.363 122.341  1.00  0.00     0.293 HD
ENDBRANCH   7  27
TORSDOF 7
ENDMDL
