MODEL 1
REMARK VINA RESULT:    -7.824      0.000      0.000
REMARK INTER + INTRA:          -9.531
REMARK INTER:                  -9.424
REMARK INTRA:                  -0.107
REMARK UNBOUND:                -0.107
REMARK SMILES O=c1c(O)c(-c2ccc(O)c(O)c2)oc2cc(O)cc(O)c12
REMARK SMILES IDX 5 1 3 2 2 3 1 4 22 5 20 6 19 7 17 8 16 9 15 10 14 11 6 12
REMARK SMILES IDX 7 13 8 14 9 15 13 16 11 17 10 18 12 20 4 22 21 24 18 26
REMARK H PARENT 10 19 12 21 4 23 21 25 18 27
REMARK Flexibility Score: inf
ROOT
ATOM      1  C   UNL     1     -22.376 -15.516 -10.553  1.00  0.00     0.180 A 
ATOM      2  C   UNL     1     -21.296 -14.726 -10.121  1.00  0.00     0.208 A 
ATOM      3  C   UNL     1     -20.912 -14.779  -8.771  1.00  0.00     0.238 A 
ATOM      4  O   UNL     1     -19.981 -14.029  -8.378  1.00  0.00    -0.285 OA
ATOM      5  C   UNL     1     -21.600 -15.632  -7.875  1.00  0.00     0.111 A 
ATOM      6  C   UNL     1     -21.271 -15.795  -6.496  1.00  0.00     0.134 A 
ATOM      7  C   UNL     1     -22.102 -16.566  -5.674  1.00  0.00     0.093 A 
ATOM      8  C   UNL     1     -23.211 -17.233  -6.193  1.00  0.00     0.123 A 
ATOM      9  C   UNL     1     -23.508 -17.128  -7.552  1.00  0.00     0.094 A 
ATOM     10  C   UNL     1     -22.719 -16.337  -8.391  1.00  0.00     0.146 A 
ATOM     11  O   UNL     1     -23.043 -16.255  -9.676  1.00  0.00    -0.452 OA
ENDROOT
BRANCH   1  12
ATOM     12  C   UNL     1     -22.823 -15.533 -11.965  1.00  0.00     0.025 A 
ATOM     13  C   UNL     1     -23.269 -14.365 -12.605  1.00  0.00     0.016 A 
ATOM     14  C   UNL     1     -23.662 -14.401 -13.943  1.00  0.00     0.051 A 
ATOM     15  C   UNL     1     -23.608 -15.593 -14.673  1.00  0.00     0.157 A 
ATOM     16  C   UNL     1     -22.746 -16.725 -12.701  1.00  0.00     0.062 A 
ATOM     17  C   UNL     1     -23.139 -16.771 -14.044  1.00  0.00     0.158 A 
BRANCH  15  18
ATOM     18  O   UNL     1     -24.019 -15.562 -16.007  1.00  0.00    -0.504 OA
ATOM     19  H   UNL     1     -24.354 -16.368 -16.514  1.00  0.00     0.293 HD
ENDBRANCH  15  18
BRANCH  17  20
ATOM     20  O   UNL     1     -23.046 -17.994 -14.710  1.00  0.00    -0.504 OA
ATOM     21  H   UNL     1     -22.994 -18.090 -15.713  1.00  0.00     0.293 HD
ENDBRANCH  17  20
ENDBRANCH   1  12
BRANCH   2  22
ATOM     22  O   UNL     1     -20.644 -13.875 -11.017  1.00  0.00    -0.502 OA
ATOM     23  H   UNL     1     -20.914 -13.800 -11.990  1.00  0.00     0.293 HD
ENDBRANCH   2  22
BRANCH   6  24
ATOM     24  O   UNL     1     -20.133 -15.248  -5.897  1.00  0.00    -0.507 OA
ATOM     25  H   UNL     1     -20.033 -15.066  -4.910  1.00  0.00     0.293 HD
ENDBRANCH   6  24
BRANCH   8  26
ATOM     26  O   UNL     1     -24.006 -18.004  -5.349  1.00  0.00    -0.508 OA
ATOM     27  H   UNL     1     -24.322 -17.652  -4.451  1.00  0.00     0.293 HD
ENDBRANCH   8  26
TORSDOF 6
ENDMDL
MODEL 2
REMARK VINA RESULT:    -6.806      1.235      6.756
REMARK INTER + INTRA:          -8.305
REMARK INTER:                  -8.737
REMARK INTRA:                   0.432
REMARK UNBOUND:                -0.107
REMARK SMILES O=c1c(O)c(-c2ccc(O)c(O)c2)oc2cc(O)cc(O)c12
REMARK SMILES IDX 5 1 3 2 2 3 1 4 22 5 20 6 19 7 17 8 16 9 15 10 14 11 6 12
REMARK SMILES IDX 7 13 8 14 9 15 13 16 11 17 10 18 12 20 4 22 21 24 18 26
REMARK H PARENT 10 19 12 21 4 23 21 25 18 27
REMARK Flexibility Score: inf
ROOT
ATOM      1  C   UNL     1     -22.420 -15.890 -10.304  1.00  0.00     0.180 A 
ATOM      2  C   UNL     1     -21.568 -14.926 -10.873  1.00  0.00     0.208 A 
ATOM      3  C   UNL     1     -21.627 -14.699 -12.257  1.00  0.00     0.238 A 
ATOM      4  O   UNL     1     -20.826 -13.875 -12.770  1.00  0.00    -0.285 OA
ATOM      5  C   UNL     1     -22.547 -15.425 -13.052  1.00  0.00     0.111 A 
ATOM      6  C   UNL     1     -22.720 -15.248 -14.458  1.00  0.00     0.134 A 
ATOM      7  C   UNL     1     -23.565 -16.112 -15.164  1.00  0.00     0.093 A 
ATOM      8  C   UNL     1     -24.293 -17.104 -14.508  1.00  0.00     0.123 A 
ATOM      9  C   UNL     1     -24.176 -17.248 -13.125  1.00  0.00     0.094 A 
ATOM     10  C   UNL     1     -23.314 -16.424 -12.397  1.00  0.00     0.146 A 
ATOM     11  O   UNL     1     -23.224 -16.601 -11.084  1.00  0.00    -0.452 OA
ENDROOT
BRANCH   1  12
ATOM     12  C   UNL     1     -22.433 -16.167  -8.849  1.00  0.00     0.025 A 
ATOM     13  C   UNL     1     -23.524 -16.801  -8.235  1.00  0.00     0.016 A 
ATOM     14  C   UNL     1     -23.503 -17.074  -6.866  1.00  0.00     0.051 A 
ATOM     15  C   UNL     1     -22.393 -16.735  -6.087  1.00  0.00     0.157 A 
ATOM     16  C   UNL     1     -21.308 -15.846  -8.074  1.00  0.00     0.062 A 
ATOM     17  C   UNL     1     -21.278 -16.115  -6.700  1.00  0.00     0.158 A 
BRANCH  15  18
ATOM     18  O   UNL     1     -22.436 -17.031  -4.723  1.00  0.00    -0.504 OA
ATOM     19  H   UNL     1     -21.630 -17.017  -4.116  1.00  0.00     0.293 HD
ENDBRANCH  15  18
BRANCH  17  20
ATOM     20  O   UNL     1     -20.130 -15.756  -5.990  1.00  0.00    -0.504 OA
ATOM     21  H   UNL     1     -20.085 -15.693  -4.984  1.00  0.00     0.293 HD
ENDBRANCH  17  20
ENDBRANCH   1  12
BRANCH   2  22
ATOM     22  O   UNL     1     -20.654 -14.236 -10.074  1.00  0.00    -0.502 OA
ATOM     23  H   UNL     1     -20.716 -14.223  -9.063  1.00  0.00     0.293 HD
ENDBRANCH   2  22
BRANCH   6  24
ATOM     24  O   UNL     1     -22.111 -14.229 -15.196  1.00  0.00    -0.507 OA
ATOM     25  H   UNL     1     -21.120 -14.042 -15.212  1.00  0.00     0.293 HD
ENDBRANCH   6  24
BRANCH   8  26
ATOM     26  O   UNL     1     -25.137 -17.935 -15.240  1.00  0.00    -0.508 OA
ATOM     27  H   UNL     1     -25.122 -17.945 -16.254  1.00  0.00     0.293 HD
ENDBRANCH   8  26
TORSDOF 6
ENDMDL
MODEL 3
REMARK VINA RESULT:    -6.631      1.468      6.738
REMARK INTER + INTRA:          -8.095
REMARK INTER:                  -8.539
REMARK INTRA:                   0.444
REMARK UNBOUND:                -0.107
REMARK SMILES O=c1c(O)c(-c2ccc(O)c(O)c2)oc2cc(O)cc(O)c12
REMARK SMILES IDX 5 1 3 2 2 3 1 4 22 5 20 6 19 7 17 8 16 9 15 10 14 11 6 12
REMARK SMILES IDX 7 13 8 14 9 15 13 16 11 17 10 18 12 20 4 22 21 24 18 26
REMARK H PARENT 10 19 12 21 4 23 21 25 18 27
REMARK Flexibility Score: inf
ROOT
ATOM      1  C   UNL     1     -21.983 -15.498 -11.012  1.00  0.00     0.180 A 
ATOM      2  C   UNL     1     -21.288 -14.644 -11.885  1.00  0.00     0.208 A 
ATOM      3  C   UNL     1     -21.664 -14.600 -13.237  1.00  0.00     0.238 A 
ATOM      4  O   UNL     1     -21.004 -13.875 -14.026  1.00  0.00    -0.285 OA
ATOM      5  C   UNL     1     -22.740 -15.398 -13.695  1.00  0.00     0.111 A 
ATOM      6  C   UNL     1     -23.232 -15.404 -15.035  1.00  0.00     0.134 A 
ATOM      7  C   UNL     1     -24.216 -16.329 -15.406  1.00  0.00     0.093 A 
ATOM      8  C   UNL     1     -24.771 -17.204 -14.472  1.00  0.00     0.123 A 
ATOM      9  C   UNL     1     -24.339 -17.166 -13.146  1.00  0.00     0.094 A 
ATOM     10  C   UNL     1     -23.334 -16.279 -12.754  1.00  0.00     0.146 A 
ATOM     11  O   UNL     1     -22.944 -16.283 -11.484  1.00  0.00    -0.452 OA
ENDROOT
BRANCH   1  12
ATOM     12  C   UNL     1     -21.661 -15.580  -9.569  1.00  0.00     0.025 A 
ATOM     13  C   UNL     1     -20.498 -14.994  -9.045  1.00  0.00     0.016 A 
ATOM     14  C   UNL     1     -20.228 -15.063  -7.677  1.00  0.00     0.051 A 
ATOM     15  C   UNL     1     -21.113 -15.704  -6.805  1.00  0.00     0.157 A 
ATOM     16  C   UNL     1     -22.562 -16.204  -8.693  1.00  0.00     0.062 A 
ATOM     17  C   UNL     1     -22.300 -16.279  -7.319  1.00  0.00     0.158 A 
BRANCH  15  18
ATOM     18  O   UNL     1     -20.782 -15.742  -5.448  1.00  0.00    -0.504 OA
ATOM     19  H   UNL     1     -21.397 -16.090  -4.727  1.00  0.00     0.293 HD
ENDBRANCH  15  18
BRANCH  17  20
ATOM     20  O   UNL     1     -23.235 -16.927  -6.510  1.00  0.00    -0.504 OA
ATOM     21  H   UNL     1     -23.600 -17.850  -6.694  1.00  0.00     0.293 HD
ENDBRANCH  17  20
ENDBRANCH   1  12
BRANCH   2  22
ATOM     22  O   UNL     1     -20.216 -13.881 -11.417  1.00  0.00    -0.502 OA
ATOM     23  H   UNL     1     -19.853 -13.970 -10.475  1.00  0.00     0.293 HD
ENDBRANCH   2  22
BRANCH   6  24
ATOM     24  O   UNL     1     -22.812 -14.509 -16.024  1.00  0.00    -0.507 OA
ATOM     25  H   UNL     1     -23.391 -13.797 -16.440  1.00  0.00     0.293 HD
ENDBRANCH   6  24
BRANCH   8  26
ATOM     26  O   UNL     1     -25.759 -18.100 -14.873  1.00  0.00    -0.508 OA
ATOM     27  H   UNL     1     -26.498 -17.823 -15.510  1.00  0.00     0.293 HD
ENDBRANCH   8  26
TORSDOF 6
ENDMDL
MODEL 4
REMARK VINA RESULT:    -6.621      1.585      3.141
REMARK INTER + INTRA:          -8.083
REMARK INTER:                  -8.489
REMARK INTRA:                   0.406
REMARK UNBOUND:                -0.107
REMARK SMILES O=c1c(O)c(-c2ccc(O)c(O)c2)oc2cc(O)cc(O)c12
REMARK SMILES IDX 5 1 3 2 2 3 1 4 22 5 20 6 19 7 17 8 16 9 15 10 14 11 6 12
REMARK SMILES IDX 7 13 8 14 9 15 13 16 11 17 10 18 12 20 4 22 21 24 18 26
REMARK H PARENT 10 19 12 21 4 23 21 25 18 27
REMARK Flexibility Score: inf
ROOT
ATOM      1  C   UNL     1     -22.678 -16.117 -10.889  1.00  0.00     0.180 A 
ATOM      2  C   UNL     1     -23.494 -17.127 -10.348  1.00  0.00     0.208 A 
ATOM      3  C   UNL     1     -23.531 -17.297  -8.955  1.00  0.00     0.238 A 
ATOM      4  O   UNL     1     -24.220 -18.237  -8.479  1.00  0.00    -0.285 OA
ATOM      5  C   UNL     1     -22.767 -16.447  -8.120  1.00  0.00     0.111 A 
ATOM      6  C   UNL     1     -22.759 -16.504  -6.694  1.00  0.00     0.134 A 
ATOM      7  C   UNL     1     -21.865 -15.701  -5.975  1.00  0.00     0.093 A 
ATOM      8  C   UNL     1     -21.026 -14.798  -6.625  1.00  0.00     0.123 A 
ATOM      9  C   UNL     1     -21.067 -14.692  -8.016  1.00  0.00     0.094 A 
ATOM     10  C   UNL     1     -21.922 -15.505  -8.763  1.00  0.00     0.146 A 
ATOM     11  O   UNL     1     -21.922 -15.380 -10.085  1.00  0.00    -0.452 OA
ENDROOT
BRANCH   1  12
ATOM     12  C   UNL     1     -22.606 -15.861 -12.346  1.00  0.00     0.025 A 
ATOM     13  C   UNL     1     -23.547 -16.407 -13.233  1.00  0.00     0.016 A 
ATOM     14  C   UNL     1     -23.472 -16.131 -14.599  1.00  0.00     0.051 A 
ATOM     15  C   UNL     1     -22.470 -15.298 -15.106  1.00  0.00     0.157 A 
ATOM     16  C   UNL     1     -21.613 -15.006 -12.849  1.00  0.00     0.062 A 
ATOM     17  C   UNL     1     -21.529 -14.724 -14.218  1.00  0.00     0.158 A 
BRANCH  15  18
ATOM     18  O   UNL     1     -22.448 -15.065 -16.483  1.00  0.00    -0.504 OA
ATOM     19  H   UNL     1     -23.058 -15.524 -17.143  1.00  0.00     0.293 HD
ENDBRANCH  15  18
BRANCH  17  20
ATOM     20  O   UNL     1     -20.507 -13.875 -14.648  1.00  0.00    -0.504 OA
ATOM     21  H   UNL     1     -19.617 -14.195 -14.999  1.00  0.00     0.293 HD
ENDBRANCH  17  20
ENDBRANCH   1  12
BRANCH   2  22
ATOM     22  O   UNL     1     -24.224 -17.968 -11.191  1.00  0.00    -0.502 OA
ATOM     23  H   UNL     1     -23.825 -18.800 -11.609  1.00  0.00     0.293 HD
ENDBRANCH   2  22
BRANCH   6  24
ATOM     24  O   UNL     1     -23.623 -17.306  -5.941  1.00  0.00    -0.507 OA
ATOM     25  H   UNL     1     -24.570 -17.059  -5.696  1.00  0.00     0.293 HD
ENDBRANCH   6  24
BRANCH   8  26
ATOM     26  O   UNL     1     -20.160 -14.004  -5.877  1.00  0.00    -0.508 OA
ATOM     27  H   UNL     1     -19.935 -13.056  -6.158  1.00  0.00     0.293 HD
ENDBRANCH   8  26
TORSDOF 6
ENDMDL
MODEL 5
REMARK VINA RESULT:    -5.683      1.878      7.156
REMARK INTER + INTRA:          -6.953
REMARK INTER:                  -6.631
REMARK INTRA:                  -0.322
REMARK UNBOUND:                -0.107
REMARK SMILES O=c1c(O)c(-c2ccc(O)c(O)c2)oc2cc(O)cc(O)c12
REMARK SMILES IDX 5 1 3 2 2 3 1 4 22 5 20 6 19 7 17 8 16 9 15 10 14 11 6 12
REMARK SMILES IDX 7 13 8 14 9 15 13 16 11 17 10 18 12 20 4 22 21 24 18 26
REMARK H PARENT 10 19 12 21 4 23 21 25 18 27
REMARK Flexibility Score: inf
ROOT
ATOM      1  C   UNL     1     -22.613 -15.675 -10.342  1.00  0.00     0.180 A 
ATOM      2  C   UNL     1     -23.361 -16.861 -10.442  1.00  0.00     0.208 A 
ATOM      3  C   UNL     1     -23.819 -17.272 -11.704  1.00  0.00     0.238 A 
ATOM      4  O   UNL     1     -24.534 -18.305 -11.781  1.00  0.00    -0.285 OA
ATOM      5  C   UNL     1     -23.510 -16.502 -12.851  1.00  0.00     0.111 A 
ATOM      6  C   UNL     1     -23.888 -16.845 -14.184  1.00  0.00     0.134 A 
ATOM      7  C   UNL     1     -23.640 -15.943 -15.226  1.00  0.00     0.093 A 
ATOM      8  C   UNL     1     -22.972 -14.741 -14.995  1.00  0.00     0.123 A 
ATOM      9  C   UNL     1     -22.546 -14.423 -13.705  1.00  0.00     0.094 A 
ATOM     10  C   UNL     1     -22.809 -15.286 -12.639  1.00  0.00     0.146 A 
ATOM     11  O   UNL     1     -22.396 -14.940 -11.425  1.00  0.00    -0.452 OA
ENDROOT
BRANCH   1  12
ATOM     12  C   UNL     1     -22.076 -15.190  -9.050  1.00  0.00     0.025 A 
ATOM     13  C   UNL     1     -22.810 -14.315  -8.235  1.00  0.00     0.016 A 
ATOM     14  C   UNL     1     -22.293 -13.891  -7.009  1.00  0.00     0.051 A 
ATOM     15  C   UNL     1     -21.045 -14.340  -6.566  1.00  0.00     0.157 A 
ATOM     16  C   UNL     1     -20.834 -15.660  -8.598  1.00  0.00     0.062 A 
ATOM     17  C   UNL     1     -20.306 -15.241  -7.370  1.00  0.00     0.158 A 
BRANCH  15  18
ATOM     18  O   UNL     1     -20.582 -13.875  -5.333  1.00  0.00    -0.504 OA
ATOM     19  H   UNL     1     -21.092 -13.969  -4.467  1.00  0.00     0.293 HD
ENDBRANCH  15  18
BRANCH  17  20
ATOM     20  O   UNL     1     -19.059 -15.740  -6.991  1.00  0.00    -0.504 OA
ATOM     21  H   UNL     1     -18.566 -15.456  -6.157  1.00  0.00     0.293 HD
ENDBRANCH  17  20
ENDBRANCH   1  12
BRANCH   2  22
ATOM     22  O   UNL     1     -23.673 -17.595  -9.295  1.00  0.00    -0.502 OA
ATOM     23  H   UNL     1     -22.989 -18.160  -8.807  1.00  0.00     0.293 HD
ENDBRANCH   2  22
BRANCH   6  24
ATOM     24  O   UNL     1     -24.478 -18.062 -14.539  1.00  0.00    -0.507 OA
ATOM     25  H   UNL     1     -25.463 -18.266 -14.470  1.00  0.00     0.293 HD
ENDBRANCH   6  24
BRANCH   8  26
ATOM     26  O   UNL     1     -22.730 -13.875 -16.058  1.00  0.00    -0.508 OA
ATOM     27  H   UNL     1     -23.162 -14.015 -16.965  1.00  0.00     0.293 HD
ENDBRANCH   8  26
TORSDOF 6
ENDMDL
