MODEL 1
REMARK VINA RESULT:    -1.206      0.000      0.000
REMARK INTER + INTRA:          -3.535
REMARK INTER:                  -3.181
REMARK INTRA:                  -0.354
REMARK UNBOUND:                -0.354
REMARK SMILES CCCCCCCCCCCCCCCCCCCCCCCCCCCCCC(=O)[O-]
REMARK SMILES IDX 16 1 17 2 18 3 19 4 20 5 21 6 22 7 23 8 24 9 25 10 26 11
REMARK SMILES IDX 27 12 28 13 29 14 30 15 31 16 32 17 15 18 14 19 13 20 12 21
REMARK SMILES IDX 11 22 10 23 9 24 8 25 7 26 6 27 5 28 4 29 3 30 2 31 1 32
REMARK H PARENT
REMARK Flexibility Score: inf
ROOT
ATOM      1  C   UNL     1      41.254  27.224   2.087  1.00  0.00     0.000 C 
ENDROOT
BRANCH   1   2
ATOM      2  C   UNL     1      41.357  28.747   2.260  1.00  0.00     0.000 C 
BRANCH   2   3
ATOM      3  C   UNL     1      42.350  29.160   3.365  1.00  0.00     0.000 C 
BRANCH   3   4
ATOM      4  C   UNL     1      43.463  30.124   2.911  1.00  0.00     0.000 C 
BRANCH   4   5
ATOM      5  C   UNL     1      44.821  29.819   3.567  1.00  0.00     0.000 C 
BRANCH   5   6
ATOM      6  C   UNL     1      44.790  28.536   4.421  1.00  0.00     0.000 C 
BRANCH   6   7
ATOM      7  C   UNL     1      46.046  27.654   4.292  1.00  0.00     0.000 C 
BRANCH   7   8
ATOM      8  C   UNL     1      46.935  27.705   5.545  1.00  0.00     0.000 C 
BRANCH   8   9
ATOM      9  C   UNL     1      46.818  29.036   6.310  1.00  0.00     0.000 C 
BRANCH   9  10
ATOM     10  C   UNL     1      47.123  28.911   7.818  1.00  0.00     0.000 C 
BRANCH  10  11
ATOM     11  C   UNL     1      46.481  30.048   8.633  1.00  0.00     0.000 C 
BRANCH  11  12
ATOM     12  C   UNL     1      45.074  29.694   9.143  1.00  0.00     0.000 C 
BRANCH  12  13
ATOM     13  C   UNL     1      44.989  28.262   9.693  1.00  0.00     0.006 C 
BRANCH  13  14
ATOM     14  C   UNL     1      46.342  27.806  10.251  1.00  0.00     0.053 C 
BRANCH  14  15
ATOM     15  C   UNL     1      46.429  26.313  10.281  1.00  0.00     0.041 C 
ATOM     16  O   UNL     1      46.244  25.647   9.228  1.00  0.00    -0.550 OA
ATOM     17  O   UNL     1      46.705  25.654  11.472  1.00  0.00    -0.550 OA
ENDBRANCH  14  15
ENDBRANCH  13  14
ENDBRANCH  12  13
ENDBRANCH  11  12
ENDBRANCH  10  11
ENDBRANCH   9  10
ENDBRANCH   8   9
ENDBRANCH   7   8
ENDBRANCH   6   7
ENDBRANCH   5   6
ENDBRANCH   4   5
ENDBRANCH   3   4
ENDBRANCH   2   3
ENDBRANCH   1   2
BRANCH   1  18
ATOM     18  C   UNL     1      42.250  26.671   1.052  1.00  0.00     0.000 C 
BRANCH  18  19
ATOM     19  C   UNL     1      43.728  26.827   1.469  1.00  0.00     0.000 C 
BRANCH  19  20
ATOM     20  C   UNL     1      44.568  27.526   0.389  1.00  0.00     0.000 C 
BRANCH  20  21
ATOM     21  C   UNL     1      45.698  28.354   1.016  1.00  0.00     0.000 C 
BRANCH  21  22
ATOM     22  C   UNL     1      46.919  28.407   0.086  1.00  0.00     0.000 C 
BRANCH  22  23
ATOM     23  C   UNL     1      47.124  29.799  -0.535  1.00  0.00     0.000 C 
BRANCH  23  24
ATOM     24  C   UNL     1      46.074  30.125  -1.609  1.00  0.00    -0.000 C 
BRANCH  24  25
ATOM     25  C   UNL     1      46.499  29.565  -2.976  1.00  0.00    -0.000 C 
BRANCH  25  26
ATOM     26  C   UNL     1      47.006  28.113  -2.903  1.00  0.00    -0.000 C 
BRANCH  26  27
ATOM     27  C   UNL     1      46.984  27.348  -4.239  1.00  0.00    -0.000 C 
BRANCH  27  28
ATOM     28  C   UNL     1      45.580  26.873  -4.640  1.00  0.00    -0.000 C 
BRANCH  28  29
ATOM     29  C   UNL     1      44.599  28.052  -4.708  1.00  0.00    -0.000 C 
BRANCH  29  30
ATOM     30  C   UNL     1      44.529  28.692  -6.105  1.00  0.00    -0.000 C 
BRANCH  30  31
ATOM     31  C   UNL     1      43.128  29.176  -6.522  1.00  0.00    -0.003 C 
ATOM     32  C   UNL     1      42.022  28.656  -5.605  1.00  0.00     0.004 C 
ENDBRANCH  30  31
ENDBRANCH  29  30
ENDBRANCH  28  29
ENDBRANCH  27  28
ENDBRANCH  26  27
ENDBRANCH  25  26
ENDBRANCH  24  25
ENDBRANCH  23  24
ENDBRANCH  22  23
ENDBRANCH  21  22
ENDBRANCH  20  21
ENDBRANCH  19  20
ENDBRANCH  18  19
ENDBRANCH   1  18
TORSDOF 28
ENDMDL
MODEL 2
REMARK VINA RESULT:    -0.717      4.131     11.509
REMARK INTER + INTRA:          -2.245
REMARK INTER:                  -3.725
REMARK INTRA:                   1.480
REMARK UNBOUND:                -0.354
REMARK SMILES CCCCCCCCCCCCCCCCCCCCCCCCCCCCCC(=O)[O-]
REMARK SMILES IDX 16 1 17 2 18 3 19 4 20 5 21 6 22 7 23 8 24 9 25 10 26 11
REMARK SMILES IDX 27 12 28 13 29 14 30 15 31 16 32 17 15 18 14 19 13 20 12 21
REMARK SMILES IDX 11 22 10 23 9 24 8 25 7 26 6 27 5 28 4 29 3 30 2 31 1 32
REMARK H PARENT
REMARK Flexibility Score: inf
ROOT
ATOM      1  C   UNL     1      42.983  27.357   1.875  1.00  0.00     0.000 C 
ENDROOT
BRANCH   1   2
ATOM      2  C   UNL     1      43.922  28.103   0.914  1.00  0.00     0.000 C 
BRANCH   2   3
ATOM      3  C   UNL     1      44.690  27.157  -0.030  1.00  0.00     0.000 C 
BRANCH   3   4
ATOM      4  C   UNL     1      45.800  27.827  -0.861  1.00  0.00     0.000 C 
BRANCH   4   5
ATOM      5  C   UNL     1      45.397  29.217  -1.385  1.00  0.00     0.000 C 
BRANCH   5   6
ATOM      6  C   UNL     1      46.615  30.116  -1.675  1.00  0.00     0.000 C 
BRANCH   6   7
ATOM      7  C   UNL     1      47.125  30.049  -3.127  1.00  0.00     0.000 C 
BRANCH   7   8
ATOM      8  C   UNL     1      46.164  29.291  -4.057  1.00  0.00     0.000 C 
BRANCH   8   9
ATOM      9  C   UNL     1      46.805  28.046  -4.696  1.00  0.00     0.000 C 
BRANCH   9  10
ATOM     10  C   UNL     1      45.986  27.461  -5.867  1.00  0.00     0.000 C 
BRANCH  10  11
ATOM     11  C   UNL     1      45.608  28.536  -6.902  1.00  0.00     0.000 C 
BRANCH  11  12
ATOM     12  C   UNL     1      44.820  29.704  -6.287  1.00  0.00     0.000 C 
BRANCH  12  13
ATOM     13  C   UNL     1      43.473  29.940  -6.986  1.00  0.00     0.006 C 
BRANCH  13  14
ATOM     14  C   UNL     1      42.610  28.674  -6.957  1.00  0.00     0.053 C 
BRANCH  14  15
ATOM     15  C   UNL     1      42.514  28.127  -5.568  1.00  0.00     0.041 C 
ATOM     16  O   UNL     1      42.048  28.838  -4.639  1.00  0.00    -0.550 OA
ATOM     17  O   UNL     1      42.947  26.836  -5.296  1.00  0.00    -0.550 OA
ENDBRANCH  14  15
ENDBRANCH  13  14
ENDBRANCH  12  13
ENDBRANCH  11  12
ENDBRANCH  10  11
ENDBRANCH   9  10
ENDBRANCH   8   9
ENDBRANCH   7   8
ENDBRANCH   6   7
ENDBRANCH   5   6
ENDBRANCH   4   5
ENDBRANCH   3   4
ENDBRANCH   2   3
ENDBRANCH   1   2
BRANCH   1  18
ATOM     18  C   UNL     1      41.979  28.291   2.574  1.00  0.00     0.000 C 
BRANCH  18  19
ATOM     19  C   UNL     1      42.589  29.637   3.017  1.00  0.00     0.000 C 
BRANCH  19  20
ATOM     20  C   UNL     1      43.876  29.976   2.249  1.00  0.00     0.000 C 
BRANCH  20  21
ATOM     21  C   UNL     1      45.085  30.030   3.191  1.00  0.00     0.000 C 
BRANCH  21  22
ATOM     22  C   UNL     1      46.047  28.866   2.917  1.00  0.00     0.000 C 
BRANCH  22  23
ATOM     23  C   UNL     1      46.200  27.931   4.129  1.00  0.00     0.000 C 
BRANCH  23  24
ATOM     24  C   UNL     1      47.116  28.519   5.214  1.00  0.00    -0.000 C 
BRANCH  24  25
ATOM     25  C   UNL     1      46.296  29.270   6.275  1.00  0.00    -0.000 C 
BRANCH  25  26
ATOM     26  C   UNL     1      46.609  28.817   7.713  1.00  0.00    -0.000 C 
BRANCH  26  27
ATOM     27  C   UNL     1      46.708  29.954   8.746  1.00  0.00    -0.000 C 
BRANCH  27  28
ATOM     28  C   UNL     1      45.960  29.650  10.053  1.00  0.00    -0.000 C 
BRANCH  28  29
ATOM     29  C   UNL     1      45.186  28.328   9.948  1.00  0.00    -0.000 C 
BRANCH  29  30
ATOM     30  C   UNL     1      45.819  27.197  10.777  1.00  0.00    -0.000 C 
BRANCH  30  31
ATOM     31  C   UNL     1      47.125  26.626  10.196  1.00  0.00    -0.003 C 
ATOM     32  C   UNL     1      46.891  25.443   9.258  1.00  0.00     0.004 C 
ENDBRANCH  30  31
ENDBRANCH  29  30
ENDBRANCH  28  29
ENDBRANCH  27  28
ENDBRANCH  26  27
ENDBRANCH  25  26
ENDBRANCH  24  25
ENDBRANCH  23  24
ENDBRANCH  22  23
ENDBRANCH  21  22
ENDBRANCH  20  21
ENDBRANCH  19  20
ENDBRANCH  18  19
ENDBRANCH   1  18
TORSDOF 28
ENDMDL
MODEL 3
REMARK VINA RESULT:    -0.566      2.006      3.318
REMARK INTER + INTRA:          -1.848
REMARK INTER:                  -4.957
REMARK INTRA:                   3.109
REMARK UNBOUND:                -0.354
REMARK SMILES CCCCCCCCCCCCCCCCCCCCCCCCCCCCCC(=O)[O-]
REMARK SMILES IDX 16 1 17 2 18 3 19 4 20 5 21 6 22 7 23 8 24 9 25 10 26 11
REMARK SMILES IDX 27 12 28 13 29 14 30 15 31 16 32 17 15 18 14 19 13 20 12 21
REMARK SMILES IDX 11 22 10 23 9 24 8 25 7 26 6 27 5 28 4 29 3 30 2 31 1 32
REMARK H PARENT
REMARK Flexibility Score: inf
ROOT
ATOM      1  C   UNL     1      42.518  27.368   1.779  1.00  0.00     0.000 C 
ENDROOT
BRANCH   1   2
ATOM      2  C   UNL     1      43.661  27.734   2.739  1.00  0.00     0.000 C 
BRANCH   2   3
ATOM      3  C   UNL     1      44.707  26.611   2.882  1.00  0.00     0.000 C 
BRANCH   3   4
ATOM      4  C   UNL     1      45.900  26.947   3.798  1.00  0.00     0.000 C 
BRANCH   4   5
ATOM      5  C   UNL     1      46.281  25.784   4.731  1.00  0.00     0.000 C 
BRANCH   5   6
ATOM      6  C   UNL     1      45.916  26.064   6.202  1.00  0.00     0.000 C 
BRANCH   6   7
ATOM      7  C   UNL     1      47.092  25.933   7.187  1.00  0.00     0.000 C 
BRANCH   7   8
ATOM      8  C   UNL     1      46.639  25.955   8.656  1.00  0.00     0.000 C 
BRANCH   8   9
ATOM      9  C   UNL     1      45.273  26.636   8.852  1.00  0.00     0.000 C 
BRANCH   9  10
ATOM     10  C   UNL     1      45.021  27.112  10.299  1.00  0.00     0.000 C 
BRANCH  10  11
ATOM     11  C   UNL     1      46.106  28.090  10.782  1.00  0.00     0.000 C 
BRANCH  11  12
ATOM     12  C   UNL     1      46.994  28.607   9.638  1.00  0.00     0.000 C 
BRANCH  12  13
ATOM     13  C   UNL     1      46.395  29.835   8.935  1.00  0.00     0.006 C 
BRANCH  13  14
ATOM     14  C   UNL     1      47.125  30.124   7.619  1.00  0.00     0.053 C 
BRANCH  14  15
ATOM     15  C   UNL     1      46.231  29.866   6.447  1.00  0.00     0.041 C 
ATOM     16  O   UNL     1      46.726  29.654   5.309  1.00  0.00    -0.550 OA
ATOM     17  O   UNL     1      44.852  29.867   6.609  1.00  0.00    -0.550 OA
ENDBRANCH  14  15
ENDBRANCH  13  14
ENDBRANCH  12  13
ENDBRANCH  11  12
ENDBRANCH  10  11
ENDBRANCH   9  10
ENDBRANCH   8   9
ENDBRANCH   7   8
ENDBRANCH   6   7
ENDBRANCH   5   6
ENDBRANCH   4   5
ENDBRANCH   3   4
ENDBRANCH   2   3
ENDBRANCH   1   2
BRANCH   1  18
ATOM     18  C   UNL     1      41.157  27.926   2.229  1.00  0.00     0.000 C 
BRANCH  18  19
ATOM     19  C   UNL     1      41.257  28.950   3.381  1.00  0.00     0.000 C 
BRANCH  19  20
ATOM     20  C   UNL     1      42.528  29.808   3.290  1.00  0.00     0.000 C 
BRANCH  20  21
ATOM     21  C   UNL     1      42.884  30.118   1.830  1.00  0.00     0.000 C 
BRANCH  21  22
ATOM     22  C   UNL     1      44.405  30.113   1.623  1.00  0.00     0.000 C 
BRANCH  22  23
ATOM     23  C   UNL     1      44.797  29.927   0.147  1.00  0.00     0.000 C 
BRANCH  23  24
ATOM     24  C   UNL     1      46.081  29.098  -0.020  1.00  0.00    -0.000 C 
BRANCH  24  25
ATOM     25  C   UNL     1      46.589  29.165  -1.469  1.00  0.00    -0.000 C 
BRANCH  25  26
ATOM     26  C   UNL     1      45.818  28.235  -2.424  1.00  0.00    -0.000 C 
BRANCH  26  27
ATOM     27  C   UNL     1      45.671  28.759  -3.864  1.00  0.00    -0.000 C 
BRANCH  27  28
ATOM     28  C   UNL     1      46.766  28.243  -4.810  1.00  0.00    -0.000 C 
BRANCH  28  29
ATOM     29  C   UNL     1      46.500  28.692  -6.254  1.00  0.00    -0.000 C 
BRANCH  29  30
ATOM     30  C   UNL     1      45.002  28.730  -6.602  1.00  0.00    -0.000 C 
BRANCH  30  31
ATOM     31  C   UNL     1      44.282  27.373  -6.495  1.00  0.00    -0.003 C 
ATOM     32  C   UNL     1      43.339  27.294  -5.296  1.00  0.00     0.004 C 
ENDBRANCH  30  31
ENDBRANCH  29  30
ENDBRANCH  28  29
ENDBRANCH  27  28
ENDBRANCH  26  27
ENDBRANCH  25  26
ENDBRANCH  24  25
ENDBRANCH  23  24
ENDBRANCH  22  23
ENDBRANCH  21  22
ENDBRANCH  20  21
ENDBRANCH  19  20
ENDBRANCH  18  19
ENDBRANCH   1  18
TORSDOF 28
ENDMDL
MODEL 4
REMARK VINA RESULT:     1.160      4.344     11.745
REMARK INTER + INTRA:           2.704
REMARK INTER:                  -0.789
REMARK INTRA:                   3.493
REMARK UNBOUND:                -0.354
REMARK SMILES CCCCCCCCCCCCCCCCCCCCCCCCCCCCCC(=O)[O-]
REMARK SMILES IDX 16 1 17 2 18 3 19 4 20 5 21 6 22 7 23 8 24 9 25 10 26 11
REMARK SMILES IDX 27 12 28 13 29 14 30 15 31 16 32 17 15 18 14 19 13 20 12 21
REMARK SMILES IDX 11 22 10 23 9 24 8 25 7 26 6 27 5 28 4 29 3 30 2 31 1 32
REMARK H PARENT
REMARK Flexibility Score: inf
ROOT
ATOM      1  C   UNL     1      42.490  29.481   3.400  1.00  0.00     0.000 C 
ENDROOT
BRANCH   1   2
ATOM      2  C   UNL     1      42.641  28.925   1.975  1.00  0.00     0.000 C 
BRANCH   2   3
ATOM      3  C   UNL     1      44.039  29.180   1.378  1.00  0.00     0.000 C 
BRANCH   3   4
ATOM      4  C   UNL     1      44.115  29.092  -0.159  1.00  0.00     0.000 C 
BRANCH   4   5
ATOM      5  C   UNL     1      45.554  28.913  -0.676  1.00  0.00     0.000 C 
BRANCH   5   6
ATOM      6  C   UNL     1      45.775  27.543  -1.346  1.00  0.00     0.000 C 
BRANCH   6   7
ATOM      7  C   UNL     1      47.091  27.425  -2.137  1.00  0.00     0.000 C 
BRANCH   7   8
ATOM      8  C   UNL     1      47.058  28.208  -3.459  1.00  0.00     0.000 C 
BRANCH   8   9
ATOM      9  C   UNL     1      46.409  29.596  -3.318  1.00  0.00     0.000 C 
BRANCH   9  10
ATOM     10  C   UNL     1      45.685  30.073  -4.596  1.00  0.00     0.000 C 
BRANCH  10  11
ATOM     11  C   UNL     1      46.447  29.678  -5.873  1.00  0.00     0.000 C 
BRANCH  11  12
ATOM     12  C   UNL     1      46.035  28.297  -6.409  1.00  0.00     0.000 C 
BRANCH  12  13
ATOM     13  C   UNL     1      44.601  27.914  -6.012  1.00  0.00     0.006 C 
BRANCH  13  14
ATOM     14  C   UNL     1      43.599  28.343  -7.090  1.00  0.00     0.053 C 
BRANCH  14  15
ATOM     15  C   UNL     1      42.287  28.719  -6.477  1.00  0.00     0.041 C 
ATOM     16  O   UNL     1      41.552  29.577  -7.034  1.00  0.00    -0.550 OA
ATOM     17  O   UNL     1      41.878  28.130  -5.288  1.00  0.00    -0.550 OA
ENDBRANCH  14  15
ENDBRANCH  13  14
ENDBRANCH  12  13
ENDBRANCH  11  12
ENDBRANCH  10  11
ENDBRANCH   9  10
ENDBRANCH   8   9
ENDBRANCH   7   8
ENDBRANCH   6   7
ENDBRANCH   5   6
ENDBRANCH   4   5
ENDBRANCH   3   4
ENDBRANCH   2   3
ENDBRANCH   1   2
BRANCH   1  18
ATOM     18  C   UNL     1      43.801  30.059   3.959  1.00  0.00     0.000 C 
BRANCH  18  19
ATOM     19  C   UNL     1      44.942  30.124   2.921  1.00  0.00     0.000 C 
BRANCH  19  20
ATOM     20  C   UNL     1      46.183  29.336   3.368  1.00  0.00     0.000 C 
BRANCH  20  21
ATOM     21  C   UNL     1      46.145  27.896   2.838  1.00  0.00     0.000 C 
BRANCH  21  22
ATOM     22  C   UNL     1      46.956  26.957   3.742  1.00  0.00     0.000 C 
BRANCH  22  23
ATOM     23  C   UNL     1      47.064  27.479   5.185  1.00  0.00     0.000 C 
BRANCH  23  24
ATOM     24  C   UNL     1      46.182  26.686   6.164  1.00  0.00    -0.000 C 
BRANCH  24  25
ATOM     25  C   UNL     1      46.515  27.053   7.619  1.00  0.00    -0.000 C 
BRANCH  25  26
ATOM     26  C   UNL     1      46.928  28.527   7.791  1.00  0.00    -0.000 C 
BRANCH  26  27
ATOM     27  C   UNL     1      46.852  29.059   9.234  1.00  0.00    -0.000 C 
BRANCH  27  28
ATOM     28  C   UNL     1      45.466  28.881   9.872  1.00  0.00    -0.000 C 
BRANCH  28  29
ATOM     29  C   UNL     1      45.401  27.582  10.688  1.00  0.00    -0.000 C 
BRANCH  29  30
ATOM     30  C   UNL     1      46.618  26.669  10.457  1.00  0.00    -0.000 C 
BRANCH  30  31
ATOM     31  C   UNL     1      46.467  25.242  11.015  1.00  0.00    -0.003 C 
ATOM     32  C   UNL     1      47.124  25.066  12.383  1.00  0.00     0.004 C 
ENDBRANCH  30  31
ENDBRANCH  29  30
ENDBRANCH  28  29
ENDBRANCH  27  28
ENDBRANCH  26  27
ENDBRANCH  25  26
ENDBRANCH  24  25
ENDBRANCH  23  24
ENDBRANCH  22  23
ENDBRANCH  21  22
ENDBRANCH  20  21
ENDBRANCH  19  20
ENDBRANCH  18  19
ENDBRANCH   1  18
TORSDOF 28
ENDMDL
MODEL 5
REMARK VINA RESULT:     1.486      5.373     10.747
REMARK INTER + INTRA:           3.564
REMARK INTER:                   5.455
REMARK INTRA:                  -1.891
REMARK UNBOUND:                -0.354
REMARK SMILES CCCCCCCCCCCCCCCCCCCCCCCCCCCCCC(=O)[O-]
REMARK SMILES IDX 16 1 17 2 18 3 19 4 20 5 21 6 22 7 23 8 24 9 25 10 26 11
REMARK SMILES IDX 27 12 28 13 29 14 30 15 31 16 32 17 15 18 14 19 13 20 12 21
REMARK SMILES IDX 11 22 10 23 9 24 8 25 7 26 6 27 5 28 4 29 3 30 2 31 1 32
REMARK H PARENT
REMARK Flexibility Score: inf
ROOT
ATOM      1  C   UNL     1      42.989  28.070   2.441  1.00  0.00     0.000 C 
ENDROOT
BRANCH   1   2
ATOM      2  C   UNL     1      43.935  29.099   1.803  1.00  0.00     0.000 C 
BRANCH   2   3
ATOM      3  C   UNL     1      45.128  29.461   2.709  1.00  0.00     0.000 C 
BRANCH   3   4
ATOM      4  C   UNL     1      46.508  29.049   2.161  1.00  0.00     0.000 C 
BRANCH   4   5
ATOM      5  C   UNL     1      46.412  28.125   0.935  1.00  0.00     0.000 C 
BRANCH   5   6
ATOM      6  C   UNL     1      46.982  28.774  -0.341  1.00  0.00     0.000 C 
BRANCH   6   7
ATOM      7  C   UNL     1      45.998  29.699  -1.081  1.00  0.00     0.000 C 
BRANCH   7   8
ATOM      8  C   UNL     1      46.147  29.621  -2.609  1.00  0.00     0.000 C 
BRANCH   8   9
ATOM      9  C   UNL     1      46.588  28.229  -3.098  1.00  0.00     0.000 C 
BRANCH   9  10
ATOM     10  C   UNL     1      45.410  27.306  -3.477  1.00  0.00     0.000 C 
BRANCH  10  11
ATOM     11  C   UNL     1      45.402  26.966  -4.977  1.00  0.00     0.000 C 
BRANCH  11  12
ATOM     12  C   UNL     1      45.876  28.136  -5.855  1.00  0.00     0.000 C 
BRANCH  12  13
ATOM     13  C   UNL     1      44.746  28.727  -6.712  1.00  0.00     0.006 C 
BRANCH  13  14
ATOM     14  C   UNL     1      43.805  29.587  -5.862  1.00  0.00     0.053 C 
BRANCH  14  15
ATOM     15  C   UNL     1      42.391  29.115  -5.990  1.00  0.00     0.041 C 
ATOM     16  O   UNL     1      41.624  29.637  -6.841  1.00  0.00    -0.550 OA
ATOM     17  O   UNL     1      41.916  28.103  -5.166  1.00  0.00    -0.550 OA
ENDBRANCH  14  15
ENDBRANCH  13  14
ENDBRANCH  12  13
ENDBRANCH  11  12
ENDBRANCH  10  11
ENDBRANCH   9  10
ENDBRANCH   8   9
ENDBRANCH   7   8
ENDBRANCH   6   7
ENDBRANCH   5   6
ENDBRANCH   4   5
ENDBRANCH   3   4
ENDBRANCH   2   3
ENDBRANCH   1   2
BRANCH   1  18
ATOM     18  C   UNL     1      41.506  28.456   2.304  1.00  0.00     0.000 C 
BRANCH  18  19
ATOM     19  C   UNL     1      41.088  29.643   3.198  1.00  0.00     0.000 C 
BRANCH  19  20
ATOM     20  C   UNL     1      39.598  29.987   3.052  1.00  0.00     0.000 C 
BRANCH  20  21
ATOM     21  C   UNL     1      38.878  28.967   2.161  1.00  0.00     0.000 C 
BRANCH  21  22
ATOM     22  C   UNL     1      37.483  29.472   1.766  1.00  0.00     0.000 C 
BRANCH  22  23
ATOM     23  C   UNL     1      36.912  28.726   0.547  1.00  0.00     0.000 C 
BRANCH  23  24
ATOM     24  C   UNL     1      35.449  28.302   0.750  1.00  0.00    -0.000 C 
BRANCH  24  25
ATOM     25  C   UNL     1      35.121  27.053  -0.084  1.00  0.00    -0.000 C 
BRANCH  25  26
ATOM     26  C   UNL     1      34.456  25.934   0.740  1.00  0.00    -0.000 C 
BRANCH  26  27
ATOM     27  C   UNL     1      35.435  24.981   1.450  1.00  0.00    -0.000 C 
BRANCH  27  28
ATOM     28  C   UNL     1      36.882  25.495   1.457  1.00  0.00    -0.000 C 
BRANCH  28  29
ATOM     29  C   UNL     1      37.878  24.330   1.357  1.00  0.00    -0.000 C 
BRANCH  29  30
ATOM     30  C   UNL     1      37.388  23.202   0.433  1.00  0.00    -0.000 C 
BRANCH  30  31
ATOM     31  C   UNL     1      38.508  22.355  -0.198  1.00  0.00    -0.003 C 
ATOM     32  C   UNL     1      38.045  21.578  -1.428  1.00  0.00     0.004 C 
ENDBRANCH  30  31
ENDBRANCH  29  30
ENDBRANCH  28  29
ENDBRANCH  27  28
ENDBRANCH  26  27
ENDBRANCH  25  26
ENDBRANCH  24  25
ENDBRANCH  23  24
ENDBRANCH  22  23
ENDBRANCH  21  22
ENDBRANCH  20  21
ENDBRANCH  19  20
ENDBRANCH  18  19
ENDBRANCH   1  18
TORSDOF 28
ENDMDL
MODEL 6
REMARK VINA RESULT:     1.489      4.312     11.121
REMARK INTER + INTRA:           3.571
REMARK INTER:                   3.069
REMARK INTRA:                   0.502
REMARK UNBOUND:                -0.354
REMARK SMILES CCCCCCCCCCCCCCCCCCCCCCCCCCCCCC(=O)[O-]
REMARK SMILES IDX 16 1 17 2 18 3 19 4 20 5 21 6 22 7 23 8 24 9 25 10 26 11
REMARK SMILES IDX 27 12 28 13 29 14 30 15 31 16 32 17 15 18 14 19 13 20 12 21
REMARK SMILES IDX 11 22 10 23 9 24 8 25 7 26 6 27 5 28 4 29 3 30 2 31 1 32
REMARK H PARENT
REMARK Flexibility Score: inf
ROOT
ATOM      1  C   UNL     1      41.904  26.709   1.835  1.00  0.00     0.000 C 
ENDROOT
BRANCH   1   2
ATOM      2  C   UNL     1      43.003  27.376   0.992  1.00  0.00     0.000 C 
BRANCH   2   3
ATOM      3  C   UNL     1      43.607  26.430  -0.064  1.00  0.00     0.000 C 
BRANCH   3   4
ATOM      4  C   UNL     1      44.930  26.913  -0.689  1.00  0.00     0.000 C 
BRANCH   4   5
ATOM      5  C   UNL     1      44.926  28.420  -1.004  1.00  0.00     0.000 C 
BRANCH   5   6
ATOM      6  C   UNL     1      46.312  29.066  -0.818  1.00  0.00     0.000 C 
BRANCH   6   7
ATOM      7  C   UNL     1      47.073  29.331  -2.130  1.00  0.00     0.000 C 
BRANCH   7   8
ATOM      8  C   UNL     1      46.196  29.122  -3.375  1.00  0.00     0.000 C 
BRANCH   8   9
ATOM      9  C   UNL     1      46.921  29.475  -4.686  1.00  0.00     0.000 C 
BRANCH   9  10
ATOM     10  C   UNL     1      46.626  28.493  -5.840  1.00  0.00     0.000 C 
BRANCH  10  11
ATOM     11  C   UNL     1      45.305  27.732  -5.627  1.00  0.00     0.000 C 
BRANCH  11  12
ATOM     12  C   UNL     1      44.429  27.694  -6.890  1.00  0.00     0.000 C 
BRANCH  12  13
ATOM     13  C   UNL     1      43.660  29.004  -7.115  1.00  0.00     0.006 C 
BRANCH  13  14
ATOM     14  C   UNL     1      43.265  29.645  -5.780  1.00  0.00     0.053 C 
BRANCH  14  15
ATOM     15  C   UNL     1      41.781  29.816  -5.691  1.00  0.00     0.041 C 
ATOM     16  O   UNL     1      41.245  30.125  -4.594  1.00  0.00    -0.550 OA
ATOM     17  O   UNL     1      40.989  29.626  -6.815  1.00  0.00    -0.550 OA
ENDBRANCH  14  15
ENDBRANCH  13  14
ENDBRANCH  12  13
ENDBRANCH  11  12
ENDBRANCH  10  11
ENDBRANCH   9  10
ENDBRANCH   8   9
ENDBRANCH   7   8
ENDBRANCH   6   7
ENDBRANCH   5   6
ENDBRANCH   4   5
ENDBRANCH   3   4
ENDBRANCH   2   3
ENDBRANCH   1   2
BRANCH   1  18
ATOM     18  C   UNL     1      41.001  27.727   2.553  1.00  0.00     0.000 C 
BRANCH  18  19
ATOM     19  C   UNL     1      41.738  29.011   2.988  1.00  0.00     0.000 C 
BRANCH  19  20
ATOM     20  C   UNL     1      43.069  29.201   2.244  1.00  0.00     0.000 C 
BRANCH  20  21
ATOM     21  C   UNL     1      44.262  28.866   3.150  1.00  0.00     0.000 C 
BRANCH  21  22
ATOM     22  C   UNL     1      45.574  29.376   2.538  1.00  0.00     0.000 C 
BRANCH  22  23
ATOM     23  C   UNL     1      46.516  28.231   2.128  1.00  0.00     0.000 C 
BRANCH  23  24
ATOM     24  C   UNL     1      46.210  26.922   2.874  1.00  0.00    -0.000 C 
BRANCH  24  25
ATOM     25  C   UNL     1      47.050  26.815   4.157  1.00  0.00    -0.000 C 
BRANCH  25  26
ATOM     26  C   UNL     1      47.125  28.139   4.941  1.00  0.00    -0.000 C 
BRANCH  26  27
ATOM     27  C   UNL     1      46.941  28.004   6.464  1.00  0.00    -0.000 C 
BRANCH  27  28
ATOM     28  C   UNL     1      46.545  26.585   6.902  1.00  0.00    -0.000 C 
BRANCH  28  29
ATOM     29  C   UNL     1      46.452  26.490   8.431  1.00  0.00    -0.000 C 
BRANCH  29  30
ATOM     30  C   UNL     1      46.408  27.867   9.115  1.00  0.00    -0.000 C 
BRANCH  30  31
ATOM     31  C   UNL     1      45.873  27.853  10.559  1.00  0.00    -0.003 C 
ATOM     32  C   UNL     1      46.790  28.579  11.540  1.00  0.00     0.004 C 
ENDBRANCH  30  31
ENDBRANCH  29  30
ENDBRANCH  28  29
ENDBRANCH  27  28
ENDBRANCH  26  27
ENDBRANCH  25  26
ENDBRANCH  24  25
ENDBRANCH  23  24
ENDBRANCH  22  23
ENDBRANCH  21  22
ENDBRANCH  20  21
ENDBRANCH  19  20
ENDBRANCH  18  19
ENDBRANCH   1  18
TORSDOF 28
ENDMDL
