MODEL 1
REMARK VINA RESULT:    -7.286      0.000      0.000
REMARK INTER + INTRA:         -15.433
REMARK INTER:                 -14.101
REMARK INTRA:                  -1.332
REMARK UNBOUND:                -1.332
REMARK SMILES CCCCCCCCCCCCCCCCCC(=O)[O-]
REMARK SMILES IDX 10 1 11 2 12 3 13 4 14 5 15 6 16 7 17 8 18 9 19 10 20 11
REMARK SMILES IDX 9 12 8 13 7 14 6 15 5 16 4 17 3 18 2 19 1 20
REMARK H PARENT
REMARK Flexibility Score: inf
ROOT
ATOM      1  C   UNL     1      29.218  -3.441  19.741  1.00  0.00     0.000 C 
ENDROOT
BRANCH   1   2
ATOM      2  C   UNL     1      29.599  -1.982  19.450  1.00  0.00     0.000 C 
BRANCH   2   3
ATOM      3  C   UNL     1      28.657  -1.014  20.180  1.00  0.00     0.000 C 
BRANCH   3   4
ATOM      4  C   UNL     1      27.310  -0.829  19.456  1.00  0.00     0.000 C 
BRANCH   4   5
ATOM      5  C   UNL     1      26.110  -1.540  20.113  1.00  0.00     0.000 C 
BRANCH   5   6
ATOM      6  C   UNL     1      24.739  -0.907  19.822  1.00  0.00     0.000 C 
BRANCH   6   7
ATOM      7  C   UNL     1      24.819   0.614  19.598  1.00  0.00     0.006 C 
BRANCH   7   8
ATOM      8  C   UNL     1      23.539   1.173  18.964  1.00  0.00     0.053 C 
BRANCH   8   9
ATOM      9  C   UNL     1      23.844   2.162  17.881  1.00  0.00     0.041 C 
ATOM     10  O   UNL     1      23.221   2.119  16.789  1.00  0.00    -0.550 OA
ATOM     11  O   UNL     1      24.842   3.110  18.067  1.00  0.00    -0.550 OA
ENDBRANCH   8   9
ENDBRANCH   7   8
ENDBRANCH   6   7
ENDBRANCH   5   6
ENDBRANCH   4   5
ENDBRANCH   3   4
ENDBRANCH   2   3
ENDBRANCH   1   2
BRANCH   1  12
ATOM     12  C   UNL     1      29.156  -4.302  18.470  1.00  0.00     0.000 C 
BRANCH  12  13
ATOM     13  C   UNL     1      27.798  -4.999  18.295  1.00  0.00    -0.000 C 
BRANCH  13  14
ATOM     14  C   UNL     1      27.000  -4.984  19.608  1.00  0.00    -0.000 C 
BRANCH  14  15
ATOM     15  C   UNL     1      25.479  -5.074  19.388  1.00  0.00    -0.000 C 
BRANCH  15  16
ATOM     16  C   UNL     1      24.919  -6.506  19.307  1.00  0.00    -0.000 C 
BRANCH  16  17
ATOM     17  C   UNL     1      25.931  -7.569  19.767  1.00  0.00    -0.000 C 
BRANCH  17  18
ATOM     18  C   UNL     1      25.370  -8.489  20.866  1.00  0.00    -0.000 C 
BRANCH  18  19
ATOM     19  C   UNL     1      23.863  -8.325  21.135  1.00  0.00    -0.003 C 
ATOM     20  C   UNL     1      23.427  -8.911  22.478  1.00  0.00     0.004 C 
ENDBRANCH  18  19
ENDBRANCH  17  18
ENDBRANCH  16  17
ENDBRANCH  15  16
ENDBRANCH  14  15
ENDBRANCH  13  14
ENDBRANCH  12  13
ENDBRANCH   1  12
TORSDOF 16
ENDMDL
MODEL 2
REMARK VINA RESULT:    -7.261      0.746      1.412
REMARK INTER + INTRA:         -15.384
REMARK INTER:                 -13.908
REMARK INTRA:                  -1.476
REMARK UNBOUND:                -1.332
REMARK SMILES CCCCCCCCCCCCCCCCCC(=O)[O-]
REMARK SMILES IDX 10 1 11 2 12 3 13 4 14 5 15 6 16 7 17 8 18 9 19 10 20 11
REMARK SMILES IDX 9 12 8 13 7 14 6 15 5 16 4 17 3 18 2 19 1 20
REMARK H PARENT
REMARK Flexibility Score: inf
ROOT
ATOM      1  C   UNL     1      29.466  -3.069  19.887  1.00  0.00     0.000 C 
ENDROOT
BRANCH   1   2
ATOM      2  C   UNL     1      29.609  -1.563  19.624  1.00  0.00     0.000 C 
BRANCH   2   3
ATOM      3  C   UNL     1      28.544  -0.769  20.396  1.00  0.00     0.000 C 
BRANCH   3   4
ATOM      4  C   UNL     1      27.274  -0.507  19.565  1.00  0.00     0.000 C 
BRANCH   4   5
ATOM      5  C   UNL     1      26.090  -1.448  19.864  1.00  0.00     0.000 C 
BRANCH   5   6
ATOM      6  C   UNL     1      24.700  -0.794  19.780  1.00  0.00     0.000 C 
BRANCH   6   7
ATOM      7  C   UNL     1      24.769   0.733  19.603  1.00  0.00     0.006 C 
BRANCH   7   8
ATOM      8  C   UNL     1      23.470   1.307  19.022  1.00  0.00     0.053 C 
BRANCH   8   9
ATOM      9  C   UNL     1      23.736   2.203  17.852  1.00  0.00     0.041 C 
ATOM     10  O   UNL     1      24.367   3.281  18.009  1.00  0.00    -0.550 OA
ATOM     11  O   UNL     1      23.257   1.864  16.593  1.00  0.00    -0.550 OA
ENDBRANCH   8   9
ENDBRANCH   7   8
ENDBRANCH   6   7
ENDBRANCH   5   6
ENDBRANCH   4   5
ENDBRANCH   3   4
ENDBRANCH   2   3
ENDBRANCH   1   2
BRANCH   1  12
ATOM     12  C   UNL     1      29.713  -3.916  18.630  1.00  0.00     0.000 C 
BRANCH  12  13
ATOM     13  C   UNL     1      28.560  -4.887  18.335  1.00  0.00    -0.000 C 
BRANCH  13  14
ATOM     14  C   UNL     1      27.415  -4.701  19.343  1.00  0.00    -0.000 C 
BRANCH  14  15
ATOM     15  C   UNL     1      26.024  -4.930  18.724  1.00  0.00    -0.000 C 
BRANCH  15  16
ATOM     16  C   UNL     1      24.917  -5.286  19.732  1.00  0.00    -0.000 C 
BRANCH  16  17
ATOM     17  C   UNL     1      24.365  -6.708  19.535  1.00  0.00    -0.000 C 
BRANCH  17  18
ATOM     18  C   UNL     1      24.379  -7.537  20.831  1.00  0.00    -0.000 C 
BRANCH  18  19
ATOM     19  C   UNL     1      25.462  -8.630  20.885  1.00  0.00    -0.003 C 
ATOM     20  C   UNL     1      26.651  -8.340  19.969  1.00  0.00     0.004 C 
ENDBRANCH  18  19
ENDBRANCH  17  18
ENDBRANCH  16  17
ENDBRANCH  15  16
ENDBRANCH  14  15
ENDBRANCH  13  14
ENDBRANCH  12  13
ENDBRANCH   1  12
TORSDOF 16
ENDMDL
MODEL 3
REMARK VINA RESULT:    -7.220      3.757      7.768
REMARK INTER + INTRA:         -15.305
REMARK INTER:                 -14.099
REMARK INTRA:                  -1.206
REMARK UNBOUND:                -1.332
REMARK SMILES CCCCCCCCCCCCCCCCCC(=O)[O-]
REMARK SMILES IDX 10 1 11 2 12 3 13 4 14 5 15 6 16 7 17 8 18 9 19 10 20 11
REMARK SMILES IDX 9 12 8 13 7 14 6 15 5 16 4 17 3 18 2 19 1 20
REMARK H PARENT
REMARK Flexibility Score: inf
ROOT
ATOM      1  C   UNL     1      29.554  -2.872  18.769  1.00  0.00     0.000 C 
ENDROOT
BRANCH   1   2
ATOM      2  C   UNL     1      29.073  -4.326  18.657  1.00  0.00     0.000 C 
BRANCH   2   3
ATOM      3  C   UNL     1      27.804  -4.548  19.493  1.00  0.00     0.000 C 
BRANCH   3   4
ATOM      4  C   UNL     1      26.529  -4.633  18.634  1.00  0.00     0.000 C 
BRANCH   4   5
ATOM      5  C   UNL     1      25.227  -4.888  19.419  1.00  0.00     0.000 C 
BRANCH   5   6
ATOM      6  C   UNL     1      24.780  -6.360  19.479  1.00  0.00     0.000 C 
BRANCH   6   7
ATOM      7  C   UNL     1      25.774  -7.254  20.241  1.00  0.00     0.006 C 
BRANCH   7   8
ATOM      8  C   UNL     1      25.128  -8.564  20.712  1.00  0.00     0.053 C 
BRANCH   8   9
ATOM      9  C   UNL     1      23.833  -8.318  21.424  1.00  0.00     0.041 C 
ATOM     10  O   UNL     1      23.831  -7.894  22.609  1.00  0.00    -0.550 OA
ATOM     11  O   UNL     1      22.628  -8.590  20.789  1.00  0.00    -0.550 OA
ENDBRANCH   8   9
ENDBRANCH   7   8
ENDBRANCH   6   7
ENDBRANCH   5   6
ENDBRANCH   4   5
ENDBRANCH   3   4
ENDBRANCH   2   3
ENDBRANCH   1   2
BRANCH   1  12
ATOM     12  C   UNL     1      29.018  -2.165  20.023  1.00  0.00     0.000 C 
BRANCH  12  13
ATOM     13  C   UNL     1      28.849  -0.652  19.822  1.00  0.00    -0.000 C 
BRANCH  13  14
ATOM     14  C   UNL     1      27.413  -0.212  20.145  1.00  0.00    -0.000 C 
BRANCH  14  15
ATOM     15  C   UNL     1      26.372  -1.317  19.883  1.00  0.00    -0.000 C 
BRANCH  15  16
ATOM     16  C   UNL     1      24.921  -0.821  19.752  1.00  0.00    -0.000 C 
BRANCH  16  17
ATOM     17  C   UNL     1      24.806   0.712  19.807  1.00  0.00    -0.000 C 
BRANCH  17  18
ATOM     18  C   UNL     1      23.660   1.255  18.936  1.00  0.00    -0.000 C 
BRANCH  18  19
ATOM     19  C   UNL     1      24.057   2.406  17.993  1.00  0.00    -0.003 C 
ATOM     20  C   UNL     1      23.332   2.356  16.649  1.00  0.00     0.004 C 
ENDBRANCH  18  19
ENDBRANCH  17  18
ENDBRANCH  16  17
ENDBRANCH  15  16
ENDBRANCH  14  15
ENDBRANCH  13  14
ENDBRANCH  12  13
ENDBRANCH   1  12
TORSDOF 16
ENDMDL
MODEL 4
REMARK VINA RESULT:    -7.128      3.458      7.670
REMARK INTER + INTRA:         -15.128
REMARK INTER:                 -13.550
REMARK INTRA:                  -1.578
REMARK UNBOUND:                -1.332
REMARK SMILES CCCCCCCCCCCCCCCCCC(=O)[O-]
REMARK SMILES IDX 10 1 11 2 12 3 13 4 14 5 15 6 16 7 17 8 18 9 19 10 20 11
REMARK SMILES IDX 9 12 8 13 7 14 6 15 5 16 4 17 3 18 2 19 1 20
REMARK H PARENT
REMARK Flexibility Score: inf
ROOT
ATOM      1  C   UNL     1      28.959  -2.938  19.893  1.00  0.00     0.000 C 
ENDROOT
BRANCH   1   2
ATOM      2  C   UNL     1      29.363  -3.692  18.618  1.00  0.00     0.000 C 
BRANCH   2   3
ATOM      3  C   UNL     1      28.510  -4.956  18.436  1.00  0.00     0.000 C 
BRANCH   3   4
ATOM      4  C   UNL     1      27.021  -4.643  18.195  1.00  0.00     0.000 C 
BRANCH   4   5
ATOM      5  C   UNL     1      26.067  -5.092  19.319  1.00  0.00     0.000 C 
BRANCH   5   6
ATOM      6  C   UNL     1      26.597  -6.233  20.206  1.00  0.00     0.000 C 
BRANCH   6   7
ATOM      7  C   UNL     1      26.283  -7.627  19.637  1.00  0.00     0.006 C 
BRANCH   7   8
ATOM      8  C   UNL     1      25.486  -8.488  20.625  1.00  0.00     0.053 C 
BRANCH   8   9
ATOM      9  C   UNL     1      24.226  -7.806  21.062  1.00  0.00     0.041 C 
ATOM     10  O   UNL     1      23.959  -7.692  22.287  1.00  0.00    -0.550 OA
ATOM     11  O   UNL     1      23.330  -7.327  20.115  1.00  0.00    -0.550 OA
ENDBRANCH   8   9
ENDBRANCH   7   8
ENDBRANCH   6   7
ENDBRANCH   5   6
ENDBRANCH   4   5
ENDBRANCH   3   4
ENDBRANCH   2   3
ENDBRANCH   1   2
BRANCH   1  12
ATOM     12  C   UNL     1      28.898  -1.417  19.688  1.00  0.00     0.000 C 
BRANCH  12  13
ATOM     13  C   UNL     1      27.723  -0.766  20.433  1.00  0.00    -0.000 C 
BRANCH  13  14
ATOM     14  C   UNL     1      26.596  -1.782  20.674  1.00  0.00    -0.000 C 
BRANCH  14  15
ATOM     15  C   UNL     1      25.324  -1.473  19.863  1.00  0.00    -0.000 C 
BRANCH  15  16
ATOM     16  C   UNL     1      25.123   0.013  19.514  1.00  0.00    -0.000 C 
BRANCH  16  17
ATOM     17  C   UNL     1      23.641   0.402  19.390  1.00  0.00    -0.000 C 
BRANCH  17  18
ATOM     18  C   UNL     1      23.440   1.897  19.090  1.00  0.00    -0.000 C 
BRANCH  18  19
ATOM     19  C   UNL     1      24.174   2.407  17.836  1.00  0.00    -0.003 C 
ATOM     20  C   UNL     1      23.329   2.308  16.566  1.00  0.00     0.004 C 
ENDBRANCH  18  19
ENDBRANCH  17  18
ENDBRANCH  16  17
ENDBRANCH  15  16
ENDBRANCH  14  15
ENDBRANCH  13  14
ENDBRANCH  12  13
ENDBRANCH   1  12
TORSDOF 16
ENDMDL
MODEL 5
REMARK VINA RESULT:    -7.125      3.717      7.729
REMARK INTER + INTRA:         -15.122
REMARK INTER:                 -13.982
REMARK INTRA:                  -1.140
REMARK UNBOUND:                -1.332
REMARK SMILES CCCCCCCCCCCCCCCCCC(=O)[O-]
REMARK SMILES IDX 10 1 11 2 12 3 13 4 14 5 15 6 16 7 17 8 18 9 19 10 20 11
REMARK SMILES IDX 9 12 8 13 7 14 6 15 5 16 4 17 3 18 2 19 1 20
REMARK H PARENT
REMARK Flexibility Score: inf
ROOT
ATOM      1  C   UNL     1      29.121  -4.341  18.620  1.00  0.00     0.000 C 
ENDROOT
BRANCH   1   2
ATOM      2  C   UNL     1      27.642  -4.667  18.368  1.00  0.00     0.000 C 
BRANCH   2   3
ATOM      3  C   UNL     1      26.857  -4.704  19.689  1.00  0.00     0.000 C 
BRANCH   3   4
ATOM      4  C   UNL     1      25.339  -4.857  19.479  1.00  0.00     0.000 C 
BRANCH   4   5
ATOM      5  C   UNL     1      24.814  -6.305  19.523  1.00  0.00     0.000 C 
BRANCH   5   6
ATOM      6  C   UNL     1      25.900  -7.394  19.462  1.00  0.00     0.000 C 
BRANCH   6   7
ATOM      7  C   UNL     1      25.978  -8.232  20.750  1.00  0.00     0.006 C 
BRANCH   7   8
ATOM      8  C   UNL     1      24.808  -9.217  20.869  1.00  0.00     0.053 C 
BRANCH   8   9
ATOM      9  C   UNL     1      23.642  -8.607  21.585  1.00  0.00     0.041 C 
ATOM     10  O   UNL     1      23.725  -8.328  22.810  1.00  0.00    -0.550 OA
ATOM     11  O   UNL     1      22.451  -8.379  20.907  1.00  0.00    -0.550 OA
ENDBRANCH   8   9
ENDBRANCH   7   8
ENDBRANCH   6   7
ENDBRANCH   5   6
ENDBRANCH   4   5
ENDBRANCH   3   4
ENDBRANCH   2   3
ENDBRANCH   1   2
BRANCH   1  12
ATOM     12  C   UNL     1      29.330  -3.453  19.856  1.00  0.00     0.000 C 
BRANCH  12  13
ATOM     13  C   UNL     1      29.673  -2.001  19.490  1.00  0.00    -0.000 C 
BRANCH  13  14
ATOM     14  C   UNL     1      28.735  -1.017  20.208  1.00  0.00    -0.000 C 
BRANCH  14  15
ATOM     15  C   UNL     1      27.370  -0.870  19.512  1.00  0.00    -0.000 C 
BRANCH  15  16
ATOM     16  C   UNL     1      26.180  -1.463  20.289  1.00  0.00    -0.000 C 
BRANCH  16  17
ATOM     17  C   UNL     1      24.824  -0.919  19.809  1.00  0.00    -0.000 C 
BRANCH  17  18
ATOM     18  C   UNL     1      24.769   0.619  19.796  1.00  0.00    -0.000 C 
BRANCH  18  19
ATOM     19  C   UNL     1      23.697   1.217  18.866  1.00  0.00    -0.003 C 
ATOM     20  C   UNL     1      24.194   2.432  18.084  1.00  0.00     0.004 C 
ENDBRANCH  18  19
ENDBRANCH  17  18
ENDBRANCH  16  17
ENDBRANCH  15  16
ENDBRANCH  14  15
ENDBRANCH  13  14
ENDBRANCH  12  13
ENDBRANCH   1  12
TORSDOF 16
ENDMDL
MODEL 6
REMARK VINA RESULT:    -6.847      3.135      4.518
REMARK INTER + INTRA:         -14.583
REMARK INTER:                 -13.245
REMARK INTRA:                  -1.338
REMARK UNBOUND:                -1.332
REMARK SMILES CCCCCCCCCCCCCCCCCC(=O)[O-]
REMARK SMILES IDX 10 1 11 2 12 3 13 4 14 5 15 6 16 7 17 8 18 9 19 10 20 11
REMARK SMILES IDX 9 12 8 13 7 14 6 15 5 16 4 17 3 18 2 19 1 20
REMARK H PARENT
REMARK Flexibility Score: inf
ROOT
ATOM      1  C   UNL     1      25.101  -3.579  19.650  1.00  0.00     0.000 C 
ENDROOT
BRANCH   1   2
ATOM      2  C   UNL     1      25.626  -2.292  20.303  1.00  0.00     0.000 C 
BRANCH   2   3
ATOM      3  C   UNL     1      24.971  -1.053  19.675  1.00  0.00     0.000 C 
BRANCH   3   4
ATOM      4  C   UNL     1      25.603   0.267  20.155  1.00  0.00     0.000 C 
BRANCH   4   5
ATOM      5  C   UNL     1      26.963   0.611  19.516  1.00  0.00     0.000 C 
BRANCH   5   6
ATOM      6  C   UNL     1      28.183  -0.044  20.187  1.00  0.00     0.000 C 
BRANCH   6   7
ATOM      7  C   UNL     1      28.969  -0.959  19.232  1.00  0.00     0.006 C 
BRANCH   7   8
ATOM      8  C   UNL     1      29.159  -2.368  19.807  1.00  0.00     0.053 C 
BRANCH   8   9
ATOM      9  C   UNL     1      30.169  -3.153  19.026  1.00  0.00     0.041 C 
ATOM     10  O   UNL     1      29.797  -4.078  18.257  1.00  0.00    -0.550 OA
ATOM     11  O   UNL     1      31.524  -2.885  19.174  1.00  0.00    -0.550 OA
ENDBRANCH   8   9
ENDBRANCH   7   8
ENDBRANCH   6   7
ENDBRANCH   5   6
ENDBRANCH   4   5
ENDBRANCH   3   4
ENDBRANCH   2   3
ENDBRANCH   1   2
BRANCH   1  12
ATOM     12  C   UNL     1      26.148  -4.258  18.754  1.00  0.00     0.000 C 
BRANCH  12  13
ATOM     13  C   UNL     1      27.032  -5.250  19.525  1.00  0.00    -0.000 C 
BRANCH  13  14
ATOM     14  C   UNL     1      27.206  -6.558  18.736  1.00  0.00    -0.000 C 
BRANCH  14  15
ATOM     15  C   UNL     1      26.524  -7.762  19.409  1.00  0.00    -0.000 C 
BRANCH  15  16
ATOM     16  C   UNL     1      25.711  -7.423  20.673  1.00  0.00    -0.000 C 
BRANCH  16  17
ATOM     17  C   UNL     1      24.194  -7.559  20.462  1.00  0.00    -0.000 C 
BRANCH  17  18
ATOM     18  C   UNL     1      23.587  -8.738  21.241  1.00  0.00    -0.000 C 
BRANCH  18  19
ATOM     19  C   UNL     1      23.637  -8.593  22.773  1.00  0.00    -0.003 C 
ATOM     20  C   UNL     1      22.599  -9.454  23.491  1.00  0.00     0.004 C 
ENDBRANCH  18  19
ENDBRANCH  17  18
ENDBRANCH  16  17
ENDBRANCH  15  16
ENDBRANCH  14  15
ENDBRANCH  13  14
ENDBRANCH  12  13
ENDBRANCH   1  12
TORSDOF 16
ENDMDL
MODEL 7
REMARK VINA RESULT:    -6.563      4.474      8.435
REMARK INTER + INTRA:         -14.034
REMARK INTER:                 -12.944
REMARK INTRA:                  -1.091
REMARK UNBOUND:                -1.332
REMARK SMILES CCCCCCCCCCCCCCCCCC(=O)[O-]
REMARK SMILES IDX 10 1 11 2 12 3 13 4 14 5 15 6 16 7 17 8 18 9 19 10 20 11
REMARK SMILES IDX 9 12 8 13 7 14 6 15 5 16 4 17 3 18 2 19 1 20
REMARK H PARENT
REMARK Flexibility Score: inf
ROOT
ATOM      1  C   UNL     1      26.420  -4.000  19.736  1.00  0.00     0.000 C 
ENDROOT
BRANCH   1   2
ATOM      2  C   UNL     1      25.886  -5.290  19.096  1.00  0.00     0.000 C 
BRANCH   2   3
ATOM      3  C   UNL     1      26.945  -6.402  19.143  1.00  0.00     0.000 C 
BRANCH   3   4
ATOM      4  C   UNL     1      26.378  -7.748  19.632  1.00  0.00     0.000 C 
BRANCH   4   5
ATOM      5  C   UNL     1      25.351  -7.648  20.778  1.00  0.00     0.000 C 
BRANCH   5   6
ATOM      6  C   UNL     1      23.893  -7.925  20.372  1.00  0.00     0.000 C 
BRANCH   6   7
ATOM      7  C   UNL     1      23.220  -8.990  21.256  1.00  0.00     0.006 C 
BRANCH   7   8
ATOM      8  C   UNL     1      23.653  -8.879  22.724  1.00  0.00     0.053 C 
BRANCH   8   9
ATOM      9  C   UNL     1      22.580  -9.355  23.654  1.00  0.00     0.041 C 
ATOM     10  O   UNL     1      22.716 -10.439  24.279  1.00  0.00    -0.550 OA
ATOM     11  O   UNL     1      21.413  -8.616  23.805  1.00  0.00    -0.550 OA
ENDBRANCH   8   9
ENDBRANCH   7   8
ENDBRANCH   6   7
ENDBRANCH   5   6
ENDBRANCH   4   5
ENDBRANCH   3   4
ENDBRANCH   2   3
ENDBRANCH   1   2
BRANCH   1  12
ATOM     12  C   UNL     1      27.542  -3.350  18.913  1.00  0.00     0.000 C 
BRANCH  12  13
ATOM     13  C   UNL     1      28.875  -3.289  19.675  1.00  0.00    -0.000 C 
BRANCH  13  14
ATOM     14  C   UNL     1      29.497  -1.887  19.580  1.00  0.00    -0.000 C 
BRANCH  14  15
ATOM     15  C   UNL     1      28.659  -0.808  20.290  1.00  0.00    -0.000 C 
BRANCH  15  16
ATOM     16  C   UNL     1      27.902   0.147  19.348  1.00  0.00    -0.000 C 
BRANCH  16  17
ATOM     17  C   UNL     1      26.568   0.634  19.939  1.00  0.00    -0.000 C 
BRANCH  17  18
ATOM     18  C   UNL     1      25.431  -0.387  19.763  1.00  0.00    -0.000 C 
BRANCH  18  19
ATOM     19  C   UNL     1      24.056   0.229  19.446  1.00  0.00    -0.003 C 
ATOM     20  C   UNL     1      24.153   1.589  18.756  1.00  0.00     0.004 C 
ENDBRANCH  18  19
ENDBRANCH  17  18
ENDBRANCH  16  17
ENDBRANCH  15  16
ENDBRANCH  14  15
ENDBRANCH  13  14
ENDBRANCH  12  13
ENDBRANCH   1  12
TORSDOF 16
ENDMDL
MODEL 8
REMARK VINA RESULT:    -6.481      3.742      7.738
REMARK INTER + INTRA:         -13.874
REMARK INTER:                 -12.196
REMARK INTRA:                  -1.679
REMARK UNBOUND:                -1.332
REMARK SMILES CCCCCCCCCCCCCCCCCC(=O)[O-]
REMARK SMILES IDX 10 1 11 2 12 3 13 4 14 5 15 6 16 7 17 8 18 9 19 10 20 11
REMARK SMILES IDX 9 12 8 13 7 14 6 15 5 16 4 17 3 18 2 19 1 20
REMARK H PARENT
REMARK Flexibility Score: inf
ROOT
ATOM      1  C   UNL     1      25.182  -2.021  20.231  1.00  0.00     0.000 C 
ENDROOT
BRANCH   1   2
ATOM      2  C   UNL     1      25.898  -3.069  19.367  1.00  0.00     0.000 C 
BRANCH   2   3
ATOM      3  C   UNL     1      24.953  -4.229  19.018  1.00  0.00     0.000 C 
BRANCH   3   4
ATOM      4  C   UNL     1      25.148  -5.455  19.929  1.00  0.00     0.000 C 
BRANCH   4   5
ATOM      5  C   UNL     1      26.551  -6.093  19.874  1.00  0.00     0.000 C 
BRANCH   5   6
ATOM      6  C   UNL     1      26.570  -7.598  19.554  1.00  0.00     0.000 C 
BRANCH   6   7
ATOM      7  C   UNL     1      26.366  -8.476  20.801  1.00  0.00     0.006 C 
BRANCH   7   8
ATOM      8  C   UNL     1      25.065  -9.286  20.730  1.00  0.00     0.053 C 
BRANCH   8   9
ATOM      9  C   UNL     1      23.912  -8.536  21.324  1.00  0.00     0.041 C 
ATOM     10  O   UNL     1      23.909  -8.244  22.548  1.00  0.00    -0.550 OA
ATOM     11  O   UNL     1      22.825  -8.189  20.531  1.00  0.00    -0.550 OA
ENDBRANCH   8   9
ENDBRANCH   7   8
ENDBRANCH   6   7
ENDBRANCH   5   6
ENDBRANCH   4   5
ENDBRANCH   3   4
ENDBRANCH   2   3
ENDBRANCH   1   2
BRANCH   1  12
ATOM     12  C   UNL     1      24.389  -1.005  19.395  1.00  0.00     0.000 C 
BRANCH  12  13
ATOM     13  C   UNL     1      24.833   0.443  19.647  1.00  0.00    -0.000 C 
BRANCH  13  14
ATOM     14  C   UNL     1      26.076   0.487  20.550  1.00  0.00    -0.000 C 
BRANCH  14  15
ATOM     15  C   UNL     1      27.316   1.061  19.839  1.00  0.00    -0.000 C 
BRANCH  15  16
ATOM     16  C   UNL     1      28.187   0.018  19.115  1.00  0.00    -0.000 C 
BRANCH  16  17
ATOM     17  C   UNL     1      28.811  -1.009  20.074  1.00  0.00    -0.000 C 
BRANCH  17  18
ATOM     18  C   UNL     1      29.622  -2.092  19.342  1.00  0.00    -0.000 C 
BRANCH  18  19
ATOM     19  C   UNL     1      29.238  -3.539  19.704  1.00  0.00    -0.003 C 
ATOM     20  C   UNL     1      29.231  -4.477  18.497  1.00  0.00     0.004 C 
ENDBRANCH  18  19
ENDBRANCH  17  18
ENDBRANCH  16  17
ENDBRANCH  15  16
ENDBRANCH  14  15
ENDBRANCH  13  14
ENDBRANCH  12  13
ENDBRANCH   1  12
TORSDOF 16
ENDMDL
MODEL 9
REMARK VINA RESULT:    -6.314      1.190      2.385
REMARK INTER + INTRA:         -13.552
REMARK INTER:                 -12.426
REMARK INTRA:                  -1.126
REMARK UNBOUND:                -1.332
REMARK SMILES CCCCCCCCCCCCCCCCCC(=O)[O-]
REMARK SMILES IDX 10 1 11 2 12 3 13 4 14 5 15 6 16 7 17 8 18 9 19 10 20 11
REMARK SMILES IDX 9 12 8 13 7 14 6 15 5 16 4 17 3 18 2 19 1 20
REMARK H PARENT
REMARK Flexibility Score: inf
ROOT
ATOM      1  C   UNL     1      27.333  -4.275  18.342  1.00  0.00     0.000 C 
ENDROOT
BRANCH   1   2
ATOM      2  C   UNL     1      28.836  -4.451  18.601  1.00  0.00     0.000 C 
BRANCH   2   3
ATOM      3  C   UNL     1      29.400  -3.256  19.384  1.00  0.00     0.000 C 
BRANCH   3   4
ATOM      4  C   UNL     1      28.552  -1.981  19.224  1.00  0.00     0.000 C 
BRANCH   4   5
ATOM      5  C   UNL     1      28.106  -1.321  20.543  1.00  0.00     0.000 C 
BRANCH   5   6
ATOM      6  C   UNL     1      26.592  -1.072  20.669  1.00  0.00     0.000 C 
BRANCH   6   7
ATOM      7  C   UNL     1      26.079  -0.011  19.680  1.00  0.00     0.006 C 
BRANCH   7   8
ATOM      8  C   UNL     1      24.560  -0.095  19.479  1.00  0.00     0.053 C 
BRANCH   8   9
ATOM      9  C   UNL     1      23.991   1.208  19.008  1.00  0.00     0.041 C 
ATOM     10  O   UNL     1      24.753   2.118  18.588  1.00  0.00    -0.550 OA
ATOM     11  O   UNL     1      22.621   1.430  19.065  1.00  0.00    -0.550 OA
ENDBRANCH   8   9
ENDBRANCH   7   8
ENDBRANCH   6   7
ENDBRANCH   5   6
ENDBRANCH   4   5
ENDBRANCH   3   4
ENDBRANCH   2   3
ENDBRANCH   1   2
BRANCH   1  12
ATOM     12  C   UNL     1      26.466  -5.104  19.303  1.00  0.00     0.000 C 
BRANCH  12  13
ATOM     13  C   UNL     1      27.127  -6.433  19.698  1.00  0.00    -0.000 C 
BRANCH  13  14
ATOM     14  C   UNL     1      26.068  -7.483  20.071  1.00  0.00    -0.000 C 
BRANCH  14  15
ATOM     15  C   UNL     1      24.736  -6.859  20.525  1.00  0.00    -0.000 C 
BRANCH  15  16
ATOM     16  C   UNL     1      23.486  -7.703  20.213  1.00  0.00    -0.000 C 
BRANCH  16  17
ATOM     17  C   UNL     1      23.372  -8.953  21.102  1.00  0.00    -0.000 C 
BRANCH  17  18
ATOM     18  C   UNL     1      23.548  -8.638  22.598  1.00  0.00    -0.000 C 
BRANCH  18  19
ATOM     19  C   UNL     1      22.839  -9.619  23.550  1.00  0.00    -0.003 C 
ATOM     20  C   UNL     1      21.611  -9.013  24.227  1.00  0.00     0.004 C 
ENDBRANCH  18  19
ENDBRANCH  17  18
ENDBRANCH  16  17
ENDBRANCH  15  16
ENDBRANCH  14  15
ENDBRANCH  13  14
ENDBRANCH  12  13
ENDBRANCH   1  12
TORSDOF 16
ENDMDL
