MODEL 1
REMARK VINA RESULT:    -4.687      0.000      0.000
REMARK INTER + INTRA:         -16.095
REMARK INTER:                 -12.358
REMARK INTRA:                  -3.737
REMARK UNBOUND:                -3.737
REMARK SMILES CCCCCCCCCCCCCCCCCCCCCCCCCCCCCC(=O)[O-]
REMARK SMILES IDX 16 1 17 2 18 3 19 4 20 5 21 6 22 7 23 8 24 9 25 10 26 11
REMARK SMILES IDX 27 12 28 13 29 14 30 15 31 16 32 17 15 18 14 19 13 20 12 21
REMARK SMILES IDX 11 22 10 23 9 24 8 25 7 26 6 27 5 28 4 29 3 30 2 31 1 32
REMARK H PARENT
REMARK Flexibility Score: inf
ROOT
ATOM      1  C   UNL     1      -3.733  31.750  59.008  1.00  0.00     0.000 C 
ENDROOT
BRANCH   1   2
ATOM      2  C   UNL     1      -3.224  30.503  58.251  1.00  0.00     0.000 C 
BRANCH   2   3
ATOM      3  C   UNL     1      -4.328  29.743  57.484  1.00  0.00     0.000 C 
BRANCH   3   4
ATOM      4  C   UNL     1      -3.809  28.925  56.284  1.00  0.00     0.000 C 
BRANCH   4   5
ATOM      5  C   UNL     1      -4.773  27.841  55.772  1.00  0.00     0.000 C 
BRANCH   5   6
ATOM      6  C   UNL     1      -4.127  26.913  54.728  1.00  0.00     0.000 C 
BRANCH   6   7
ATOM      7  C   UNL     1      -2.598  27.066  54.665  1.00  0.00     0.000 C 
BRANCH   7   8
ATOM      8  C   UNL     1      -1.805  25.865  55.208  1.00  0.00     0.000 C 
BRANCH   8   9
ATOM      9  C   UNL     1      -0.337  26.216  55.509  1.00  0.00     0.000 C 
BRANCH   9  10
ATOM     10  C   UNL     1      -0.174  27.159  56.716  1.00  0.00     0.000 C 
BRANCH  10  11
ATOM     11  C   UNL     1       1.269  27.630  57.006  1.00  0.00     0.000 C 
BRANCH  11  12
ATOM     12  C   UNL     1       1.422  28.591  58.199  1.00  0.00     0.000 C 
BRANCH  12  13
ATOM     13  C   UNL     1       1.187  30.060  57.820  1.00  0.00     0.006 C 
BRANCH  13  14
ATOM     14  C   UNL     1       2.359  30.931  58.281  1.00  0.00     0.053 C 
BRANCH  14  15
ATOM     15  C   UNL     1       3.154  31.423  57.113  1.00  0.00     0.041 C 
ATOM     16  O   UNL     1       3.373  32.655  56.970  1.00  0.00    -0.550 OA
ATOM     17  O   UNL     1       3.658  30.522  56.183  1.00  0.00    -0.550 OA
ENDBRANCH  14  15
ENDBRANCH  13  14
ENDBRANCH  12  13
ENDBRANCH  11  12
ENDBRANCH  10  11
ENDBRANCH   9  10
ENDBRANCH   8   9
ENDBRANCH   7   8
ENDBRANCH   6   7
ENDBRANCH   5   6
ENDBRANCH   4   5
ENDBRANCH   3   4
ENDBRANCH   2   3
ENDBRANCH   1   2
BRANCH   1  18
ATOM     18  C   UNL     1      -2.879  32.126  60.232  1.00  0.00     0.000 C 
BRANCH  18  19
ATOM     19  C   UNL     1      -3.712  32.285  61.511  1.00  0.00     0.000 C 
BRANCH  19  20
ATOM     20  C   UNL     1      -2.848  32.437  62.774  1.00  0.00     0.000 C 
BRANCH  20  21
ATOM     21  C   UNL     1      -2.960  33.827  63.433  1.00  0.00     0.000 C 
BRANCH  21  22
ATOM     22  C   UNL     1      -1.686  34.219  64.203  1.00  0.00     0.000 C 
BRANCH  22  23
ATOM     23  C   UNL     1      -0.758  35.124  63.373  1.00  0.00     0.000 C 
BRANCH  23  24
ATOM     24  C   UNL     1       0.494  34.378  62.877  1.00  0.00    -0.000 C 
BRANCH  24  25
ATOM     25  C   UNL     1       0.292  33.729  61.498  1.00  0.00    -0.000 C 
BRANCH  25  26
ATOM     26  C   UNL     1       1.200  32.521  61.213  1.00  0.00    -0.000 C 
BRANCH  26  27
ATOM     27  C   UNL     1       0.463  31.176  61.335  1.00  0.00    -0.000 C 
BRANCH  27  28
ATOM     28  C   UNL     1       1.349  30.090  61.974  1.00  0.00    -0.000 C 
BRANCH  28  29
ATOM     29  C   UNL     1       0.660  29.382  63.154  1.00  0.00    -0.000 C 
BRANCH  29  30
ATOM     30  C   UNL     1      -0.220  30.347  63.968  1.00  0.00    -0.000 C 
BRANCH  30  31
ATOM     31  C   UNL     1       0.581  31.125  65.024  1.00  0.00    -0.003 C 
ATOM     32  C   UNL     1       1.655  30.265  65.695  1.00  0.00     0.004 C 
ENDBRANCH  30  31
ENDBRANCH  29  30
ENDBRANCH  28  29
ENDBRANCH  27  28
ENDBRANCH  26  27
ENDBRANCH  25  26
ENDBRANCH  24  25
ENDBRANCH  23  24
ENDBRANCH  22  23
ENDBRANCH  21  22
ENDBRANCH  20  21
ENDBRANCH  19  20
ENDBRANCH  18  19
ENDBRANCH   1  18
TORSDOF 28
ENDMDL
MODEL 2
REMARK VINA RESULT:    -4.645      2.719      8.171
REMARK INTER + INTRA:         -15.985
REMARK INTER:                 -12.860
REMARK INTRA:                  -3.125
REMARK UNBOUND:                -3.737
REMARK SMILES CCCCCCCCCCCCCCCCCCCCCCCCCCCCCC(=O)[O-]
REMARK SMILES IDX 16 1 17 2 18 3 19 4 20 5 21 6 22 7 23 8 24 9 25 10 26 11
REMARK SMILES IDX 27 12 28 13 29 14 30 15 31 16 32 17 15 18 14 19 13 20 12 21
REMARK SMILES IDX 11 22 10 23 9 24 8 25 7 26 6 27 5 28 4 29 3 30 2 31 1 32
REMARK H PARENT
REMARK Flexibility Score: inf
ROOT
ATOM      1  C   UNL     1      -2.485  28.924  56.564  1.00  0.00     0.000 C 
ENDROOT
BRANCH   1   2
ATOM      2  C   UNL     1      -2.618  29.906  57.749  1.00  0.00     0.000 C 
BRANCH   2   3
ATOM      3  C   UNL     1      -4.000  30.588  57.843  1.00  0.00     0.000 C 
BRANCH   3   4
ATOM      4  C   UNL     1      -4.398  31.006  59.274  1.00  0.00     0.000 C 
BRANCH   4   5
ATOM      5  C   UNL     1      -3.394  31.933  59.981  1.00  0.00     0.000 C 
BRANCH   5   6
ATOM      6  C   UNL     1      -3.853  32.342  61.393  1.00  0.00     0.000 C 
BRANCH   6   7
ATOM      7  C   UNL     1      -2.705  32.330  62.415  1.00  0.00     0.000 C 
BRANCH   7   8
ATOM      8  C   UNL     1      -2.681  33.533  63.375  1.00  0.00     0.000 C 
BRANCH   8   9
ATOM      9  C   UNL     1      -1.934  33.226  64.684  1.00  0.00     0.000 C 
BRANCH   9  10
ATOM     10  C   UNL     1      -0.403  33.308  64.542  1.00  0.00     0.000 C 
BRANCH  10  11
ATOM     11  C   UNL     1       0.387  32.107  65.111  1.00  0.00     0.000 C 
BRANCH  11  12
ATOM     12  C   UNL     1       0.151  30.764  64.396  1.00  0.00     0.000 C 
BRANCH  12  13
ATOM     13  C   UNL     1       1.150  29.677  64.816  1.00  0.00     0.006 C 
BRANCH  13  14
ATOM     14  C   UNL     1       1.694  29.955  66.220  1.00  0.00     0.053 C 
BRANCH  14  15
ATOM     15  C   UNL     1       3.139  29.583  66.320  1.00  0.00     0.041 C 
ATOM     16  O   UNL     1       3.699  28.958  65.380  1.00  0.00    -0.550 OA
ATOM     17  O   UNL     1       3.872  29.928  67.450  1.00  0.00    -0.550 OA
ENDBRANCH  14  15
ENDBRANCH  13  14
ENDBRANCH  12  13
ENDBRANCH  11  12
ENDBRANCH  10  11
ENDBRANCH   9  10
ENDBRANCH   8   9
ENDBRANCH   7   8
ENDBRANCH   6   7
ENDBRANCH   5   6
ENDBRANCH   4   5
ENDBRANCH   3   4
ENDBRANCH   2   3
ENDBRANCH   1   2
BRANCH   1  18
ATOM     18  C   UNL     1      -3.829  28.355  56.074  1.00  0.00     0.000 C 
BRANCH  18  19
ATOM     19  C   UNL     1      -3.726  26.891  55.626  1.00  0.00     0.000 C 
BRANCH  19  20
ATOM     20  C   UNL     1      -3.536  26.741  54.107  1.00  0.00     0.000 C 
BRANCH  20  21
ATOM     21  C   UNL     1      -2.153  26.183  53.712  1.00  0.00     0.000 C 
BRANCH  21  22
ATOM     22  C   UNL     1      -1.273  25.869  54.936  1.00  0.00     0.000 C 
BRANCH  22  23
ATOM     23  C   UNL     1       0.187  25.579  54.545  1.00  0.00     0.000 C 
BRANCH  23  24
ATOM     24  C   UNL     1       1.191  26.213  55.526  1.00  0.00    -0.000 C 
BRANCH  24  25
ATOM     25  C   UNL     1       0.503  26.956  56.682  1.00  0.00    -0.000 C 
BRANCH  25  26
ATOM     26  C   UNL     1       1.460  27.679  57.646  1.00  0.00    -0.000 C 
BRANCH  26  27
ATOM     27  C   UNL     1       1.123  29.170  57.818  1.00  0.00    -0.000 C 
BRANCH  27  28
ATOM     28  C   UNL     1       2.086  29.870  58.796  1.00  0.00    -0.000 C 
BRANCH  28  29
ATOM     29  C   UNL     1       1.563  31.240  59.263  1.00  0.00    -0.000 C 
BRANCH  29  30
ATOM     30  C   UNL     1       1.188  31.233  60.756  1.00  0.00    -0.000 C 
BRANCH  30  31
ATOM     31  C   UNL     1       1.765  32.439  61.514  1.00  0.00    -0.003 C 
ATOM     32  C   UNL     1       2.956  32.058  62.399  1.00  0.00     0.004 C 
ENDBRANCH  30  31
ENDBRANCH  29  30
ENDBRANCH  28  29
ENDBRANCH  27  28
ENDBRANCH  26  27
ENDBRANCH  25  26
ENDBRANCH  24  25
ENDBRANCH  23  24
ENDBRANCH  22  23
ENDBRANCH  21  22
ENDBRANCH  20  21
ENDBRANCH  19  20
ENDBRANCH  18  19
ENDBRANCH   1  18
TORSDOF 28
ENDMDL
MODEL 3
REMARK VINA RESULT:    -4.613      2.945      8.090
REMARK INTER + INTRA:         -15.901
REMARK INTER:                 -12.199
REMARK INTRA:                  -3.702
REMARK UNBOUND:                -3.737
REMARK SMILES CCCCCCCCCCCCCCCCCCCCCCCCCCCCCC(=O)[O-]
REMARK SMILES IDX 16 1 17 2 18 3 19 4 20 5 21 6 22 7 23 8 24 9 25 10 26 11
REMARK SMILES IDX 27 12 28 13 29 14 30 15 31 16 32 17 15 18 14 19 13 20 12 21
REMARK SMILES IDX 11 22 10 23 9 24 8 25 7 26 6 27 5 28 4 29 3 30 2 31 1 32
REMARK H PARENT
REMARK Flexibility Score: inf
ROOT
ATOM      1  C   UNL     1      -1.211  32.185  63.522  1.00  0.00     0.000 C 
ENDROOT
BRANCH   1   2
ATOM      2  C   UNL     1      -0.229  31.870  64.672  1.00  0.00     0.000 C 
BRANCH   2   3
ATOM      3  C   UNL     1       0.977  31.005  64.245  1.00  0.00     0.000 C 
BRANCH   3   4
ATOM      4  C   UNL     1       0.628  29.901  63.226  1.00  0.00     0.000 C 
BRANCH   4   5
ATOM      5  C   UNL     1       1.329  30.032  61.863  1.00  0.00     0.000 C 
BRANCH   5   6
ATOM      6  C   UNL     1       0.650  31.058  60.939  1.00  0.00     0.000 C 
BRANCH   6   7
ATOM      7  C   UNL     1       1.631  32.113  60.402  1.00  0.00     0.000 C 
BRANCH   7   8
ATOM      8  C   UNL     1       1.794  33.358  61.291  1.00  0.00     0.000 C 
BRANCH   8   9
ATOM      9  C   UNL     1       3.256  33.599  61.705  1.00  0.00     0.000 C 
BRANCH   9  10
ATOM     10  C   UNL     1       3.618  32.956  63.057  1.00  0.00     0.000 C 
BRANCH  10  11
ATOM     11  C   UNL     1       4.513  31.698  62.982  1.00  0.00     0.000 C 
BRANCH  11  12
ATOM     12  C   UNL     1       4.862  31.055  64.336  1.00  0.00     0.000 C 
BRANCH  12  13
ATOM     13  C   UNL     1       4.284  29.641  64.495  1.00  0.00     0.006 C 
BRANCH  13  14
ATOM     14  C   UNL     1       5.056  28.641  63.631  1.00  0.00     0.053 C 
BRANCH  14  15
ATOM     15  C   UNL     1       6.516  28.667  63.952  1.00  0.00     0.041 C 
ATOM     16  O   UNL     1       7.353  29.000  63.072  1.00  0.00    -0.550 OA
ATOM     17  O   UNL     1       6.957  28.328  65.227  1.00  0.00    -0.550 OA
ENDBRANCH  14  15
ENDBRANCH  13  14
ENDBRANCH  12  13
ENDBRANCH  11  12
ENDBRANCH  10  11
ENDBRANCH   9  10
ENDBRANCH   8   9
ENDBRANCH   7   8
ENDBRANCH   6   7
ENDBRANCH   5   6
ENDBRANCH   4   5
ENDBRANCH   3   4
ENDBRANCH   2   3
ENDBRANCH   1   2
BRANCH   1  18
ATOM     18  C   UNL     1      -1.370  33.689  63.235  1.00  0.00     0.000 C 
BRANCH  18  19
ATOM     19  C   UNL     1      -2.303  33.972  62.050  1.00  0.00     0.000 C 
BRANCH  19  20
ATOM     20  C   UNL     1      -3.175  32.763  61.671  1.00  0.00     0.000 C 
BRANCH  20  21
ATOM     21  C   UNL     1      -2.981  32.296  60.214  1.00  0.00     0.000 C 
BRANCH  21  22
ATOM     22  C   UNL     1      -4.070  31.307  59.762  1.00  0.00     0.000 C 
BRANCH  22  23
ATOM     23  C   UNL     1      -4.089  31.118  58.235  1.00  0.00     0.000 C 
BRANCH  23  24
ATOM     24  C   UNL     1      -3.136  29.999  57.773  1.00  0.00    -0.000 C 
BRANCH  24  25
ATOM     25  C   UNL     1      -3.557  29.375  56.433  1.00  0.00    -0.000 C 
BRANCH  25  26
ATOM     26  C   UNL     1      -4.098  27.939  56.531  1.00  0.00    -0.000 C 
BRANCH  26  27
ATOM     27  C   UNL     1      -4.714  27.439  55.212  1.00  0.00    -0.000 C 
BRANCH  27  28
ATOM     28  C   UNL     1      -3.664  26.779  54.299  1.00  0.00    -0.000 C 
BRANCH  28  29
ATOM     29  C   UNL     1      -2.619  25.969  55.087  1.00  0.00    -0.000 C 
BRANCH  29  30
ATOM     30  C   UNL     1      -1.231  26.024  54.423  1.00  0.00    -0.000 C 
BRANCH  30  31
ATOM     31  C   UNL     1      -0.105  26.288  55.435  1.00  0.00    -0.003 C 
ATOM     32  C   UNL     1      -0.585  27.086  56.650  1.00  0.00     0.004 C 
ENDBRANCH  30  31
ENDBRANCH  29  30
ENDBRANCH  28  29
ENDBRANCH  27  28
ENDBRANCH  26  27
ENDBRANCH  25  26
ENDBRANCH  24  25
ENDBRANCH  23  24
ENDBRANCH  22  23
ENDBRANCH  21  22
ENDBRANCH  20  21
ENDBRANCH  19  20
ENDBRANCH  18  19
ENDBRANCH   1  18
TORSDOF 28
ENDMDL
MODEL 4
REMARK VINA RESULT:    -4.570      1.636      3.243
REMARK INTER + INTRA:         -15.789
REMARK INTER:                 -12.187
REMARK INTRA:                  -3.602
REMARK UNBOUND:                -3.737
REMARK SMILES CCCCCCCCCCCCCCCCCCCCCCCCCCCCCC(=O)[O-]
REMARK SMILES IDX 16 1 17 2 18 3 19 4 20 5 21 6 22 7 23 8 24 9 25 10 26 11
REMARK SMILES IDX 27 12 28 13 29 14 30 15 31 16 32 17 15 18 14 19 13 20 12 21
REMARK SMILES IDX 11 22 10 23 9 24 8 25 7 26 6 27 5 28 4 29 3 30 2 31 1 32
REMARK H PARENT
REMARK Flexibility Score: inf
ROOT
ATOM      1  C   UNL     1      -2.941  32.673  60.725  1.00  0.00     0.000 C 
ENDROOT
BRANCH   1   2
ATOM      2  C   UNL     1      -3.856  31.605  60.089  1.00  0.00     0.000 C 
BRANCH   2   3
ATOM      3  C   UNL     1      -3.556  31.331  58.599  1.00  0.00     0.000 C 
BRANCH   3   4
ATOM      4  C   UNL     1      -4.310  30.115  58.021  1.00  0.00     0.000 C 
BRANCH   4   5
ATOM      5  C   UNL     1      -3.689  29.514  56.748  1.00  0.00     0.000 C 
BRANCH   5   6
ATOM      6  C   UNL     1      -3.958  28.004  56.609  1.00  0.00     0.000 C 
BRANCH   6   7
ATOM      7  C   UNL     1      -4.705  27.652  55.313  1.00  0.00     0.000 C 
BRANCH   7   8
ATOM      8  C   UNL     1      -3.954  26.692  54.374  1.00  0.00     0.000 C 
BRANCH   8   9
ATOM      9  C   UNL     1      -2.792  25.969  55.077  1.00  0.00     0.000 C 
BRANCH   9  10
ATOM     10  C   UNL     1      -1.416  26.304  54.473  1.00  0.00     0.000 C 
BRANCH  10  11
ATOM     11  C   UNL     1      -0.236  26.330  55.472  1.00  0.00     0.000 C 
BRANCH  11  12
ATOM     12  C   UNL     1      -0.505  27.075  56.792  1.00  0.00     0.000 C 
BRANCH  12  13
ATOM     13  C   UNL     1       0.753  27.729  57.379  1.00  0.00     0.006 C 
BRANCH  13  14
ATOM     14  C   UNL     1       0.558  29.240  57.528  1.00  0.00     0.053 C 
BRANCH  14  15
ATOM     15  C   UNL     1       1.750  29.876  58.170  1.00  0.00     0.041 C 
ATOM     16  O   UNL     1       1.858  31.130  58.204  1.00  0.00    -0.550 OA
ATOM     17  O   UNL     1       2.743  29.084  58.735  1.00  0.00    -0.550 OA
ENDBRANCH  14  15
ENDBRANCH  13  14
ENDBRANCH  12  13
ENDBRANCH  11  12
ENDBRANCH  10  11
ENDBRANCH   9  10
ENDBRANCH   8   9
ENDBRANCH   7   8
ENDBRANCH   6   7
ENDBRANCH   5   6
ENDBRANCH   4   5
ENDBRANCH   3   4
ENDBRANCH   2   3
ENDBRANCH   1   2
BRANCH   1  18
ATOM     18  C   UNL     1      -3.012  32.719  62.262  1.00  0.00     0.000 C 
BRANCH  18  19
ATOM     19  C   UNL     1      -1.694  33.171  62.905  1.00  0.00     0.000 C 
BRANCH  19  20
ATOM     20  C   UNL     1      -0.586  32.108  62.810  1.00  0.00     0.000 C 
BRANCH  20  21
ATOM     21  C   UNL     1      -0.688  31.014  63.893  1.00  0.00     0.000 C 
BRANCH  21  22
ATOM     22  C   UNL     1       0.293  29.853  63.651  1.00  0.00     0.000 C 
BRANCH  22  23
ATOM     23  C   UNL     1       1.044  29.992  62.315  1.00  0.00     0.000 C 
BRANCH  23  24
ATOM     24  C   UNL     1       2.157  28.940  62.158  1.00  0.00    -0.000 C 
BRANCH  24  25
ATOM     25  C   UNL     1       3.480  29.372  62.812  1.00  0.00    -0.000 C 
BRANCH  25  26
ATOM     26  C   UNL     1       4.274  30.429  62.026  1.00  0.00    -0.000 C 
BRANCH  26  27
ATOM     27  C   UNL     1       4.369  31.777  62.762  1.00  0.00    -0.000 C 
BRANCH  27  28
ATOM     28  C   UNL     1       4.166  31.621  64.281  1.00  0.00    -0.000 C 
BRANCH  28  29
ATOM     29  C   UNL     1       2.907  32.347  64.789  1.00  0.00    -0.000 C 
BRANCH  29  30
ATOM     30  C   UNL     1       2.326  31.677  66.047  1.00  0.00    -0.000 C 
BRANCH  30  31
ATOM     31  C   UNL     1       3.141  30.452  66.491  1.00  0.00    -0.003 C 
ATOM     32  C   UNL     1       2.309  29.166  66.494  1.00  0.00     0.004 C 
ENDBRANCH  30  31
ENDBRANCH  29  30
ENDBRANCH  28  29
ENDBRANCH  27  28
ENDBRANCH  26  27
ENDBRANCH  25  26
ENDBRANCH  24  25
ENDBRANCH  23  24
ENDBRANCH  22  23
ENDBRANCH  21  22
ENDBRANCH  20  21
ENDBRANCH  19  20
ENDBRANCH  18  19
ENDBRANCH   1  18
TORSDOF 28
ENDMDL
MODEL 5
REMARK VINA RESULT:    -4.499      1.630      7.595
REMARK INTER + INTRA:         -15.600
REMARK INTER:                 -12.926
REMARK INTRA:                  -2.674
REMARK UNBOUND:                -3.737
REMARK SMILES CCCCCCCCCCCCCCCCCCCCCCCCCCCCCC(=O)[O-]
REMARK SMILES IDX 16 1 17 2 18 3 19 4 20 5 21 6 22 7 23 8 24 9 25 10 26 11
REMARK SMILES IDX 27 12 28 13 29 14 30 15 31 16 32 17 15 18 14 19 13 20 12 21
REMARK SMILES IDX 11 22 10 23 9 24 8 25 7 26 6 27 5 28 4 29 3 30 2 31 1 32
REMARK H PARENT
REMARK Flexibility Score: inf
ROOT
ATOM      1  C   UNL     1      -3.349  31.980  59.992  1.00  0.00     0.000 C 
ENDROOT
BRANCH   1   2
ATOM      2  C   UNL     1      -3.681  32.132  61.492  1.00  0.00     0.000 C 
BRANCH   2   3
ATOM      3  C   UNL     1      -3.037  33.370  62.153  1.00  0.00     0.000 C 
BRANCH   3   4
ATOM      4  C   UNL     1      -2.770  33.208  63.664  1.00  0.00     0.000 C 
BRANCH   4   5
ATOM      5  C   UNL     1      -1.298  32.962  64.039  1.00  0.00     0.000 C 
BRANCH   5   6
ATOM      6  C   UNL     1      -0.695  31.742  63.320  1.00  0.00     0.000 C 
BRANCH   6   7
ATOM      7  C   UNL     1       0.005  30.772  64.285  1.00  0.00     0.000 C 
BRANCH   7   8
ATOM      8  C   UNL     1       1.486  31.086  64.557  1.00  0.00     0.000 C 
BRANCH   8   9
ATOM      9  C   UNL     1       2.410  29.899  64.231  1.00  0.00     0.000 C 
BRANCH   9  10
ATOM     10  C   UNL     1       2.805  29.829  62.744  1.00  0.00     0.000 C 
BRANCH  10  11
ATOM     11  C   UNL     1       1.695  29.355  61.779  1.00  0.00     0.000 C 
BRANCH  11  12
ATOM     12  C   UNL     1       1.382  30.310  60.613  1.00  0.00     0.000 C 
BRANCH  12  13
ATOM     13  C   UNL     1       2.153  31.635  60.698  1.00  0.00     0.006 C 
BRANCH  13  14
ATOM     14  C   UNL     1       2.548  32.122  59.302  1.00  0.00     0.053 C 
BRANCH  14  15
ATOM     15  C   UNL     1       2.742  33.605  59.285  1.00  0.00     0.041 C 
ATOM     16  O   UNL     1       3.150  34.203  60.316  1.00  0.00    -0.550 OA
ATOM     17  O   UNL     1       2.476  34.331  58.129  1.00  0.00    -0.550 OA
ENDBRANCH  14  15
ENDBRANCH  13  14
ENDBRANCH  12  13
ENDBRANCH  11  12
ENDBRANCH  10  11
ENDBRANCH   9  10
ENDBRANCH   8   9
ENDBRANCH   7   8
ENDBRANCH   6   7
ENDBRANCH   5   6
ENDBRANCH   4   5
ENDBRANCH   3   4
ENDBRANCH   2   3
ENDBRANCH   1   2
BRANCH   1  18
ATOM     18  C   UNL     1      -4.248  30.971  59.255  1.00  0.00     0.000 C 
BRANCH  18  19
ATOM     19  C   UNL     1      -3.674  30.544  57.897  1.00  0.00     0.000 C 
BRANCH  19  20
ATOM     20  C   UNL     1      -4.545  29.499  57.180  1.00  0.00     0.000 C 
BRANCH  20  21
ATOM     21  C   UNL     1      -3.749  28.586  56.225  1.00  0.00     0.000 C 
BRANCH  21  22
ATOM     22  C   UNL     1      -4.659  27.644  55.415  1.00  0.00     0.000 C 
BRANCH  22  23
ATOM     23  C   UNL     1      -3.867  26.791  54.409  1.00  0.00     0.000 C 
BRANCH  23  24
ATOM     24  C   UNL     1      -2.770  25.951  55.090  1.00  0.00    -0.000 C 
BRANCH  24  25
ATOM     25  C   UNL     1      -1.431  25.999  54.337  1.00  0.00    -0.000 C 
BRANCH  25  26
ATOM     26  C   UNL     1      -0.211  26.341  55.208  1.00  0.00    -0.000 C 
BRANCH  26  27
ATOM     27  C   UNL     1      -0.598  26.825  56.617  1.00  0.00    -0.000 C 
BRANCH  27  28
ATOM     28  C   UNL     1       0.458  27.777  57.210  1.00  0.00    -0.000 C 
BRANCH  28  29
ATOM     29  C   UNL     1       1.794  27.070  57.503  1.00  0.00    -0.000 C 
BRANCH  29  30
ATOM     30  C   UNL     1       2.122  27.062  59.006  1.00  0.00    -0.000 C 
BRANCH  30  31
ATOM     31  C   UNL     1       3.083  25.927  59.394  1.00  0.00    -0.003 C 
ATOM     32  C   UNL     1       3.538  26.018  60.853  1.00  0.00     0.004 C 
ENDBRANCH  30  31
ENDBRANCH  29  30
ENDBRANCH  28  29
ENDBRANCH  27  28
ENDBRANCH  26  27
ENDBRANCH  25  26
ENDBRANCH  24  25
ENDBRANCH  23  24
ENDBRANCH  22  23
ENDBRANCH  21  22
ENDBRANCH  20  21
ENDBRANCH  19  20
ENDBRANCH  18  19
ENDBRANCH   1  18
TORSDOF 28
ENDMDL
MODEL 6
REMARK VINA RESULT:    -4.481      1.902      7.599
REMARK INTER + INTRA:         -15.554
REMARK INTER:                 -12.720
REMARK INTRA:                  -2.834
REMARK UNBOUND:                -3.737
REMARK SMILES CCCCCCCCCCCCCCCCCCCCCCCCCCCCCC(=O)[O-]
REMARK SMILES IDX 16 1 17 2 18 3 19 4 20 5 21 6 22 7 23 8 24 9 25 10 26 11
REMARK SMILES IDX 27 12 28 13 29 14 30 15 31 16 32 17 15 18 14 19 13 20 12 21
REMARK SMILES IDX 11 22 10 23 9 24 8 25 7 26 6 27 5 28 4 29 3 30 2 31 1 32
REMARK H PARENT
REMARK Flexibility Score: inf
ROOT
ATOM      1  C   UNL     1      -4.379  29.579  57.256  1.00  0.00     0.000 C 
ENDROOT
BRANCH   1   2
ATOM      2  C   UNL     1      -3.422  30.491  58.054  1.00  0.00     0.000 C 
BRANCH   2   3
ATOM      3  C   UNL     1      -4.030  31.045  59.361  1.00  0.00     0.000 C 
BRANCH   3   4
ATOM      4  C   UNL     1      -3.171  32.129  60.043  1.00  0.00     0.000 C 
BRANCH   4   5
ATOM      5  C   UNL     1      -3.592  32.481  61.481  1.00  0.00     0.000 C 
BRANCH   5   6
ATOM      6  C   UNL     1      -2.592  33.418  62.182  1.00  0.00     0.000 C 
BRANCH   6   7
ATOM      7  C   UNL     1      -1.348  32.677  62.699  1.00  0.00     0.000 C 
BRANCH   7   8
ATOM      8  C   UNL     1      -0.990  32.961  64.168  1.00  0.00     0.000 C 
BRANCH   8   9
ATOM      9  C   UNL     1      -0.039  31.904  64.757  1.00  0.00     0.000 C 
BRANCH   9  10
ATOM     10  C   UNL     1      -0.256  30.498  64.168  1.00  0.00     0.000 C 
BRANCH  10  11
ATOM     11  C   UNL     1       1.028  29.685  63.886  1.00  0.00     0.000 C 
BRANCH  11  12
ATOM     12  C   UNL     1       1.277  29.335  62.408  1.00  0.00     0.000 C 
BRANCH  12  13
ATOM     13  C   UNL     1       1.878  30.500  61.608  1.00  0.00     0.006 C 
BRANCH  13  14
ATOM     14  C   UNL     1       0.991  30.849  60.411  1.00  0.00     0.053 C 
BRANCH  14  15
ATOM     15  C   UNL     1       1.815  31.141  59.198  1.00  0.00     0.041 C 
ATOM     16  O   UNL     1       2.197  32.318  58.959  1.00  0.00    -0.550 OA
ATOM     17  O   UNL     1       2.167  30.114  58.329  1.00  0.00    -0.550 OA
ENDBRANCH  14  15
ENDBRANCH  13  14
ENDBRANCH  12  13
ENDBRANCH  11  12
ENDBRANCH  10  11
ENDBRANCH   9  10
ENDBRANCH   8   9
ENDBRANCH   7   8
ENDBRANCH   6   7
ENDBRANCH   5   6
ENDBRANCH   4   5
ENDBRANCH   3   4
ENDBRANCH   2   3
ENDBRANCH   1   2
BRANCH   1  18
ATOM     18  C   UNL     1      -3.667  28.663  56.245  1.00  0.00     0.000 C 
BRANCH  18  19
ATOM     19  C   UNL     1      -4.636  27.736  55.498  1.00  0.00     0.000 C 
BRANCH  19  20
ATOM     20  C   UNL     1      -3.919  26.754  54.556  1.00  0.00     0.000 C 
BRANCH  20  21
ATOM     21  C   UNL     1      -2.731  26.023  55.216  1.00  0.00     0.000 C 
BRANCH  21  22
ATOM     22  C   UNL     1      -1.411  26.238  54.455  1.00  0.00     0.000 C 
BRANCH  22  23
ATOM     23  C   UNL     1      -0.192  26.254  55.394  1.00  0.00     0.000 C 
BRANCH  23  24
ATOM     24  C   UNL     1       1.059  25.640  54.738  1.00  0.00    -0.000 C 
BRANCH  24  25
ATOM     25  C   UNL     1       2.360  26.039  55.452  1.00  0.00    -0.000 C 
BRANCH  25  26
ATOM     26  C   UNL     1       2.174  26.959  56.670  1.00  0.00    -0.000 C 
BRANCH  26  27
ATOM     27  C   UNL     1       3.318  26.840  57.692  1.00  0.00    -0.000 C 
BRANCH  27  28
ATOM     28  C   UNL     1       2.889  26.063  58.950  1.00  0.00    -0.000 C 
BRANCH  28  29
ATOM     29  C   UNL     1       3.992  26.017  60.023  1.00  0.00    -0.000 C 
BRANCH  29  30
ATOM     30  C   UNL     1       3.700  26.980  61.188  1.00  0.00    -0.000 C 
BRANCH  30  31
ATOM     31  C   UNL     1       4.848  27.973  61.432  1.00  0.00    -0.003 C 
ATOM     32  C   UNL     1       5.002  28.981  60.290  1.00  0.00     0.004 C 
ENDBRANCH  30  31
ENDBRANCH  29  30
ENDBRANCH  28  29
ENDBRANCH  27  28
ENDBRANCH  26  27
ENDBRANCH  25  26
ENDBRANCH  24  25
ENDBRANCH  23  24
ENDBRANCH  22  23
ENDBRANCH  21  22
ENDBRANCH  20  21
ENDBRANCH  19  20
ENDBRANCH  18  19
ENDBRANCH   1  18
TORSDOF 28
ENDMDL
MODEL 7
REMARK VINA RESULT:    -4.459      2.052      8.363
REMARK INTER + INTRA:         -15.495
REMARK INTER:                 -12.791
REMARK INTRA:                  -2.705
REMARK UNBOUND:                -3.737
REMARK SMILES CCCCCCCCCCCCCCCCCCCCCCCCCCCCCC(=O)[O-]
REMARK SMILES IDX 16 1 17 2 18 3 19 4 20 5 21 6 22 7 23 8 24 9 25 10 26 11
REMARK SMILES IDX 27 12 28 13 29 14 30 15 31 16 32 17 15 18 14 19 13 20 12 21
REMARK SMILES IDX 11 22 10 23 9 24 8 25 7 26 6 27 5 28 4 29 3 30 2 31 1 32
REMARK H PARENT
REMARK Flexibility Score: inf
ROOT
ATOM      1  C   UNL     1      -2.976  28.979  56.277  1.00  0.00     0.000 C 
ENDROOT
BRANCH   1   2
ATOM      2  C   UNL     1      -2.836  29.738  57.615  1.00  0.00     0.000 C 
BRANCH   2   3
ATOM      3  C   UNL     1      -4.184  30.152  58.244  1.00  0.00     0.000 C 
BRANCH   3   4
ATOM      4  C   UNL     1      -4.180  31.563  58.865  1.00  0.00     0.000 C 
BRANCH   4   5
ATOM      5  C   UNL     1      -3.894  31.606  60.376  1.00  0.00     0.000 C 
BRANCH   5   6
ATOM      6  C   UNL     1      -2.743  32.562  60.738  1.00  0.00     0.000 C 
BRANCH   6   7
ATOM      7  C   UNL     1      -2.968  33.279  62.079  1.00  0.00     0.000 C 
BRANCH   7   8
ATOM      8  C   UNL     1      -2.754  32.404  63.326  1.00  0.00     0.000 C 
BRANCH   8   9
ATOM      9  C   UNL     1      -1.948  33.125  64.420  1.00  0.00     0.000 C 
BRANCH   9  10
ATOM     10  C   UNL     1      -0.506  32.600  64.557  1.00  0.00     0.000 C 
BRANCH  10  11
ATOM     11  C   UNL     1      -0.287  31.130  64.136  1.00  0.00     0.000 C 
BRANCH  11  12
ATOM     12  C   UNL     1       1.064  30.831  63.460  1.00  0.00     0.000 C 
BRANCH  12  13
ATOM     13  C   UNL     1       1.006  29.629  62.508  1.00  0.00     0.006 C 
BRANCH  13  14
ATOM     14  C   UNL     1       2.139  29.696  61.481  1.00  0.00     0.053 C 
BRANCH  14  15
ATOM     15  C   UNL     1       1.820  30.670  60.391  1.00  0.00     0.041 C 
ATOM     16  O   UNL     1       2.744  31.308  59.820  1.00  0.00    -0.550 OA
ATOM     17  O   UNL     1       0.501  30.871  60.000  1.00  0.00    -0.550 OA
ENDBRANCH  14  15
ENDBRANCH  13  14
ENDBRANCH  12  13
ENDBRANCH  11  12
ENDBRANCH  10  11
ENDBRANCH   9  10
ENDBRANCH   8   9
ENDBRANCH   7   8
ENDBRANCH   6   7
ENDBRANCH   5   6
ENDBRANCH   4   5
ENDBRANCH   3   4
ENDBRANCH   2   3
ENDBRANCH   1   2
BRANCH   1  18
ATOM     18  C   UNL     1      -4.402  28.473  55.996  1.00  0.00     0.000 C 
BRANCH  18  19
ATOM     19  C   UNL     1      -4.423  27.209  55.126  1.00  0.00     0.000 C 
BRANCH  19  20
ATOM     20  C   UNL     1      -3.170  26.336  55.307  1.00  0.00     0.000 C 
BRANCH  20  21
ATOM     21  C   UNL     1      -2.216  26.369  54.095  1.00  0.00     0.000 C 
BRANCH  21  22
ATOM     22  C   UNL     1      -0.787  25.929  54.457  1.00  0.00     0.000 C 
BRANCH  22  23
ATOM     23  C   UNL     1      -0.025  25.365  53.244  1.00  0.00     0.000 C 
BRANCH  23  24
ATOM     24  C   UNL     1       1.038  24.329  53.653  1.00  0.00    -0.000 C 
BRANCH  24  25
ATOM     25  C   UNL     1       2.423  24.632  53.059  1.00  0.00    -0.000 C 
BRANCH  25  26
ATOM     26  C   UNL     1       3.480  25.084  54.080  1.00  0.00    -0.000 C 
BRANCH  26  27
ATOM     27  C   UNL     1       2.902  25.284  55.492  1.00  0.00    -0.000 C 
BRANCH  27  28
ATOM     28  C   UNL     1       2.749  26.775  55.847  1.00  0.00    -0.000 C 
BRANCH  28  29
ATOM     29  C   UNL     1       1.631  27.028  56.874  1.00  0.00    -0.000 C 
BRANCH  29  30
ATOM     30  C   UNL     1       2.184  27.573  58.203  1.00  0.00    -0.000 C 
BRANCH  30  31
ATOM     31  C   UNL     1       3.478  28.382  58.014  1.00  0.00    -0.003 C 
ATOM     32  C   UNL     1       4.531  28.057  59.077  1.00  0.00     0.004 C 
ENDBRANCH  30  31
ENDBRANCH  29  30
ENDBRANCH  28  29
ENDBRANCH  27  28
ENDBRANCH  26  27
ENDBRANCH  25  26
ENDBRANCH  24  25
ENDBRANCH  23  24
ENDBRANCH  22  23
ENDBRANCH  21  22
ENDBRANCH  20  21
ENDBRANCH  19  20
ENDBRANCH  18  19
ENDBRANCH   1  18
TORSDOF 28
ENDMDL
MODEL 8
REMARK VINA RESULT:    -4.330      2.538      6.399
REMARK INTER + INTRA:         -15.154
REMARK INTER:                 -12.140
REMARK INTRA:                  -3.015
REMARK UNBOUND:                -3.737
REMARK SMILES CCCCCCCCCCCCCCCCCCCCCCCCCCCCCC(=O)[O-]
REMARK SMILES IDX 16 1 17 2 18 3 19 4 20 5 21 6 22 7 23 8 24 9 25 10 26 11
REMARK SMILES IDX 27 12 28 13 29 14 30 15 31 16 32 17 15 18 14 19 13 20 12 21
REMARK SMILES IDX 11 22 10 23 9 24 8 25 7 26 6 27 5 28 4 29 3 30 2 31 1 32
REMARK H PARENT
REMARK Flexibility Score: inf
ROOT
ATOM      1  C   UNL     1       0.273  32.089  63.209  1.00  0.00     0.000 C 
ENDROOT
BRANCH   1   2
ATOM      2  C   UNL     1      -0.454  32.553  64.490  1.00  0.00     0.000 C 
BRANCH   2   3
ATOM      3  C   UNL     1      -1.845  33.174  64.230  1.00  0.00     0.000 C 
BRANCH   3   4
ATOM      4  C   UNL     1      -2.760  32.311  63.338  1.00  0.00     0.000 C 
BRANCH   4   5
ATOM      5  C   UNL     1      -3.148  32.952  61.994  1.00  0.00     0.000 C 
BRANCH   5   6
ATOM      6  C   UNL     1      -3.874  31.973  61.054  1.00  0.00     0.000 C 
BRANCH   6   7
ATOM      7  C   UNL     1      -3.273  31.954  59.639  1.00  0.00     0.000 C 
BRANCH   7   8
ATOM      8  C   UNL     1      -4.270  31.619  58.517  1.00  0.00     0.000 C 
BRANCH   8   9
ATOM      9  C   UNL     1      -4.192  30.146  58.080  1.00  0.00     0.000 C 
BRANCH   9  10
ATOM     10  C   UNL     1      -2.776  29.712  57.658  1.00  0.00     0.000 C 
BRANCH  10  11
ATOM     11  C   UNL     1      -2.656  29.103  56.243  1.00  0.00     0.000 C 
BRANCH  11  12
ATOM     12  C   UNL     1      -3.725  28.055  55.883  1.00  0.00     0.000 C 
BRANCH  12  13
ATOM     13  C   UNL     1      -3.182  26.619  55.879  1.00  0.00     0.006 C 
BRANCH  13  14
ATOM     14  C   UNL     1      -2.248  26.397  54.687  1.00  0.00     0.053 C 
BRANCH  14  15
ATOM     15  C   UNL     1      -0.885  25.981  55.143  1.00  0.00     0.041 C 
ATOM     16  O   UNL     1      -0.316  24.989  54.614  1.00  0.00    -0.550 OA
ATOM     17  O   UNL     1      -0.239  26.689  56.150  1.00  0.00    -0.550 OA
ENDBRANCH  14  15
ENDBRANCH  13  14
ENDBRANCH  12  13
ENDBRANCH  11  12
ENDBRANCH  10  11
ENDBRANCH   9  10
ENDBRANCH   8   9
ENDBRANCH   7   8
ENDBRANCH   6   7
ENDBRANCH   5   6
ENDBRANCH   4   5
ENDBRANCH   3   4
ENDBRANCH   2   3
ENDBRANCH   1   2
BRANCH   1  18
ATOM     18  C   UNL     1       1.160  30.848  63.412  1.00  0.00     0.000 C 
BRANCH  18  19
ATOM     19  C   UNL     1       0.610  29.894  64.481  1.00  0.00     0.000 C 
BRANCH  19  20
ATOM     20  C   UNL     1       1.612  29.626  65.617  1.00  0.00     0.000 C 
BRANCH  20  21
ATOM     21  C   UNL     1       1.734  30.793  66.618  1.00  0.00     0.000 C 
BRANCH  21  22
ATOM     22  C   UNL     1       2.820  30.546  67.682  1.00  0.00     0.000 C 
BRANCH  22  23
ATOM     23  C   UNL     1       4.109  31.335  67.393  1.00  0.00     0.000 C 
BRANCH  23  24
ATOM     24  C   UNL     1       5.186  30.466  66.718  1.00  0.00    -0.000 C 
BRANCH  24  25
ATOM     25  C   UNL     1       5.156  30.567  65.184  1.00  0.00    -0.000 C 
BRANCH  25  26
ATOM     26  C   UNL     1       5.665  29.319  64.444  1.00  0.00    -0.000 C 
BRANCH  26  27
ATOM     27  C   UNL     1       4.575  28.639  63.596  1.00  0.00    -0.000 C 
BRANCH  27  28
ATOM     28  C   UNL     1       4.274  29.425  62.306  1.00  0.00    -0.000 C 
BRANCH  28  29
ATOM     29  C   UNL     1       3.835  28.513  61.147  1.00  0.00    -0.000 C 
BRANCH  29  30
ATOM     30  C   UNL     1       2.390  28.805  60.702  1.00  0.00    -0.000 C 
BRANCH  30  31
ATOM     31  C   UNL     1       2.304  29.985  59.721  1.00  0.00    -0.003 C 
ATOM     32  C   UNL     1       0.938  30.676  59.756  1.00  0.00     0.004 C 
ENDBRANCH  30  31
ENDBRANCH  29  30
ENDBRANCH  28  29
ENDBRANCH  27  28
ENDBRANCH  26  27
ENDBRANCH  25  26
ENDBRANCH  24  25
ENDBRANCH  23  24
ENDBRANCH  22  23
ENDBRANCH  21  22
ENDBRANCH  20  21
ENDBRANCH  19  20
ENDBRANCH  18  19
ENDBRANCH   1  18
TORSDOF 28
ENDMDL
MODEL 9
REMARK VINA RESULT:    -4.328      2.781      6.370
REMARK INTER + INTRA:         -15.150
REMARK INTER:                 -11.777
REMARK INTRA:                  -3.374
REMARK UNBOUND:                -3.737
REMARK SMILES CCCCCCCCCCCCCCCCCCCCCCCCCCCCCC(=O)[O-]
REMARK SMILES IDX 16 1 17 2 18 3 19 4 20 5 21 6 22 7 23 8 24 9 25 10 26 11
REMARK SMILES IDX 27 12 28 13 29 14 30 15 31 16 32 17 15 18 14 19 13 20 12 21
REMARK SMILES IDX 11 22 10 23 9 24 8 25 7 26 6 27 5 28 4 29 3 30 2 31 1 32
REMARK H PARENT
REMARK Flexibility Score: inf
ROOT
ATOM      1  C   UNL     1       0.303  32.004  63.211  1.00  0.00     0.000 C 
ENDROOT
BRANCH   1   2
ATOM      2  C   UNL     1      -0.433  32.525  64.465  1.00  0.00     0.000 C 
BRANCH   2   3
ATOM      3  C   UNL     1      -1.780  33.216  64.157  1.00  0.00     0.000 C 
BRANCH   3   4
ATOM      4  C   UNL     1      -2.755  32.350  63.332  1.00  0.00     0.000 C 
BRANCH   4   5
ATOM      5  C   UNL     1      -3.199  32.968  61.995  1.00  0.00     0.000 C 
BRANCH   5   6
ATOM      6  C   UNL     1      -3.853  31.943  61.052  1.00  0.00     0.000 C 
BRANCH   6   7
ATOM      7  C   UNL     1      -3.252  31.972  59.637  1.00  0.00     0.000 C 
BRANCH   7   8
ATOM      8  C   UNL     1      -4.247  31.660  58.506  1.00  0.00     0.000 C 
BRANCH   8   9
ATOM      9  C   UNL     1      -4.195  30.187  58.065  1.00  0.00     0.000 C 
BRANCH   9  10
ATOM     10  C   UNL     1      -2.787  29.729  57.643  1.00  0.00     0.000 C 
BRANCH  10  11
ATOM     11  C   UNL     1      -2.661  29.195  56.198  1.00  0.00     0.000 C 
BRANCH  11  12
ATOM     12  C   UNL     1      -3.720  28.158  55.783  1.00  0.00     0.000 C 
BRANCH  12  13
ATOM     13  C   UNL     1      -3.210  26.713  55.864  1.00  0.00     0.006 C 
BRANCH  13  14
ATOM     14  C   UNL     1      -2.306  26.390  54.671  1.00  0.00     0.053 C 
BRANCH  14  15
ATOM     15  C   UNL     1      -0.932  26.012  55.125  1.00  0.00     0.041 C 
ATOM     16  O   UNL     1      -0.314  25.073  54.557  1.00  0.00    -0.550 OA
ATOM     17  O   UNL     1      -0.329  26.698  56.173  1.00  0.00    -0.550 OA
ENDBRANCH  14  15
ENDBRANCH  13  14
ENDBRANCH  12  13
ENDBRANCH  11  12
ENDBRANCH  10  11
ENDBRANCH   9  10
ENDBRANCH   8   9
ENDBRANCH   7   8
ENDBRANCH   6   7
ENDBRANCH   5   6
ENDBRANCH   4   5
ENDBRANCH   3   4
ENDBRANCH   2   3
ENDBRANCH   1   2
BRANCH   1  18
ATOM     18  C   UNL     1       1.209  30.790  63.483  1.00  0.00     0.000 C 
BRANCH  18  19
ATOM     19  C   UNL     1       0.518  29.710  64.327  1.00  0.00     0.000 C 
BRANCH  19  20
ATOM     20  C   UNL     1       1.329  29.314  65.573  1.00  0.00     0.000 C 
BRANCH  20  21
ATOM     21  C   UNL     1       1.756  30.517  66.438  1.00  0.00     0.000 C 
BRANCH  21  22
ATOM     22  C   UNL     1       3.183  30.367  66.994  1.00  0.00     0.000 C 
BRANCH  22  23
ATOM     23  C   UNL     1       4.174  31.339  66.329  1.00  0.00     0.000 C 
BRANCH  23  24
ATOM     24  C   UNL     1       5.314  30.604  65.601  1.00  0.00    -0.000 C 
BRANCH  24  25
ATOM     25  C   UNL     1       4.808  29.693  64.471  1.00  0.00    -0.000 C 
BRANCH  25  26
ATOM     26  C   UNL     1       5.886  29.247  63.469  1.00  0.00    -0.000 C 
BRANCH  26  27
ATOM     27  C   UNL     1       6.145  30.287  62.365  1.00  0.00    -0.000 C 
BRANCH  27  28
ATOM     28  C   UNL     1       4.869  31.069  61.999  1.00  0.00    -0.000 C 
BRANCH  28  29
ATOM     29  C   UNL     1       5.028  32.587  62.201  1.00  0.00    -0.000 C 
BRANCH  29  30
ATOM     30  C   UNL     1       3.767  33.219  62.818  1.00  0.00    -0.000 C 
BRANCH  30  31
ATOM     31  C   UNL     1       4.086  34.098  64.038  1.00  0.00    -0.003 C 
ATOM     32  C   UNL     1       2.828  34.510  64.807  1.00  0.00     0.004 C 
ENDBRANCH  30  31
ENDBRANCH  29  30
ENDBRANCH  28  29
ENDBRANCH  27  28
ENDBRANCH  26  27
ENDBRANCH  25  26
ENDBRANCH  24  25
ENDBRANCH  23  24
ENDBRANCH  22  23
ENDBRANCH  21  22
ENDBRANCH  20  21
ENDBRANCH  19  20
ENDBRANCH  18  19
ENDBRANCH   1  18
TORSDOF 28
ENDMDL
