MODEL 1
REMARK VINA RESULT:    -5.892      0.000      0.000
REMARK INTER + INTRA:          -7.265
REMARK INTER:                  -8.475
REMARK INTRA:                   1.209
REMARK UNBOUND:                 1.209
REMARK SMILES O=c1c(O[C@@H]2O[C@@H](CO)[C@H](O)[C@H](O)[C@@H]2O)c(-c2ccc(O)cc2)oc2cc(O)cc(O)c12
REMARK SMILES IDX 4 1 3 2 16 3 24 4 2 5 25 6 1 7 32 8 26 9 30 10 27 11 29 12
REMARK SMILES IDX 17 13 18 14 19 15 20 16 23 17 22 18 21 19 31 21 28 23 5 25
REMARK SMILES IDX 14 26 6 27 12 28 7 29 10 30 15 31 13 33 8 35 9 36 11 38
REMARK H PARENT 21 20 31 22 28 24 15 32 13 34 9 37 11 39
REMARK Flexibility Score: inf
ROOT
ATOM      1  O   UNL     1      34.493  26.054  20.165  1.00  0.00    -0.454 OA
ENDROOT
BRANCH   1   2
ATOM      2  C   UNL     1      34.311  24.727  19.732  1.00  0.00     0.214 A 
ATOM      3  C   UNL     1      33.822  24.486  18.434  1.00  0.00     0.180 A 
ATOM      4  O   UNL     1      33.521  23.249  18.057  1.00  0.00    -0.452 OA
ATOM      5  C   UNL     1      34.588  23.622  20.562  1.00  0.00     0.239 A 
ATOM      6  C   UNL     1      33.723  22.183  18.821  1.00  0.00     0.146 A 
ATOM      7  O   UNL     1      35.058  23.818  21.710  1.00  0.00    -0.285 OA
ATOM      8  C   UNL     1      34.327  22.308  20.099  1.00  0.00     0.111 A 
ATOM      9  C   UNL     1      33.331  20.931  18.341  1.00  0.00     0.094 A 
ATOM     10  C   UNL     1      34.597  21.119  20.843  1.00  0.00     0.134 A 
ATOM     11  C   UNL     1      33.531  19.785  19.108  1.00  0.00     0.123 A 
ATOM     12  C   UNL     1      34.162  19.882  20.352  1.00  0.00     0.093 A 
BRANCH   3  13
ATOM     13  C   UNL     1      33.585  25.581  17.468  1.00  0.00     0.021 A 
ATOM     14  C   UNL     1      33.702  25.369  16.083  1.00  0.00     0.016 A 
ATOM     15  C   UNL     1      33.465  26.418  15.185  1.00  0.00     0.047 A 
ATOM     16  C   UNL     1      33.102  27.684  15.660  1.00  0.00     0.115 A 
ATOM     17  C   UNL     1      33.198  26.848  17.939  1.00  0.00     0.016 A 
ATOM     18  C   UNL     1      32.966  27.896  17.040  1.00  0.00     0.047 A 
BRANCH  16  19
ATOM     19  O   UNL     1      32.874  28.720  14.755  1.00  0.00    -0.508 OA
ATOM     20  H   UNL     1      32.029  28.762  14.198  1.00  0.00     0.293 HD
ENDBRANCH  16  19
ENDBRANCH   3  13
BRANCH  10  21
ATOM     21  O   UNL     1      35.310  21.098  22.047  1.00  0.00    -0.507 OA
ATOM     22  H   UNL     1      35.175  21.752  22.805  1.00  0.00     0.293 HD
ENDBRANCH  10  21
BRANCH  11  23
ATOM     23  O   UNL     1      33.110  18.549  18.621  1.00  0.00    -0.508 OA
ATOM     24  H   UNL     1      33.398  17.681  19.059  1.00  0.00     0.293 HD
ENDBRANCH  11  23
ENDBRANCH   1   2
BRANCH   1  25
ATOM     25  C   UNL     1      33.664  26.705  21.140  1.00  0.00     0.339 C 
ATOM     26  C   UNL     1      34.406  26.876  22.486  1.00  0.00     0.214 C 
ATOM     27  O   UNL     1      33.177  27.948  20.654  1.00  0.00    -0.332 OA
ATOM     28  C   UNL     1      35.510  27.942  22.390  1.00  0.00     0.180 C 
ATOM     29  C   UNL     1      34.233  28.871  20.420  1.00  0.00     0.179 C 
ATOM     30  C   UNL     1      34.952  29.220  21.742  1.00  0.00     0.177 C 
BRANCH  26  31
ATOM     31  O   UNL     1      34.957  25.653  22.904  1.00  0.00    -0.384 OA
ATOM     32  H   UNL     1      34.236  25.161  23.380  1.00  0.00     0.211 HD
ENDBRANCH  26  31
BRANCH  28  33
ATOM     33  O   UNL     1      36.596  27.462  21.636  1.00  0.00    -0.387 OA
ATOM     34  H   UNL     1      37.334  27.273  22.273  1.00  0.00     0.211 HD
ENDBRANCH  28  33
BRANCH  29  35
ATOM     35  C   UNL     1      33.643  30.125  19.765  1.00  0.00     0.191 C 
BRANCH  35  36
ATOM     36  O   UNL     1      32.249  30.002  19.679  1.00  0.00    -0.394 OA
ATOM     37  H   UNL     1      31.987  29.328  20.359  1.00  0.00     0.210 HD
ENDBRANCH  35  36
ENDBRANCH  29  35
BRANCH  30  38
ATOM     38  O   UNL     1      36.001  30.125  21.493  1.00  0.00    -0.387 OA
ATOM     39  H   UNL     1      35.908  30.415  20.548  1.00  0.00     0.211 HD
ENDBRANCH  30  38
ENDBRANCH   1  25
TORSDOF 11
ENDMDL
MODEL 2
REMARK VINA RESULT:    -5.158      1.760      5.767
REMARK INTER + INTRA:          -6.211
REMARK INTER:                  -7.177
REMARK INTRA:                   0.967
REMARK UNBOUND:                 1.209
REMARK SMILES O=c1c(O[C@@H]2O[C@@H](CO)[C@H](O)[C@H](O)[C@@H]2O)c(-c2ccc(O)cc2)oc2cc(O)cc(O)c12
REMARK SMILES IDX 4 1 3 2 16 3 24 4 2 5 25 6 1 7 32 8 26 9 30 10 27 11 29 12
REMARK SMILES IDX 17 13 18 14 19 15 20 16 23 17 22 18 21 19 31 21 28 23 5 25
REMARK SMILES IDX 14 26 6 27 12 28 7 29 10 30 15 31 13 33 8 35 9 36 11 38
REMARK H PARENT 21 20 31 22 28 24 15 32 13 34 9 37 11 39
REMARK Flexibility Score: inf
ROOT
ATOM      1  O   UNL     1      34.545  26.862  21.175  1.00  0.00    -0.454 OA
ENDROOT
BRANCH   1   2
ATOM      2  C   UNL     1      34.040  26.720  19.868  1.00  0.00     0.214 A 
ATOM      3  C   UNL     1      33.971  25.438  19.290  1.00  0.00     0.180 A 
ATOM      4  O   UNL     1      33.622  25.301  18.017  1.00  0.00    -0.452 OA
ATOM      5  C   UNL     1      33.610  27.825  19.105  1.00  0.00     0.239 A 
ATOM      6  C   UNL     1      33.253  26.319  17.247  1.00  0.00     0.146 A 
ATOM      7  O   UNL     1      33.631  28.972  19.618  1.00  0.00    -0.285 OA
ATOM      8  C   UNL     1      33.170  27.635  17.771  1.00  0.00     0.111 A 
ATOM      9  C   UNL     1      32.945  26.067  15.908  1.00  0.00     0.094 A 
ATOM     10  C   UNL     1      32.687  28.676  16.922  1.00  0.00     0.134 A 
ATOM     11  C   UNL     1      32.547  27.105  15.067  1.00  0.00     0.123 A 
ATOM     12  C   UNL     1      32.419  28.401  15.575  1.00  0.00     0.093 A 
BRANCH   3  13
ATOM     13  C   UNL     1      34.320  24.216  20.047  1.00  0.00     0.021 A 
ATOM     14  C   UNL     1      34.644  24.275  21.415  1.00  0.00     0.016 A 
ATOM     15  C   UNL     1      34.964  23.105  22.115  1.00  0.00     0.047 A 
ATOM     16  C   UNL     1      34.954  21.867  21.461  1.00  0.00     0.115 A 
ATOM     17  C   UNL     1      34.290  22.968  19.401  1.00  0.00     0.016 A 
ATOM     18  C   UNL     1      34.614  21.800  20.102  1.00  0.00     0.047 A 
BRANCH  16  19
ATOM     19  O   UNL     1      35.280  20.710  22.170  1.00  0.00    -0.508 OA
ATOM     20  H   UNL     1      34.567  20.135  22.603  1.00  0.00     0.293 HD
ENDBRANCH  16  19
ENDBRANCH   3  13
BRANCH  10  21
ATOM     21  O   UNL     1      32.428  29.980  17.357  1.00  0.00    -0.507 OA
ATOM     22  H   UNL     1      31.507  30.394  17.412  1.00  0.00     0.293 HD
ENDBRANCH  10  21
BRANCH  11  23
ATOM     23  O   UNL     1      32.269  26.837  13.728  1.00  0.00    -0.508 OA
ATOM     24  H   UNL     1      31.907  27.554  13.108  1.00  0.00     0.293 HD
ENDBRANCH  11  23
ENDBRANCH   1   2
BRANCH   1  25
ATOM     25  C   UNL     1      34.253  27.974  22.035  1.00  0.00     0.339 C 
ATOM     26  C   UNL     1      34.467  27.606  23.521  1.00  0.00     0.214 C 
ATOM     27  O   UNL     1      35.008  29.120  21.669  1.00  0.00    -0.332 OA
ATOM     28  C   UNL     1      35.961  27.456  23.856  1.00  0.00     0.180 C 
ATOM     29  C   UNL     1      36.404  28.904  21.836  1.00  0.00     0.179 C 
ATOM     30  C   UNL     1      36.744  28.668  23.325  1.00  0.00     0.177 C 
BRANCH  26  31
ATOM     31  O   UNL     1      33.783  26.421  23.840  1.00  0.00    -0.384 OA
ATOM     32  H   UNL     1      33.205  26.624  24.622  1.00  0.00     0.211 HD
ENDBRANCH  26  31
BRANCH  28  33
ATOM     33  O   UNL     1      36.476  26.274  23.294  1.00  0.00    -0.387 OA
ATOM     34  H   UNL     1      36.699  26.474  22.347  1.00  0.00     0.211 HD
ENDBRANCH  28  33
BRANCH  29  35
ATOM     35  C   UNL     1      37.151  30.125  21.287  1.00  0.00     0.191 C 
BRANCH  35  36
ATOM     36  O   UNL     1      38.493  29.792  21.055  1.00  0.00    -0.394 OA
ATOM     37  H   UNL     1      38.744  29.140  21.761  1.00  0.00     0.210 HD
ENDBRANCH  35  36
ENDBRANCH  29  35
BRANCH  30  38
ATOM     38  O   UNL     1      38.125  28.445  23.473  1.00  0.00    -0.387 OA
ATOM     39  H   UNL     1      38.537  29.329  23.661  1.00  0.00     0.211 HD
ENDBRANCH  30  38
ENDBRANCH   1  25
TORSDOF 11
ENDMDL
MODEL 3
REMARK VINA RESULT:    -4.332      1.387      2.643
REMARK INTER + INTRA:          -5.022
REMARK INTER:                  -5.841
REMARK INTRA:                   0.819
REMARK UNBOUND:                 1.209
REMARK SMILES O=c1c(O[C@@H]2O[C@@H](CO)[C@H](O)[C@H](O)[C@@H]2O)c(-c2ccc(O)cc2)oc2cc(O)cc(O)c12
REMARK SMILES IDX 4 1 3 2 16 3 24 4 2 5 25 6 1 7 32 8 26 9 30 10 27 11 29 12
REMARK SMILES IDX 17 13 18 14 19 15 20 16 23 17 22 18 21 19 31 21 28 23 5 25
REMARK SMILES IDX 14 26 6 27 12 28 7 29 10 30 15 31 13 33 8 35 9 36 11 38
REMARK H PARENT 21 20 31 22 28 24 15 32 13 34 9 37 11 39
REMARK Flexibility Score: inf
ROOT
ATOM      1  O   UNL     1      34.334  26.892  20.664  1.00  0.00    -0.454 OA
ENDROOT
BRANCH   1   2
ATOM      2  C   UNL     1      34.215  25.624  20.064  1.00  0.00     0.214 A 
ATOM      3  C   UNL     1      33.677  25.521  18.767  1.00  0.00     0.180 A 
ATOM      4  O   UNL     1      33.437  24.326  18.241  1.00  0.00    -0.452 OA
ATOM      5  C   UNL     1      34.604  24.441  20.726  1.00  0.00     0.239 A 
ATOM      6  C   UNL     1      33.745  23.186  18.846  1.00  0.00     0.146 A 
ATOM      7  O   UNL     1      35.119  24.518  21.870  1.00  0.00    -0.285 OA
ATOM      8  C   UNL     1      34.404  23.184  20.103  1.00  0.00     0.111 A 
ATOM      9  C   UNL     1      33.410  21.983  18.219  1.00  0.00     0.094 A 
ATOM     10  C   UNL     1      34.787  21.930  20.669  1.00  0.00     0.134 A 
ATOM     11  C   UNL     1      33.722  20.763  18.816  1.00  0.00     0.123 A 
ATOM     12  C   UNL     1      34.408  20.741  20.034  1.00  0.00     0.093 A 
BRANCH   3  13
ATOM     13  C   UNL     1      33.322  26.714  17.968  1.00  0.00     0.021 A 
ATOM     14  C   UNL     1      33.346  26.683  16.562  1.00  0.00     0.016 A 
ATOM     15  C   UNL     1      32.997  27.821  15.825  1.00  0.00     0.047 A 
ATOM     16  C   UNL     1      32.614  28.997  16.481  1.00  0.00     0.115 A 
ATOM     17  C   UNL     1      32.914  27.890  18.622  1.00  0.00     0.016 A 
ATOM     18  C   UNL     1      32.571  29.028  17.883  1.00  0.00     0.047 A 
BRANCH  16  19
ATOM     19  O   UNL     1      32.275  30.125  15.734  1.00  0.00    -0.508 OA
ATOM     20  H   UNL     1      31.410  30.628  15.896  1.00  0.00     0.293 HD
ENDBRANCH  16  19
ENDBRANCH   3  13
BRANCH  10  21
ATOM     21  O   UNL     1      35.561  21.801  21.827  1.00  0.00    -0.507 OA
ATOM     22  H   UNL     1      35.212  21.931  22.767  1.00  0.00     0.293 HD
ENDBRANCH  10  21
BRANCH  11  23
ATOM     23  O   UNL     1      33.356  19.576  18.186  1.00  0.00    -0.508 OA
ATOM     24  H   UNL     1      33.323  18.696  18.690  1.00  0.00     0.293 HD
ENDBRANCH  11  23
ENDBRANCH   1   2
BRANCH   1  25
ATOM     25  C   UNL     1      35.515  27.361  21.331  1.00  0.00     0.339 C 
ATOM     26  C   UNL     1      35.533  28.903  21.427  1.00  0.00     0.214 C 
ATOM     27  O   UNL     1      35.656  26.758  22.610  1.00  0.00    -0.332 OA
ATOM     28  C   UNL     1      34.492  29.418  22.436  1.00  0.00     0.180 C 
ATOM     29  C   UNL     1      34.594  27.123  23.482  1.00  0.00     0.179 C 
ATOM     30  C   UNL     1      34.613  28.642  23.759  1.00  0.00     0.177 C 
BRANCH  26  31
ATOM     31  O   UNL     1      35.303  29.479  20.167  1.00  0.00    -0.384 OA
ATOM     32  H   UNL     1      34.552  30.121  20.277  1.00  0.00     0.211 HD
ENDBRANCH  26  31
BRANCH  28  33
ATOM     33  O   UNL     1      33.192  29.277  21.920  1.00  0.00    -0.387 OA
ATOM     34  H   UNL     1      32.944  30.146  21.508  1.00  0.00     0.211 HD
ENDBRANCH  28  33
BRANCH  29  35
ATOM     35  C   UNL     1      34.739  26.324  24.782  1.00  0.00     0.191 C 
BRANCH  35  36
ATOM     36  O   UNL     1      35.404  25.117  24.523  1.00  0.00    -0.394 OA
ATOM     37  H   UNL     1      35.368  24.985  23.540  1.00  0.00     0.210 HD
ENDBRANCH  35  36
ENDBRANCH  29  35
BRANCH  30  38
ATOM     38  O   UNL     1      33.550  28.989  24.613  1.00  0.00    -0.387 OA
ATOM     39  H   UNL     1      32.786  29.237  24.029  1.00  0.00     0.211 HD
ENDBRANCH  30  38
ENDBRANCH   1  25
TORSDOF 11
ENDMDL
MODEL 4
REMARK VINA RESULT:    -3.996      1.395      5.479
REMARK INTER + INTRA:          -4.538
REMARK INTER:                  -7.539
REMARK INTRA:                   3.002
REMARK UNBOUND:                 1.209
REMARK SMILES O=c1c(O[C@@H]2O[C@@H](CO)[C@H](O)[C@H](O)[C@@H]2O)c(-c2ccc(O)cc2)oc2cc(O)cc(O)c12
REMARK SMILES IDX 4 1 3 2 16 3 24 4 2 5 25 6 1 7 32 8 26 9 30 10 27 11 29 12
REMARK SMILES IDX 17 13 18 14 19 15 20 16 23 17 22 18 21 19 31 21 28 23 5 25
REMARK SMILES IDX 14 26 6 27 12 28 7 29 10 30 15 31 13 33 8 35 9 36 11 38
REMARK H PARENT 21 20 31 22 28 24 15 32 13 34 9 37 11 39
REMARK Flexibility Score: inf
ROOT
ATOM      1  O   UNL     1      34.584  25.858  20.916  1.00  0.00    -0.454 OA
ENDROOT
BRANCH   1   2
ATOM      2  C   UNL     1      34.068  25.900  19.607  1.00  0.00     0.214 A 
ATOM      3  C   UNL     1      33.864  24.695  18.907  1.00  0.00     0.180 A 
ATOM      4  O   UNL     1      33.505  24.722  17.629  1.00  0.00    -0.452 OA
ATOM      5  C   UNL     1      33.759  27.113  18.959  1.00  0.00     0.239 A 
ATOM      6  C   UNL     1      33.247  25.843  16.967  1.00  0.00     0.146 A 
ATOM      7  O   UNL     1      33.901  28.195  19.582  1.00  0.00    -0.285 OA
ATOM      8  C   UNL     1      33.303  27.102  17.618  1.00  0.00     0.111 A 
ATOM      9  C   UNL     1      32.915  25.758  15.612  1.00  0.00     0.094 A 
ATOM     10  C   UNL     1      32.934  28.268  16.878  1.00  0.00     0.134 A 
ATOM     11  C   UNL     1      32.631  26.910  14.880  1.00  0.00     0.123 A 
ATOM     12  C   UNL     1      32.640  28.156  15.514  1.00  0.00     0.093 A 
BRANCH   3  13
ATOM     13  C   UNL     1      34.081  23.375  19.537  1.00  0.00     0.021 A 
ATOM     14  C   UNL     1      34.712  23.260  20.789  1.00  0.00     0.016 A 
ATOM     15  C   UNL     1      34.900  22.001  21.373  1.00  0.00     0.047 A 
ATOM     16  C   UNL     1      34.453  20.847  20.719  1.00  0.00     0.115 A 
ATOM     17  C   UNL     1      33.614  22.214  18.895  1.00  0.00     0.016 A 
ATOM     18  C   UNL     1      33.806  20.957  19.478  1.00  0.00     0.047 A 
BRANCH  16  19
ATOM     19  O   UNL     1      34.652  19.599  21.309  1.00  0.00    -0.508 OA
ATOM     20  H   UNL     1      34.924  18.791  20.761  1.00  0.00     0.293 HD
ENDBRANCH  16  19
ENDBRANCH   3  13
BRANCH  10  21
ATOM     21  O   UNL     1      32.814  29.543  17.442  1.00  0.00    -0.507 OA
ATOM     22  H   UNL     1      32.055  29.836  18.040  1.00  0.00     0.293 HD
ENDBRANCH  10  21
BRANCH  11  23
ATOM     23  O   UNL     1      32.328  26.806  13.524  1.00  0.00    -0.508 OA
ATOM     24  H   UNL     1      32.451  25.935  13.019  1.00  0.00     0.293 HD
ENDBRANCH  11  23
ENDBRANCH   1   2
BRANCH   1  25
ATOM     25  C   UNL     1      33.914  26.403  22.063  1.00  0.00     0.339 C 
ATOM     26  C   UNL     1      34.629  26.004  23.375  1.00  0.00     0.214 C 
ATOM     27  O   UNL     1      33.774  27.813  21.956  1.00  0.00    -0.332 OA
ATOM     28  C   UNL     1      35.970  26.740  23.533  1.00  0.00     0.180 C 
ATOM     29  C   UNL     1      35.037  28.466  21.944  1.00  0.00     0.179 C 
ATOM     30  C   UNL     1      35.777  28.245  23.282  1.00  0.00     0.177 C 
BRANCH  26  31
ATOM     31  O   UNL     1      34.838  24.615  23.420  1.00  0.00    -0.384 OA
ATOM     32  H   UNL     1      34.456  24.295  24.280  1.00  0.00     0.211 HD
ENDBRANCH  26  31
BRANCH  28  33
ATOM     33  O   UNL     1      36.924  26.228  22.635  1.00  0.00    -0.387 OA
ATOM     34  H   UNL     1      37.357  27.006  22.193  1.00  0.00     0.211 HD
ENDBRANCH  28  33
BRANCH  29  35
ATOM     35  C   UNL     1      34.806  29.959  21.682  1.00  0.00     0.191 C 
BRANCH  35  36
ATOM     36  O   UNL     1      33.697  30.125  20.840  1.00  0.00    -0.394 OA
ATOM     37  H   UNL     1      33.976  30.767  20.136  1.00  0.00     0.210 HD
ENDBRANCH  35  36
ENDBRANCH  29  35
BRANCH  30  38
ATOM     38  O   UNL     1      37.028  28.888  23.251  1.00  0.00    -0.387 OA
ATOM     39  H   UNL     1      37.361  28.907  24.187  1.00  0.00     0.211 HD
ENDBRANCH  30  38
ENDBRANCH   1  25
TORSDOF 11
ENDMDL
MODEL 5
REMARK VINA RESULT:    -3.461      1.670      4.992
REMARK INTER + INTRA:          -3.768
REMARK INTER:                  -3.531
REMARK INTRA:                  -0.237
REMARK UNBOUND:                 1.209
REMARK SMILES O=c1c(O[C@@H]2O[C@@H](CO)[C@H](O)[C@H](O)[C@@H]2O)c(-c2ccc(O)cc2)oc2cc(O)cc(O)c12
REMARK SMILES IDX 4 1 3 2 16 3 24 4 2 5 25 6 1 7 32 8 26 9 30 10 27 11 29 12
REMARK SMILES IDX 17 13 18 14 19 15 20 16 23 17 22 18 21 19 31 21 28 23 5 25
REMARK SMILES IDX 14 26 6 27 12 28 7 29 10 30 15 31 13 33 8 35 9 36 11 38
REMARK H PARENT 21 20 31 22 28 24 15 32 13 34 9 37 11 39
REMARK Flexibility Score: inf
ROOT
ATOM      1  O   UNL     1      33.561  27.337  18.939  1.00  0.00    -0.454 OA
ENDROOT
BRANCH   1   2
ATOM      2  C   UNL     1      33.790  26.009  19.346  1.00  0.00     0.214 A 
ATOM      3  C   UNL     1      34.430  25.764  20.576  1.00  0.00     0.180 A 
ATOM      4  O   UNL     1      34.770  24.526  20.913  1.00  0.00    -0.452 OA
ATOM      5  C   UNL     1      33.412  24.905  18.555  1.00  0.00     0.239 A 
ATOM      6  C   UNL     1      34.475  23.462  20.177  1.00  0.00     0.146 A 
ATOM      7  O   UNL     1      32.808  25.104  17.471  1.00  0.00    -0.285 OA
ATOM      8  C   UNL     1      33.723  23.590  18.981  1.00  0.00     0.111 A 
ATOM      9  C   UNL     1      34.917  22.208  20.606  1.00  0.00     0.094 A 
ATOM     10  C   UNL     1      33.362  22.403  18.273  1.00  0.00     0.134 A 
ATOM     11  C   UNL     1      34.624  21.063  19.867  1.00  0.00     0.123 A 
ATOM     12  C   UNL     1      33.849  21.164  18.708  1.00  0.00     0.093 A 
BRANCH   3  13
ATOM     13  C   UNL     1      34.784  26.857  21.507  1.00  0.00     0.021 A 
ATOM     14  C   UNL     1      33.800  27.513  22.268  1.00  0.00     0.016 A 
ATOM     15  C   UNL     1      34.158  28.540  23.151  1.00  0.00     0.047 A 
ATOM     16  C   UNL     1      35.499  28.916  23.289  1.00  0.00     0.115 A 
ATOM     17  C   UNL     1      36.132  27.223  21.667  1.00  0.00     0.016 A 
ATOM     18  C   UNL     1      36.487  28.252  22.546  1.00  0.00     0.047 A 
BRANCH  16  19
ATOM     19  O   UNL     1      35.840  29.944  24.167  1.00  0.00    -0.508 OA
ATOM     20  H   UNL     1      35.279  30.151  24.985  1.00  0.00     0.293 HD
ENDBRANCH  16  19
ENDBRANCH   3  13
BRANCH  10  21
ATOM     21  O   UNL     1      32.509  22.385  17.164  1.00  0.00    -0.507 OA
ATOM     22  H   UNL     1      31.683  22.958  17.067  1.00  0.00     0.293 HD
ENDBRANCH  10  21
BRANCH  11  23
ATOM     23  O   UNL     1      35.096  19.826  20.299  1.00  0.00    -0.508 OA
ATOM     24  H   UNL     1      36.085  19.660  20.453  1.00  0.00     0.293 HD
ENDBRANCH  11  23
ENDBRANCH   1   2
BRANCH   1  25
ATOM     25  C   UNL     1      32.278  27.853  18.556  1.00  0.00     0.339 C 
ATOM     26  C   UNL     1      32.208  29.386  18.742  1.00  0.00     0.214 C 
ATOM     27  O   UNL     1      31.947  27.475  17.227  1.00  0.00    -0.332 OA
ATOM     28  C   UNL     1      33.062  30.121  17.695  1.00  0.00     0.180 C 
ATOM     29  C   UNL     1      32.848  28.039  16.282  1.00  0.00     0.179 C 
ATOM     30  C   UNL     1      32.749  29.581  16.289  1.00  0.00     0.177 C 
BRANCH  26  31
ATOM     31  O   UNL     1      32.624  29.745  20.035  1.00  0.00    -0.384 OA
ATOM     32  H   UNL     1      33.597  29.941  19.980  1.00  0.00     0.211 HD
ENDBRANCH  26  31
BRANCH  28  33
ATOM     33  O   UNL     1      34.431  29.959  17.972  1.00  0.00    -0.387 OA
ATOM     34  H   UNL     1      34.915  30.679  17.487  1.00  0.00     0.211 HD
ENDBRANCH  28  33
BRANCH  29  35
ATOM     35  C   UNL     1      32.515  27.472  14.897  1.00  0.00     0.191 C 
BRANCH  35  36
ATOM     36  O   UNL     1      33.151  26.234  14.728  1.00  0.00    -0.394 OA
ATOM     37  H   UNL     1      33.418  25.932  15.636  1.00  0.00     0.210 HD
ENDBRANCH  35  36
ENDBRANCH  29  35
BRANCH  30  38
ATOM     38  O   UNL     1      33.653  30.125  15.358  1.00  0.00    -0.387 OA
ATOM     39  H   UNL     1      34.487  29.591  15.426  1.00  0.00     0.211 HD
ENDBRANCH  30  38
ENDBRANCH   1  25
TORSDOF 11
ENDMDL
MODEL 6
REMARK VINA RESULT:    -3.090      1.713      6.133
REMARK INTER + INTRA:          -3.236
REMARK INTER:                  -4.245
REMARK INTRA:                   1.009
REMARK UNBOUND:                 1.209
REMARK SMILES O=c1c(O[C@@H]2O[C@@H](CO)[C@H](O)[C@H](O)[C@@H]2O)c(-c2ccc(O)cc2)oc2cc(O)cc(O)c12
REMARK SMILES IDX 4 1 3 2 16 3 24 4 2 5 25 6 1 7 32 8 26 9 30 10 27 11 29 12
REMARK SMILES IDX 17 13 18 14 19 15 20 16 23 17 22 18 21 19 31 21 28 23 5 25
REMARK SMILES IDX 14 26 6 27 12 28 7 29 10 30 15 31 13 33 8 35 9 36 11 38
REMARK H PARENT 21 20 31 22 28 24 15 32 13 34 9 37 11 39
REMARK Flexibility Score: inf
ROOT
ATOM      1  O   UNL     1      34.046  26.856  21.394  1.00  0.00    -0.454 OA
ENDROOT
BRANCH   1   2
ATOM      2  C   UNL     1      33.722  26.750  20.028  1.00  0.00     0.214 A 
ATOM      3  C   UNL     1      33.871  25.511  19.377  1.00  0.00     0.180 A 
ATOM      4  O   UNL     1      33.696  25.424  18.065  1.00  0.00    -0.452 OA
ATOM      5  C   UNL     1      33.262  27.852  19.278  1.00  0.00     0.239 A 
ATOM      6  C   UNL     1      33.308  26.446  17.311  1.00  0.00     0.146 A 
ATOM      7  O   UNL     1      33.090  28.957  19.851  1.00  0.00    -0.285 OA
ATOM      8  C   UNL     1      33.011  27.707  17.891  1.00  0.00     0.111 A 
ATOM      9  C   UNL     1      33.194  26.255  15.931  1.00  0.00     0.094 A 
ATOM     10  C   UNL     1      32.517  28.746  17.044  1.00  0.00     0.134 A 
ATOM     11  C   UNL     1      32.784  27.299  15.104  1.00  0.00     0.123 A 
ATOM     12  C   UNL     1      32.447  28.536  15.662  1.00  0.00     0.093 A 
BRANCH   3  13
ATOM     13  C   UNL     1      34.265  24.285  20.105  1.00  0.00     0.021 A 
ATOM     14  C   UNL     1      34.451  24.294  21.500  1.00  0.00     0.016 A 
ATOM     15  C   UNL     1      34.816  23.120  22.170  1.00  0.00     0.047 A 
ATOM     16  C   UNL     1      34.989  21.926  21.460  1.00  0.00     0.115 A 
ATOM     17  C   UNL     1      34.418  23.078  19.400  1.00  0.00     0.016 A 
ATOM     18  C   UNL     1      34.786  21.907  20.072  1.00  0.00     0.047 A 
BRANCH  16  19
ATOM     19  O   UNL     1      35.358  20.766  22.140  1.00  0.00    -0.508 OA
ATOM     20  H   UNL     1      35.096  19.847  21.802  1.00  0.00     0.293 HD
ENDBRANCH  16  19
ENDBRANCH   3  13
BRANCH  10  21
ATOM     21  O   UNL     1      32.059  29.982  17.513  1.00  0.00    -0.507 OA
ATOM     22  H   UNL     1      32.642  30.797  17.642  1.00  0.00     0.293 HD
ENDBRANCH  10  21
BRANCH  11  23
ATOM     23  O   UNL     1      32.701  27.095  13.729  1.00  0.00    -0.508 OA
ATOM     24  H   UNL     1      32.802  27.861  13.072  1.00  0.00     0.293 HD
ENDBRANCH  11  23
ENDBRANCH   1   2
BRANCH   1  25
ATOM     25  C   UNL     1      35.359  27.159  21.890  1.00  0.00     0.339 C 
ATOM     26  C   UNL     1      35.554  28.682  22.074  1.00  0.00     0.214 C 
ATOM     27  O   UNL     1      35.632  26.451  23.090  1.00  0.00    -0.332 OA
ATOM     28  C   UNL     1      34.741  29.214  23.267  1.00  0.00     0.180 C 
ATOM     29  C   UNL     1      34.761  26.846  24.142  1.00  0.00     0.179 C 
ATOM     30  C   UNL     1      34.982  28.332  24.503  1.00  0.00     0.177 C 
BRANCH  26  31
ATOM     31  O   UNL     1      35.193  29.371  20.904  1.00  0.00    -0.384 OA
ATOM     32  H   UNL     1      34.451  28.858  20.485  1.00  0.00     0.211 HD
ENDBRANCH  26  31
BRANCH  28  33
ATOM     33  O   UNL     1      33.368  29.235  22.959  1.00  0.00    -0.387 OA
ATOM     34  H   UNL     1      33.271  29.700  22.087  1.00  0.00     0.211 HD
ENDBRANCH  28  33
BRANCH  29  35
ATOM     35  C   UNL     1      35.021  25.940  25.352  1.00  0.00     0.191 C 
BRANCH  35  36
ATOM     36  O   UNL     1      35.905  24.913  24.991  1.00  0.00    -0.394 OA
ATOM     37  H   UNL     1      35.418  24.061  25.144  1.00  0.00     0.210 HD
ENDBRANCH  35  36
ENDBRANCH  29  35
BRANCH  30  38
ATOM     38  O   UNL     1      34.106  28.711  25.537  1.00  0.00    -0.387 OA
ATOM     39  H   UNL     1      33.563  27.909  25.758  1.00  0.00     0.211 HD
ENDBRANCH  30  38
ENDBRANCH   1  25
TORSDOF 11
ENDMDL
