MODEL 1
REMARK VINA RESULT:    -4.282      0.000      0.000
REMARK INTER + INTRA:         -15.289
REMARK INTER:                 -10.791
REMARK INTRA:                  -4.498
REMARK UNBOUND:                -4.498
REMARK SMILES CCCCCCCCCCCCCCCCCCCCCCCCCCCC(=O)[O-]
REMARK SMILES IDX 15 1 16 2 17 3 18 4 19 5 20 6 21 7 22 8 23 9 24 10 25 11
REMARK SMILES IDX 26 12 27 13 28 14 29 15 30 16 14 17 13 18 12 19 11 20 10 21
REMARK SMILES IDX 9 22 8 23 7 24 6 25 5 26 4 27 3 28 2 29 1 30
REMARK H PARENT
REMARK Flexibility Score: inf
ROOT
ATOM      1  C   UNL     1      19.369  34.649  47.579  1.00  0.00     0.000 C 
ENDROOT
BRANCH   1   2
ATOM      2  C   UNL     1      20.683  33.862  47.704  1.00  0.00     0.000 C 
BRANCH   2   3
ATOM      3  C   UNL     1      21.506  34.364  48.896  1.00  0.00     0.000 C 
BRANCH   3   4
ATOM      4  C   UNL     1      22.817  33.575  49.040  1.00  0.00     0.000 C 
BRANCH   4   5
ATOM      5  C   UNL     1      23.799  34.233  50.024  1.00  0.00     0.000 C 
BRANCH   5   6
ATOM      6  C   UNL     1      24.001  33.406  51.302  1.00  0.00     0.000 C 
BRANCH   6   7
ATOM      7  C   UNL     1      23.755  34.255  52.558  1.00  0.00     0.000 C 
BRANCH   7   8
ATOM      8  C   UNL     1      22.708  35.362  52.334  1.00  0.00     0.000 C 
BRANCH   8   9
ATOM      9  C   UNL     1      21.814  35.675  53.551  1.00  0.00     0.000 C 
BRANCH   9  10
ATOM     10  C   UNL     1      20.580  36.542  53.250  1.00  0.00     0.000 C 
BRANCH  10  11
ATOM     11  C   UNL     1      20.788  38.020  53.625  1.00  0.00     0.000 C 
BRANCH  11  12
ATOM     12  C   UNL     1      19.910  38.971  52.796  1.00  0.00     0.006 C 
BRANCH  12  13
ATOM     13  C   UNL     1      19.580  38.417  51.403  1.00  0.00     0.053 C 
BRANCH  13  14
ATOM     14  C   UNL     1      19.173  39.517  50.473  1.00  0.00     0.041 C 
ATOM     15  O   UNL     1      18.652  40.571  50.926  1.00  0.00    -0.550 OA
ATOM     16  O   UNL     1      19.382  39.386  49.104  1.00  0.00    -0.550 OA
ENDBRANCH  13  14
ENDBRANCH  12  13
ENDBRANCH  11  12
ENDBRANCH  10  11
ENDBRANCH   9  10
ENDBRANCH   8   9
ENDBRANCH   7   8
ENDBRANCH   6   7
ENDBRANCH   5   6
ENDBRANCH   4   5
ENDBRANCH   3   4
ENDBRANCH   2   3
ENDBRANCH   1   2
BRANCH   1  17
ATOM     17  C   UNL     1      18.937  34.868  46.122  1.00  0.00     0.000 C 
BRANCH  17  18
ATOM     18  C   UNL     1      20.119  35.187  45.189  1.00  0.00     0.000 C 
BRANCH  18  19
ATOM     19  C   UNL     1      20.119  34.319  43.912  1.00  0.00     0.000 C 
BRANCH  19  20
ATOM     20  C   UNL     1      21.105  33.135  43.949  1.00  0.00     0.000 C 
BRANCH  20  21
ATOM     21  C   UNL     1      20.459  31.741  43.992  1.00  0.00     0.000 C 
BRANCH  21  22
ATOM     22  C   UNL     1      18.931  31.790  44.151  1.00  0.00    -0.000 C 
BRANCH  22  23
ATOM     23  C   UNL     1      18.456  31.235  45.505  1.00  0.00    -0.000 C 
BRANCH  23  24
ATOM     24  C   UNL     1      19.608  30.731  46.400  1.00  0.00    -0.000 C 
BRANCH  24  25
ATOM     25  C   UNL     1      19.136  30.396  47.826  1.00  0.00    -0.000 C 
BRANCH  25  26
ATOM     26  C   UNL     1      17.963  31.280  48.278  1.00  0.00    -0.000 C 
BRANCH  26  27
ATOM     27  C   UNL     1      18.164  31.850  49.693  1.00  0.00    -0.000 C 
BRANCH  27  28
ATOM     28  C   UNL     1      19.205  31.065  50.512  1.00  0.00    -0.000 C 
BRANCH  28  29
ATOM     29  C   UNL     1      20.215  31.937  51.280  1.00  0.00    -0.003 C 
ATOM     30  C   UNL     1      19.630  33.277  51.725  1.00  0.00     0.004 C 
ENDBRANCH  28  29
ENDBRANCH  27  28
ENDBRANCH  26  27
ENDBRANCH  25  26
ENDBRANCH  24  25
ENDBRANCH  23  24
ENDBRANCH  22  23
ENDBRANCH  21  22
ENDBRANCH  20  21
ENDBRANCH  19  20
ENDBRANCH  18  19
ENDBRANCH  17  18
ENDBRANCH   1  17
TORSDOF 26
ENDMDL
MODEL 2
REMARK VINA RESULT:    -4.263      9.087     12.039
REMARK INTER + INTRA:         -15.240
REMARK INTER:                  -9.921
REMARK INTRA:                  -5.319
REMARK UNBOUND:                -4.498
REMARK SMILES CCCCCCCCCCCCCCCCCCCCCCCCCCCC(=O)[O-]
REMARK SMILES IDX 15 1 16 2 17 3 18 4 19 5 20 6 21 7 22 8 23 9 24 10 25 11
REMARK SMILES IDX 26 12 27 13 28 14 29 15 30 16 14 17 13 18 12 19 11 20 10 21
REMARK SMILES IDX 9 22 8 23 7 24 6 25 5 26 4 27 3 28 2 29 1 30
REMARK H PARENT
REMARK Flexibility Score: inf
ROOT
ATOM      1  C   UNL     1      30.000  39.603  44.692  1.00  0.00     0.000 C 
ENDROOT
BRANCH   1   2
ATOM      2  C   UNL     1      30.755  40.410  45.759  1.00  0.00     0.000 C 
BRANCH   2   3
ATOM      3  C   UNL     1      31.075  39.534  46.977  1.00  0.00     0.000 C 
BRANCH   3   4
ATOM      4  C   UNL     1      31.126  40.369  48.266  1.00  0.00     0.000 C 
BRANCH   4   5
ATOM      5  C   UNL     1      32.261  39.934  49.208  1.00  0.00     0.000 C 
BRANCH   5   6
ATOM      6  C   UNL     1      33.161  38.852  48.593  1.00  0.00     0.000 C 
BRANCH   6   7
ATOM      7  C   UNL     1      33.631  37.850  49.657  1.00  0.00     0.000 C 
BRANCH   7   8
ATOM      8  C   UNL     1      34.261  36.584  49.048  1.00  0.00     0.000 C 
BRANCH   8   9
ATOM      9  C   UNL     1      33.682  35.251  49.564  1.00  0.00     0.000 C 
BRANCH   9  10
ATOM     10  C   UNL     1      32.828  35.360  50.840  1.00  0.00     0.000 C 
BRANCH  10  11
ATOM     11  C   UNL     1      32.137  34.036  51.206  1.00  0.00     0.000 C 
BRANCH  11  12
ATOM     12  C   UNL     1      31.737  33.214  49.970  1.00  0.00     0.006 C 
BRANCH  12  13
ATOM     13  C   UNL     1      32.303  31.788  49.992  1.00  0.00     0.053 C 
BRANCH  13  14
ATOM     14  C   UNL     1      33.160  31.534  48.791  1.00  0.00     0.041 C 
ATOM     15  O   UNL     1      32.705  30.885  47.812  1.00  0.00    -0.550 OA
ATOM     16  O   UNL     1      34.460  32.027  48.745  1.00  0.00    -0.550 OA
ENDBRANCH  13  14
ENDBRANCH  12  13
ENDBRANCH  11  12
ENDBRANCH  10  11
ENDBRANCH   9  10
ENDBRANCH   8   9
ENDBRANCH   7   8
ENDBRANCH   6   7
ENDBRANCH   5   6
ENDBRANCH   4   5
ENDBRANCH   3   4
ENDBRANCH   2   3
ENDBRANCH   1   2
BRANCH   1  17
ATOM     17  C   UNL     1      28.536  40.038  44.534  1.00  0.00     0.000 C 
BRANCH  17  18
ATOM     18  C   UNL     1      28.165  41.225  45.442  1.00  0.00     0.000 C 
BRANCH  18  19
ATOM     19  C   UNL     1      26.774  41.062  46.093  1.00  0.00     0.000 C 
BRANCH  19  20
ATOM     20  C   UNL     1      26.804  40.939  47.629  1.00  0.00     0.000 C 
BRANCH  20  21
ATOM     21  C   UNL     1      27.403  39.632  48.174  1.00  0.00     0.000 C 
BRANCH  21  22
ATOM     22  C   UNL     1      26.417  38.453  48.128  1.00  0.00    -0.000 C 
BRANCH  22  23
ATOM     23  C   UNL     1      26.862  37.344  47.160  1.00  0.00    -0.000 C 
BRANCH  23  24
ATOM     24  C   UNL     1      28.393  37.266  46.977  1.00  0.00    -0.000 C 
BRANCH  24  25
ATOM     25  C   UNL     1      28.963  35.899  47.398  1.00  0.00    -0.000 C 
BRANCH  25  26
ATOM     26  C   UNL     1      30.137  36.030  48.379  1.00  0.00    -0.000 C 
BRANCH  26  27
ATOM     27  C   UNL     1      29.863  37.052  49.496  1.00  0.00    -0.000 C 
BRANCH  27  28
ATOM     28  C   UNL     1      29.229  36.416  50.746  1.00  0.00    -0.000 C 
BRANCH  28  29
ATOM     29  C   UNL     1      27.716  36.148  50.639  1.00  0.00    -0.003 C 
ATOM     30  C   UNL     1      27.377  34.659  50.571  1.00  0.00     0.004 C 
ENDBRANCH  28  29
ENDBRANCH  27  28
ENDBRANCH  26  27
ENDBRANCH  25  26
ENDBRANCH  24  25
ENDBRANCH  23  24
ENDBRANCH  22  23
ENDBRANCH  21  22
ENDBRANCH  20  21
ENDBRANCH  19  20
ENDBRANCH  18  19
ENDBRANCH  17  18
ENDBRANCH   1  17
TORSDOF 26
ENDMDL
MODEL 3
REMARK VINA RESULT:    -4.202      1.571      4.031
REMARK INTER + INTRA:         -15.086
REMARK INTER:                 -10.627
REMARK INTRA:                  -4.459
REMARK UNBOUND:                -4.498
REMARK SMILES CCCCCCCCCCCCCCCCCCCCCCCCCCCC(=O)[O-]
REMARK SMILES IDX 15 1 16 2 17 3 18 4 19 5 20 6 21 7 22 8 23 9 24 10 25 11
REMARK SMILES IDX 26 12 27 13 28 14 29 15 30 16 14 17 13 18 12 19 11 20 10 21
REMARK SMILES IDX 9 22 8 23 7 24 6 25 5 26 4 27 3 28 2 29 1 30
REMARK H PARENT
REMARK Flexibility Score: inf
ROOT
ATOM      1  C   UNL     1      19.411  30.229  46.786  1.00  0.00     0.000 C 
ENDROOT
BRANCH   1   2
ATOM      2  C   UNL     1      18.643  30.229  48.117  1.00  0.00     0.000 C 
BRANCH   2   3
ATOM      3  C   UNL     1      19.407  29.436  49.185  1.00  0.00     0.000 C 
BRANCH   3   4
ATOM      4  C   UNL     1      19.482  30.214  50.508  1.00  0.00     0.000 C 
BRANCH   4   5
ATOM      5  C   UNL     1      18.609  31.480  50.501  1.00  0.00     0.000 C 
BRANCH   5   6
ATOM      6  C   UNL     1      19.193  32.608  51.364  1.00  0.00     0.000 C 
BRANCH   6   7
ATOM      7  C   UNL     1      20.714  32.460  51.517  1.00  0.00     0.000 C 
BRANCH   7   8
ATOM      8  C   UNL     1      21.367  33.679  52.196  1.00  0.00     0.000 C 
BRANCH   8   9
ATOM      9  C   UNL     1      20.412  34.855  52.488  1.00  0.00     0.000 C 
BRANCH   9  10
ATOM     10  C   UNL     1      20.756  36.169  51.766  1.00  0.00     0.000 C 
BRANCH  10  11
ATOM     11  C   UNL     1      19.968  37.371  52.316  1.00  0.00     0.000 C 
BRANCH  11  12
ATOM     12  C   UNL     1      20.206  38.656  51.506  1.00  0.00     0.006 C 
BRANCH  12  13
ATOM     13  C   UNL     1      20.853  39.773  52.336  1.00  0.00     0.053 C 
BRANCH  13  14
ATOM     14  C   UNL     1      19.813  40.695  52.893  1.00  0.00     0.041 C 
ATOM     15  O   UNL     1      19.218  41.509  52.138  1.00  0.00    -0.550 OA
ATOM     16  O   UNL     1      19.490  40.647  54.245  1.00  0.00    -0.550 OA
ENDBRANCH  13  14
ENDBRANCH  12  13
ENDBRANCH  11  12
ENDBRANCH  10  11
ENDBRANCH   9  10
ENDBRANCH   8   9
ENDBRANCH   7   8
ENDBRANCH   6   7
ENDBRANCH   5   6
ENDBRANCH   4   5
ENDBRANCH   3   4
ENDBRANCH   2   3
ENDBRANCH   1   2
BRANCH   1  17
ATOM     17  C   UNL     1      18.552  30.683  45.597  1.00  0.00     0.000 C 
BRANCH  17  18
ATOM     18  C   UNL     1      19.379  31.346  44.481  1.00  0.00     0.000 C 
BRANCH  18  19
ATOM     19  C   UNL     1      18.903  32.780  44.161  1.00  0.00     0.000 C 
BRANCH  19  20
ATOM     20  C   UNL     1      19.976  33.866  44.374  1.00  0.00     0.000 C 
BRANCH  20  21
ATOM     21  C   UNL     1      19.718  34.826  45.546  1.00  0.00     0.000 C 
BRANCH  21  22
ATOM     22  C   UNL     1      18.671  34.295  46.540  1.00  0.00    -0.000 C 
BRANCH  22  23
ATOM     23  C   UNL     1      19.292  33.839  47.871  1.00  0.00    -0.000 C 
BRANCH  23  24
ATOM     24  C   UNL     1      20.386  34.793  48.397  1.00  0.00    -0.000 C 
BRANCH  24  25
ATOM     25  C   UNL     1      21.754  34.099  48.525  1.00  0.00    -0.000 C 
BRANCH  25  26
ATOM     26  C   UNL     1      21.894  32.900  47.574  1.00  0.00    -0.000 C 
BRANCH  26  27
ATOM     27  C   UNL     1      22.275  31.604  48.310  1.00  0.00    -0.000 C 
BRANCH  27  28
ATOM     28  C   UNL     1      23.707  31.136  47.995  1.00  0.00    -0.000 C 
BRANCH  28  29
ATOM     29  C   UNL     1      24.575  32.166  47.249  1.00  0.00    -0.003 C 
ATOM     30  C   UNL     1      25.520  32.932  48.174  1.00  0.00     0.004 C 
ENDBRANCH  28  29
ENDBRANCH  27  28
ENDBRANCH  26  27
ENDBRANCH  25  26
ENDBRANCH  24  25
ENDBRANCH  23  24
ENDBRANCH  22  23
ENDBRANCH  21  22
ENDBRANCH  20  21
ENDBRANCH  19  20
ENDBRANCH  18  19
ENDBRANCH  17  18
ENDBRANCH   1  17
TORSDOF 26
ENDMDL
MODEL 4
REMARK VINA RESULT:    -4.188      2.675      5.340
REMARK INTER + INTRA:         -15.051
REMARK INTER:                  -9.377
REMARK INTRA:                  -5.673
REMARK UNBOUND:                -4.498
REMARK SMILES CCCCCCCCCCCCCCCCCCCCCCCCCCCC(=O)[O-]
REMARK SMILES IDX 15 1 16 2 17 3 18 4 19 5 20 6 21 7 22 8 23 9 24 10 25 11
REMARK SMILES IDX 26 12 27 13 28 14 29 15 30 16 14 17 13 18 12 19 11 20 10 21
REMARK SMILES IDX 9 22 8 23 7 24 6 25 5 26 4 27 3 28 2 29 1 30
REMARK H PARENT
REMARK Flexibility Score: inf
ROOT
ATOM      1  C   UNL     1      18.845  32.762  44.427  1.00  0.00     0.000 C 
ENDROOT
BRANCH   1   2
ATOM      2  C   UNL     1      19.312  31.348  44.805  1.00  0.00     0.000 C 
BRANCH   2   3
ATOM      3  C   UNL     1      18.620  30.872  46.089  1.00  0.00     0.000 C 
BRANCH   3   4
ATOM      4  C   UNL     1      19.520  29.913  46.884  1.00  0.00     0.000 C 
BRANCH   4   5
ATOM      5  C   UNL     1      19.174  29.882  48.382  1.00  0.00     0.000 C 
BRANCH   5   6
ATOM      6  C   UNL     1      18.411  31.134  48.840  1.00  0.00     0.000 C 
BRANCH   6   7
ATOM      7  C   UNL     1      18.578  31.366  50.349  1.00  0.00     0.000 C 
BRANCH   7   8
ATOM      8  C   UNL     1      19.974  30.965  50.863  1.00  0.00     0.000 C 
BRANCH   8   9
ATOM      9  C   UNL     1      20.823  32.125  51.424  1.00  0.00     0.000 C 
BRANCH   9  10
ATOM     10  C   UNL     1      20.045  33.417  51.725  1.00  0.00     0.000 C 
BRANCH  10  11
ATOM     11  C   UNL     1      20.940  34.668  51.699  1.00  0.00     0.000 C 
BRANCH  11  12
ATOM     12  C   UNL     1      22.326  34.418  52.315  1.00  0.00     0.006 C 
BRANCH  12  13
ATOM     13  C   UNL     1      23.019  35.709  52.771  1.00  0.00     0.053 C 
BRANCH  13  14
ATOM     14  C   UNL     1      23.218  35.715  54.254  1.00  0.00     0.041 C 
ATOM     15  O   UNL     1      22.243  35.925  55.025  1.00  0.00    -0.550 OA
ATOM     16  O   UNL     1      24.478  35.472  54.790  1.00  0.00    -0.550 OA
ENDBRANCH  13  14
ENDBRANCH  12  13
ENDBRANCH  11  12
ENDBRANCH  10  11
ENDBRANCH   9  10
ENDBRANCH   8   9
ENDBRANCH   7   8
ENDBRANCH   6   7
ENDBRANCH   5   6
ENDBRANCH   4   5
ENDBRANCH   3   4
ENDBRANCH   2   3
ENDBRANCH   1   2
BRANCH   1  17
ATOM     17  C   UNL     1      20.003  33.763  44.303  1.00  0.00     0.000 C 
BRANCH  17  18
ATOM     18  C   UNL     1      19.922  34.900  45.337  1.00  0.00     0.000 C 
BRANCH  18  19
ATOM     19  C   UNL     1      18.854  34.642  46.423  1.00  0.00     0.000 C 
BRANCH  19  20
ATOM     20  C   UNL     1      19.417  34.535  47.854  1.00  0.00     0.000 C 
BRANCH  20  21
ATOM     21  C   UNL     1      20.945  34.395  47.952  1.00  0.00     0.000 C 
BRANCH  21  22
ATOM     22  C   UNL     1      21.412  32.932  48.026  1.00  0.00    -0.000 C 
BRANCH  22  23
ATOM     23  C   UNL     1      22.287  32.525  46.828  1.00  0.00    -0.000 C 
BRANCH  23  24
ATOM     24  C   UNL     1      23.281  31.390  47.152  1.00  0.00    -0.000 C 
BRANCH  24  25
ATOM     25  C   UNL     1      23.086  30.830  48.573  1.00  0.00    -0.000 C 
BRANCH  25  26
ATOM     26  C   UNL     1      24.205  31.262  49.533  1.00  0.00    -0.000 C 
BRANCH  26  27
ATOM     27  C   UNL     1      25.497  31.652  48.796  1.00  0.00    -0.000 C 
BRANCH  27  28
ATOM     28  C   UNL     1      26.041  33.026  49.227  1.00  0.00    -0.000 C 
BRANCH  28  29
ATOM     29  C   UNL     1      25.360  34.231  48.553  1.00  0.00    -0.003 C 
ATOM     30  C   UNL     1      24.792  35.235  49.556  1.00  0.00     0.004 C 
ENDBRANCH  28  29
ENDBRANCH  27  28
ENDBRANCH  26  27
ENDBRANCH  25  26
ENDBRANCH  24  25
ENDBRANCH  23  24
ENDBRANCH  22  23
ENDBRANCH  21  22
ENDBRANCH  20  21
ENDBRANCH  19  20
ENDBRANCH  18  19
ENDBRANCH  17  18
ENDBRANCH   1  17
TORSDOF 26
ENDMDL
MODEL 5
REMARK VINA RESULT:    -4.183      3.126      8.122
REMARK INTER + INTRA:         -15.038
REMARK INTER:                  -9.683
REMARK INTRA:                  -5.355
REMARK UNBOUND:                -4.498
REMARK SMILES CCCCCCCCCCCCCCCCCCCCCCCCCCCC(=O)[O-]
REMARK SMILES IDX 15 1 16 2 17 3 18 4 19 5 20 6 21 7 22 8 23 9 24 10 25 11
REMARK SMILES IDX 26 12 27 13 28 14 29 15 30 16 14 17 13 18 12 19 11 20 10 21
REMARK SMILES IDX 9 22 8 23 7 24 6 25 5 26 4 27 3 28 2 29 1 30
REMARK H PARENT
REMARK Flexibility Score: inf
ROOT
ATOM      1  C   UNL     1      21.240  34.784  49.816  1.00  0.00     0.000 C 
ENDROOT
BRANCH   1   2
ATOM      2  C   UNL     1      20.715  34.756  48.372  1.00  0.00     0.000 C 
BRANCH   2   3
ATOM      3  C   UNL     1      19.384  33.996  48.293  1.00  0.00     0.000 C 
BRANCH   3   4
ATOM      4  C   UNL     1      18.710  34.194  46.926  1.00  0.00     0.000 C 
BRANCH   4   5
ATOM      5  C   UNL     1      19.526  35.102  45.990  1.00  0.00     0.000 C 
BRANCH   5   6
ATOM      6  C   UNL     1      19.882  34.417  44.662  1.00  0.00     0.000 C 
BRANCH   6   7
ATOM      7  C   UNL     1      21.191  33.623  44.780  1.00  0.00     0.000 C 
BRANCH   7   8
ATOM      8  C   UNL     1      20.972  32.100  44.719  1.00  0.00     0.000 C 
BRANCH   8   9
ATOM      9  C   UNL     1      19.551  31.658  44.316  1.00  0.00     0.000 C 
BRANCH   9  10
ATOM     10  C   UNL     1      18.883  30.654  45.272  1.00  0.00     0.000 C 
BRANCH  10  11
ATOM     11  C   UNL     1      19.552  30.619  46.656  1.00  0.00     0.000 C 
BRANCH  11  12
ATOM     12  C   UNL     1      18.574  30.231  47.778  1.00  0.00     0.006 C 
BRANCH  12  13
ATOM     13  C   UNL     1      19.028  30.718  49.160  1.00  0.00     0.053 C 
BRANCH  13  14
ATOM     14  C   UNL     1      19.677  29.611  49.930  1.00  0.00     0.041 C 
ATOM     15  O   UNL     1      19.492  28.411  49.595  1.00  0.00    -0.550 OA
ATOM     16  O   UNL     1      20.501  29.903  51.013  1.00  0.00    -0.550 OA
ENDBRANCH  13  14
ENDBRANCH  12  13
ENDBRANCH  11  12
ENDBRANCH  10  11
ENDBRANCH   9  10
ENDBRANCH   8   9
ENDBRANCH   7   8
ENDBRANCH   6   7
ENDBRANCH   5   6
ENDBRANCH   4   5
ENDBRANCH   3   4
ENDBRANCH   2   3
ENDBRANCH   1   2
BRANCH   1  17
ATOM     17  C   UNL     1      20.823  33.551  50.631  1.00  0.00     0.000 C 
BRANCH  17  18
ATOM     18  C   UNL     1      20.433  33.897  52.079  1.00  0.00     0.000 C 
BRANCH  18  19
ATOM     19  C   UNL     1      20.423  35.418  52.345  1.00  0.00     0.000 C 
BRANCH  19  20
ATOM     20  C   UNL     1      21.254  35.854  53.568  1.00  0.00     0.000 C 
BRANCH  20  21
ATOM     21  C   UNL     1      22.751  35.512  53.503  1.00  0.00     0.000 C 
BRANCH  21  22
ATOM     22  C   UNL     1      23.621  36.702  53.064  1.00  0.00    -0.000 C 
BRANCH  22  23
ATOM     23  C   UNL     1      24.360  36.441  51.741  1.00  0.00    -0.000 C 
BRANCH  23  24
ATOM     24  C   UNL     1      24.427  34.947  51.359  1.00  0.00    -0.000 C 
BRANCH  24  25
ATOM     25  C   UNL     1      24.741  34.739  49.866  1.00  0.00    -0.000 C 
BRANCH  25  26
ATOM     26  C   UNL     1      24.698  33.259  49.458  1.00  0.00    -0.000 C 
BRANCH  26  27
ATOM     27  C   UNL     1      24.792  33.062  47.936  1.00  0.00    -0.000 C 
BRANCH  27  28
ATOM     28  C   UNL     1      23.506  32.472  47.328  1.00  0.00    -0.000 C 
BRANCH  28  29
ATOM     29  C   UNL     1      22.664  31.623  48.298  1.00  0.00    -0.003 C 
ATOM     30  C   UNL     1      23.011  30.135  48.245  1.00  0.00     0.004 C 
ENDBRANCH  28  29
ENDBRANCH  27  28
ENDBRANCH  26  27
ENDBRANCH  25  26
ENDBRANCH  24  25
ENDBRANCH  23  24
ENDBRANCH  22  23
ENDBRANCH  21  22
ENDBRANCH  20  21
ENDBRANCH  19  20
ENDBRANCH  18  19
ENDBRANCH  17  18
ENDBRANCH   1  17
TORSDOF 26
ENDMDL
MODEL 6
REMARK VINA RESULT:    -4.165      3.229      7.391
REMARK INTER + INTRA:         -14.994
REMARK INTER:                 -10.320
REMARK INTRA:                  -4.673
REMARK UNBOUND:                -4.498
REMARK SMILES CCCCCCCCCCCCCCCCCCCCCCCCCCCC(=O)[O-]
REMARK SMILES IDX 15 1 16 2 17 3 18 4 19 5 20 6 21 7 22 8 23 9 24 10 25 11
REMARK SMILES IDX 26 12 27 13 28 14 29 15 30 16 14 17 13 18 12 19 11 20 10 21
REMARK SMILES IDX 9 22 8 23 7 24 6 25 5 26 4 27 3 28 2 29 1 30
REMARK H PARENT
REMARK Flexibility Score: inf
ROOT
ATOM      1  C   UNL     1      19.173  29.930  46.248  1.00  0.00     0.000 C 
ENDROOT
BRANCH   1   2
ATOM      2  C   UNL     1      18.462  29.504  44.955  1.00  0.00     0.000 C 
BRANCH   2   3
ATOM      3  C   UNL     1      18.593  30.591  43.880  1.00  0.00     0.000 C 
BRANCH   3   4
ATOM      4  C   UNL     1      19.803  31.498  44.150  1.00  0.00     0.000 C 
BRANCH   4   5
ATOM      5  C   UNL     1      19.430  32.990  44.172  1.00  0.00     0.000 C 
BRANCH   5   6
ATOM      6  C   UNL     1      18.171  33.275  45.003  1.00  0.00     0.000 C 
BRANCH   6   7
ATOM      7  C   UNL     1      18.502  34.120  46.242  1.00  0.00     0.000 C 
BRANCH   7   8
ATOM      8  C   UNL     1      19.994  34.492  46.329  1.00  0.00     0.000 C 
BRANCH   8   9
ATOM      9  C   UNL     1      20.696  34.081  47.639  1.00  0.00     0.000 C 
BRANCH   9  10
ATOM     10  C   UNL     1      21.318  32.674  47.633  1.00  0.00     0.000 C 
BRANCH  10  11
ATOM     11  C   UNL     1      22.487  32.546  46.640  1.00  0.00     0.000 C 
BRANCH  11  12
ATOM     12  C   UNL     1      23.860  32.649  47.324  1.00  0.00     0.006 C 
BRANCH  12  13
ATOM     13  C   UNL     1      23.817  32.260  48.808  1.00  0.00     0.053 C 
BRANCH  13  14
ATOM     14  C   UNL     1      24.623  31.024  49.060  1.00  0.00     0.041 C 
ATOM     15  O   UNL     1      24.433  29.990  48.367  1.00  0.00    -0.550 OA
ATOM     16  O   UNL     1      25.598  31.018  50.053  1.00  0.00    -0.550 OA
ENDBRANCH  13  14
ENDBRANCH  12  13
ENDBRANCH  11  12
ENDBRANCH  10  11
ENDBRANCH   9  10
ENDBRANCH   8   9
ENDBRANCH   7   8
ENDBRANCH   6   7
ENDBRANCH   5   6
ENDBRANCH   4   5
ENDBRANCH   3   4
ENDBRANCH   2   3
ENDBRANCH   1   2
BRANCH   1  17
ATOM     17  C   UNL     1      18.199  30.346  47.360  1.00  0.00     0.000 C 
BRANCH  17  18
ATOM     18  C   UNL     1      18.765  30.101  48.771  1.00  0.00     0.000 C 
BRANCH  18  19
ATOM     19  C   UNL     1      19.936  29.095  48.775  1.00  0.00     0.000 C 
BRANCH  19  20
ATOM     20  C   UNL     1      21.185  29.580  49.536  1.00  0.00     0.000 C 
BRANCH  20  21
ATOM     21  C   UNL     1      20.963  29.920  51.019  1.00  0.00     0.000 C 
BRANCH  21  22
ATOM     22  C   UNL     1      21.282  31.387  51.354  1.00  0.00    -0.000 C 
BRANCH  22  23
ATOM     23  C   UNL     1      20.028  32.277  51.382  1.00  0.00    -0.000 C 
BRANCH  23  24
ATOM     24  C   UNL     1      20.323  33.742  51.766  1.00  0.00    -0.000 C 
BRANCH  24  25
ATOM     25  C   UNL     1      21.733  34.186  51.334  1.00  0.00    -0.000 C 
BRANCH  25  26
ATOM     26  C   UNL     1      21.947  35.698  51.500  1.00  0.00    -0.000 C 
BRANCH  26  27
ATOM     27  C   UNL     1      20.667  36.509  51.239  1.00  0.00    -0.000 C 
BRANCH  27  28
ATOM     28  C   UNL     1      20.343  37.497  52.375  1.00  0.00    -0.000 C 
BRANCH  28  29
ATOM     29  C   UNL     1      19.118  38.395  52.121  1.00  0.00    -0.003 C 
ATOM     30  C   UNL     1      18.261  38.603  53.369  1.00  0.00     0.004 C 
ENDBRANCH  28  29
ENDBRANCH  27  28
ENDBRANCH  26  27
ENDBRANCH  25  26
ENDBRANCH  24  25
ENDBRANCH  23  24
ENDBRANCH  22  23
ENDBRANCH  21  22
ENDBRANCH  20  21
ENDBRANCH  19  20
ENDBRANCH  18  19
ENDBRANCH  17  18
ENDBRANCH   1  17
TORSDOF 26
ENDMDL
MODEL 7
REMARK VINA RESULT:    -4.156      9.584     12.733
REMARK INTER + INTRA:         -14.971
REMARK INTER:                 -10.671
REMARK INTRA:                  -4.300
REMARK UNBOUND:                -4.498
REMARK SMILES CCCCCCCCCCCCCCCCCCCCCCCCCCCC(=O)[O-]
REMARK SMILES IDX 15 1 16 2 17 3 18 4 19 5 20 6 21 7 22 8 23 9 24 10 25 11
REMARK SMILES IDX 26 12 27 13 28 14 29 15 30 16 14 17 13 18 12 19 11 20 10 21
REMARK SMILES IDX 9 22 8 23 7 24 6 25 5 26 4 27 3 28 2 29 1 30
REMARK H PARENT
REMARK Flexibility Score: inf
ROOT
ATOM      1  C   UNL     1      33.159  38.652  48.746  1.00  0.00     0.000 C 
ENDROOT
BRANCH   1   2
ATOM      2  C   UNL     1      34.012  37.856  49.745  1.00  0.00     0.000 C 
BRANCH   2   3
ATOM      3  C   UNL     1      33.986  36.359  49.409  1.00  0.00     0.000 C 
BRANCH   3   4
ATOM      4  C   UNL     1      32.785  35.662  50.068  1.00  0.00     0.000 C 
BRANCH   4   5
ATOM      5  C   UNL     1      31.541  35.644  49.164  1.00  0.00     0.000 C 
BRANCH   5   6
ATOM      6  C   UNL     1      30.233  35.812  49.951  1.00  0.00     0.000 C 
BRANCH   6   7
ATOM      7  C   UNL     1      29.140  34.874  49.418  1.00  0.00     0.000 C 
BRANCH   7   8
ATOM      8  C   UNL     1      29.671  33.468  49.082  1.00  0.00     0.000 C 
BRANCH   8   9
ATOM      9  C   UNL     1      29.777  32.505  50.282  1.00  0.00     0.000 C 
BRANCH   9  10
ATOM     10  C   UNL     1      31.190  32.351  50.873  1.00  0.00     0.000 C 
BRANCH  10  11
ATOM     11  C   UNL     1      32.015  31.266  50.160  1.00  0.00     0.000 C 
BRANCH  11  12
ATOM     12  C   UNL     1      32.964  31.846  49.098  1.00  0.00     0.006 C 
BRANCH  12  13
ATOM     13  C   UNL     1      33.440  30.795  48.086  1.00  0.00     0.053 C 
BRANCH  13  14
ATOM     14  C   UNL     1      34.252  31.428  47.000  1.00  0.00     0.041 C 
ATOM     15  O   UNL     1      35.275  32.107  47.284  1.00  0.00    -0.550 OA
ATOM     16  O   UNL     1      33.888  31.257  45.668  1.00  0.00    -0.550 OA
ENDBRANCH  13  14
ENDBRANCH  12  13
ENDBRANCH  11  12
ENDBRANCH  10  11
ENDBRANCH   9  10
ENDBRANCH   8   9
ENDBRANCH   7   8
ENDBRANCH   6   7
ENDBRANCH   5   6
ENDBRANCH   4   5
ENDBRANCH   3   4
ENDBRANCH   2   3
ENDBRANCH   1   2
BRANCH   1  17
ATOM     17  C   UNL     1      32.100  39.531  49.428  1.00  0.00     0.000 C 
BRANCH  17  18
ATOM     18  C   UNL     1      30.957  39.932  48.478  1.00  0.00     0.000 C 
BRANCH  18  19
ATOM     19  C   UNL     1      31.252  39.572  47.006  1.00  0.00     0.000 C 
BRANCH  19  20
ATOM     20  C   UNL     1      30.446  40.391  45.979  1.00  0.00     0.000 C 
BRANCH  20  21
ATOM     21  C   UNL     1      30.168  39.682  44.644  1.00  0.00     0.000 C 
BRANCH  21  22
ATOM     22  C   UNL     1      28.850  38.890  44.646  1.00  0.00    -0.000 C 
BRANCH  22  23
ATOM     23  C   UNL     1      29.063  37.382  44.864  1.00  0.00    -0.000 C 
BRANCH  23  24
ATOM     24  C   UNL     1      28.907  36.947  46.337  1.00  0.00    -0.000 C 
BRANCH  24  25
ATOM     25  C   UNL     1      27.470  37.140  46.854  1.00  0.00    -0.000 C 
BRANCH  25  26
ATOM     26  C   UNL     1      27.397  38.125  48.030  1.00  0.00    -0.000 C 
BRANCH  26  27
ATOM     27  C   UNL     1      26.437  39.296  47.762  1.00  0.00    -0.000 C 
BRANCH  27  28
ATOM     28  C   UNL     1      27.170  40.631  47.538  1.00  0.00    -0.000 C 
BRANCH  28  29
ATOM     29  C   UNL     1      26.827  41.344  46.217  1.00  0.00    -0.003 C 
ATOM     30  C   UNL     1      27.527  42.694  46.067  1.00  0.00     0.004 C 
ENDBRANCH  28  29
ENDBRANCH  27  28
ENDBRANCH  26  27
ENDBRANCH  25  26
ENDBRANCH  24  25
ENDBRANCH  23  24
ENDBRANCH  22  23
ENDBRANCH  21  22
ENDBRANCH  20  21
ENDBRANCH  19  20
ENDBRANCH  18  19
ENDBRANCH  17  18
ENDBRANCH   1  17
TORSDOF 26
ENDMDL
MODEL 8
REMARK VINA RESULT:    -4.036      9.982     13.454
REMARK INTER + INTRA:         -14.668
REMARK INTER:                  -9.514
REMARK INTRA:                  -5.154
REMARK UNBOUND:                -4.498
REMARK SMILES CCCCCCCCCCCCCCCCCCCCCCCCCCCC(=O)[O-]
REMARK SMILES IDX 15 1 16 2 17 3 18 4 19 5 20 6 21 7 22 8 23 9 24 10 25 11
REMARK SMILES IDX 26 12 27 13 28 14 29 15 30 16 14 17 13 18 12 19 11 20 10 21
REMARK SMILES IDX 9 22 8 23 7 24 6 25 5 26 4 27 3 28 2 29 1 30
REMARK H PARENT
REMARK Flexibility Score: inf
ROOT
ATOM      1  C   UNL     1      30.632  39.994  45.852  1.00  0.00     0.000 C 
ENDROOT
BRANCH   1   2
ATOM      2  C   UNL     1      29.525  39.340  45.012  1.00  0.00     0.000 C 
BRANCH   2   3
ATOM      3  C   UNL     1      28.692  40.405  44.287  1.00  0.00     0.000 C 
BRANCH   3   4
ATOM      4  C   UNL     1      27.693  41.076  45.242  1.00  0.00     0.000 C 
BRANCH   4   5
ATOM      5  C   UNL     1      27.593  42.595  45.022  1.00  0.00     0.000 C 
BRANCH   5   6
ATOM      6  C   UNL     1      27.367  43.370  46.329  1.00  0.00     0.000 C 
BRANCH   6   7
ATOM      7  C   UNL     1      26.344  42.659  47.227  1.00  0.00     0.000 C 
BRANCH   7   8
ATOM      8  C   UNL     1      26.798  42.571  48.696  1.00  0.00     0.000 C 
BRANCH   8   9
ATOM      9  C   UNL     1      26.628  41.186  49.353  1.00  0.00     0.000 C 
BRANCH   9  10
ATOM     10  C   UNL     1      26.124  40.076  48.415  1.00  0.00     0.000 C 
BRANCH  10  11
ATOM     11  C   UNL     1      27.090  38.881  48.338  1.00  0.00     0.000 C 
BRANCH  11  12
ATOM     12  C   UNL     1      26.669  37.845  47.283  1.00  0.00     0.006 C 
BRANCH  12  13
ATOM     13  C   UNL     1      27.074  36.413  47.659  1.00  0.00     0.053 C 
BRANCH  13  14
ATOM     14  C   UNL     1      28.563  36.256  47.638  1.00  0.00     0.041 C 
ATOM     15  O   UNL     1      29.186  36.262  46.543  1.00  0.00    -0.550 OA
ATOM     16  O   UNL     1      29.266  36.118  48.830  1.00  0.00    -0.550 OA
ENDBRANCH  13  14
ENDBRANCH  12  13
ENDBRANCH  11  12
ENDBRANCH  10  11
ENDBRANCH   9  10
ENDBRANCH   8   9
ENDBRANCH   7   8
ENDBRANCH   6   7
ENDBRANCH   5   6
ENDBRANCH   4   5
ENDBRANCH   3   4
ENDBRANCH   2   3
ENDBRANCH   1   2
BRANCH   1  17
ATOM     17  C   UNL     1      30.506  39.690  47.352  1.00  0.00     0.000 C 
BRANCH  17  18
ATOM     18  C   UNL     1      30.068  40.915  48.175  1.00  0.00     0.000 C 
BRANCH  18  19
ATOM     19  C   UNL     1      30.641  42.238  47.623  1.00  0.00     0.000 C 
BRANCH  19  20
ATOM     20  C   UNL     1      30.347  43.471  48.499  1.00  0.00     0.000 C 
BRANCH  20  21
ATOM     21  C   UNL     1      31.349  44.629  48.365  1.00  0.00     0.000 C 
BRANCH  21  22
ATOM     22  C   UNL     1      32.187  44.851  49.635  1.00  0.00    -0.000 C 
BRANCH  22  23
ATOM     23  C   UNL     1      31.434  44.461  50.919  1.00  0.00    -0.000 C 
BRANCH  23  24
ATOM     24  C   UNL     1      32.289  43.637  51.905  1.00  0.00    -0.000 C 
BRANCH  24  25
ATOM     25  C   UNL     1      33.227  42.652  51.183  1.00  0.00    -0.000 C 
BRANCH  25  26
ATOM     26  C   UNL     1      32.586  41.270  50.987  1.00  0.00    -0.000 C 
BRANCH  26  27
ATOM     27  C   UNL     1      33.273  40.451  49.881  1.00  0.00    -0.000 C 
BRANCH  27  28
ATOM     28  C   UNL     1      33.028  38.937  50.018  1.00  0.00    -0.000 C 
BRANCH  28  29
ATOM     29  C   UNL     1      33.585  38.085  48.863  1.00  0.00    -0.003 C 
ATOM     30  C   UNL     1      34.174  36.755  49.332  1.00  0.00     0.004 C 
ENDBRANCH  28  29
ENDBRANCH  27  28
ENDBRANCH  26  27
ENDBRANCH  25  26
ENDBRANCH  24  25
ENDBRANCH  23  24
ENDBRANCH  22  23
ENDBRANCH  21  22
ENDBRANCH  20  21
ENDBRANCH  19  20
ENDBRANCH  18  19
ENDBRANCH  17  18
ENDBRANCH   1  17
TORSDOF 26
ENDMDL
