MODEL 1
REMARK VINA RESULT:    -5.686      0.000      0.000
REMARK INTER + INTRA:          -9.445
REMARK INTER:                  -7.847
REMARK INTRA:                  -1.599
REMARK UNBOUND:                -1.599
REMARK SMILES CC[C@@H](CC[C@H](C)[C@H]1CC[C@@H]2[C@H]3CC=C4C[C@H](O)CC[C@@]4(C)[C@H]3CC[C@@]21C)C(C)C
REMARK SMILES IDX 5 1 4 2 3 3 2 4 1 5 28 6 29 7 30 8 6 9 7 10 8 11 9 12 26 13
REMARK SMILES IDX 10 14 11 15 25 16 27 17 12 18 24 19 23 20 13 21 21 22 14 23
REMARK SMILES IDX 15 24 20 25 22 26 16 27 19 28 17 29 18 30
REMARK H PARENT 18 31
REMARK Flexibility Score: inf
ROOT
ATOM      1  C   UNL     1      21.881 -13.234  41.899  1.00  0.00     0.004 C 
ENDROOT
BRANCH   1   2
ATOM      2  C   UNL     1      21.647 -13.213  43.424  1.00  0.00     0.004 C 
BRANCH   2   3
ATOM      3  C   UNL     1      22.944 -13.420  44.259  1.00  0.00    -0.009 C 
BRANCH   3   4
ATOM      4  C   UNL     1      24.203 -13.181  43.375  1.00  0.00     0.000 C 
ATOM      5  C   UNL     1      24.862 -11.811  43.576  1.00  0.00     0.004 C 
ENDBRANCH   3   4
BRANCH   3   6
ATOM      6  C   UNL     1      22.959 -14.812  44.986  1.00  0.00    -0.014 C 
ATOM      7  C   UNL     1      23.993 -14.877  46.125  1.00  0.00     0.007 C 
ATOM      8  C   UNL     1      21.578 -15.249  45.502  1.00  0.00     0.007 C 
ENDBRANCH   3   6
ENDBRANCH   2   3
ENDBRANCH   1   2
BRANCH   1   9
ATOM      9  C   UNL     1      21.872 -14.677  41.325  1.00  0.00    -0.011 C 
ATOM     10  C   UNL     1      22.837 -14.824  40.132  1.00  0.00     0.008 C 
BRANCH   9  11
ATOM     11  C   UNL     1      20.463 -15.298  41.025  1.00  0.00    -0.002 C 
ATOM     12  C   UNL     1      20.164 -15.394  39.523  1.00  0.00     0.005 C 
ATOM     13  C   UNL     1      19.971 -16.664  41.671  1.00  0.00    -0.026 C 
ATOM     14  C   UNL     1      19.031 -16.393  39.420  1.00  0.00     0.005 C 
ATOM     15  C   UNL     1      19.383 -17.452  40.456  1.00  0.00    -0.001 C 
ATOM     16  C   UNL     1      18.877 -16.342  42.736  1.00  0.00     0.007 C 
ATOM     17  C   UNL     1      21.081 -17.514  42.335  1.00  0.00     0.012 C 
ATOM     18  C   UNL     1      18.213 -18.454  40.726  1.00  0.00     0.000 C 
ATOM     19  C   UNL     1      17.948 -17.511  43.060  1.00  0.00     0.005 C 
ATOM     20  C   UNL     1      17.190 -17.966  41.790  1.00  0.00     0.003 C 
ATOM     21  C   UNL     1      18.741 -19.899  40.995  1.00  0.00     0.031 C 
ATOM     22  C   UNL     1      16.088 -19.065  42.044  1.00  0.00    -0.008 C 
ATOM     23  C   UNL     1      17.962 -20.714  42.001  1.00  0.00    -0.027 C 
ATOM     24  C   UNL     1      16.759 -20.355  42.493  1.00  0.00    -0.065 C 
ATOM     25  C   UNL     1      15.063 -18.615  43.132  1.00  0.00     0.014 C 
ATOM     26  C   UNL     1      15.314 -19.328  40.717  1.00  0.00     0.016 C 
ATOM     27  C   UNL     1      16.146 -21.171  43.614  1.00  0.00     0.063 C 
ATOM     28  C   UNL     1      14.030 -19.700  43.506  1.00  0.00     0.033 C 
ATOM     29  C   UNL     1      14.610 -21.141  43.566  1.00  0.00     0.118 C 
BRANCH  29  30
ATOM     30  O   UNL     1      14.173 -21.889  42.460  1.00  0.00    -0.393 OA
ATOM     31  H   UNL     1      13.992 -22.811  42.786  1.00  0.00     0.210 HD
ENDBRANCH  29  30
ENDBRANCH   9  11
ENDBRANCH   1   9
TORSDOF 7
ENDMDL
MODEL 2
REMARK VINA RESULT:    -5.541      2.844      8.748
REMARK INTER + INTRA:          -9.245
REMARK INTER:                  -7.876
REMARK INTRA:                  -1.369
REMARK UNBOUND:                -1.599
REMARK SMILES CC[C@@H](CC[C@H](C)[C@H]1CC[C@@H]2[C@H]3CC=C4C[C@H](O)CC[C@@]4(C)[C@H]3CC[C@@]21C)C(C)C
REMARK SMILES IDX 5 1 4 2 3 3 2 4 1 5 28 6 29 7 30 8 6 9 7 10 8 11 9 12 26 13
REMARK SMILES IDX 10 14 11 15 25 16 27 17 12 18 24 19 23 20 13 21 21 22 14 23
REMARK SMILES IDX 15 24 20 25 22 26 16 27 19 28 17 29 18 30
REMARK H PARENT 18 31
REMARK Flexibility Score: inf
ROOT
ATOM      1  C   UNL     1      16.635 -21.853  42.019  1.00  0.00     0.004 C 
ENDROOT
BRANCH   1   2
ATOM      2  C   UNL     1      16.463 -22.475  43.420  1.00  0.00     0.004 C 
BRANCH   2   3
ATOM      3  C   UNL     1      15.007 -22.930  43.728  1.00  0.00    -0.009 C 
BRANCH   3   4
ATOM      4  C   UNL     1      14.207 -23.125  42.407  1.00  0.00     0.000 C 
ATOM      5  C   UNL     1      12.975 -22.222  42.279  1.00  0.00     0.004 C 
ENDBRANCH   3   4
BRANCH   3   6
ATOM      6  C   UNL     1      14.292 -21.967  44.742  1.00  0.00    -0.014 C 
ATOM      7  C   UNL     1      13.492 -22.725  45.818  1.00  0.00     0.007 C 
ATOM      8  C   UNL     1      15.245 -20.959  45.406  1.00  0.00     0.007 C 
ENDBRANCH   3   6
ENDBRANCH   2   3
ENDBRANCH   1   2
BRANCH   1   9
ATOM      9  C   UNL     1      16.525 -20.304  42.047  1.00  0.00    -0.011 C 
ATOM     10  C   UNL     1      15.331 -19.800  41.212  1.00  0.00     0.008 C 
BRANCH   9  11
ATOM     11  C   UNL     1      17.840 -19.506  41.741  1.00  0.00    -0.002 C 
ATOM     12  C   UNL     1      18.029 -19.227  40.244  1.00  0.00     0.005 C 
ATOM     13  C   UNL     1      18.231 -18.167  42.503  1.00  0.00    -0.026 C 
ATOM     14  C   UNL     1      19.045 -18.105  40.189  1.00  0.00     0.005 C 
ATOM     15  C   UNL     1      18.655 -17.201  41.350  1.00  0.00    -0.001 C 
ATOM     16  C   UNL     1      19.419 -18.476  43.466  1.00  0.00     0.007 C 
ATOM     17  C   UNL     1      17.086 -17.515  43.313  1.00  0.00     0.012 C 
ATOM     18  C   UNL     1      19.731 -16.111  41.662  1.00  0.00     0.000 C 
ATOM     19  C   UNL     1      20.243 -17.252  43.864  1.00  0.00     0.005 C 
ATOM     20  C   UNL     1      20.866 -16.591  42.611  1.00  0.00     0.003 C 
ATOM     21  C   UNL     1      19.076 -14.767  42.115  1.00  0.00     0.031 C 
ATOM     22  C   UNL     1      21.864 -15.409  42.922  1.00  0.00    -0.008 C 
ATOM     23  C   UNL     1      19.832 -13.978  43.159  1.00  0.00    -0.027 C 
ATOM     24  C   UNL     1      21.095 -14.253  43.544  1.00  0.00    -0.065 C 
ATOM     25  C   UNL     1      22.998 -15.854  43.899  1.00  0.00     0.014 C 
ATOM     26  C   UNL     1      22.519 -14.931  41.591  1.00  0.00     0.016 C 
ATOM     27  C   UNL     1      21.694 -13.493  44.711  1.00  0.00     0.063 C 
ATOM     28  C   UNL     1      23.937 -14.706  44.331  1.00  0.00     0.033 C 
ATOM     29  C   UNL     1      23.218 -13.351  44.577  1.00  0.00     0.118 C 
BRANCH  29  30
ATOM     30  O   UNL     1      23.503 -12.452  43.536  1.00  0.00    -0.393 OA
ATOM     31  H   UNL     1      23.637 -12.993  42.713  1.00  0.00     0.210 HD
ENDBRANCH  29  30
ENDBRANCH   9  11
ENDBRANCH   1   9
TORSDOF 7
ENDMDL
MODEL 3
REMARK VINA RESULT:    -5.534      3.415      5.801
REMARK INTER + INTRA:          -9.236
REMARK INTER:                  -7.217
REMARK INTRA:                  -2.019
REMARK UNBOUND:                -1.599
REMARK SMILES CC[C@@H](CC[C@H](C)[C@H]1CC[C@@H]2[C@H]3CC=C4C[C@H](O)CC[C@@]4(C)[C@H]3CC[C@@]21C)C(C)C
REMARK SMILES IDX 5 1 4 2 3 3 2 4 1 5 28 6 29 7 30 8 6 9 7 10 8 11 9 12 26 13
REMARK SMILES IDX 10 14 11 15 25 16 27 17 12 18 24 19 23 20 13 21 21 22 14 23
REMARK SMILES IDX 15 24 20 25 22 26 16 27 19 28 17 29 18 30
REMARK H PARENT 18 31
REMARK Flexibility Score: inf
ROOT
ATOM      1  C   UNL     1      21.718 -17.794  43.063  1.00  0.00     0.004 C 
ENDROOT
BRANCH   1   2
ATOM      2  C   UNL     1      22.511 -16.471  43.121  1.00  0.00     0.004 C 
BRANCH   2   3
ATOM      3  C   UNL     1      21.655 -15.248  43.562  1.00  0.00    -0.009 C 
BRANCH   3   4
ATOM      4  C   UNL     1      21.650 -14.158  42.451  1.00  0.00     0.000 C 
ATOM      5  C   UNL     1      22.374 -14.569  41.164  1.00  0.00     0.004 C 
ENDBRANCH   3   4
BRANCH   3   6
ATOM      6  C   UNL     1      22.099 -14.695  44.964  1.00  0.00    -0.014 C 
ATOM      7  C   UNL     1      21.250 -15.255  46.120  1.00  0.00     0.007 C 
ATOM      8  C   UNL     1      23.594 -14.903  45.259  1.00  0.00     0.007 C 
ENDBRANCH   3   6
ENDBRANCH   2   3
ENDBRANCH   1   2
BRANCH   1   9
ATOM      9  C   UNL     1      20.192 -17.556  42.896  1.00  0.00    -0.011 C 
ATOM     10  C   UNL     1      19.384 -18.203  44.038  1.00  0.00     0.008 C 
BRANCH   9  11
ATOM     11  C   UNL     1      19.587 -17.880  41.486  1.00  0.00    -0.002 C 
ATOM     12  C   UNL     1      18.804 -19.200  41.467  1.00  0.00     0.005 C 
ATOM     13  C   UNL     1      18.727 -16.833  40.657  1.00  0.00    -0.026 C 
ATOM     14  C   UNL     1      17.945 -19.118  40.222  1.00  0.00     0.005 C 
ATOM     15  C   UNL     1      17.491 -17.665  40.187  1.00  0.00    -0.001 C 
ATOM     16  C   UNL     1      19.583 -16.335  39.451  1.00  0.00     0.007 C 
ATOM     17  C   UNL     1      18.234 -15.606  41.461  1.00  0.00     0.012 C 
ATOM     18  C   UNL     1      16.809 -17.271  38.836  1.00  0.00     0.000 C 
ATOM     19  C   UNL     1      18.767 -15.760  38.294  1.00  0.00     0.005 C 
ATOM     20  C   UNL     1      17.806 -16.831  37.726  1.00  0.00     0.003 C 
ATOM     21  C   UNL     1      15.641 -16.258  39.053  1.00  0.00     0.031 C 
ATOM     22  C   UNL     1      17.028 -16.390  36.427  1.00  0.00    -0.008 C 
ATOM     23  C   UNL     1      15.452 -15.221  37.970  1.00  0.00    -0.027 C 
ATOM     24  C   UNL     1      16.073 -15.257  36.773  1.00  0.00    -0.065 C 
ATOM     25  C   UNL     1      18.002 -15.913  35.304  1.00  0.00     0.014 C 
ATOM     26  C   UNL     1      16.209 -17.601  35.887  1.00  0.00     0.016 C 
ATOM     27  C   UNL     1      15.928 -14.080  35.830  1.00  0.00     0.063 C 
ATOM     28  C   UNL     1      17.289 -15.359  34.052  1.00  0.00     0.033 C 
ATOM     29  C   UNL     1      16.021 -14.514  34.358  1.00  0.00     0.118 C 
BRANCH  29  30
ATOM     30  O   UNL     1      14.863 -15.234  34.020  1.00  0.00    -0.393 OA
ATOM     31  H   UNL     1      15.106 -15.839  33.270  1.00  0.00     0.210 HD
ENDBRANCH  29  30
ENDBRANCH   9  11
ENDBRANCH   1   9
TORSDOF 7
ENDMDL
MODEL 4
REMARK VINA RESULT:    -5.511      3.305      6.195
REMARK INTER + INTRA:          -9.203
REMARK INTER:                  -7.636
REMARK INTRA:                  -1.568
REMARK UNBOUND:                -1.599
REMARK SMILES CC[C@@H](CC[C@H](C)[C@H]1CC[C@@H]2[C@H]3CC=C4C[C@H](O)CC[C@@]4(C)[C@H]3CC[C@@]21C)C(C)C
REMARK SMILES IDX 5 1 4 2 3 3 2 4 1 5 28 6 29 7 30 8 6 9 7 10 8 11 9 12 26 13
REMARK SMILES IDX 10 14 11 15 25 16 27 17 12 18 24 19 23 20 13 21 21 22 14 23
REMARK SMILES IDX 15 24 20 25 22 26 16 27 19 28 17 29 18 30
REMARK H PARENT 18 31
REMARK Flexibility Score: inf
ROOT
ATOM      1  C   UNL     1      22.971  -9.120  41.794  1.00  0.00     0.004 C 
ENDROOT
BRANCH   1   2
ATOM      2  C   UNL     1      21.822  -8.280  42.388  1.00  0.00     0.004 C 
BRANCH   2   3
ATOM      3  C   UNL     1      22.187  -7.581  43.730  1.00  0.00    -0.009 C 
BRANCH   3   4
ATOM      4  C   UNL     1      21.011  -7.698  44.742  1.00  0.00     0.000 C 
ATOM      5  C   UNL     1      20.973  -6.583  45.795  1.00  0.00     0.004 C 
ENDBRANCH   3   4
BRANCH   3   6
ATOM      6  C   UNL     1      22.665  -6.101  43.511  1.00  0.00    -0.014 C 
ATOM      7  C   UNL     1      24.196  -5.956  43.570  1.00  0.00     0.007 C 
ATOM      8  C   UNL     1      22.124  -5.467  42.218  1.00  0.00     0.007 C 
ENDBRANCH   3   6
ENDBRANCH   2   3
ENDBRANCH   1   2
BRANCH   1   9
ATOM      9  C   UNL     1      23.666 -10.003  42.867  1.00  0.00    -0.011 C 
ATOM     10  C   UNL     1      25.109  -9.535  43.146  1.00  0.00     0.008 C 
BRANCH   9  11
ATOM     11  C   UNL     1      23.579 -11.555  42.655  1.00  0.00    -0.002 C 
ATOM     12  C   UNL     1      24.835 -12.291  43.141  1.00  0.00     0.005 C 
ATOM     13  C   UNL     1      22.336 -12.420  43.134  1.00  0.00    -0.026 C 
ATOM     14  C   UNL     1      24.402 -13.735  43.284  1.00  0.00     0.005 C 
ATOM     15  C   UNL     1      22.994 -13.639  43.856  1.00  0.00    -0.001 C 
ATOM     16  C   UNL     1      21.526 -12.861  41.874  1.00  0.00     0.007 C 
ATOM     17  C   UNL     1      21.379 -11.706  44.118  1.00  0.00     0.012 C 
ATOM     18  C   UNL     1      22.233 -15.005  43.836  1.00  0.00     0.000 C 
ATOM     19  C   UNL     1      20.644 -14.090  42.090  1.00  0.00     0.005 C 
ATOM     20  C   UNL     1      21.507 -15.309  42.494  1.00  0.00     0.003 C 
ATOM     21  C   UNL     1      21.312 -15.171  45.086  1.00  0.00     0.031 C 
ATOM     22  C   UNL     1      20.715 -16.670  42.590  1.00  0.00    -0.008 C 
ATOM     23  C   UNL     1      20.012 -15.908  44.861  1.00  0.00    -0.027 C 
ATOM     24  C   UNL     1      19.717 -16.591  43.736  1.00  0.00    -0.065 C 
ATOM     25  C   UNL     1      19.949 -16.986  41.266  1.00  0.00     0.014 C 
ATOM     26  C   UNL     1      21.720 -17.828  42.867  1.00  0.00     0.016 C 
ATOM     27  C   UNL     1      18.322 -17.156  43.559  1.00  0.00     0.063 C 
ATOM     28  C   UNL     1      19.062 -18.247  41.343  1.00  0.00     0.033 C 
ATOM     29  C   UNL     1      18.328 -18.431  42.701  1.00  0.00     0.118 C 
BRANCH  29  30
ATOM     30  O   UNL     1      18.916 -19.474  43.436  1.00  0.00    -0.393 OA
ATOM     31  H   UNL     1      18.329 -19.643  44.220  1.00  0.00     0.210 HD
ENDBRANCH  29  30
ENDBRANCH   9  11
ENDBRANCH   1   9
TORSDOF 7
ENDMDL
MODEL 5
REMARK VINA RESULT:    -5.432      2.729      8.595
REMARK INTER + INTRA:          -9.094
REMARK INTER:                  -6.725
REMARK INTRA:                  -2.369
REMARK UNBOUND:                -1.599
REMARK SMILES CC[C@@H](CC[C@H](C)[C@H]1CC[C@@H]2[C@H]3CC=C4C[C@H](O)CC[C@@]4(C)[C@H]3CC[C@@]21C)C(C)C
REMARK SMILES IDX 5 1 4 2 3 3 2 4 1 5 28 6 29 7 30 8 6 9 7 10 8 11 9 12 26 13
REMARK SMILES IDX 10 14 11 15 25 16 27 17 12 18 24 19 23 20 13 21 21 22 14 23
REMARK SMILES IDX 15 24 20 25 22 26 16 27 19 28 17 29 18 30
REMARK H PARENT 18 31
REMARK Flexibility Score: inf
ROOT
ATOM      1  C   UNL     1      12.274 -20.592  42.708  1.00  0.00     0.004 C 
ENDROOT
BRANCH   1   2
ATOM      2  C   UNL     1      11.940 -21.449  43.947  1.00  0.00     0.004 C 
BRANCH   2   3
ATOM      3  C   UNL     1      12.454 -20.840  45.284  1.00  0.00    -0.009 C 
BRANCH   3   4
ATOM      4  C   UNL     1      12.837 -19.345  45.089  1.00  0.00     0.000 C 
ATOM      5  C   UNL     1      12.117 -18.382  46.041  1.00  0.00     0.004 C 
ENDBRANCH   3   4
BRANCH   3   6
ATOM      6  C   UNL     1      13.613 -21.694  45.912  1.00  0.00    -0.014 C 
ATOM      7  C   UNL     1      13.760 -23.076  45.247  1.00  0.00     0.007 C 
ATOM      8  C   UNL     1      14.970 -20.970  45.926  1.00  0.00     0.007 C 
ENDBRANCH   3   6
ENDBRANCH   2   3
ENDBRANCH   1   2
BRANCH   1   9
ATOM      9  C   UNL     1      13.422 -21.208  41.861  1.00  0.00    -0.011 C 
ATOM     10  C   UNL     1      13.172 -22.698  41.556  1.00  0.00     0.008 C 
BRANCH   9  11
ATOM     11  C   UNL     1      14.881 -20.946  42.371  1.00  0.00    -0.002 C 
ATOM     12  C   UNL     1      15.786 -22.178  42.238  1.00  0.00     0.005 C 
ATOM     13  C   UNL     1      15.746 -19.698  41.902  1.00  0.00    -0.026 C 
ATOM     14  C   UNL     1      17.195 -21.631  42.332  1.00  0.00     0.005 C 
ATOM     15  C   UNL     1      17.134 -20.326  41.550  1.00  0.00    -0.001 C 
ATOM     16  C   UNL     1      15.850 -18.693  43.091  1.00  0.00     0.007 C 
ATOM     17  C   UNL     1      15.201 -18.952  40.661  1.00  0.00     0.012 C 
ATOM     18  C   UNL     1      18.410 -19.442  41.737  1.00  0.00     0.000 C 
ATOM     19  C   UNL     1      17.036 -17.734  43.004  1.00  0.00     0.005 C 
ATOM     20  C   UNL     1      18.368 -18.522  42.990  1.00  0.00     0.003 C 
ATOM     21  C   UNL     1      18.782 -18.681  40.425  1.00  0.00     0.031 C 
ATOM     22  C   UNL     1      19.662 -17.622  43.060  1.00  0.00    -0.008 C 
ATOM     23  C   UNL     1      19.365 -17.298  40.602  1.00  0.00    -0.027 C 
ATOM     24  C   UNL     1      19.768 -16.795  41.787  1.00  0.00    -0.065 C 
ATOM     25  C   UNL     1      19.633 -16.664  44.292  1.00  0.00     0.014 C 
ATOM     26  C   UNL     1      20.916 -18.540  43.178  1.00  0.00     0.016 C 
ATOM     27  C   UNL     1      20.188 -15.341  41.867  1.00  0.00     0.063 C 
ATOM     28  C   UNL     1      20.820 -15.678  44.345  1.00  0.00     0.033 C 
ATOM     29  C   UNL     1      21.245 -15.113  42.960  1.00  0.00     0.118 C 
BRANCH  29  30
ATOM     30  O   UNL     1      22.458 -15.690  42.550  1.00  0.00    -0.393 OA
ATOM     31  H   UNL     1      22.296 -16.108  41.663  1.00  0.00     0.210 HD
ENDBRANCH  29  30
ENDBRANCH   9  11
ENDBRANCH   1   9
TORSDOF 7
ENDMDL
MODEL 6
REMARK VINA RESULT:    -5.429      1.517      2.600
REMARK INTER + INTRA:          -9.090
REMARK INTER:                  -6.999
REMARK INTRA:                  -2.091
REMARK UNBOUND:                -1.599
REMARK SMILES CC[C@@H](CC[C@H](C)[C@H]1CC[C@@H]2[C@H]3CC=C4C[C@H](O)CC[C@@]4(C)[C@H]3CC[C@@]21C)C(C)C
REMARK SMILES IDX 5 1 4 2 3 3 2 4 1 5 28 6 29 7 30 8 6 9 7 10 8 11 9 12 26 13
REMARK SMILES IDX 10 14 11 15 25 16 27 17 12 18 24 19 23 20 13 21 21 22 14 23
REMARK SMILES IDX 15 24 20 25 22 26 16 27 19 28 17 29 18 30
REMARK H PARENT 18 31
REMARK Flexibility Score: inf
ROOT
ATOM      1  C   UNL     1      22.702 -14.906  44.888  1.00  0.00     0.004 C 
ENDROOT
BRANCH   1   2
ATOM      2  C   UNL     1      22.515 -13.378  44.997  1.00  0.00     0.004 C 
BRANCH   2   3
ATOM      3  C   UNL     1      21.178 -12.959  45.674  1.00  0.00    -0.009 C 
BRANCH   3   4
ATOM      4  C   UNL     1      20.379 -14.216  46.125  1.00  0.00     0.000 C 
ATOM      5  C   UNL     1      18.958 -14.297  45.555  1.00  0.00     0.004 C 
ENDBRANCH   3   4
BRANCH   3   6
ATOM      6  C   UNL     1      20.338 -11.991  44.767  1.00  0.00    -0.014 C 
ATOM      7  C   UNL     1      19.979 -10.672  45.478  1.00  0.00     0.007 C 
ATOM      8  C   UNL     1      20.998 -11.695  43.410  1.00  0.00     0.007 C 
ENDBRANCH   3   6
ENDBRANCH   2   3
ENDBRANCH   1   2
BRANCH   1   9
ATOM      9  C   UNL     1      22.558 -15.411  43.426  1.00  0.00    -0.011 C 
ATOM     10  C   UNL     1      23.282 -14.487  42.427  1.00  0.00     0.008 C 
BRANCH   9  11
ATOM     11  C   UNL     1      21.106 -15.769  42.953  1.00  0.00    -0.002 C 
ATOM     12  C   UNL     1      20.722 -15.077  41.639  1.00  0.00     0.005 C 
ATOM     13  C   UNL     1      20.582 -17.265  42.845  1.00  0.00    -0.026 C 
ATOM     14  C   UNL     1      19.537 -15.864  41.122  1.00  0.00     0.005 C 
ATOM     15  C   UNL     1      19.891 -17.310  41.444  1.00  0.00    -0.001 C 
ATOM     16  C   UNL     1      19.564 -17.517  44.000  1.00  0.00     0.007 C 
ATOM     17  C   UNL     1      21.682 -18.352  42.901  1.00  0.00     0.012 C 
ATOM     18  C   UNL     1      18.689 -18.291  41.247  1.00  0.00     0.000 C 
ATOM     19  C   UNL     1      18.596 -18.673  43.748  1.00  0.00     0.005 C 
ATOM     20  C   UNL     1      17.750 -18.401  42.482  1.00  0.00     0.003 C 
ATOM     21  C   UNL     1      19.158 -19.677  40.703  1.00  0.00     0.031 C 
ATOM     22  C   UNL     1      16.609 -19.458  42.217  1.00  0.00    -0.008 C 
ATOM     23  C   UNL     1      18.394 -20.880  41.205  1.00  0.00    -0.027 C 
ATOM     24  C   UNL     1      17.238 -20.806  41.896  1.00  0.00    -0.065 C 
ATOM     25  C   UNL     1      15.668 -19.614  43.453  1.00  0.00     0.014 C 
ATOM     26  C   UNL     1      15.753 -18.992  41.001  1.00  0.00     0.016 C 
ATOM     27  C   UNL     1      16.646 -22.071  42.484  1.00  0.00     0.063 C 
ATOM     28  C   UNL     1      14.604 -20.721  43.293  1.00  0.00     0.033 C 
ATOM     29  C   UNL     1      15.113 -21.998  42.568  1.00  0.00     0.118 C 
BRANCH  29  30
ATOM     30  O   UNL     1      14.581 -22.066  41.270  1.00  0.00    -0.393 OA
ATOM     31  H   UNL     1      13.862 -22.753  41.287  1.00  0.00     0.210 HD
ENDBRANCH  29  30
ENDBRANCH   9  11
ENDBRANCH   1   9
TORSDOF 7
ENDMDL
MODEL 7
REMARK VINA RESULT:    -5.315      2.411      4.491
REMARK INTER + INTRA:          -8.933
REMARK INTER:                  -6.999
REMARK INTRA:                  -1.934
REMARK UNBOUND:                -1.599
REMARK SMILES CC[C@@H](CC[C@H](C)[C@H]1CC[C@@H]2[C@H]3CC=C4C[C@H](O)CC[C@@]4(C)[C@H]3CC[C@@]21C)C(C)C
REMARK SMILES IDX 5 1 4 2 3 3 2 4 1 5 28 6 29 7 30 8 6 9 7 10 8 11 9 12 26 13
REMARK SMILES IDX 10 14 11 15 25 16 27 17 12 18 24 19 23 20 13 21 21 22 14 23
REMARK SMILES IDX 15 24 20 25 22 26 16 27 19 28 17 29 18 30
REMARK H PARENT 18 31
REMARK Flexibility Score: inf
ROOT
ATOM      1  C   UNL     1      24.738 -12.884  44.323  1.00  0.00     0.004 C 
ENDROOT
BRANCH   1   2
ATOM      2  C   UNL     1      25.100 -13.150  42.847  1.00  0.00     0.004 C 
BRANCH   2   3
ATOM      3  C   UNL     1      24.887 -11.918  41.919  1.00  0.00    -0.009 C 
BRANCH   3   4
ATOM      4  C   UNL     1      24.100 -10.804  42.668  1.00  0.00     0.000 C 
ATOM      5  C   UNL     1      24.918  -9.539  42.953  1.00  0.00     0.004 C 
ENDBRANCH   3   4
BRANCH   3   6
ATOM      6  C   UNL     1      24.231 -12.320  40.550  1.00  0.00    -0.014 C 
ATOM      7  C   UNL     1      24.217 -13.843  40.322  1.00  0.00     0.007 C 
ATOM      8  C   UNL     1      22.817 -11.745  40.355  1.00  0.00     0.007 C 
ENDBRANCH   3   6
ENDBRANCH   2   3
ENDBRANCH   1   2
BRANCH   1   9
ATOM      9  C   UNL     1      23.616 -13.830  44.831  1.00  0.00    -0.011 C 
ATOM     10  C   UNL     1      24.026 -14.562  46.124  1.00  0.00     0.008 C 
BRANCH   9  11
ATOM     11  C   UNL     1      22.995 -14.806  43.772  1.00  0.00    -0.002 C 
ATOM     12  C   UNL     1      23.524 -16.240  43.904  1.00  0.00     0.005 C 
ATOM     13  C   UNL     1      21.429 -14.925  43.525  1.00  0.00    -0.026 C 
ATOM     14  C   UNL     1      22.521 -17.091  43.154  1.00  0.00     0.005 C 
ATOM     15  C   UNL     1      21.178 -16.467  43.506  1.00  0.00    -0.001 C 
ATOM     16  C   UNL     1      21.095 -14.266  42.150  1.00  0.00     0.007 C 
ATOM     17  C   UNL     1      20.542 -14.281  44.617  1.00  0.00     0.012 C 
ATOM     18  C   UNL     1      20.004 -17.010  42.627  1.00  0.00     0.000 C 
ATOM     19  C   UNL     1      19.783 -14.741  41.527  1.00  0.00     0.005 C 
ATOM     20  C   UNL     1      19.827 -16.266  41.273  1.00  0.00     0.003 C 
ATOM     21  C   UNL     1      18.678 -17.127  43.444  1.00  0.00     0.031 C 
ATOM     22  C   UNL     1      18.582 -16.836  40.487  1.00  0.00    -0.008 C 
ATOM     23  C   UNL     1      17.404 -16.832  42.688  1.00  0.00    -0.027 C 
ATOM     24  C   UNL     1      17.336 -16.692  41.348  1.00  0.00    -0.065 C 
ATOM     25  C   UNL     1      18.360 -16.086  39.136  1.00  0.00     0.014 C 
ATOM     26  C   UNL     1      18.820 -18.345  40.181  1.00  0.00     0.016 C 
ATOM     27  C   UNL     1      16.034 -16.240  40.717  1.00  0.00     0.063 C 
ATOM     28  C   UNL     1      17.087 -16.523  38.381  1.00  0.00     0.033 C 
ATOM     29  C   UNL     1      15.864 -16.803  39.298  1.00  0.00     0.118 C 
BRANCH  29  30
ATOM     30  O   UNL     1      15.621 -18.184  39.380  1.00  0.00    -0.393 OA
ATOM     31  H   UNL     1      15.167 -18.348  40.248  1.00  0.00     0.210 HD
ENDBRANCH  29  30
ENDBRANCH   9  11
ENDBRANCH   1   9
TORSDOF 7
ENDMDL
MODEL 8
REMARK VINA RESULT:    -5.255      4.869     11.767
REMARK INTER + INTRA:          -8.851
REMARK INTER:                  -7.817
REMARK INTRA:                  -1.034
REMARK UNBOUND:                -1.599
REMARK SMILES CC[C@@H](CC[C@H](C)[C@H]1CC[C@@H]2[C@H]3CC=C4C[C@H](O)CC[C@@]4(C)[C@H]3CC[C@@]21C)C(C)C
REMARK SMILES IDX 5 1 4 2 3 3 2 4 1 5 28 6 29 7 30 8 6 9 7 10 8 11 9 12 26 13
REMARK SMILES IDX 10 14 11 15 25 16 27 17 12 18 24 19 23 20 13 21 21 22 14 23
REMARK SMILES IDX 15 24 20 25 22 26 16 27 19 28 17 29 18 30
REMARK H PARENT 18 31
REMARK Flexibility Score: inf
ROOT
ATOM      1  C   UNL     1       8.620 -20.755  42.933  1.00  0.00     0.004 C 
ENDROOT
BRANCH   1   2
ATOM      2  C   UNL     1       7.321 -21.277  43.584  1.00  0.00     0.004 C 
BRANCH   2   3
ATOM      3  C   UNL     1       6.029 -20.634  43.002  1.00  0.00    -0.009 C 
BRANCH   3   4
ATOM      4  C   UNL     1       5.042 -20.264  44.147  1.00  0.00     0.000 C 
ATOM      5  C   UNL     1       5.322 -20.979  45.474  1.00  0.00     0.004 C 
ENDBRANCH   3   4
BRANCH   3   6
ATOM      6  C   UNL     1       5.373 -21.534  41.893  1.00  0.00    -0.014 C 
ATOM      7  C   UNL     1       5.284 -20.825  40.529  1.00  0.00     0.007 C 
ATOM      8  C   UNL     1       6.056 -22.903  41.732  1.00  0.00     0.007 C 
ENDBRANCH   3   6
ENDBRANCH   2   3
ENDBRANCH   1   2
BRANCH   1   9
ATOM      9  C   UNL     1       9.812 -21.730  43.139  1.00  0.00    -0.011 C 
ATOM     10  C   UNL     1       9.392 -22.987  43.926  1.00  0.00     0.008 C 
BRANCH   9  11
ATOM     11  C   UNL     1      11.138 -21.102  43.691  1.00  0.00    -0.002 C 
ATOM     12  C   UNL     1      11.400 -21.465  45.159  1.00  0.00     0.005 C 
ATOM     13  C   UNL     1      12.531 -21.234  42.939  1.00  0.00    -0.026 C 
ATOM     14  C   UNL     1      12.872 -21.180  45.368  1.00  0.00     0.005 C 
ATOM     15  C   UNL     1      13.522 -21.648  44.073  1.00  0.00    -0.001 C 
ATOM     16  C   UNL     1      12.897 -19.844  42.329  1.00  0.00     0.007 C 
ATOM     17  C   UNL     1      12.573 -22.299  41.817  1.00  0.00     0.012 C 
ATOM     18  C   UNL     1      15.016 -21.203  43.945  1.00  0.00     0.000 C 
ATOM     19  C   UNL     1      14.386 -19.653  42.044  1.00  0.00     0.005 C 
ATOM     20  C   UNL     1      15.206 -19.778  43.351  1.00  0.00     0.003 C 
ATOM     21  C   UNL     1      15.882 -22.289  43.231  1.00  0.00     0.031 C 
ATOM     22  C   UNL     1      16.740 -19.443  43.196  1.00  0.00    -0.008 C 
ATOM     23  C   UNL     1      16.992 -21.776  42.343  1.00  0.00    -0.027 C 
ATOM     24  C   UNL     1      17.395 -20.490  42.307  1.00  0.00    -0.065 C 
ATOM     25  C   UNL     1      16.962 -18.029  42.572  1.00  0.00     0.014 C 
ATOM     26  C   UNL     1      17.412 -19.473  44.602  1.00  0.00     0.016 C 
ATOM     27  C   UNL     1      18.408 -20.062  41.264  1.00  0.00     0.063 C 
ATOM     28  C   UNL     1      18.442 -17.696  42.290  1.00  0.00     0.033 C 
ATOM     29  C   UNL     1      19.277 -18.894  41.758  1.00  0.00     0.118 C 
BRANCH  29  30
ATOM     30  O   UNL     1      20.147 -19.363  42.756  1.00  0.00    -0.393 OA
ATOM     31  H   UNL     1      20.347 -20.314  42.545  1.00  0.00     0.210 HD
ENDBRANCH  29  30
ENDBRANCH   9  11
ENDBRANCH   1   9
TORSDOF 7
ENDMDL
