MODEL 1
REMARK VINA RESULT:    -8.842      0.000      0.000
REMARK INTER + INTRA:          -9.851
REMARK INTER:                  -9.617
REMARK INTRA:                  -0.235
REMARK UNBOUND:                -0.235
REMARK SMILES C[C@@H]1[C@H]2C3=CC[C@@H]4[C@]5(C)CC[C@H](O)C(C)(C)[C@@H]5CC[C@]4(C)[C@@]3(C)CC[C@@]2(C(=O)[O-])CC[C@@H]1C
REMARK SMILES IDX 26 1 30 2 25 3 3 4 31 5 24 6 4 7 2 8 32 9 22 10 5 11 1 12
REMARK SMILES IDX 33 13 23 14 20 15 6 16 7 17 19 18 21 19 8 20 18 21 17 22
REMARK SMILES IDX 10 23 9 24 14 25 11 26 12 27 15 28 16 29 27 30 28 31 29 32
REMARK SMILES IDX 13 33
REMARK H PARENT 13 34
REMARK Flexibility Score: inf
ROOT
ATOM      1  C   UNL     1       9.664  12.183   5.989  1.00  0.00     0.017 C 
ATOM      2  C   UNL     1       8.922  11.831   7.311  1.00  0.00     0.014 C 
ATOM      3  C   UNL     1      11.224  12.108   6.208  1.00  0.00     0.014 C 
ATOM      4  C   UNL     1       9.199  13.588   5.448  1.00  0.00     0.030 C 
ATOM      5  C   UNL     1       8.955  12.955   8.348  1.00  0.00     0.004 C 
ATOM      6  C   UNL     1      12.034  13.303   5.670  1.00  0.00     0.013 C 
ATOM      7  C   UNL     1      10.081  14.030   4.270  1.00  0.00    -0.063 C 
ATOM      8  C   UNL     1       9.082  14.714   6.537  1.00  0.00    -0.003 C 
ATOM      9  C   UNL     1       8.323  14.243   7.807  1.00  0.00    -0.011 C 
ATOM     10  C   UNL     1      11.593  13.788   4.248  1.00  0.00    -0.006 C 
ATOM     11  C   UNL     1       9.509  14.648   3.224  1.00  0.00    -0.027 C 
ATOM     12  C   UNL     1       8.461  16.009   5.977  1.00  0.00     0.008 C 
ATOM     13  C   UNL     1       6.797  14.095   7.616  1.00  0.00     0.008 C 
ATOM     14  C   UNL     1      11.886  12.600   3.273  1.00  0.00     0.017 C 
ATOM     15  C   UNL     1      12.352  15.145   3.784  1.00  0.00    -0.020 C 
ATOM     16  C   UNL     1      10.326  15.166   2.081  1.00  0.00     0.032 C 
ATOM     17  C   UNL     1      11.598  15.909   2.592  1.00  0.00     0.006 C 
ATOM     18  C   UNL     1      13.801  14.815   3.359  1.00  0.00     0.008 C 
ATOM     19  C   UNL     1      12.448  16.137   4.991  1.00  0.00     0.012 C 
ATOM     20  C   UNL     1      12.517  16.504   1.417  1.00  0.00    -0.025 C 
ATOM     21  C   UNL     1      14.619  16.023   2.907  1.00  0.00     0.005 C 
ATOM     22  C   UNL     1      13.881  17.069   1.999  1.00  0.00     0.003 C 
ATOM     23  C   UNL     1      12.813  15.451   0.293  1.00  0.00     0.010 C 
ATOM     24  C   UNL     1      11.702  17.677   0.774  1.00  0.00     0.012 C 
ATOM     25  C   UNL     1      14.856  17.728   0.899  1.00  0.00    -0.006 C 
ATOM     26  C   UNL     1      14.206  15.571  -0.367  1.00  0.00     0.033 C 
ATOM     27  C   UNL     1      14.691  17.026  -0.504  1.00  0.00     0.120 C 
ATOM     28  C   UNL     1      16.358  17.688   1.340  1.00  0.00     0.014 C 
ATOM     29  C   UNL     1      14.545  19.249   0.753  1.00  0.00     0.014 C 
ENDROOT
BRANCH   1  30
ATOM     30  C   UNL     1       9.262  11.086   5.002  1.00  0.00     0.048 C 
ATOM     31  O   UNL     1       8.212  11.211   4.314  1.00  0.00    -0.550 OA
ATOM     32  O   UNL     1      10.052   9.956   4.808  1.00  0.00    -0.550 OA
ENDBRANCH   1  30
BRANCH  27  33
ATOM     33  O   UNL     1      15.899  17.052  -1.227  1.00  0.00    -0.393 OA
ATOM     34  H   UNL     1      16.029  16.152  -1.629  1.00  0.00     0.210 HD
ENDBRANCH  27  33
TORSDOF 2
ENDMDL
MODEL 2
REMARK VINA RESULT:    -8.711      1.304      8.076
REMARK INTER + INTRA:          -9.710
REMARK INTER:                  -9.468
REMARK INTRA:                  -0.242
REMARK UNBOUND:                -0.235
REMARK SMILES C[C@@H]1[C@H]2C3=CC[C@@H]4[C@]5(C)CC[C@H](O)C(C)(C)[C@@H]5CC[C@]4(C)[C@@]3(C)CC[C@@]2(C(=O)[O-])CC[C@@H]1C
REMARK SMILES IDX 26 1 30 2 25 3 3 4 31 5 24 6 4 7 2 8 32 9 22 10 5 11 1 12
REMARK SMILES IDX 33 13 23 14 20 15 6 16 7 17 19 18 21 19 8 20 18 21 17 22
REMARK SMILES IDX 10 23 9 24 14 25 11 26 12 27 15 28 16 29 27 30 28 31 29 32
REMARK SMILES IDX 13 33
REMARK H PARENT 13 34
REMARK Flexibility Score: inf
ROOT
ATOM      1  C   UNL     1      14.398  18.357   0.185  1.00  0.00     0.017 C 
ATOM      2  C   UNL     1      14.917  19.772  -0.204  1.00  0.00     0.014 C 
ATOM      3  C   UNL     1      12.833  18.288   0.012  1.00  0.00     0.014 C 
ATOM      4  C   UNL     1      14.860  17.980   1.645  1.00  0.00     0.030 C 
ATOM      5  C   UNL     1      14.628  20.841   0.851  1.00  0.00     0.004 C 
ATOM      6  C   UNL     1      12.054  17.674   1.192  1.00  0.00     0.013 C 
ATOM      7  C   UNL     1      14.174  16.686   2.108  1.00  0.00    -0.063 C 
ATOM      8  C   UNL     1      14.709  19.127   2.706  1.00  0.00    -0.003 C 
ATOM      9  C   UNL     1      15.261  20.488   2.202  1.00  0.00    -0.011 C 
ATOM     10  C   UNL     1      12.708  16.380   1.785  1.00  0.00    -0.006 C 
ATOM     11  C   UNL     1      14.880  15.792   2.819  1.00  0.00    -0.027 C 
ATOM     12  C   UNL     1      15.335  18.753   4.065  1.00  0.00     0.008 C 
ATOM     13  C   UNL     1      16.803  20.567   2.149  1.00  0.00     0.008 C 
ATOM     14  C   UNL     1      12.670  15.310   0.644  1.00  0.00     0.017 C 
ATOM     15  C   UNL     1      11.956  15.855   3.124  1.00  0.00    -0.020 C 
ATOM     16  C   UNL     1      14.246  14.549   3.360  1.00  0.00     0.032 C 
ATOM     17  C   UNL     1      12.858  14.858   4.000  1.00  0.00     0.006 C 
ATOM     18  C   UNL     1      10.630  15.160   2.742  1.00  0.00     0.008 C 
ATOM     19  C   UNL     1      11.585  17.073   4.034  1.00  0.00     0.012 C 
ATOM     20  C   UNL     1      12.125  13.568   4.613  1.00  0.00    -0.025 C 
ATOM     21  C   UNL     1       9.828  14.629   3.928  1.00  0.00     0.005 C 
ATOM     22  C   UNL     1      10.646  13.922   5.066  1.00  0.00     0.003 C 
ATOM     23  C   UNL     1      12.101  12.358   3.616  1.00  0.00     0.010 C 
ATOM     24  C   UNL     1      12.964  13.142   5.866  1.00  0.00     0.012 C 
ATOM     25  C   UNL     1       9.840  12.699   5.737  1.00  0.00    -0.006 C 
ATOM     26  C   UNL     1      10.842  11.465   3.699  1.00  0.00     0.033 C 
ATOM     27  C   UNL     1      10.296  11.315   5.132  1.00  0.00     0.120 C 
ATOM     28  C   UNL     1       8.290  12.860   5.588  1.00  0.00     0.014 C 
ATOM     29  C   UNL     1      10.073  12.687   7.278  1.00  0.00     0.014 C 
ENDROOT
BRANCH   1  30
ATOM     30  C   UNL     1      15.039  17.405  -0.826  1.00  0.00     0.048 C 
ATOM     31  O   UNL     1      16.212  16.982  -0.638  1.00  0.00    -0.550 OA
ATOM     32  O   UNL     1      14.341  16.953  -1.943  1.00  0.00    -0.550 OA
ENDBRANCH   1  30
BRANCH  27  33
ATOM     33  O   UNL     1       9.235  10.389   5.135  1.00  0.00    -0.393 OA
ATOM     34  H   UNL     1       8.755  10.484   5.999  1.00  0.00     0.210 HD
ENDBRANCH  27  33
TORSDOF 2
ENDMDL
MODEL 3
REMARK VINA RESULT:    -8.634      1.975      3.856
REMARK INTER + INTRA:          -9.626
REMARK INTER:                  -9.395
REMARK INTRA:                  -0.231
REMARK UNBOUND:                -0.235
REMARK SMILES C[C@@H]1[C@H]2C3=CC[C@@H]4[C@]5(C)CC[C@H](O)C(C)(C)[C@@H]5CC[C@]4(C)[C@@]3(C)CC[C@@]2(C(=O)[O-])CC[C@@H]1C
REMARK SMILES IDX 26 1 30 2 25 3 3 4 31 5 24 6 4 7 2 8 32 9 22 10 5 11 1 12
REMARK SMILES IDX 33 13 23 14 20 15 6 16 7 17 19 18 21 19 8 20 18 21 17 22
REMARK SMILES IDX 10 23 9 24 14 25 11 26 12 27 15 28 16 29 27 30 28 31 29 32
REMARK SMILES IDX 13 33
REMARK H PARENT 13 34
REMARK Flexibility Score: inf
ROOT
ATOM      1  C   UNL     1       9.071  13.775   5.032  1.00  0.00     0.017 C 
ATOM      2  C   UNL     1       8.144  12.532   5.172  1.00  0.00     0.014 C 
ATOM      3  C   UNL     1       8.609  14.660   3.812  1.00  0.00     0.014 C 
ATOM      4  C   UNL     1      10.579  13.331   4.916  1.00  0.00     0.030 C 
ATOM      5  C   UNL     1       8.409  11.450   4.125  1.00  0.00     0.004 C 
ATOM      6  C   UNL     1       9.726  15.113   2.852  1.00  0.00     0.013 C 
ATOM      7  C   UNL     1      11.468  14.533   4.564  1.00  0.00    -0.063 C 
ATOM      8  C   UNL     1      10.842  12.115   3.957  1.00  0.00    -0.003 C 
ATOM      9  C   UNL     1       9.854  10.940   4.192  1.00  0.00    -0.011 C 
ATOM     10  C   UNL     1      11.025  15.610   3.570  1.00  0.00    -0.006 C 
ATOM     11  C   UNL     1      12.674  14.644   5.145  1.00  0.00    -0.027 C 
ATOM     12  C   UNL     1      12.302  11.623   4.021  1.00  0.00     0.008 C 
ATOM     13  C   UNL     1      10.118  10.139   5.486  1.00  0.00     0.008 C 
ATOM     14  C   UNL     1      10.615  16.885   4.380  1.00  0.00     0.017 C 
ATOM     15  C   UNL     1      12.234  15.922   2.534  1.00  0.00    -0.020 C 
ATOM     16  C   UNL     1      13.613  15.753   4.787  1.00  0.00     0.032 C 
ATOM     17  C   UNL     1      13.673  15.962   3.243  1.00  0.00     0.006 C 
ATOM     18  C   UNL     1      11.972  17.262   1.810  1.00  0.00     0.008 C 
ATOM     19  C   UNL     1      12.286  14.813   1.431  1.00  0.00     0.012 C 
ATOM     20  C   UNL     1      14.675  17.131   2.785  1.00  0.00    -0.025 C 
ATOM     21  C   UNL     1      13.047  17.658   0.800  1.00  0.00     0.005 C 
ATOM     22  C   UNL     1      14.536  17.415   1.230  1.00  0.00     0.003 C 
ATOM     23  C   UNL     1      14.458  18.459   3.590  1.00  0.00     0.010 C 
ATOM     24  C   UNL     1      16.121  16.613   3.091  1.00  0.00     0.012 C 
ATOM     25  C   UNL     1      15.534  18.545   0.665  1.00  0.00    -0.006 C 
ATOM     26  C   UNL     1      14.698  19.758   2.788  1.00  0.00     0.033 C 
ATOM     27  C   UNL     1      15.840  19.637   1.762  1.00  0.00     0.120 C 
ATOM     28  C   UNL     1      14.978  19.232  -0.628  1.00  0.00     0.014 C 
ATOM     29  C   UNL     1      16.873  17.894   0.202  1.00  0.00     0.014 C 
ENDROOT
BRANCH   1  30
ATOM     30  C   UNL     1       8.862  14.576   6.318  1.00  0.00     0.048 C 
ATOM     31  O   UNL     1       9.418  14.207   7.388  1.00  0.00    -0.550 OA
ATOM     32  O   UNL     1       8.097  15.739   6.334  1.00  0.00    -0.550 OA
ENDBRANCH   1  30
BRANCH  27  33
ATOM     33  O   UNL     1      16.075  20.894   1.172  1.00  0.00    -0.393 OA
ATOM     34  H   UNL     1      16.979  20.869   0.760  1.00  0.00     0.210 HD
ENDBRANCH  27  33
TORSDOF 2
ENDMDL
MODEL 4
REMARK VINA RESULT:    -8.610      3.890      7.625
REMARK INTER + INTRA:          -9.600
REMARK INTER:                  -9.340
REMARK INTRA:                  -0.260
REMARK UNBOUND:                -0.235
REMARK SMILES C[C@@H]1[C@H]2C3=CC[C@@H]4[C@]5(C)CC[C@H](O)C(C)(C)[C@@H]5CC[C@]4(C)[C@@]3(C)CC[C@@]2(C(=O)[O-])CC[C@@H]1C
REMARK SMILES IDX 26 1 30 2 25 3 3 4 31 5 24 6 4 7 2 8 32 9 22 10 5 11 1 12
REMARK SMILES IDX 33 13 23 14 20 15 6 16 7 17 19 18 21 19 8 20 18 21 17 22
REMARK SMILES IDX 10 23 9 24 14 25 11 26 12 27 15 28 16 29 27 30 28 31 29 32
REMARK SMILES IDX 13 33
REMARK H PARENT 13 34
REMARK Flexibility Score: inf
ROOT
ATOM      1  C   UNL     1      13.423  16.441   0.880  1.00  0.00     0.017 C 
ATOM      2  C   UNL     1      12.559  15.231   0.417  1.00  0.00     0.014 C 
ATOM      3  C   UNL     1      14.580  16.708  -0.156  1.00  0.00     0.014 C 
ATOM      4  C   UNL     1      13.965  16.208   2.342  1.00  0.00     0.030 C 
ATOM      5  C   UNL     1      13.237  13.878   0.636  1.00  0.00     0.004 C 
ATOM      6  C   UNL     1      15.985  16.908   0.445  1.00  0.00     0.013 C 
ATOM      7  C   UNL     1      14.985  17.294   2.716  1.00  0.00    -0.063 C 
ATOM      8  C   UNL     1      14.524  14.767   2.621  1.00  0.00    -0.003 C 
ATOM      9  C   UNL     1      13.576  13.647   2.114  1.00  0.00    -0.011 C 
ATOM     10  C   UNL     1      16.013  17.826   1.713  1.00  0.00    -0.006 C 
ATOM     11  C   UNL     1      14.978  17.794   3.963  1.00  0.00    -0.027 C 
ATOM     12  C   UNL     1      14.876  14.554   4.107  1.00  0.00     0.008 C 
ATOM     13  C   UNL     1      12.304  13.457   2.970  1.00  0.00     0.008 C 
ATOM     14  C   UNL     1      15.547  19.242   1.237  1.00  0.00     0.017 C 
ATOM     15  C   UNL     1      17.476  17.882   2.415  1.00  0.00    -0.020 C 
ATOM     16  C   UNL     1      15.994  18.800   4.406  1.00  0.00     0.032 C 
ATOM     17  C   UNL     1      17.424  18.399   3.932  1.00  0.00     0.006 C 
ATOM     18  C   UNL     1      18.419  18.784   1.587  1.00  0.00     0.008 C 
ATOM     19  C   UNL     1      18.111  16.452   2.428  1.00  0.00     0.012 C 
ATOM     20  C   UNL     1      18.569  19.430   4.386  1.00  0.00    -0.025 C 
ATOM     21  C   UNL     1      19.834  18.907   2.151  1.00  0.00     0.005 C 
ATOM     22  C   UNL     1      19.957  19.066   3.707  1.00  0.00     0.003 C 
ATOM     23  C   UNL     1      18.197  20.920   4.070  1.00  0.00     0.010 C 
ATOM     24  C   UNL     1      18.698  19.285   5.940  1.00  0.00     0.012 C 
ATOM     25  C   UNL     1      21.182  20.019   4.135  1.00  0.00    -0.006 C 
ATOM     26  C   UNL     1      19.390  21.827   3.688  1.00  0.00     0.033 C 
ATOM     27  C   UNL     1      20.683  21.483   4.450  1.00  0.00     0.120 C 
ATOM     28  C   UNL     1      22.306  20.063   3.046  1.00  0.00     0.014 C 
ATOM     29  C   UNL     1      21.897  19.439   5.393  1.00  0.00     0.014 C 
ENDROOT
BRANCH   1  30
ATOM     30  C   UNL     1      12.472  17.639   0.863  1.00  0.00     0.048 C 
ATOM     31  O   UNL     1      12.449  18.411  -0.134  1.00  0.00    -0.550 OA
ATOM     32  O   UNL     1      11.589  17.883   1.912  1.00  0.00    -0.550 OA
ENDBRANCH   1  30
BRANCH  27  33
ATOM     33  O   UNL     1      21.676  22.432   4.140  1.00  0.00    -0.393 OA
ATOM     34  H   UNL     1      22.557  22.032   4.369  1.00  0.00     0.210 HD
ENDBRANCH  27  33
TORSDOF 2
ENDMDL
MODEL 5
REMARK VINA RESULT:    -8.604      1.874      7.993
REMARK INTER + INTRA:          -9.593
REMARK INTER:                  -9.331
REMARK INTRA:                  -0.263
REMARK UNBOUND:                -0.235
REMARK SMILES C[C@@H]1[C@H]2C3=CC[C@@H]4[C@]5(C)CC[C@H](O)C(C)(C)[C@@H]5CC[C@]4(C)[C@@]3(C)CC[C@@]2(C(=O)[O-])CC[C@@H]1C
REMARK SMILES IDX 26 1 30 2 25 3 3 4 31 5 24 6 4 7 2 8 32 9 22 10 5 11 1 12
REMARK SMILES IDX 33 13 23 14 20 15 6 16 7 17 19 18 21 19 8 20 18 21 17 22
REMARK SMILES IDX 10 23 9 24 14 25 11 26 12 27 15 28 16 29 27 30 28 31 29 32
REMARK SMILES IDX 13 33
REMARK H PARENT 13 34
REMARK Flexibility Score: inf
ROOT
ATOM      1  C   UNL     1      14.191  18.539   2.658  1.00  0.00     0.017 C 
ATOM      2  C   UNL     1      15.502  19.372   2.552  1.00  0.00     0.014 C 
ATOM      3  C   UNL     1      13.441  18.879   4.003  1.00  0.00     0.014 C 
ATOM      4  C   UNL     1      14.498  17.000   2.512  1.00  0.00     0.030 C 
ATOM      5  C   UNL     1      16.626  18.859   3.454  1.00  0.00     0.004 C 
ATOM      6  C   UNL     1      12.954  17.668   4.822  1.00  0.00     0.013 C 
ATOM      7  C   UNL     1      13.246  16.169   2.829  1.00  0.00    -0.063 C 
ATOM      8  C   UNL     1      15.748  16.493   3.317  1.00  0.00    -0.003 C 
ATOM      9  C   UNL     1      16.991  17.406   3.133  1.00  0.00    -0.011 C 
ATOM     10  C   UNL     1      12.287  16.541   3.964  1.00  0.00    -0.006 C 
ATOM     11  C   UNL     1      12.981  15.081   2.088  1.00  0.00    -0.027 C 
ATOM     12  C   UNL     1      16.095  15.025   2.997  1.00  0.00     0.008 C 
ATOM     13  C   UNL     1      17.671  17.279   1.751  1.00  0.00     0.008 C 
ATOM     14  C   UNL     1      11.003  17.174   3.334  1.00  0.00     0.017 C 
ATOM     15  C   UNL     1      11.937  15.216   4.833  1.00  0.00    -0.020 C 
ATOM     16  C   UNL     1      11.816  14.192   2.396  1.00  0.00     0.032 C 
ATOM     17  C   UNL     1      11.713  13.912   3.926  1.00  0.00     0.006 C 
ATOM     18  C   UNL     1      10.682  15.473   5.698  1.00  0.00     0.008 C 
ATOM     19  C   UNL     1      13.111  14.904   5.819  1.00  0.00     0.012 C 
ATOM     20  C   UNL     1      10.490  12.951   4.327  1.00  0.00    -0.025 C 
ATOM     21  C   UNL     1      10.259  14.291   6.568  1.00  0.00     0.005 C 
ATOM     22  C   UNL     1      10.330  12.871   5.904  1.00  0.00     0.003 C 
ATOM     23  C   UNL     1       9.135  13.398   3.677  1.00  0.00     0.010 C 
ATOM     24  C   UNL     1      10.846  11.532   3.769  1.00  0.00     0.012 C 
ATOM     25  C   UNL     1       9.153  11.894   6.409  1.00  0.00    -0.006 C 
ATOM     26  C   UNL     1       7.878  13.145   4.541  1.00  0.00     0.033 C 
ATOM     27  C   UNL     1       7.963  11.852   5.374  1.00  0.00     0.120 C 
ATOM     28  C   UNL     1       8.615  12.298   7.823  1.00  0.00     0.014 C 
ATOM     29  C   UNL     1       9.707  10.451   6.614  1.00  0.00     0.014 C 
ENDROOT
BRANCH   1  30
ATOM     30  C   UNL     1      13.325  19.009   1.488  1.00  0.00     0.048 C 
ATOM     31  O   UNL     1      12.463  19.913   1.665  1.00  0.00    -0.550 OA
ATOM     32  O   UNL     1      13.489  18.491   0.206  1.00  0.00    -0.550 OA
ENDBRANCH   1  30
BRANCH  27  33
ATOM     33  O   UNL     1       6.734  11.633   6.027  1.00  0.00    -0.393 OA
ATOM     34  H   UNL     1       6.699  10.675   6.288  1.00  0.00     0.210 HD
ENDBRANCH  27  33
TORSDOF 2
ENDMDL
MODEL 6
REMARK VINA RESULT:    -8.437      1.878      8.063
REMARK INTER + INTRA:          -9.412
REMARK INTER:                  -9.172
REMARK INTRA:                  -0.240
REMARK UNBOUND:                -0.235
REMARK SMILES C[C@@H]1[C@H]2C3=CC[C@@H]4[C@]5(C)CC[C@H](O)C(C)(C)[C@@H]5CC[C@]4(C)[C@@]3(C)CC[C@@]2(C(=O)[O-])CC[C@@H]1C
REMARK SMILES IDX 26 1 30 2 25 3 3 4 31 5 24 6 4 7 2 8 32 9 22 10 5 11 1 12
REMARK SMILES IDX 33 13 23 14 20 15 6 16 7 17 19 18 21 19 8 20 18 21 17 22
REMARK SMILES IDX 10 23 9 24 14 25 11 26 12 27 15 28 16 29 27 30 28 31 29 32
REMARK SMILES IDX 13 33
REMARK H PARENT 13 34
REMARK Flexibility Score: inf
ROOT
ATOM      1  C   UNL     1      15.189  18.314   1.381  1.00  0.00     0.017 C 
ATOM      2  C   UNL     1      15.723  19.161   0.188  1.00  0.00     0.014 C 
ATOM      3  C   UNL     1      15.696  16.827   1.258  1.00  0.00     0.014 C 
ATOM      4  C   UNL     1      13.618  18.409   1.468  1.00  0.00     0.030 C 
ATOM      5  C   UNL     1      14.994  18.889  -1.129  1.00  0.00     0.004 C 
ATOM      6  C   UNL     1      14.627  15.735   1.457  1.00  0.00     0.013 C 
ATOM      7  C   UNL     1      13.076  17.411   2.502  1.00  0.00    -0.063 C 
ATOM      8  C   UNL     1      12.867  18.285   0.094  1.00  0.00    -0.003 C 
ATOM      9  C   UNL     1      13.492  19.175  -1.014  1.00  0.00    -0.011 C 
ATOM     10  C   UNL     1      13.656  16.003   2.657  1.00  0.00    -0.006 C 
ATOM     11  C   UNL     1      12.060  17.783   3.298  1.00  0.00    -0.027 C 
ATOM     12  C   UNL     1      11.355  18.557   0.227  1.00  0.00     0.008 C 
ATOM     13  C   UNL     1      13.207  20.684  -0.851  1.00  0.00     0.008 C 
ATOM     14  C   UNL     1      14.540  15.975   3.948  1.00  0.00     0.017 C 
ATOM     15  C   UNL     1      12.446  14.924   2.737  1.00  0.00    -0.020 C 
ATOM     16  C   UNL     1      11.442  16.831   4.273  1.00  0.00     0.032 C 
ATOM     17  C   UNL     1      11.209  15.433   3.622  1.00  0.00     0.006 C 
ATOM     18  C   UNL     1      12.975  13.585   3.300  1.00  0.00     0.008 C 
ATOM     19  C   UNL     1      11.904  14.629   1.299  1.00  0.00     0.012 C 
ATOM     20  C   UNL     1      10.535  14.362   4.610  1.00  0.00    -0.025 C 
ATOM     21  C   UNL     1      11.920  12.485   3.414  1.00  0.00     0.005 C 
ATOM     22  C   UNL     1      10.509  12.920   3.947  1.00  0.00     0.003 C 
ATOM     23  C   UNL     1      11.252  14.294   6.003  1.00  0.00     0.010 C 
ATOM     24  C   UNL     1       9.065  14.849   4.848  1.00  0.00     0.012 C 
ATOM     25  C   UNL     1       9.811  11.782   4.846  1.00  0.00    -0.006 C 
ATOM     26  C   UNL     1      11.282  12.893   6.657  1.00  0.00     0.033 C 
ATOM     27  C   UNL     1      10.010  12.068   6.384  1.00  0.00     0.120 C 
ATOM     28  C   UNL     1      10.337  10.348   4.499  1.00  0.00     0.014 C 
ATOM     29  C   UNL     1       8.286  11.711   4.530  1.00  0.00     0.014 C 
ENDROOT
BRANCH   1  30
ATOM     30  C   UNL     1      15.818  18.939   2.627  1.00  0.00     0.048 C 
ATOM     31  O   UNL     1      15.315  19.979   3.134  1.00  0.00    -0.550 OA
ATOM     32  O   UNL     1      16.922  18.363   3.251  1.00  0.00    -0.550 OA
ENDBRANCH   1  30
BRANCH  27  33
ATOM     33  O   UNL     1      10.065  10.867   7.118  1.00  0.00    -0.393 OA
ATOM     34  H   UNL     1       9.485  10.976   7.918  1.00  0.00     0.210 HD
ENDBRANCH  27  33
TORSDOF 2
ENDMDL
MODEL 7
REMARK VINA RESULT:    -8.367      2.906      8.876
REMARK INTER + INTRA:          -9.335
REMARK INTER:                  -9.073
REMARK INTRA:                  -0.262
REMARK UNBOUND:                -0.235
REMARK SMILES C[C@@H]1[C@H]2C3=CC[C@@H]4[C@]5(C)CC[C@H](O)C(C)(C)[C@@H]5CC[C@]4(C)[C@@]3(C)CC[C@@]2(C(=O)[O-])CC[C@@H]1C
REMARK SMILES IDX 26 1 30 2 25 3 3 4 31 5 24 6 4 7 2 8 32 9 22 10 5 11 1 12
REMARK SMILES IDX 33 13 23 14 20 15 6 16 7 17 19 18 21 19 8 20 18 21 17 22
REMARK SMILES IDX 10 23 9 24 14 25 11 26 12 27 15 28 16 29 27 30 28 31 29 32
REMARK SMILES IDX 13 33
REMARK H PARENT 13 34
REMARK Flexibility Score: inf
ROOT
ATOM      1  C   UNL     1      14.387  20.777  -0.467  1.00  0.00     0.017 C 
ATOM      2  C   UNL     1      14.849  22.242  -0.718  1.00  0.00     0.014 C 
ATOM      3  C   UNL     1      13.221  20.751   0.593  1.00  0.00     0.014 C 
ATOM      4  C   UNL     1      15.608  19.876  -0.041  1.00  0.00     0.030 C 
ATOM      5  C   UNL     1      15.698  22.818   0.415  1.00  0.00     0.004 C 
ATOM      6  C   UNL     1      13.367  19.716   1.725  1.00  0.00     0.013 C 
ATOM      7  C   UNL     1      15.123  18.491   0.413  1.00  0.00    -0.063 C 
ATOM      8  C   UNL     1      16.575  20.524   1.013  1.00  0.00    -0.003 C 
ATOM      9  C   UNL     1      16.963  21.984   0.654  1.00  0.00    -0.011 C 
ATOM     10  C   UNL     1      13.850  18.307   1.245  1.00  0.00    -0.006 C 
ATOM     11  C   UNL     1      15.835  17.406   0.069  1.00  0.00    -0.027 C 
ATOM     12  C   UNL     1      17.835  19.668   1.257  1.00  0.00     0.008 C 
ATOM     13  C   UNL     1      17.958  22.106  -0.521  1.00  0.00     0.008 C 
ATOM     14  C   UNL     1      12.726  17.756   0.307  1.00  0.00     0.017 C 
ATOM     15  C   UNL     1      14.151  17.294   2.477  1.00  0.00    -0.020 C 
ATOM     16  C   UNL     1      15.451  16.038   0.543  1.00  0.00     0.032 C 
ATOM     17  C   UNL     1      15.078  16.053   2.057  1.00  0.00     0.006 C 
ATOM     18  C   UNL     1      12.819  16.775   3.065  1.00  0.00     0.008 C 
ATOM     19  C   UNL     1      14.887  18.061   3.625  1.00  0.00     0.012 C 
ATOM     20  C   UNL     1      14.668  14.612   2.637  1.00  0.00    -0.025 C 
ATOM     21  C   UNL     1      12.979  15.813   4.242  1.00  0.00     0.005 C 
ATOM     22  C   UNL     1      14.116  14.738   4.120  1.00  0.00     0.003 C 
ATOM     23  C   UNL     1      13.614  13.879   1.737  1.00  0.00     0.010 C 
ATOM     24  C   UNL     1      15.978  13.754   2.642  1.00  0.00     0.012 C 
ATOM     25  C   UNL     1      13.717  13.338   4.806  1.00  0.00    -0.006 C 
ATOM     26  C   UNL     1      12.598  13.000   2.502  1.00  0.00     0.033 C 
ATOM     27  C   UNL     1      13.204  12.301   3.733  1.00  0.00     0.120 C 
ATOM     28  C   UNL     1      12.642  13.515   5.931  1.00  0.00     0.014 C 
ATOM     29  C   UNL     1      14.948  12.738   5.552  1.00  0.00     0.014 C 
ENDROOT
BRANCH   1  30
ATOM     30  C   UNL     1      13.832  20.298  -1.810  1.00  0.00     0.048 C 
ATOM     31  O   UNL     1      12.592  20.354  -2.035  1.00  0.00    -0.550 OA
ATOM     32  O   UNL     1      14.670  19.834  -2.820  1.00  0.00    -0.550 OA
ENDBRANCH   1  30
BRANCH  27  33
ATOM     33  O   UNL     1      12.252  11.425   4.291  1.00  0.00    -0.393 OA
ATOM     34  H   UNL     1      12.049  10.729   3.611  1.00  0.00     0.210 HD
ENDBRANCH  27  33
TORSDOF 2
ENDMDL
MODEL 8
REMARK VINA RESULT:    -8.237      3.878      5.240
REMARK INTER + INTRA:          -9.194
REMARK INTER:                  -8.937
REMARK INTRA:                  -0.257
REMARK UNBOUND:                -0.235
REMARK SMILES C[C@@H]1[C@H]2C3=CC[C@@H]4[C@]5(C)CC[C@H](O)C(C)(C)[C@@H]5CC[C@]4(C)[C@@]3(C)CC[C@@]2(C(=O)[O-])CC[C@@H]1C
REMARK SMILES IDX 26 1 30 2 25 3 3 4 31 5 24 6 4 7 2 8 32 9 22 10 5 11 1 12
REMARK SMILES IDX 33 13 23 14 20 15 6 16 7 17 19 18 21 19 8 20 18 21 17 22
REMARK SMILES IDX 10 23 9 24 14 25 11 26 12 27 15 28 16 29 27 30 28 31 29 32
REMARK SMILES IDX 13 33
REMARK H PARENT 13 34
REMARK Flexibility Score: inf
ROOT
ATOM      1  C   UNL     1      12.378  13.320   4.143  1.00  0.00     0.017 C 
ATOM      2  C   UNL     1      12.204  11.805   4.458  1.00  0.00     0.014 C 
ATOM      3  C   UNL     1      13.091  14.044   5.349  1.00  0.00     0.014 C 
ATOM      4  C   UNL     1      10.990  13.974   3.784  1.00  0.00     0.030 C 
ATOM      5  C   UNL     1      11.085  11.513   5.458  1.00  0.00     0.004 C 
ATOM      6  C   UNL     1      12.442  15.360   5.818  1.00  0.00     0.013 C 
ATOM      7  C   UNL     1      11.125  15.501   3.685  1.00  0.00    -0.063 C 
ATOM      8  C   UNL     1       9.797  13.558   4.718  1.00  0.00    -0.003 C 
ATOM      9  C   UNL     1       9.729  12.025   4.957  1.00  0.00    -0.011 C 
ATOM     10  C   UNL     1      11.998  16.306   4.653  1.00  0.00    -0.006 C 
ATOM     11  C   UNL     1      10.457  16.154   2.720  1.00  0.00    -0.027 C 
ATOM     12  C   UNL     1       8.443  14.093   4.211  1.00  0.00     0.008 C 
ATOM     13  C   UNL     1       9.226  11.215   3.741  1.00  0.00     0.008 C 
ATOM     14  C   UNL     1      13.307  16.720   3.903  1.00  0.00     0.017 C 
ATOM     15  C   UNL     1      11.173  17.602   5.177  1.00  0.00    -0.020 C 
ATOM     16  C   UNL     1      10.492  17.647   2.619  1.00  0.00     0.032 C 
ATOM     17  C   UNL     1      10.314  18.308   4.020  1.00  0.00     0.006 C 
ATOM     18  C   UNL     1      12.147  18.625   5.803  1.00  0.00     0.008 C 
ATOM     19  C   UNL     1      10.177  17.174   6.305  1.00  0.00     0.012 C 
ATOM     20  C   UNL     1      10.328  19.914   3.985  1.00  0.00    -0.025 C 
ATOM     21  C   UNL     1      11.479  19.889   6.340  1.00  0.00     0.005 C 
ATOM     22  C   UNL     1      10.341  20.510   5.456  1.00  0.00     0.003 C 
ATOM     23  C   UNL     1      11.538  20.487   3.168  1.00  0.00     0.010 C 
ATOM     24  C   UNL     1       9.009  20.348   3.260  1.00  0.00     0.012 C 
ATOM     25  C   UNL     1      10.312  22.119   5.527  1.00  0.00    -0.006 C 
ATOM     26  C   UNL     1      12.116  21.819   3.701  1.00  0.00     0.033 C 
ATOM     27  C   UNL     1      11.043  22.758   4.284  1.00  0.00     0.120 C 
ATOM     28  C   UNL     1      10.941  22.664   6.853  1.00  0.00     0.014 C 
ATOM     29  C   UNL     1       8.838  22.625   5.571  1.00  0.00     0.014 C 
ENDROOT
BRANCH   1  30
ATOM     30  C   UNL     1      13.307  13.371   2.929  1.00  0.00     0.048 C 
ATOM     31  O   UNL     1      14.554  13.456   3.093  1.00  0.00    -0.550 OA
ATOM     32  O   UNL     1      12.812  13.284   1.630  1.00  0.00    -0.550 OA
ENDBRANCH   1  30
BRANCH  27  33
ATOM     33  O   UNL     1      11.634  23.990   4.624  1.00  0.00    -0.393 OA
ATOM     34  H   UNL     1      11.530  24.113   5.605  1.00  0.00     0.210 HD
ENDBRANCH  27  33
TORSDOF 2
ENDMDL
MODEL 9
REMARK VINA RESULT:    -8.163      2.005      8.210
REMARK INTER + INTRA:          -9.114
REMARK INTER:                  -8.884
REMARK INTRA:                  -0.229
REMARK UNBOUND:                -0.235
REMARK SMILES C[C@@H]1[C@H]2C3=CC[C@@H]4[C@]5(C)CC[C@H](O)C(C)(C)[C@@H]5CC[C@]4(C)[C@@]3(C)CC[C@@]2(C(=O)[O-])CC[C@@H]1C
REMARK SMILES IDX 26 1 30 2 25 3 3 4 31 5 24 6 4 7 2 8 32 9 22 10 5 11 1 12
REMARK SMILES IDX 33 13 23 14 20 15 6 16 7 17 19 18 21 19 8 20 18 21 17 22
REMARK SMILES IDX 10 23 9 24 14 25 11 26 12 27 15 28 16 29 27 30 28 31 29 32
REMARK SMILES IDX 13 33
REMARK H PARENT 13 34
REMARK Flexibility Score: inf
ROOT
ATOM      1  C   UNL     1      16.611  18.133   2.040  1.00  0.00     0.017 C 
ATOM      2  C   UNL     1      17.281  19.199   1.124  1.00  0.00     0.014 C 
ATOM      3  C   UNL     1      16.197  16.872   1.190  1.00  0.00     0.014 C 
ATOM      4  C   UNL     1      15.393  18.760   2.820  1.00  0.00     0.030 C 
ATOM      5  C   UNL     1      16.288  19.961   0.246  1.00  0.00     0.004 C 
ATOM      6  C   UNL     1      14.768  16.345   1.424  1.00  0.00     0.013 C 
ATOM      7  C   UNL     1      14.604  17.665   3.554  1.00  0.00    -0.063 C 
ATOM      8  C   UNL     1      14.450  19.672   1.956  1.00  0.00    -0.003 C 
ATOM      9  C   UNL     1      15.234  20.692   1.086  1.00  0.00    -0.011 C 
ATOM     10  C   UNL     1      14.346  16.290   2.931  1.00  0.00    -0.006 C 
ATOM     11  C   UNL     1      14.124  17.919   4.783  1.00  0.00    -0.027 C 
ATOM     12  C   UNL     1      13.384  20.388   2.811  1.00  0.00     0.008 C 
ATOM     13  C   UNL     1      15.849  21.864   1.882  1.00  0.00     0.008 C 
ATOM     14  C   UNL     1      15.299  15.254   3.614  1.00  0.00     0.017 C 
ATOM     15  C   UNL     1      12.785  15.889   3.130  1.00  0.00    -0.020 C 
ATOM     16  C   UNL     1      13.287  16.919   5.516  1.00  0.00     0.032 C 
ATOM     17  C   UNL     1      12.216  16.286   4.577  1.00  0.00     0.006 C 
ATOM     18  C   UNL     1      12.600  14.374   2.893  1.00  0.00     0.008 C 
ATOM     19  C   UNL     1      11.909  16.626   2.063  1.00  0.00     0.012 C 
ATOM     20  C   UNL     1      11.271  15.210   5.304  1.00  0.00    -0.025 C 
ATOM     21  C   UNL     1      11.162  13.880   3.048  1.00  0.00     0.005 C 
ATOM     22  C   UNL     1      10.343  14.471   4.249  1.00  0.00     0.003 C 
ATOM     23  C   UNL     1      12.085  14.154   6.128  1.00  0.00     0.010 C 
ATOM     24  C   UNL     1      10.377  16.017   6.304  1.00  0.00     0.012 C 
ATOM     25  C   UNL     1       9.325  13.399   4.888  1.00  0.00    -0.006 C 
ATOM     26  C   UNL     1      11.475  12.733   6.159  1.00  0.00     0.033 C 
ATOM     27  C   UNL     1       9.935  12.734   6.182  1.00  0.00     0.120 C 
ATOM     28  C   UNL     1       8.914  12.290   3.863  1.00  0.00     0.014 C 
ATOM     29  C   UNL     1       7.978  14.094   5.254  1.00  0.00     0.014 C 
ENDROOT
BRANCH   1  30
ATOM     30  C   UNL     1      17.701  17.715   3.028  1.00  0.00     0.048 C 
ATOM     31  O   UNL     1      17.985  18.458   4.006  1.00  0.00    -0.550 OA
ATOM     32  O   UNL     1      18.371  16.501   2.901  1.00  0.00    -0.550 OA
ENDBRANCH   1  30
BRANCH  27  33
ATOM     33  O   UNL     1       9.468  11.414   6.339  1.00  0.00    -0.393 OA
ATOM     34  H   UNL     1       9.785  10.888   5.558  1.00  0.00     0.210 HD
ENDBRANCH  27  33
TORSDOF 2
ENDMDL
