MODEL 1
REMARK VINA RESULT:    13.645      0.000      0.000
REMARK INTER + INTRA:          25.816
REMARK INTER:                  26.407
REMARK INTRA:                  -0.591
REMARK UNBOUND:                -0.591
REMARK SMILES CCCCCCCCCCCCCCCCCC(=O)[O-]
REMARK SMILES IDX 10 1 11 2 12 3 13 4 14 5 15 6 16 7 17 8 18 9 19 10 20 11
REMARK SMILES IDX 9 12 8 13 7 14 6 15 5 16 4 17 3 18 2 19 1 20
REMARK H PARENT
REMARK Flexibility Score: inf
ROOT
ATOM      1  C   UNL     1     -13.479  31.264 -21.258  1.00  0.00     0.000 C 
ENDROOT
BRANCH   1   2
ATOM      2  C   UNL     1     -13.000  32.664 -20.837  1.00  0.00     0.000 C 
BRANCH   2   3
ATOM      3  C   UNL     1     -11.920  33.226 -21.776  1.00  0.00     0.000 C 
BRANCH   3   4
ATOM      4  C   UNL     1     -10.854  34.046 -21.029  1.00  0.00     0.000 C 
BRANCH   4   5
ATOM      5  C   UNL     1      -9.848  33.158 -20.277  1.00  0.00     0.000 C 
BRANCH   5   6
ATOM      6  C   UNL     1      -9.162  33.896 -19.116  1.00  0.00     0.000 C 
BRANCH   6   7
ATOM      7  C   UNL     1      -8.802  32.968 -17.941  1.00  0.00     0.006 C 
BRANCH   7   8
ATOM      8  C   UNL     1      -7.930  33.633 -16.861  1.00  0.00     0.053 C 
BRANCH   8   9
ATOM      9  C   UNL     1      -7.995  32.916 -15.547  1.00  0.00     0.041 C 
ATOM     10  O   UNL     1      -7.818  33.547 -14.472  1.00  0.00    -0.550 OA
ATOM     11  O   UNL     1      -8.212  31.544 -15.509  1.00  0.00    -0.550 OA
ENDBRANCH   8   9
ENDBRANCH   7   8
ENDBRANCH   6   7
ENDBRANCH   5   6
ENDBRANCH   4   5
ENDBRANCH   3   4
ENDBRANCH   2   3
ENDBRANCH   1   2
BRANCH   1  12
ATOM     12  C   UNL     1     -13.892  30.396 -20.058  1.00  0.00     0.000 C 
BRANCH  12  13
ATOM     13  C   UNL     1     -15.300  29.798 -20.213  1.00  0.00    -0.000 C 
BRANCH  13  14
ATOM     14  C   UNL     1     -15.557  28.717 -19.156  1.00  0.00    -0.000 C 
BRANCH  14  15
ATOM     15  C   UNL     1     -16.600  27.703 -19.648  1.00  0.00    -0.000 C 
BRANCH  15  16
ATOM     16  C   UNL     1     -17.422  27.092 -18.502  1.00  0.00    -0.000 C 
BRANCH  16  17
ATOM     17  C   UNL     1     -16.983  25.661 -18.156  1.00  0.00    -0.000 C 
BRANCH  17  18
ATOM     18  C   UNL     1     -16.191  25.037 -19.314  1.00  0.00    -0.000 C 
BRANCH  18  19
ATOM     19  C   UNL     1     -16.211  23.500 -19.283  1.00  0.00    -0.003 C 
ATOM     20  C   UNL     1     -16.260  22.880 -20.680  1.00  0.00     0.004 C 
ENDBRANCH  18  19
ENDBRANCH  17  18
ENDBRANCH  16  17
ENDBRANCH  15  16
ENDBRANCH  14  15
ENDBRANCH  13  14
ENDBRANCH  12  13
ENDBRANCH   1  12
TORSDOF 16
ENDMDL
MODEL 2
REMARK VINA RESULT:    14.111      4.017     10.168
REMARK INTER + INTRA:          26.719
REMARK INTER:                  26.948
REMARK INTRA:                  -0.230
REMARK UNBOUND:                -0.591
REMARK SMILES CCCCCCCCCCCCCCCCCC(=O)[O-]
REMARK SMILES IDX 10 1 11 2 12 3 13 4 14 5 15 6 16 7 17 8 18 9 19 10 20 11
REMARK SMILES IDX 9 12 8 13 7 14 6 15 5 16 4 17 3 18 2 19 1 20
REMARK H PARENT
REMARK Flexibility Score: inf
ROOT
ATOM      1  C   UNL     1     -12.997  32.847 -21.129  1.00  0.00     0.000 C 
ENDROOT
BRANCH   1   2
ATOM      2  C   UNL     1     -13.195  31.323 -21.057  1.00  0.00     0.000 C 
BRANCH   2   3
ATOM      3  C   UNL     1     -14.400  30.924 -20.189  1.00  0.00     0.000 C 
BRANCH   3   4
ATOM      4  C   UNL     1     -14.499  29.403 -19.978  1.00  0.00     0.000 C 
BRANCH   4   5
ATOM      5  C   UNL     1     -15.829  28.985 -19.327  1.00  0.00     0.000 C 
BRANCH   5   6
ATOM      6  C   UNL     1     -16.333  27.624 -19.836  1.00  0.00     0.000 C 
BRANCH   6   7
ATOM      7  C   UNL     1     -17.389  26.990 -18.913  1.00  0.00     0.006 C 
BRANCH   7   8
ATOM      8  C   UNL     1     -16.821  25.949 -17.932  1.00  0.00     0.053 C 
BRANCH   8   9
ATOM      9  C   UNL     1     -16.437  24.669 -18.611  1.00  0.00     0.041 C 
ATOM     10  O   UNL     1     -16.182  24.657 -19.844  1.00  0.00    -0.550 OA
ATOM     11  O   UNL     1     -16.396  23.480 -17.892  1.00  0.00    -0.550 OA
ENDBRANCH   8   9
ENDBRANCH   7   8
ENDBRANCH   6   7
ENDBRANCH   5   6
ENDBRANCH   4   5
ENDBRANCH   3   4
ENDBRANCH   2   3
ENDBRANCH   1   2
BRANCH   1  12
ATOM     12  C   UNL     1     -11.614  33.238 -21.675  1.00  0.00     0.000 C 
BRANCH  12  13
ATOM     13  C   UNL     1     -10.792  34.067 -20.676  1.00  0.00    -0.000 C 
BRANCH  13  14
ATOM     14  C   UNL     1      -9.745  33.197 -19.970  1.00  0.00    -0.000 C 
BRANCH  14  15
ATOM     15  C   UNL     1      -8.979  34.006 -18.913  1.00  0.00    -0.000 C 
BRANCH  15  16
ATOM     16  C   UNL     1      -8.255  33.113 -17.892  1.00  0.00    -0.000 C 
BRANCH  16  17
ATOM     17  C   UNL     1      -8.558  33.509 -16.439  1.00  0.00    -0.000 C 
BRANCH  17  18
ATOM     18  C   UNL     1      -7.312  34.098 -15.761  1.00  0.00    -0.000 C 
BRANCH  18  19
ATOM     19  C   UNL     1      -6.234  34.518 -16.772  1.00  0.00    -0.003 C 
ATOM     20  C   UNL     1      -6.138  36.035 -16.940  1.00  0.00     0.004 C 
ENDBRANCH  18  19
ENDBRANCH  17  18
ENDBRANCH  16  17
ENDBRANCH  15  16
ENDBRANCH  14  15
ENDBRANCH  13  14
ENDBRANCH  12  13
ENDBRANCH   1  12
TORSDOF 16
ENDMDL
MODEL 3
REMARK VINA RESULT:    15.105      7.712     12.607
REMARK INTER + INTRA:          28.642
REMARK INTER:                  29.259
REMARK INTRA:                  -0.617
REMARK UNBOUND:                -0.591
REMARK SMILES CCCCCCCCCCCCCCCCCC(=O)[O-]
REMARK SMILES IDX 10 1 11 2 12 3 13 4 14 5 15 6 16 7 17 8 18 9 19 10 20 11
REMARK SMILES IDX 9 12 8 13 7 14 6 15 5 16 4 17 3 18 2 19 1 20
REMARK H PARENT
REMARK Flexibility Score: inf
ROOT
ATOM      1  C   UNL     1      -8.086  39.083 -15.182  1.00  0.00     0.000 C 
ENDROOT
BRANCH   1   2
ATOM      2  C   UNL     1      -7.541  38.638 -16.551  1.00  0.00     0.000 C 
BRANCH   2   3
ATOM      3  C   UNL     1      -6.618  37.413 -16.449  1.00  0.00     0.000 C 
BRANCH   3   4
ATOM      4  C   UNL     1      -6.242  36.838 -17.826  1.00  0.00     0.000 C 
BRANCH   4   5
ATOM      5  C   UNL     1      -6.249  35.301 -17.845  1.00  0.00     0.000 C 
BRANCH   5   6
ATOM      6  C   UNL     1      -5.969  34.693 -16.460  1.00  0.00     0.000 C 
BRANCH   6   7
ATOM      7  C   UNL     1      -7.246  34.478 -15.627  1.00  0.00     0.006 C 
BRANCH   7   8
ATOM      8  C   UNL     1      -8.357  33.713 -16.369  1.00  0.00     0.053 C 
BRANCH   8   9
ATOM      9  C   UNL     1      -8.166  32.228 -16.318  1.00  0.00     0.041 C 
ATOM     10  O   UNL     1      -7.917  31.585 -17.372  1.00  0.00    -0.550 OA
ATOM     11  O   UNL     1      -8.300  31.546 -15.115  1.00  0.00    -0.550 OA
ENDBRANCH   8   9
ENDBRANCH   7   8
ENDBRANCH   6   7
ENDBRANCH   5   6
ENDBRANCH   4   5
ENDBRANCH   3   4
ENDBRANCH   2   3
ENDBRANCH   1   2
BRANCH   1  12
ATOM     12  C   UNL     1      -8.279  40.606 -15.090  1.00  0.00     0.000 C 
BRANCH  12  13
ATOM     13  C   UNL     1      -7.249  41.282 -14.171  1.00  0.00    -0.000 C 
BRANCH  13  14
ATOM     14  C   UNL     1      -7.932  41.916 -12.954  1.00  0.00    -0.000 C 
BRANCH  14  15
ATOM     15  C   UNL     1      -9.209  41.149 -12.577  1.00  0.00    -0.000 C 
BRANCH  15  16
ATOM     16  C   UNL     1      -9.474  41.145 -11.063  1.00  0.00    -0.000 C 
BRANCH  16  17
ATOM     17  C   UNL     1     -10.973  41.161 -10.724  1.00  0.00    -0.000 C 
BRANCH  17  18
ATOM     18  C   UNL     1     -11.822  41.031 -11.996  1.00  0.00    -0.000 C 
BRANCH  18  19
ATOM     19  C   UNL     1     -12.472  42.360 -12.411  1.00  0.00    -0.003 C 
ATOM     20  C   UNL     1     -12.528  42.544 -13.928  1.00  0.00     0.004 C 
ENDBRANCH  18  19
ENDBRANCH  17  18
ENDBRANCH  16  17
ENDBRANCH  15  16
ENDBRANCH  14  15
ENDBRANCH  13  14
ENDBRANCH  12  13
ENDBRANCH   1  12
TORSDOF 16
ENDMDL
MODEL 4
REMARK VINA RESULT:    15.153      7.919     12.859
REMARK INTER + INTRA:          28.735
REMARK INTER:                  29.258
REMARK INTRA:                  -0.523
REMARK UNBOUND:                -0.591
REMARK SMILES CCCCCCCCCCCCCCCCCC(=O)[O-]
REMARK SMILES IDX 10 1 11 2 12 3 13 4 14 5 15 6 16 7 17 8 18 9 19 10 20 11
REMARK SMILES IDX 9 12 8 13 7 14 6 15 5 16 4 17 3 18 2 19 1 20
REMARK H PARENT
REMARK Flexibility Score: inf
ROOT
ATOM      1  C   UNL     1      -8.885  39.912 -15.370  1.00  0.00     0.000 C 
ENDROOT
BRANCH   1   2
ATOM      2  C   UNL     1      -7.518  39.247 -15.610  1.00  0.00     0.000 C 
BRANCH   2   3
ATOM      3  C   UNL     1      -7.631  37.930 -16.393  1.00  0.00     0.000 C 
BRANCH   3   4
ATOM      4  C   UNL     1      -6.337  37.098 -16.343  1.00  0.00     0.000 C 
BRANCH   4   5
ATOM      5  C   UNL     1      -6.081  36.329 -17.650  1.00  0.00     0.000 C 
BRANCH   5   6
ATOM      6  C   UNL     1      -6.054  34.806 -17.443  1.00  0.00     0.000 C 
BRANCH   6   7
ATOM      7  C   UNL     1      -6.495  34.382 -16.031  1.00  0.00     0.006 C 
BRANCH   7   8
ATOM      8  C   UNL     1      -7.959  33.912 -15.946  1.00  0.00     0.053 C 
BRANCH   8   9
ATOM      9  C   UNL     1      -8.100  32.432 -16.133  1.00  0.00     0.041 C 
ATOM     10  O   UNL     1      -8.189  31.673 -15.132  1.00  0.00    -0.550 OA
ATOM     11  O   UNL     1      -8.093  31.884 -17.410  1.00  0.00    -0.550 OA
ENDBRANCH   8   9
ENDBRANCH   7   8
ENDBRANCH   6   7
ENDBRANCH   5   6
ENDBRANCH   4   5
ENDBRANCH   3   4
ENDBRANCH   2   3
ENDBRANCH   1   2
BRANCH   1  12
ATOM     12  C   UNL     1      -8.816  41.049 -14.337  1.00  0.00     0.000 C 
BRANCH  12  13
ATOM     13  C   UNL     1      -7.470  41.792 -14.359  1.00  0.00    -0.000 C 
BRANCH  13  14
ATOM     14  C   UNL     1      -6.808  41.768 -12.976  1.00  0.00    -0.000 C 
BRANCH  14  15
ATOM     15  C   UNL     1      -7.825  42.097 -11.872  1.00  0.00    -0.000 C 
BRANCH  15  16
ATOM     16  C   UNL     1      -8.711  40.896 -11.506  1.00  0.00    -0.000 C 
BRANCH  16  17
ATOM     17  C   UNL     1      -9.965  41.304 -10.717  1.00  0.00    -0.000 C 
BRANCH  17  18
ATOM     18  C   UNL     1     -11.221  40.646 -11.307  1.00  0.00    -0.000 C 
BRANCH  18  19
ATOM     19  C   UNL     1     -12.299  41.671 -11.691  1.00  0.00    -0.003 C 
ATOM     20  C   UNL     1     -12.115  42.224 -13.105  1.00  0.00     0.004 C 
ENDBRANCH  18  19
ENDBRANCH  17  18
ENDBRANCH  16  17
ENDBRANCH  15  16
ENDBRANCH  14  15
ENDBRANCH  13  14
ENDBRANCH  12  13
ENDBRANCH   1  12
TORSDOF 16
ENDMDL
MODEL 5
REMARK VINA RESULT:    15.467      7.980     12.249
REMARK INTER + INTRA:          29.343
REMARK INTER:                  30.076
REMARK INTRA:                  -0.733
REMARK UNBOUND:                -0.591
REMARK SMILES CCCCCCCCCCCCCCCCCC(=O)[O-]
REMARK SMILES IDX 10 1 11 2 12 3 13 4 14 5 15 6 16 7 17 8 18 9 19 10 20 11
REMARK SMILES IDX 9 12 8 13 7 14 6 15 5 16 4 17 3 18 2 19 1 20
REMARK H PARENT
REMARK Flexibility Score: inf
ROOT
ATOM      1  C   UNL     1      -9.347  39.945 -14.616  1.00  0.00     0.000 C 
ENDROOT
BRANCH   1   2
ATOM      2  C   UNL     1      -8.638  39.528 -15.916  1.00  0.00     0.000 C 
BRANCH   2   3
ATOM      3  C   UNL     1      -7.863  38.209 -15.769  1.00  0.00     0.000 C 
BRANCH   3   4
ATOM      4  C   UNL     1      -7.045  37.860 -17.025  1.00  0.00     0.000 C 
BRANCH   4   5
ATOM      5  C   UNL     1      -5.937  36.833 -16.739  1.00  0.00     0.000 C 
BRANCH   5   6
ATOM      6  C   UNL     1      -6.207  35.473 -17.404  1.00  0.00     0.000 C 
BRANCH   6   7
ATOM      7  C   UNL     1      -6.253  34.309 -16.397  1.00  0.00     0.006 C 
BRANCH   7   8
ATOM      8  C   UNL     1      -7.668  33.966 -15.898  1.00  0.00     0.053 C 
BRANCH   8   9
ATOM      9  C   UNL     1      -8.039  32.537 -16.156  1.00  0.00     0.041 C 
ATOM     10  O   UNL     1      -8.138  32.112 -17.337  1.00  0.00    -0.550 OA
ATOM     11  O   UNL     1      -8.313  31.683 -15.095  1.00  0.00    -0.550 OA
ENDBRANCH   8   9
ENDBRANCH   7   8
ENDBRANCH   6   7
ENDBRANCH   5   6
ENDBRANCH   4   5
ENDBRANCH   3   4
ENDBRANCH   2   3
ENDBRANCH   1   2
BRANCH   1  12
ATOM     12  C   UNL     1      -8.860  41.304 -14.086  1.00  0.00     0.000 C 
BRANCH  12  13
ATOM     13  C   UNL     1      -8.586  41.289 -12.573  1.00  0.00    -0.000 C 
BRANCH  13  14
ATOM     14  C   UNL     1      -9.753  40.651 -11.810  1.00  0.00    -0.000 C 
BRANCH  14  15
ATOM     15  C   UNL     1      -9.900  41.269 -10.411  1.00  0.00    -0.000 C 
BRANCH  15  16
ATOM     16  C   UNL     1     -11.364  41.358  -9.952  1.00  0.00    -0.000 C 
BRANCH  16  17
ATOM     17  C   UNL     1     -12.232  40.222 -10.516  1.00  0.00    -0.000 C 
BRANCH  17  18
ATOM     18  C   UNL     1     -13.300  39.793  -9.499  1.00  0.00    -0.000 C 
BRANCH  18  19
ATOM     19  C   UNL     1     -13.736  38.331  -9.682  1.00  0.00    -0.003 C 
ATOM     20  C   UNL     1     -15.093  38.034  -9.045  1.00  0.00     0.004 C 
ENDBRANCH  18  19
ENDBRANCH  17  18
ENDBRANCH  16  17
ENDBRANCH  15  16
ENDBRANCH  14  15
ENDBRANCH  13  14
ENDBRANCH  12  13
ENDBRANCH   1  12
TORSDOF 16
ENDMDL
MODEL 6
REMARK VINA RESULT:    15.526      7.357     12.717
REMARK INTER + INTRA:          29.457
REMARK INTER:                  30.298
REMARK INTRA:                  -0.842
REMARK UNBOUND:                -0.591
REMARK SMILES CCCCCCCCCCCCCCCCCC(=O)[O-]
REMARK SMILES IDX 10 1 11 2 12 3 13 4 14 5 15 6 16 7 17 8 18 9 19 10 20 11
REMARK SMILES IDX 9 12 8 13 7 14 6 15 5 16 4 17 3 18 2 19 1 20
REMARK H PARENT
REMARK Flexibility Score: inf
ROOT
ATOM      1  C   UNL     1      -7.300  38.884 -15.571  1.00  0.00     0.000 C 
ENDROOT
BRANCH   1   2
ATOM      2  C   UNL     1      -7.221  37.848 -16.705  1.00  0.00     0.000 C 
BRANCH   2   3
ATOM      3  C   UNL     1      -5.956  36.977 -16.622  1.00  0.00     0.000 C 
BRANCH   3   4
ATOM      4  C   UNL     1      -5.936  35.860 -17.680  1.00  0.00     0.000 C 
BRANCH   4   5
ATOM      5  C   UNL     1      -5.875  34.457 -17.053  1.00  0.00     0.000 C 
BRANCH   5   6
ATOM      6  C   UNL     1      -7.020  34.205 -16.058  1.00  0.00     0.000 C 
BRANCH   6   7
ATOM      7  C   UNL     1      -8.352  33.857 -16.748  1.00  0.00     0.006 C 
BRANCH   7   8
ATOM      8  C   UNL     1      -8.901  32.465 -16.387  1.00  0.00     0.053 C 
BRANCH   8   9
ATOM      9  C   UNL     1      -8.239  31.883 -15.174  1.00  0.00     0.041 C 
ATOM     10  O   UNL     1      -8.381  32.432 -14.050  1.00  0.00    -0.550 OA
ATOM     11  O   UNL     1      -7.435  30.755 -15.289  1.00  0.00    -0.550 OA
ENDBRANCH   8   9
ENDBRANCH   7   8
ENDBRANCH   6   7
ENDBRANCH   5   6
ENDBRANCH   4   5
ENDBRANCH   3   4
ENDBRANCH   2   3
ENDBRANCH   1   2
BRANCH   1  12
ATOM     12  C   UNL     1      -8.629  39.657 -15.569  1.00  0.00     0.000 C 
BRANCH  12  13
ATOM     13  C   UNL     1      -8.532  41.006 -14.840  1.00  0.00    -0.000 C 
BRANCH  13  14
ATOM     14  C   UNL     1      -7.085  41.305 -14.428  1.00  0.00    -0.000 C 
BRANCH  14  15
ATOM     15  C   UNL     1      -7.010  41.746 -12.959  1.00  0.00    -0.000 C 
BRANCH  15  16
ATOM     16  C   UNL     1      -8.374  42.182 -12.399  1.00  0.00    -0.000 C 
BRANCH  16  17
ATOM     17  C   UNL     1      -8.814  41.344 -11.189  1.00  0.00    -0.000 C 
BRANCH  17  18
ATOM     18  C   UNL     1     -10.049  40.497 -11.531  1.00  0.00    -0.000 C 
BRANCH  18  19
ATOM     19  C   UNL     1     -11.357  41.137 -11.038  1.00  0.00    -0.003 C 
ATOM     20  C   UNL     1     -11.325  41.479  -9.548  1.00  0.00     0.004 C 
ENDBRANCH  18  19
ENDBRANCH  17  18
ENDBRANCH  16  17
ENDBRANCH  15  16
ENDBRANCH  14  15
ENDBRANCH  13  14
ENDBRANCH  12  13
ENDBRANCH   1  12
TORSDOF 16
ENDMDL
MODEL 7
REMARK VINA RESULT:    15.614      7.915     12.561
REMARK INTER + INTRA:          29.628
REMARK INTER:                  29.993
REMARK INTRA:                  -0.366
REMARK UNBOUND:                -0.591
REMARK SMILES CCCCCCCCCCCCCCCCCC(=O)[O-]
REMARK SMILES IDX 10 1 11 2 12 3 13 4 14 5 15 6 16 7 17 8 18 9 19 10 20 11
REMARK SMILES IDX 9 12 8 13 7 14 6 15 5 16 4 17 3 18 2 19 1 20
REMARK H PARENT
REMARK Flexibility Score: inf
ROOT
ATOM      1  C   UNL     1      -8.961  39.914 -15.045  1.00  0.00     0.000 C 
ENDROOT
BRANCH   1   2
ATOM      2  C   UNL     1      -8.015  39.369 -16.129  1.00  0.00     0.000 C 
BRANCH   2   3
ATOM      3  C   UNL     1      -7.836  37.845 -16.045  1.00  0.00     0.000 C 
BRANCH   3   4
ATOM      4  C   UNL     1      -6.369  37.411 -16.215  1.00  0.00     0.000 C 
BRANCH   4   5
ATOM      5  C   UNL     1      -6.210  36.260 -17.223  1.00  0.00     0.000 C 
BRANCH   5   6
ATOM      6  C   UNL     1      -6.356  34.877 -16.568  1.00  0.00     0.000 C 
BRANCH   6   7
ATOM      7  C   UNL     1      -7.346  33.960 -17.309  1.00  0.00     0.006 C 
BRANCH   7   8
ATOM      8  C   UNL     1      -8.528  33.485 -16.445  1.00  0.00     0.053 C 
BRANCH   8   9
ATOM      9  C   UNL     1      -8.084  32.749 -15.217  1.00  0.00     0.041 C 
ATOM     10  O   UNL     1      -8.233  31.502 -15.139  1.00  0.00    -0.550 OA
ATOM     11  O   UNL     1      -7.541  33.444 -14.143  1.00  0.00    -0.550 OA
ENDBRANCH   8   9
ENDBRANCH   7   8
ENDBRANCH   6   7
ENDBRANCH   5   6
ENDBRANCH   4   5
ENDBRANCH   3   4
ENDBRANCH   2   3
ENDBRANCH   1   2
BRANCH   1  12
ATOM     12  C   UNL     1      -8.334  41.062 -14.236  1.00  0.00     0.000 C 
BRANCH  12  13
ATOM     13  C   UNL     1      -9.246  41.560 -13.104  1.00  0.00    -0.000 C 
BRANCH  13  14
ATOM     14  C   UNL     1      -9.211  40.601 -11.909  1.00  0.00    -0.000 C 
BRANCH  14  15
ATOM     15  C   UNL     1     -10.146  41.083 -10.788  1.00  0.00    -0.000 C 
BRANCH  15  16
ATOM     16  C   UNL     1     -11.631  40.990 -11.173  1.00  0.00    -0.000 C 
BRANCH  16  17
ATOM     17  C   UNL     1     -12.136  42.249 -11.895  1.00  0.00    -0.000 C 
BRANCH  17  18
ATOM     18  C   UNL     1     -12.689  41.898 -13.284  1.00  0.00    -0.000 C 
BRANCH  18  19
ATOM     19  C   UNL     1     -12.651  43.090 -14.253  1.00  0.00    -0.003 C 
ATOM     20  C   UNL     1     -13.393  42.815 -15.561  1.00  0.00     0.004 C 
ENDBRANCH  18  19
ENDBRANCH  17  18
ENDBRANCH  16  17
ENDBRANCH  15  16
ENDBRANCH  14  15
ENDBRANCH  13  14
ENDBRANCH  12  13
ENDBRANCH   1  12
TORSDOF 16
ENDMDL
MODEL 8
REMARK VINA RESULT:    15.765      8.599     12.185
REMARK INTER + INTRA:          29.919
REMARK INTER:                  30.617
REMARK INTRA:                  -0.698
REMARK UNBOUND:                -0.591
REMARK SMILES CCCCCCCCCCCCCCCCCC(=O)[O-]
REMARK SMILES IDX 10 1 11 2 12 3 13 4 14 5 15 6 16 7 17 8 18 9 19 10 20 11
REMARK SMILES IDX 9 12 8 13 7 14 6 15 5 16 4 17 3 18 2 19 1 20
REMARK H PARENT
REMARK Flexibility Score: inf
ROOT
ATOM      1  C   UNL     1      -8.834  40.011 -14.851  1.00  0.00     0.000 C 
ENDROOT
BRANCH   1   2
ATOM      2  C   UNL     1      -8.219  41.343 -14.388  1.00  0.00     0.000 C 
BRANCH   2   3
ATOM      3  C   UNL     1      -8.594  41.693 -12.939  1.00  0.00     0.000 C 
BRANCH   3   4
ATOM      4  C   UNL     1      -9.281  40.527 -12.206  1.00  0.00     0.000 C 
BRANCH   4   5
ATOM      5  C   UNL     1     -10.080  40.993 -10.977  1.00  0.00     0.000 C 
BRANCH   5   6
ATOM      6  C   UNL     1     -11.492  41.482 -11.342  1.00  0.00     0.000 C 
BRANCH   6   7
ATOM      7  C   UNL     1     -11.727  41.563 -12.862  1.00  0.00     0.006 C 
BRANCH   7   8
ATOM      8  C   UNL     1     -12.624  42.737 -13.295  1.00  0.00     0.053 C 
BRANCH   8   9
ATOM      9  C   UNL     1     -13.514  42.385 -14.449  1.00  0.00     0.041 C 
ATOM     10  O   UNL     1     -13.116  42.559 -15.631  1.00  0.00    -0.550 OA
ATOM     11  O   UNL     1     -14.796  41.900 -14.222  1.00  0.00    -0.550 OA
ENDBRANCH   8   9
ENDBRANCH   7   8
ENDBRANCH   6   7
ENDBRANCH   5   6
ENDBRANCH   4   5
ENDBRANCH   3   4
ENDBRANCH   2   3
ENDBRANCH   1   2
BRANCH   1  12
ATOM     12  C   UNL     1      -8.136  39.439 -16.096  1.00  0.00     0.000 C 
BRANCH  12  13
ATOM     13  C   UNL     1      -7.977  37.911 -16.040  1.00  0.00    -0.000 C 
BRANCH  13  14
ATOM     14  C   UNL     1      -6.532  37.498 -16.341  1.00  0.00    -0.000 C 
BRANCH  14  15
ATOM     15  C   UNL     1      -6.442  36.737 -17.672  1.00  0.00    -0.000 C 
BRANCH  15  16
ATOM     16  C   UNL     1      -5.876  35.317 -17.508  1.00  0.00    -0.000 C 
BRANCH  16  17
ATOM     17  C   UNL     1      -6.600  34.514 -16.416  1.00  0.00    -0.000 C 
BRANCH  17  18
ATOM     18  C   UNL     1      -7.713  33.646 -17.023  1.00  0.00    -0.000 C 
BRANCH  18  19
ATOM     19  C   UNL     1      -8.164  32.520 -16.080  1.00  0.00    -0.003 C 
ATOM     20  C   UNL     1      -8.071  32.910 -14.604  1.00  0.00     0.004 C 
ENDBRANCH  18  19
ENDBRANCH  17  18
ENDBRANCH  16  17
ENDBRANCH  15  16
ENDBRANCH  14  15
ENDBRANCH  13  14
ENDBRANCH  12  13
ENDBRANCH   1  12
TORSDOF 16
ENDMDL
MODEL 9
REMARK VINA RESULT:    15.780     12.819     15.019
REMARK INTER + INTRA:          29.948
REMARK INTER:                  30.649
REMARK INTRA:                  -0.701
REMARK UNBOUND:                -0.591
REMARK SMILES CCCCCCCCCCCCCCCCCC(=O)[O-]
REMARK SMILES IDX 10 1 11 2 12 3 13 4 14 5 15 6 16 7 17 8 18 9 19 10 20 11
REMARK SMILES IDX 9 12 8 13 7 14 6 15 5 16 4 17 3 18 2 19 1 20
REMARK H PARENT
REMARK Flexibility Score: inf
ROOT
ATOM      1  C   UNL     1      -8.017  42.213 -11.535  1.00  0.00     0.000 C 
ENDROOT
BRANCH   1   2
ATOM      2  C   UNL     1      -8.226  40.962 -10.663  1.00  0.00     0.000 C 
BRANCH   2   3
ATOM      3  C   UNL     1      -9.713  40.635 -10.447  1.00  0.00     0.000 C 
BRANCH   3   4
ATOM      4  C   UNL     1     -10.529  41.860  -9.996  1.00  0.00     0.000 C 
BRANCH   4   5
ATOM      5  C   UNL     1     -11.881  41.471  -9.376  1.00  0.00     0.000 C 
BRANCH   5   6
ATOM      6  C   UNL     1     -12.419  40.138  -9.923  1.00  0.00     0.000 C 
BRANCH   6   7
ATOM      7  C   UNL     1     -13.289  39.377  -8.906  1.00  0.00     0.006 C 
BRANCH   7   8
ATOM      8  C   UNL     1     -14.067  38.193  -9.508  1.00  0.00     0.053 C 
BRANCH   8   9
ATOM      9  C   UNL     1     -15.505  38.174  -9.085  1.00  0.00     0.041 C 
ATOM     10  O   UNL     1     -16.028  37.108  -8.667  1.00  0.00    -0.550 OA
ATOM     11  O   UNL     1     -16.279  39.323  -9.189  1.00  0.00    -0.550 OA
ENDBRANCH   8   9
ENDBRANCH   7   8
ENDBRANCH   6   7
ENDBRANCH   5   6
ENDBRANCH   4   5
ENDBRANCH   3   4
ENDBRANCH   2   3
ENDBRANCH   1   2
BRANCH   1  12
ATOM     12  C   UNL     1      -7.027  41.972 -12.686  1.00  0.00     0.000 C 
BRANCH  12  13
ATOM     13  C   UNL     1      -7.727  41.775 -14.041  1.00  0.00    -0.000 C 
BRANCH  13  14
ATOM     14  C   UNL     1      -9.063  41.043 -13.868  1.00  0.00    -0.000 C 
BRANCH  14  15
ATOM     15  C   UNL     1     -10.245  42.013 -14.007  1.00  0.00    -0.000 C 
BRANCH  15  16
ATOM     16  C   UNL     1     -11.449  41.612 -13.139  1.00  0.00    -0.000 C 
BRANCH  16  17
ATOM     17  C   UNL     1     -12.533  42.699 -13.089  1.00  0.00    -0.000 C 
BRANCH  17  18
ATOM     18  C   UNL     1     -13.574  42.484 -14.197  1.00  0.00    -0.000 C 
BRANCH  18  19
ATOM     19  C   UNL     1     -12.946  42.450 -15.599  1.00  0.00    -0.003 C 
ATOM     20  C   UNL     1     -13.982  42.580 -16.716  1.00  0.00     0.004 C 
ENDBRANCH  18  19
ENDBRANCH  17  18
ENDBRANCH  16  17
ENDBRANCH  15  16
ENDBRANCH  14  15
ENDBRANCH  13  14
ENDBRANCH  12  13
ENDBRANCH   1  12
TORSDOF 16
ENDMDL
