MODEL 1
REMARK VINA RESULT:    29.103      0.000      0.000
REMARK INTER + INTRA:          34.694
REMARK INTER:                  35.058
REMARK INTRA:                  -0.364
REMARK UNBOUND:                -0.364
REMARK SMILES O=c1c(O)c(-c2ccc(O)cc2O)oc2cc(O)cc(O)c12
REMARK SMILES IDX 5 1 3 2 2 3 1 4 22 5 20 6 19 7 17 8 16 9 15 10 14 11 6 12
REMARK SMILES IDX 8 13 7 14 9 15 11 16 12 17 10 18 13 20 4 22 21 24 18 26
REMARK H PARENT 10 19 13 21 4 23 21 25 18 27
REMARK Flexibility Score: inf
ROOT
ATOM      1  C   UNL     1       9.188   1.461   9.417  1.00  0.00     0.184 A 
ATOM      2  C   UNL     1       9.923   0.360   8.954  1.00  0.00     0.208 A 
ATOM      3  C   UNL     1      10.904   0.561   7.970  1.00  0.00     0.238 A 
ATOM      4  O   UNL     1      11.601  -0.420   7.603  1.00  0.00    -0.285 OA
ATOM      5  C   UNL     1      11.117   1.859   7.444  1.00  0.00     0.111 A 
ATOM      6  C   UNL     1      12.057   2.173   6.417  1.00  0.00     0.134 A 
ATOM      7  C   UNL     1      12.269   3.510   6.060  1.00  0.00     0.093 A 
ATOM      8  C   UNL     1      11.530   4.538   6.646  1.00  0.00     0.123 A 
ATOM      9  C   UNL     1      10.568   4.236   7.610  1.00  0.00     0.094 A 
ATOM     10  C   UNL     1      10.359   2.916   8.014  1.00  0.00     0.146 A 
ATOM     11  O   UNL     1       9.443   2.674   8.944  1.00  0.00    -0.451 OA
ENDROOT
BRANCH   1  12
ATOM     12  C   UNL     1       8.127   1.305  10.435  1.00  0.00     0.063 A 
ATOM     13  C   UNL     1       7.504   1.036  12.772  1.00  0.00     0.047 A 
ATOM     14  C   UNL     1       8.480   1.240  11.795  1.00  0.00     0.020 A 
ATOM     15  C   UNL     1       6.163   0.886  12.406  1.00  0.00     0.119 A 
ATOM     16  C   UNL     1       5.801   0.947  11.057  1.00  0.00     0.093 A 
ATOM     17  C   UNL     1       6.768   1.161  10.068  1.00  0.00     0.130 A 
BRANCH  15  18
ATOM     18  O   UNL     1       5.181   0.677  13.372  1.00  0.00    -0.508 OA
ATOM     19  H   UNL     1       4.359   0.117  13.178  1.00  0.00     0.293 HD
ENDBRANCH  15  18
BRANCH  17  20
ATOM     20  O   UNL     1       6.345   1.249   8.740  1.00  0.00    -0.507 OA
ATOM     21  H   UNL     1       6.520   2.056   8.156  1.00  0.00     0.293 HD
ENDBRANCH  17  20
ENDBRANCH   1  12
BRANCH   2  22
ATOM     22  O   UNL     1       9.689  -0.910   9.489  1.00  0.00    -0.502 OA
ATOM     23  H   UNL     1       8.889  -1.113  10.075  1.00  0.00     0.293 HD
ENDBRANCH   2  22
BRANCH   6  24
ATOM     24  O   UNL     1      12.783   1.215   5.702  1.00  0.00    -0.507 OA
ATOM     25  H   UNL     1      13.789   1.146   5.690  1.00  0.00     0.293 HD
ENDBRANCH   6  24
BRANCH   8  26
ATOM     26  O   UNL     1      11.757   5.856   6.254  1.00  0.00    -0.508 OA
ATOM     27  H   UNL     1      11.313   6.634   6.730  1.00  0.00     0.293 HD
ENDBRANCH   8  26
TORSDOF 6
ENDMDL
MODEL 2
REMARK VINA RESULT:    29.204      1.176      2.805
REMARK INTER + INTRA:          34.815
REMARK INTER:                  35.160
REMARK INTRA:                  -0.345
REMARK UNBOUND:                -0.364
REMARK SMILES O=c1c(O)c(-c2ccc(O)cc2O)oc2cc(O)cc(O)c12
REMARK SMILES IDX 5 1 3 2 2 3 1 4 22 5 20 6 19 7 17 8 16 9 15 10 14 11 6 12
REMARK SMILES IDX 8 13 7 14 9 15 11 16 12 17 10 18 13 20 4 22 21 24 18 26
REMARK H PARENT 10 19 13 21 4 23 21 25 18 27
REMARK Flexibility Score: inf
ROOT
ATOM      1  C   UNL     1       9.160   2.095   9.248  1.00  0.00     0.184 A 
ATOM      2  C   UNL     1       9.102   3.413   8.770  1.00  0.00     0.208 A 
ATOM      3  C   UNL     1      10.039   3.832   7.813  1.00  0.00     0.238 A 
ATOM      4  O   UNL     1       9.944   4.996   7.344  1.00  0.00    -0.285 OA
ATOM      5  C   UNL     1      11.039   2.934   7.367  1.00  0.00     0.111 A 
ATOM      6  C   UNL     1      12.064   3.262   6.430  1.00  0.00     0.134 A 
ATOM      7  C   UNL     1      12.926   2.260   5.970  1.00  0.00     0.093 A 
ATOM      8  C   UNL     1      12.843   0.957   6.460  1.00  0.00     0.123 A 
ATOM      9  C   UNL     1      11.882   0.639   7.420  1.00  0.00     0.094 A 
ATOM     10  C   UNL     1      10.984   1.608   7.872  1.00  0.00     0.146 A 
ATOM     11  O   UNL     1      10.076   1.260   8.776  1.00  0.00    -0.451 OA
ENDROOT
BRANCH   1  12
ATOM     12  C   UNL     1       8.213   1.606  10.274  1.00  0.00     0.063 A 
ATOM     13  C   UNL     1       7.819   0.837  12.549  1.00  0.00     0.047 A 
ATOM     14  C   UNL     1       8.678   1.353  11.576  1.00  0.00     0.020 A 
ATOM     15  C   UNL     1       6.486   0.560  12.233  1.00  0.00     0.119 A 
ATOM     16  C   UNL     1       6.013   0.806  10.940  1.00  0.00     0.093 A 
ATOM     17  C   UNL     1       6.861   1.332   9.958  1.00  0.00     0.130 A 
BRANCH  15  18
ATOM     18  O   UNL     1       5.621   0.040  13.193  1.00  0.00    -0.508 OA
ATOM     19  H   UNL     1       5.291  -0.917  13.145  1.00  0.00     0.293 HD
ENDBRANCH  15  18
BRANCH  17  20
ATOM     20  O   UNL     1       6.327   1.592   8.695  1.00  0.00    -0.507 OA
ATOM     21  H   UNL     1       6.888   1.628   7.854  1.00  0.00     0.293 HD
ENDBRANCH  17  20
ENDBRANCH   1  12
BRANCH   2  22
ATOM     22  O   UNL     1       8.106   4.279   9.231  1.00  0.00    -0.502 OA
ATOM     23  H   UNL     1       8.318   5.145   9.710  1.00  0.00     0.293 HD
ENDBRANCH   2  22
BRANCH   6  24
ATOM     24  O   UNL     1      12.294   4.553   5.943  1.00  0.00    -0.507 OA
ATOM     25  H   UNL     1      12.652   5.320   6.491  1.00  0.00     0.293 HD
ENDBRANCH   6  24
BRANCH   8  26
ATOM     26  O   UNL     1      13.728  -0.012   5.991  1.00  0.00    -0.508 OA
ATOM     27  H   UNL     1      13.926  -0.851   6.524  1.00  0.00     0.293 HD
ENDBRANCH   8  26
TORSDOF 6
ENDMDL
MODEL 3
REMARK VINA RESULT:    31.495      5.056      7.820
REMARK INTER + INTRA:          37.575
REMARK INTER:                  37.950
REMARK INTRA:                  -0.375
REMARK UNBOUND:                -0.364
REMARK SMILES O=c1c(O)c(-c2ccc(O)cc2O)oc2cc(O)cc(O)c12
REMARK SMILES IDX 5 1 3 2 2 3 1 4 22 5 20 6 19 7 17 8 16 9 15 10 14 11 6 12
REMARK SMILES IDX 8 13 7 14 9 15 11 16 12 17 10 18 13 20 4 22 21 24 18 26
REMARK H PARENT 10 19 13 21 4 23 21 25 18 27
REMARK Flexibility Score: inf
ROOT
ATOM      1  C   UNL     1      14.949   3.680   9.446  1.00  0.00     0.184 A 
ATOM      2  C   UNL     1      14.232   4.808   9.018  1.00  0.00     0.208 A 
ATOM      3  C   UNL     1      13.236   4.651   8.043  1.00  0.00     0.238 A 
ATOM      4  O   UNL     1      12.555   5.656   7.708  1.00  0.00    -0.285 OA
ATOM      5  C   UNL     1      12.988   3.372   7.489  1.00  0.00     0.111 A 
ATOM      6  C   UNL     1      12.029   3.102   6.466  1.00  0.00     0.134 A 
ATOM      7  C   UNL     1      11.784   1.779   6.081  1.00  0.00     0.093 A 
ATOM      8  C   UNL     1      12.507   0.722   6.632  1.00  0.00     0.123 A 
ATOM      9  C   UNL     1      13.487   0.979   7.591  1.00  0.00     0.094 A 
ATOM     10  C   UNL     1      13.729   2.285   8.023  1.00  0.00     0.146 A 
ATOM     11  O   UNL     1      14.662   2.485   8.947  1.00  0.00    -0.451 OA
ENDROOT
BRANCH   1  12
ATOM     12  C   UNL     1      16.026   3.789  10.454  1.00  0.00     0.063 A 
ATOM     13  C   UNL     1      16.683   3.957  12.791  1.00  0.00     0.047 A 
ATOM     14  C   UNL     1      15.693   3.798  11.820  1.00  0.00     0.020 A 
ATOM     15  C   UNL     1      18.020   4.116  12.412  1.00  0.00     0.119 A 
ATOM     16  C   UNL     1      18.362   4.110  11.056  1.00  0.00     0.093 A 
ATOM     17  C   UNL     1      17.379   3.942  10.073  1.00  0.00     0.130 A 
BRANCH  15  18
ATOM     18  O   UNL     1      19.016   4.281  13.371  1.00  0.00    -0.508 OA
ATOM     19  H   UNL     1      19.998   4.177  13.137  1.00  0.00     0.293 HD
ENDBRANCH  15  18
BRANCH  17  20
ATOM     20  O   UNL     1      17.783   3.908   8.737  1.00  0.00    -0.507 OA
ATOM     21  H   UNL     1      18.726   4.124   8.439  1.00  0.00     0.293 HD
ENDBRANCH  17  20
ENDBRANCH   1  12
BRANCH   2  22
ATOM     22  O   UNL     1      14.500   6.059   9.580  1.00  0.00    -0.502 OA
ATOM     23  H   UNL     1      13.818   6.807   9.591  1.00  0.00     0.293 HD
ENDBRANCH   2  22
BRANCH   6  24
ATOM     24  O   UNL     1      11.315   4.093   5.784  1.00  0.00    -0.507 OA
ATOM     25  H   UNL     1      10.678   4.744   6.216  1.00  0.00     0.293 HD
ENDBRANCH   6  24
BRANCH   8  26
ATOM     26  O   UNL     1      12.247  -0.581   6.212  1.00  0.00    -0.508 OA
ATOM     27  H   UNL     1      12.996  -1.245   6.050  1.00  0.00     0.293 HD
ENDBRANCH   8  26
TORSDOF 6
ENDMDL
MODEL 4
REMARK VINA RESULT:    31.677      4.915      7.206
REMARK INTER + INTRA:          37.794
REMARK INTER:                  38.139
REMARK INTRA:                  -0.345
REMARK UNBOUND:                -0.364
REMARK SMILES O=c1c(O)c(-c2ccc(O)cc2O)oc2cc(O)cc(O)c12
REMARK SMILES IDX 5 1 3 2 2 3 1 4 22 5 20 6 19 7 17 8 16 9 15 10 14 11 6 12
REMARK SMILES IDX 8 13 7 14 9 15 11 16 12 17 10 18 13 20 4 22 21 24 18 26
REMARK H PARENT 10 19 13 21 4 23 21 25 18 27
REMARK Flexibility Score: inf
ROOT
ATOM      1  C   UNL     1      14.987   3.022   9.279  1.00  0.00     0.184 A 
ATOM      2  C   UNL     1      15.045   1.727   8.743  1.00  0.00     0.208 A 
ATOM      3  C   UNL     1      14.088   1.340   7.792  1.00  0.00     0.238 A 
ATOM      4  O   UNL     1      14.181   0.198   7.270  1.00  0.00    -0.285 OA
ATOM      5  C   UNL     1      13.069   2.247   7.410  1.00  0.00     0.111 A 
ATOM      6  C   UNL     1      12.023   1.949   6.484  1.00  0.00     0.134 A 
ATOM      7  C   UNL     1      11.142   2.962   6.090  1.00  0.00     0.093 A 
ATOM      8  C   UNL     1      11.225   4.243   6.634  1.00  0.00     0.123 A 
ATOM      9  C   UNL     1      12.207   4.529   7.583  1.00  0.00     0.094 A 
ATOM     10  C   UNL     1      13.125   3.550   7.970  1.00  0.00     0.146 A 
ATOM     11  O   UNL     1      14.052   3.868   8.866  1.00  0.00    -0.451 OA
ENDROOT
BRANCH   1  12
ATOM     12  C   UNL     1      15.955   3.476  10.301  1.00  0.00     0.063 A 
ATOM     13  C   UNL     1      16.397   4.159  12.594  1.00  0.00     0.047 A 
ATOM     14  C   UNL     1      15.518   3.677  11.622  1.00  0.00     0.020 A 
ATOM     15  C   UNL     1      17.722   4.454  12.259  1.00  0.00     0.119 A 
ATOM     16  C   UNL     1      18.166   4.260  10.948  1.00  0.00     0.093 A 
ATOM     17  C   UNL     1      17.298   3.767   9.966  1.00  0.00     0.130 A 
BRANCH  15  18
ATOM     18  O   UNL     1      18.606   4.940  13.219  1.00  0.00    -0.508 OA
ATOM     19  H   UNL     1      19.067   4.321  13.876  1.00  0.00     0.293 HD
ENDBRANCH  15  18
BRANCH  17  20
ATOM     20  O   UNL     1      17.805   3.559   8.682  1.00  0.00    -0.507 OA
ATOM     21  H   UNL     1      17.305   3.047   7.967  1.00  0.00     0.293 HD
ENDBRANCH  17  20
ENDBRANCH   1  12
BRANCH   2  22
ATOM     22  O   UNL     1      16.060   0.852   9.140  1.00  0.00    -0.502 OA
ATOM     23  H   UNL     1      15.867  -0.068   9.517  1.00  0.00     0.293 HD
ENDBRANCH   2  22
BRANCH   6  24
ATOM     24  O   UNL     1      11.793   0.678   5.948  1.00  0.00    -0.507 OA
ATOM     25  H   UNL     1      12.373  -0.130   6.114  1.00  0.00     0.293 HD
ENDBRANCH   6  24
BRANCH   8  26
ATOM     26  O   UNL     1      10.320   5.222   6.230  1.00  0.00    -0.508 OA
ATOM     27  H   UNL     1       9.814   5.786   6.903  1.00  0.00     0.293 HD
ENDBRANCH   8  26
TORSDOF 6
ENDMDL
