MODEL 1
REMARK VINA RESULT:    -7.487      0.000      0.000
REMARK INTER + INTRA:         -15.389
REMARK INTER:                 -14.491
REMARK INTRA:                  -0.898
REMARK UNBOUND:                -0.898
REMARK SMILES CCCCCCCCCCCCCCCCCC(=O)[O-]
REMARK SMILES IDX 10 1 11 2 12 3 13 4 14 5 15 6 16 7 17 8 18 9 19 10 20 11
REMARK SMILES IDX 9 12 8 13 7 14 6 15 5 16 4 17 3 18 2 19 1 20
REMARK H PARENT
REMARK Flexibility Score: inf
ROOT
ATOM      1  C   UNL     1       5.166   0.015  19.766  1.00  0.00     0.000 C 
ENDROOT
BRANCH   1   2
ATOM      2  C   UNL     1       4.205  -0.779  18.859  1.00  0.00     0.000 C 
BRANCH   2   3
ATOM      3  C   UNL     1       2.774  -0.934  19.403  1.00  0.00     0.000 C 
BRANCH   3   4
ATOM      4  C   UNL     1       1.903   0.307  19.155  1.00  0.00     0.000 C 
BRANCH   4   5
ATOM      5  C   UNL     1       1.953   0.729  17.682  1.00  0.00     0.000 C 
BRANCH   5   6
ATOM      6  C   UNL     1       0.981   1.888  17.410  1.00  0.00     0.000 C 
BRANCH   6   7
ATOM      7  C   UNL     1       1.533   3.246  17.872  1.00  0.00     0.006 C 
BRANCH   7   8
ATOM      8  C   UNL     1       0.961   4.421  17.068  1.00  0.00     0.053 C 
BRANCH   8   9
ATOM      9  C   UNL     1       1.717   5.676  17.371  1.00  0.00     0.041 C 
ATOM     10  O   UNL     1       1.743   6.134  18.544  1.00  0.00    -0.550 OA
ATOM     11  O   UNL     1       2.357   6.366  16.349  1.00  0.00    -0.550 OA
ENDBRANCH   8   9
ENDBRANCH   7   8
ENDBRANCH   6   7
ENDBRANCH   5   6
ENDBRANCH   4   5
ENDBRANCH   3   4
ENDBRANCH   2   3
ENDBRANCH   1   2
BRANCH   1  12
ATOM     12  C   UNL     1       6.097  -0.845  20.638  1.00  0.00     0.000 C 
BRANCH  12  13
ATOM     13  C   UNL     1       5.338  -1.662  21.695  1.00  0.00    -0.000 C 
BRANCH  13  14
ATOM     14  C   UNL     1       5.937  -3.065  21.839  1.00  0.00    -0.000 C 
BRANCH  14  15
ATOM     15  C   UNL     1       7.063  -3.291  20.820  1.00  0.00    -0.000 C 
BRANCH  15  16
ATOM     16  C   UNL     1       6.990  -4.672  20.145  1.00  0.00    -0.000 C 
BRANCH  16  17
ATOM     17  C   UNL     1       6.595  -5.832  21.081  1.00  0.00    -0.000 C 
BRANCH  17  18
ATOM     18  C   UNL     1       7.734  -6.812  21.427  1.00  0.00    -0.000 C 
BRANCH  18  19
ATOM     19  C   UNL     1       7.335  -8.298  21.411  1.00  0.00    -0.003 C 
ATOM     20  C   UNL     1       6.584  -8.725  22.672  1.00  0.00     0.004 C 
ENDBRANCH  18  19
ENDBRANCH  17  18
ENDBRANCH  16  17
ENDBRANCH  15  16
ENDBRANCH  14  15
ENDBRANCH  13  14
ENDBRANCH  12  13
ENDBRANCH   1  12
TORSDOF 16
ENDMDL
MODEL 2
REMARK VINA RESULT:    -7.439      5.457     10.604
REMARK INTER + INTRA:         -15.296
REMARK INTER:                 -14.303
REMARK INTRA:                  -0.993
REMARK UNBOUND:                -0.898
REMARK SMILES CCCCCCCCCCCCCCCCCC(=O)[O-]
REMARK SMILES IDX 10 1 11 2 12 3 13 4 14 5 15 6 16 7 17 8 18 9 19 10 20 11
REMARK SMILES IDX 9 12 8 13 7 14 6 15 5 16 4 17 3 18 2 19 1 20
REMARK H PARENT
REMARK Flexibility Score: inf
ROOT
ATOM      1  C   UNL     1       6.049  -1.138  20.218  1.00  0.00     0.000 C 
ENDROOT
BRANCH   1   2
ATOM      2  C   UNL     1       6.068  -1.575  21.696  1.00  0.00     0.000 C 
BRANCH   2   3
ATOM      3  C   UNL     1       6.106  -3.096  21.925  1.00  0.00     0.000 C 
BRANCH   3   4
ATOM      4  C   UNL     1       5.746  -3.899  20.666  1.00  0.00     0.000 C 
BRANCH   4   5
ATOM      5  C   UNL     1       6.992  -4.551  20.055  1.00  0.00     0.000 C 
BRANCH   5   6
ATOM      6  C   UNL     1       7.706  -5.441  21.084  1.00  0.00     0.000 C 
BRANCH   6   7
ATOM      7  C   UNL     1       6.830  -6.606  21.570  1.00  0.00     0.006 C 
BRANCH   7   8
ATOM      8  C   UNL     1       7.564  -7.954  21.533  1.00  0.00     0.053 C 
BRANCH   8   9
ATOM      9  C   UNL     1       6.935  -8.916  22.490  1.00  0.00     0.041 C 
ATOM     10  O   UNL     1       7.106  -8.780  23.731  1.00  0.00    -0.550 OA
ATOM     11  O   UNL     1       6.195  -9.990  22.012  1.00  0.00    -0.550 OA
ENDBRANCH   8   9
ENDBRANCH   7   8
ENDBRANCH   6   7
ENDBRANCH   5   6
ENDBRANCH   4   5
ENDBRANCH   3   4
ENDBRANCH   2   3
ENDBRANCH   1   2
BRANCH   1  12
ATOM     12  C   UNL     1       5.427   0.246  19.957  1.00  0.00     0.000 C 
BRANCH  12  13
ATOM     13  C   UNL     1       4.343   0.218  18.870  1.00  0.00    -0.000 C 
BRANCH  13  14
ATOM     14  C   UNL     1       3.293  -0.859  19.169  1.00  0.00    -0.000 C 
BRANCH  14  15
ATOM     15  C   UNL     1       1.903  -0.235  19.357  1.00  0.00    -0.000 C 
BRANCH  15  16
ATOM     16  C   UNL     1       1.083  -0.199  18.055  1.00  0.00    -0.000 C 
BRANCH  16  17
ATOM     17  C   UNL     1       1.138   1.138  17.289  1.00  0.00    -0.000 C 
BRANCH  17  18
ATOM     18  C   UNL     1       1.216   2.398  18.175  1.00  0.00    -0.000 C 
BRANCH  18  19
ATOM     19  C   UNL     1       0.875   3.715  17.455  1.00  0.00    -0.003 C 
ATOM     20  C   UNL     1       2.032   4.713  17.463  1.00  0.00     0.004 C 
ENDBRANCH  18  19
ENDBRANCH  17  18
ENDBRANCH  16  17
ENDBRANCH  15  16
ENDBRANCH  14  15
ENDBRANCH  13  14
ENDBRANCH  12  13
ENDBRANCH   1  12
TORSDOF 16
ENDMDL
MODEL 3
REMARK VINA RESULT:    -7.384      1.319      2.379
REMARK INTER + INTRA:         -15.189
REMARK INTER:                 -14.434
REMARK INTRA:                  -0.755
REMARK UNBOUND:                -0.898
REMARK SMILES CCCCCCCCCCCCCCCCCC(=O)[O-]
REMARK SMILES IDX 10 1 11 2 12 3 13 4 14 5 15 6 16 7 17 8 18 9 19 10 20 11
REMARK SMILES IDX 9 12 8 13 7 14 6 15 5 16 4 17 3 18 2 19 1 20
REMARK H PARENT
REMARK Flexibility Score: inf
ROOT
ATOM      1  C   UNL     1       3.520  -0.290  19.282  1.00  0.00     0.000 C 
ENDROOT
BRANCH   1   2
ATOM      2  C   UNL     1       2.619   0.898  18.892  1.00  0.00     0.000 C 
BRANCH   2   3
ATOM      3  C   UNL     1       1.566   0.591  17.813  1.00  0.00     0.000 C 
BRANCH   3   4
ATOM      4  C   UNL     1       0.875   1.854  17.277  1.00  0.00     0.000 C 
BRANCH   4   5
ATOM      5  C   UNL     1       1.431   3.114  17.952  1.00  0.00     0.000 C 
BRANCH   5   6
ATOM      6  C   UNL     1       1.046   4.374  17.162  1.00  0.00     0.000 C 
BRANCH   6   7
ATOM      7  C   UNL     1       1.995   5.553  17.428  1.00  0.00     0.006 C 
BRANCH   7   8
ATOM      8  C   UNL     1       1.492   6.868  16.816  1.00  0.00     0.053 C 
BRANCH   8   9
ATOM      9  C   UNL     1       2.370   7.282  15.677  1.00  0.00     0.041 C 
ATOM     10  O   UNL     1       3.196   6.468  15.184  1.00  0.00    -0.550 OA
ATOM     11  O   UNL     1       2.309   8.581  15.188  1.00  0.00    -0.550 OA
ENDBRANCH   8   9
ENDBRANCH   7   8
ENDBRANCH   6   7
ENDBRANCH   5   6
ENDBRANCH   4   5
ENDBRANCH   3   4
ENDBRANCH   2   3
ENDBRANCH   1   2
BRANCH   1  12
ATOM     12  C   UNL     1       2.820  -1.401  20.085  1.00  0.00     0.000 C 
BRANCH  12  13
ATOM     13  C   UNL     1       3.295  -2.809  19.696  1.00  0.00    -0.000 C 
BRANCH  13  14
ATOM     14  C   UNL     1       4.806  -2.957  19.906  1.00  0.00    -0.000 C 
BRANCH  14  15
ATOM     15  C   UNL     1       5.134  -3.214  21.384  1.00  0.00    -0.000 C 
BRANCH  15  16
ATOM     16  C   UNL     1       6.631  -3.468  21.628  1.00  0.00    -0.000 C 
BRANCH  16  17
ATOM     17  C   UNL     1       7.250  -4.586  20.764  1.00  0.00    -0.000 C 
BRANCH  17  18
ATOM     18  C   UNL     1       6.714  -6.004  21.046  1.00  0.00    -0.000 C 
BRANCH  18  19
ATOM     19  C   UNL     1       7.717  -6.947  21.735  1.00  0.00    -0.003 C 
ATOM     20  C   UNL     1       7.349  -8.422  21.578  1.00  0.00     0.004 C 
ENDBRANCH  18  19
ENDBRANCH  17  18
ENDBRANCH  16  17
ENDBRANCH  15  16
ENDBRANCH  14  15
ENDBRANCH  13  14
ENDBRANCH  12  13
ENDBRANCH   1  12
TORSDOF 16
ENDMDL
MODEL 4
REMARK VINA RESULT:    -7.376      2.268      3.501
REMARK INTER + INTRA:         -15.174
REMARK INTER:                 -13.963
REMARK INTRA:                  -1.211
REMARK UNBOUND:                -0.898
REMARK SMILES CCCCCCCCCCCCCCCCCC(=O)[O-]
REMARK SMILES IDX 10 1 11 2 12 3 13 4 14 5 15 6 16 7 17 8 18 9 19 10 20 11
REMARK SMILES IDX 9 12 8 13 7 14 6 15 5 16 4 17 3 18 2 19 1 20
REMARK H PARENT
REMARK Flexibility Score: inf
ROOT
ATOM      1  C   UNL     1       6.350  -2.029  20.370  1.00  0.00     0.000 C 
ENDROOT
BRANCH   1   2
ATOM      2  C   UNL     1       5.647  -1.515  21.641  1.00  0.00     0.000 C 
BRANCH   2   3
ATOM      3  C   UNL     1       4.566  -2.449  22.212  1.00  0.00     0.000 C 
BRANCH   3   4
ATOM      4  C   UNL     1       3.142  -1.911  22.006  1.00  0.00     0.000 C 
BRANCH   4   5
ATOM      5  C   UNL     1       3.049  -1.081  20.721  1.00  0.00     0.000 C 
BRANCH   5   6
ATOM      6  C   UNL     1       2.335  -1.867  19.610  1.00  0.00     0.000 C 
BRANCH   6   7
ATOM      7  C   UNL     1       1.247  -1.041  18.905  1.00  0.00     0.006 C 
BRANCH   7   8
ATOM      8  C   UNL     1       1.482   0.471  19.023  1.00  0.00     0.053 C 
BRANCH   8   9
ATOM      9  C   UNL     1       1.886   1.040  17.700  1.00  0.00     0.041 C 
ATOM     10  O   UNL     1       1.250   2.010  17.206  1.00  0.00    -0.550 OA
ATOM     11  O   UNL     1       2.937   0.473  16.990  1.00  0.00    -0.550 OA
ENDBRANCH   8   9
ENDBRANCH   7   8
ENDBRANCH   6   7
ENDBRANCH   5   6
ENDBRANCH   4   5
ENDBRANCH   3   4
ENDBRANCH   2   3
ENDBRANCH   1   2
BRANCH   1  12
ATOM     12  C   UNL     1       5.676  -3.238  19.697  1.00  0.00     0.000 C 
BRANCH  12  13
ATOM     13  C   UNL     1       6.679  -4.317  19.264  1.00  0.00    -0.000 C 
BRANCH  13  14
ATOM     14  C   UNL     1       8.023  -4.138  19.980  1.00  0.00    -0.000 C 
BRANCH  14  15
ATOM     15  C   UNL     1       8.040  -4.894  21.316  1.00  0.00    -0.000 C 
BRANCH  15  16
ATOM     16  C   UNL     1       7.151  -6.150  21.303  1.00  0.00    -0.000 C 
BRANCH  16  17
ATOM     17  C   UNL     1       7.833  -7.434  21.819  1.00  0.00    -0.000 C 
BRANCH  17  18
ATOM     18  C   UNL     1       7.245  -8.752  21.274  1.00  0.00    -0.000 C 
BRANCH  18  19
ATOM     19  C   UNL     1       6.658  -9.688  22.345  1.00  0.00    -0.003 C 
ATOM     20  C   UNL     1       6.539  -9.023  23.716  1.00  0.00     0.004 C 
ENDBRANCH  18  19
ENDBRANCH  17  18
ENDBRANCH  16  17
ENDBRANCH  15  16
ENDBRANCH  14  15
ENDBRANCH  13  14
ENDBRANCH  12  13
ENDBRANCH   1  12
TORSDOF 16
ENDMDL
MODEL 5
REMARK VINA RESULT:    -7.363      5.441     11.121
REMARK INTER + INTRA:         -15.148
REMARK INTER:                 -14.479
REMARK INTRA:                  -0.669
REMARK UNBOUND:                -0.898
REMARK SMILES CCCCCCCCCCCCCCCCCC(=O)[O-]
REMARK SMILES IDX 10 1 11 2 12 3 13 4 14 5 15 6 16 7 17 8 18 9 19 10 20 11
REMARK SMILES IDX 9 12 8 13 7 14 6 15 5 16 4 17 3 18 2 19 1 20
REMARK H PARENT
REMARK Flexibility Score: inf
ROOT
ATOM      1  C   UNL     1       4.896  -0.617  19.748  1.00  0.00     0.000 C 
ENDROOT
BRANCH   1   2
ATOM      2  C   UNL     1       6.128  -0.889  20.634  1.00  0.00     0.000 C 
BRANCH   2   3
ATOM      3  C   UNL     1       6.187  -2.295  21.255  1.00  0.00     0.000 C 
BRANCH   3   4
ATOM      4  C   UNL     1       7.019  -3.282  20.423  1.00  0.00     0.000 C 
BRANCH   4   5
ATOM      5  C   UNL     1       6.670  -4.732  20.776  1.00  0.00     0.000 C 
BRANCH   5   6
ATOM      6  C   UNL     1       7.822  -5.404  21.539  1.00  0.00     0.000 C 
BRANCH   6   7
ATOM      7  C   UNL     1       7.798  -6.936  21.422  1.00  0.00     0.006 C 
BRANCH   7   8
ATOM      8  C   UNL     1       6.488  -7.548  21.935  1.00  0.00     0.053 C 
BRANCH   8   9
ATOM      9  C   UNL     1       6.771  -8.731  22.806  1.00  0.00     0.041 C 
ATOM     10  O   UNL     1       7.296  -8.572  23.940  1.00  0.00    -0.550 OA
ATOM     11  O   UNL     1       6.496 -10.013  22.349  1.00  0.00    -0.550 OA
ENDBRANCH   8   9
ENDBRANCH   7   8
ENDBRANCH   6   7
ENDBRANCH   5   6
ENDBRANCH   4   5
ENDBRANCH   3   4
ENDBRANCH   2   3
ENDBRANCH   1   2
BRANCH   1  12
ATOM     12  C   UNL     1       3.804  -1.700  19.802  1.00  0.00     0.000 C 
BRANCH  12  13
ATOM     13  C   UNL     1       2.460  -1.221  19.235  1.00  0.00    -0.000 C 
BRANCH  13  14
ATOM     14  C   UNL     1       2.481   0.289  18.970  1.00  0.00    -0.000 C 
BRANCH  14  15
ATOM     15  C   UNL     1       1.123   0.775  18.446  1.00  0.00    -0.000 C 
BRANCH  15  16
ATOM     16  C   UNL     1       1.254   1.888  17.391  1.00  0.00    -0.000 C 
BRANCH  16  17
ATOM     17  C   UNL     1       0.876   3.299  17.884  1.00  0.00    -0.000 C 
BRANCH  17  18
ATOM     18  C   UNL     1       1.413   4.460  17.023  1.00  0.00    -0.000 C 
BRANCH  18  19
ATOM     19  C   UNL     1       2.103   5.586  17.814  1.00  0.00    -0.003 C 
ATOM     20  C   UNL     1       1.115   6.465  18.580  1.00  0.00     0.004 C 
ENDBRANCH  18  19
ENDBRANCH  17  18
ENDBRANCH  16  17
ENDBRANCH  15  16
ENDBRANCH  14  15
ENDBRANCH  13  14
ENDBRANCH  12  13
ENDBRANCH   1  12
TORSDOF 16
ENDMDL
MODEL 6
REMARK VINA RESULT:    -7.123      3.286      4.167
REMARK INTER + INTRA:         -14.683
REMARK INTER:                 -13.336
REMARK INTRA:                  -1.348
REMARK UNBOUND:                -0.898
REMARK SMILES CCCCCCCCCCCCCCCCCC(=O)[O-]
REMARK SMILES IDX 10 1 11 2 12 3 13 4 14 5 15 6 16 7 17 8 18 9 19 10 20 11
REMARK SMILES IDX 9 12 8 13 7 14 6 15 5 16 4 17 3 18 2 19 1 20
REMARK H PARENT
REMARK Flexibility Score: inf
ROOT
ATOM      1  C   UNL     1       6.304  -1.020  20.296  1.00  0.00     0.000 C 
ENDROOT
BRANCH   1   2
ATOM      2  C   UNL     1       5.597   0.317  20.001  1.00  0.00     0.000 C 
BRANCH   2   3
ATOM      3  C   UNL     1       4.774   0.348  18.702  1.00  0.00     0.000 C 
BRANCH   3   4
ATOM      4  C   UNL     1       3.424   1.063  18.866  1.00  0.00     0.000 C 
BRANCH   4   5
ATOM      5  C   UNL     1       2.500   0.774  17.677  1.00  0.00     0.000 C 
BRANCH   5   6
ATOM      6  C   UNL     1       1.096   0.375  18.158  1.00  0.00     0.000 C 
BRANCH   6   7
ATOM      7  C   UNL     1       1.128  -0.488  19.429  1.00  0.00     0.006 C 
BRANCH   7   8
ATOM      8  C   UNL     1       1.593  -1.925  19.158  1.00  0.00     0.053 C 
BRANCH   8   9
ATOM      9  C   UNL     1       2.755  -2.272  20.034  1.00  0.00     0.041 C 
ATOM     10  O   UNL     1       2.904  -1.698  21.146  1.00  0.00    -0.550 OA
ATOM     11  O   UNL     1       3.698  -3.198  19.606  1.00  0.00    -0.550 OA
ENDBRANCH   8   9
ENDBRANCH   7   8
ENDBRANCH   6   7
ENDBRANCH   5   6
ENDBRANCH   4   5
ENDBRANCH   3   4
ENDBRANCH   2   3
ENDBRANCH   1   2
BRANCH   1  12
ATOM     12  C   UNL     1       6.096  -1.566  21.720  1.00  0.00     0.000 C 
BRANCH  12  13
ATOM     13  C   UNL     1       6.486  -3.046  21.854  1.00  0.00    -0.000 C 
BRANCH  13  14
ATOM     14  C   UNL     1       7.318  -3.506  20.653  1.00  0.00    -0.000 C 
BRANCH  14  15
ATOM     15  C   UNL     1       6.760  -4.810  20.063  1.00  0.00    -0.000 C 
BRANCH  15  16
ATOM     16  C   UNL     1       6.471  -5.875  21.136  1.00  0.00    -0.000 C 
BRANCH  16  17
ATOM     17  C   UNL     1       7.661  -6.796  21.473  1.00  0.00    -0.000 C 
BRANCH  17  18
ATOM     18  C   UNL     1       7.440  -8.291  21.163  1.00  0.00    -0.000 C 
BRANCH  18  19
ATOM     19  C   UNL     1       6.676  -9.069  22.249  1.00  0.00    -0.003 C 
ATOM     20  C   UNL     1       7.082  -8.667  23.666  1.00  0.00     0.004 C 
ENDBRANCH  18  19
ENDBRANCH  17  18
ENDBRANCH  16  17
ENDBRANCH  15  16
ENDBRANCH  14  15
ENDBRANCH  13  14
ENDBRANCH  12  13
ENDBRANCH   1  12
TORSDOF 16
ENDMDL
MODEL 7
REMARK VINA RESULT:    -7.004      5.045     11.053
REMARK INTER + INTRA:         -14.453
REMARK INTER:                 -13.698
REMARK INTRA:                  -0.756
REMARK UNBOUND:                -0.898
REMARK SMILES CCCCCCCCCCCCCCCCCC(=O)[O-]
REMARK SMILES IDX 10 1 11 2 12 3 13 4 14 5 15 6 16 7 17 8 18 9 19 10 20 11
REMARK SMILES IDX 9 12 8 13 7 14 6 15 5 16 4 17 3 18 2 19 1 20
REMARK H PARENT
REMARK Flexibility Score: inf
ROOT
ATOM      1  C   UNL     1       3.111  -1.364  20.285  1.00  0.00     0.000 C 
ENDROOT
BRANCH   1   2
ATOM      2  C   UNL     1       4.493  -1.316  19.603  1.00  0.00     0.000 C 
BRANCH   2   3
ATOM      3  C   UNL     1       5.695  -1.407  20.559  1.00  0.00     0.000 C 
BRANCH   3   4
ATOM      4  C   UNL     1       5.347  -2.082  21.894  1.00  0.00     0.000 C 
BRANCH   4   5
ATOM      5  C   UNL     1       5.441  -3.608  21.780  1.00  0.00     0.000 C 
BRANCH   5   6
ATOM      6  C   UNL     1       6.818  -4.035  21.248  1.00  0.00     0.000 C 
BRANCH   6   7
ATOM      7  C   UNL     1       6.817  -5.462  20.677  1.00  0.00     0.006 C 
BRANCH   7   8
ATOM      8  C   UNL     1       7.775  -6.399  21.424  1.00  0.00     0.053 C 
BRANCH   8   9
ATOM      9  C   UNL     1       7.186  -7.770  21.529  1.00  0.00     0.041 C 
ATOM     10  O   UNL     1       7.584  -8.692  20.768  1.00  0.00    -0.550 OA
ATOM     11  O   UNL     1       6.166  -8.022  22.438  1.00  0.00    -0.550 OA
ENDBRANCH   8   9
ENDBRANCH   7   8
ENDBRANCH   6   7
ENDBRANCH   5   6
ENDBRANCH   4   5
ENDBRANCH   3   4
ENDBRANCH   2   3
ENDBRANCH   1   2
BRANCH   1  12
ATOM     12  C   UNL     1       2.037  -0.470  19.640  1.00  0.00     0.000 C 
BRANCH  12  13
ATOM     13  C   UNL     1       2.624   0.557  18.660  1.00  0.00    -0.000 C 
BRANCH  13  14
ATOM     14  C   UNL     1       1.788   0.632  17.377  1.00  0.00    -0.000 C 
BRANCH  14  15
ATOM     15  C   UNL     1       0.877   1.868  17.386  1.00  0.00    -0.000 C 
BRANCH  15  16
ATOM     16  C   UNL     1       1.619   3.155  17.786  1.00  0.00    -0.000 C 
BRANCH  16  17
ATOM     17  C   UNL     1       1.036   4.453  17.191  1.00  0.00    -0.000 C 
BRANCH  17  18
ATOM     18  C   UNL     1       1.749   5.750  17.625  1.00  0.00    -0.000 C 
BRANCH  18  19
ATOM     19  C   UNL     1       2.419   6.532  16.482  1.00  0.00    -0.003 C 
ATOM     20  C   UNL     1       2.056   8.016  16.484  1.00  0.00     0.004 C 
ENDBRANCH  18  19
ENDBRANCH  17  18
ENDBRANCH  16  17
ENDBRANCH  15  16
ENDBRANCH  14  15
ENDBRANCH  13  14
ENDBRANCH  12  13
ENDBRANCH   1  12
TORSDOF 16
ENDMDL
MODEL 8
REMARK VINA RESULT:    -6.629      5.640      9.849
REMARK INTER + INTRA:         -13.727
REMARK INTER:                 -12.850
REMARK INTRA:                  -0.877
REMARK UNBOUND:                -0.898
REMARK SMILES CCCCCCCCCCCCCCCCCC(=O)[O-]
REMARK SMILES IDX 10 1 11 2 12 3 13 4 14 5 15 6 16 7 17 8 18 9 19 10 20 11
REMARK SMILES IDX 9 12 8 13 7 14 6 15 5 16 4 17 3 18 2 19 1 20
REMARK H PARENT
REMARK Flexibility Score: inf
ROOT
ATOM      1  C   UNL     1       5.426  -1.307  21.055  1.00  0.00     0.000 C 
ENDROOT
BRANCH   1   2
ATOM      2  C   UNL     1       6.129  -2.263  22.038  1.00  0.00     0.000 C 
BRANCH   2   3
ATOM      3  C   UNL     1       5.825  -3.756  21.828  1.00  0.00     0.000 C 
BRANCH   3   4
ATOM      4  C   UNL     1       6.347  -4.288  20.484  1.00  0.00     0.000 C 
BRANCH   4   5
ATOM      5  C   UNL     1       7.827  -4.675  20.582  1.00  0.00     0.000 C 
BRANCH   5   6
ATOM      6  C   UNL     1       8.010  -5.923  21.459  1.00  0.00     0.000 C 
BRANCH   6   7
ATOM      7  C   UNL     1       6.958  -7.007  21.176  1.00  0.00     0.006 C 
BRANCH   7   8
ATOM      8  C   UNL     1       7.518  -8.428  21.322  1.00  0.00     0.053 C 
BRANCH   8   9
ATOM      9  C   UNL     1       6.978  -9.077  22.557  1.00  0.00     0.041 C 
ATOM     10  O   UNL     1       6.191 -10.056  22.467  1.00  0.00    -0.550 OA
ATOM     11  O   UNL     1       7.309  -8.573  23.809  1.00  0.00    -0.550 OA
ENDBRANCH   8   9
ENDBRANCH   7   8
ENDBRANCH   6   7
ENDBRANCH   5   6
ENDBRANCH   4   5
ENDBRANCH   3   4
ENDBRANCH   2   3
ENDBRANCH   1   2
BRANCH   1  12
ATOM     12  C   UNL     1       6.270  -0.104  20.600  1.00  0.00     0.000 C 
BRANCH  12  13
ATOM     13  C   UNL     1       5.593   0.716  19.492  1.00  0.00    -0.000 C 
BRANCH  13  14
ATOM     14  C   UNL     1       4.171   0.211  19.225  1.00  0.00    -0.000 C 
BRANCH  14  15
ATOM     15  C   UNL     1       3.272   1.344  18.710  1.00  0.00    -0.000 C 
BRANCH  15  16
ATOM     16  C   UNL     1       2.031   0.827  17.960  1.00  0.00    -0.000 C 
BRANCH  16  17
ATOM     17  C   UNL     1       0.966   0.157  18.851  1.00  0.00    -0.000 C 
BRANCH  17  18
ATOM     18  C   UNL     1       1.059  -1.380  18.941  1.00  0.00    -0.000 C 
BRANCH  18  19
ATOM     19  C   UNL     1       2.021  -1.906  20.021  1.00  0.00    -0.003 C 
ATOM     20  C   UNL     1       2.900  -3.053  19.526  1.00  0.00     0.004 C 
ENDBRANCH  18  19
ENDBRANCH  17  18
ENDBRANCH  16  17
ENDBRANCH  15  16
ENDBRANCH  14  15
ENDBRANCH  13  14
ENDBRANCH  12  13
ENDBRANCH   1  12
TORSDOF 16
ENDMDL
MODEL 9
REMARK VINA RESULT:    -6.576      4.236     10.186
REMARK INTER + INTRA:         -13.625
REMARK INTER:                 -12.472
REMARK INTRA:                  -1.153
REMARK UNBOUND:                -0.898
REMARK SMILES CCCCCCCCCCCCCCCCCC(=O)[O-]
REMARK SMILES IDX 10 1 11 2 12 3 13 4 14 5 15 6 16 7 17 8 18 9 19 10 20 11
REMARK SMILES IDX 9 12 8 13 7 14 6 15 5 16 4 17 3 18 2 19 1 20
REMARK H PARENT
REMARK Flexibility Score: inf
ROOT
ATOM      1  C   UNL     1       3.675  -0.106  19.267  1.00  0.00     0.000 C 
ENDROOT
BRANCH   1   2
ATOM      2  C   UNL     1       3.267  -1.540  18.877  1.00  0.00     0.000 C 
BRANCH   2   3
ATOM      3  C   UNL     1       3.181  -2.535  20.047  1.00  0.00     0.000 C 
BRANCH   3   4
ATOM      4  C   UNL     1       3.038  -1.843  21.411  1.00  0.00     0.000 C 
BRANCH   4   5
ATOM      5  C   UNL     1       4.135  -2.302  22.379  1.00  0.00     0.000 C 
BRANCH   5   6
ATOM      6  C   UNL     1       5.522  -1.870  21.881  1.00  0.00     0.000 C 
BRANCH   6   7
ATOM      7  C   UNL     1       6.531  -3.029  21.855  1.00  0.00     0.006 C 
BRANCH   7   8
ATOM      8  C   UNL     1       6.076  -4.191  20.963  1.00  0.00     0.053 C 
BRANCH   8   9
ATOM      9  C   UNL     1       7.028  -4.378  19.824  1.00  0.00     0.041 C 
ATOM     10  O   UNL     1       6.619  -4.832  18.723  1.00  0.00    -0.550 OA
ATOM     11  O   UNL     1       8.378  -4.093  19.992  1.00  0.00    -0.550 OA
ENDBRANCH   8   9
ENDBRANCH   7   8
ENDBRANCH   6   7
ENDBRANCH   5   6
ENDBRANCH   4   5
ENDBRANCH   3   4
ENDBRANCH   2   3
ENDBRANCH   1   2
BRANCH   1  12
ATOM     12  C   UNL     1       2.687   0.992  18.836  1.00  0.00     0.000 C 
BRANCH  12  13
ATOM     13  C   UNL     1       1.659   0.499  17.807  1.00  0.00    -0.000 C 
BRANCH  13  14
ATOM     14  C   UNL     1       0.879   1.673  17.204  1.00  0.00    -0.000 C 
BRANCH  14  15
ATOM     15  C   UNL     1       0.936   2.902  18.123  1.00  0.00    -0.000 C 
BRANCH  15  16
ATOM     16  C   UNL     1       0.921   4.230  17.345  1.00  0.00    -0.000 C 
BRANCH  16  17
ATOM     17  C   UNL     1       1.632   5.404  18.049  1.00  0.00    -0.000 C 
BRANCH  17  18
ATOM     18  C   UNL     1       2.728   6.099  17.218  1.00  0.00    -0.000 C 
BRANCH  18  19
ATOM     19  C   UNL     1       2.241   6.716  15.894  1.00  0.00    -0.003 C 
ATOM     20  C   UNL     1       1.967   8.215  16.002  1.00  0.00     0.004 C 
ENDBRANCH  18  19
ENDBRANCH  17  18
ENDBRANCH  16  17
ENDBRANCH  15  16
ENDBRANCH  14  15
ENDBRANCH  13  14
ENDBRANCH  12  13
ENDBRANCH   1  12
TORSDOF 16
ENDMDL
