MODEL 1
REMARK VINA RESULT:    -5.266      0.000      0.000
REMARK INTER + INTRA:          -5.266
REMARK INTER:                  -5.266
REMARK INTRA:                   0.000
REMARK UNBOUND:                 0.000
REMARK SMILES C=C1CC[C@H]2C[C@@H]1C2(C)C
REMARK SMILES IDX 9 1 8 2 5 3 4 4 3 5 2 6 1 7 7 8 6 9 10 10
REMARK H PARENT
REMARK Flexibility Score: inf
ROOT
ATOM      1  C   UNL     1      10.374  32.448  26.130  1.00  0.00     0.012 C 
ATOM      2  C   UNL     1       9.928  32.773  24.684  1.00  0.00    -0.026 C 
ATOM      3  C   UNL     1       9.226  34.152  24.589  1.00  0.00    -0.004 C 
ATOM      4  C   UNL     1       9.150  34.643  23.108  1.00  0.00     0.008 C 
ATOM      5  C   UNL     1       8.539  33.556  22.142  1.00  0.00     0.031 C 
ATOM      6  C   UNL     1       8.319  32.208  22.845  1.00  0.00    -0.074 C 
ATOM      7  C   UNL     1       7.942  31.121  22.163  1.00  0.00     0.008 C 
ATOM      8  C   UNL     1       8.543  32.166  24.353  1.00  0.00     0.021 C 
ATOM      9  C   UNL     1       7.891  33.450  24.888  1.00  0.00     0.012 C 
ATOM     10  C   UNL     1      11.113  32.472  23.727  1.00  0.00     0.012 C 
ENDROOT
TORSDOF 0
ENDMDL
MODEL 2
REMARK VINA RESULT:    -5.253      1.114      3.284
REMARK INTER + INTRA:          -5.253
REMARK INTER:                  -5.253
REMARK INTRA:                   0.000
REMARK UNBOUND:                 0.000
REMARK SMILES C=C1CC[C@H]2C[C@@H]1C2(C)C
REMARK SMILES IDX 9 1 8 2 5 3 4 4 3 5 2 6 1 7 7 8 6 9 10 10
REMARK H PARENT
REMARK Flexibility Score: inf
ROOT
ATOM      1  C   UNL     1      10.118  31.043  21.581  1.00  0.00     0.012 C 
ATOM      2  C   UNL     1       9.749  32.106  22.645  1.00  0.00    -0.026 C 
ATOM      3  C   UNL     1      10.061  33.545  22.160  1.00  0.00    -0.004 C 
ATOM      4  C   UNL     1       9.328  34.606  23.042  1.00  0.00     0.008 C 
ATOM      5  C   UNL     1       9.581  34.390  24.583  1.00  0.00     0.031 C 
ATOM      6  C   UNL     1      10.347  33.090  24.872  1.00  0.00    -0.074 C 
ATOM      7  C   UNL     1      10.537  32.657  26.123  1.00  0.00     0.008 C 
ATOM      8  C   UNL     1      10.886  32.319  23.672  1.00  0.00     0.021 C 
ATOM      9  C   UNL     1      11.476  33.393  22.742  1.00  0.00     0.012 C 
ATOM     10  C   UNL     1       8.324  31.791  23.177  1.00  0.00     0.012 C 
ENDROOT
TORSDOF 0
ENDMDL
MODEL 3
REMARK VINA RESULT:    -5.204      0.989      3.166
REMARK INTER + INTRA:          -5.204
REMARK INTER:                  -5.204
REMARK INTRA:                   0.000
REMARK UNBOUND:                 0.000
REMARK SMILES C=C1CC[C@H]2C[C@@H]1C2(C)C
REMARK SMILES IDX 9 1 8 2 5 3 4 4 3 5 2 6 1 7 7 8 6 9 10 10
REMARK H PARENT
REMARK Flexibility Score: inf
ROOT
ATOM      1  C   UNL     1       7.159  33.504  22.392  1.00  0.00     0.012 C 
ATOM      2  C   UNL     1       8.350  32.975  23.228  1.00  0.00    -0.026 C 
ATOM      3  C   UNL     1       8.364  33.570  24.660  1.00  0.00    -0.004 C 
ATOM      4  C   UNL     1       9.297  32.745  25.602  1.00  0.00     0.008 C 
ATOM      5  C   UNL     1      10.736  32.532  24.994  1.00  0.00     0.031 C 
ATOM      6  C   UNL     1      10.837  33.035  23.545  1.00  0.00    -0.074 C 
ATOM      7  C   UNL     1      11.931  32.818  22.807  1.00  0.00     0.008 C 
ATOM      8  C   UNL     1       9.639  33.798  22.989  1.00  0.00     0.021 C 
ATOM      9  C   UNL     1       9.206  34.740  24.123  1.00  0.00     0.012 C 
ATOM     10  C   UNL     1       8.418  31.432  23.062  1.00  0.00     0.012 C 
ENDROOT
TORSDOF 0
ENDMDL
MODEL 4
REMARK VINA RESULT:    -5.124      1.327      2.309
REMARK INTER + INTRA:          -5.124
REMARK INTER:                  -5.124
REMARK INTRA:                   0.000
REMARK UNBOUND:                 0.000
REMARK SMILES C=C1CC[C@H]2C[C@@H]1C2(C)C
REMARK SMILES IDX 9 1 8 2 5 3 4 4 3 5 2 6 1 7 7 8 6 9 10 10
REMARK H PARENT
REMARK Flexibility Score: inf
ROOT
ATOM      1  C   UNL     1      11.873  33.122  22.728  1.00  0.00     0.012 C 
ATOM      2  C   UNL     1      10.340  32.907  22.699  1.00  0.00    -0.026 C 
ATOM      3  C   UNL     1       9.585  34.175  22.224  1.00  0.00    -0.004 C 
ATOM      4  C   UNL     1       8.117  33.834  21.813  1.00  0.00     0.008 C 
ATOM      5  C   UNL     1       7.351  33.023  22.927  1.00  0.00     0.031 C 
ATOM      6  C   UNL     1       8.272  32.608  24.085  1.00  0.00    -0.074 C 
ATOM      7  C   UNL     1       7.845  31.795  25.057  1.00  0.00     0.008 C 
ATOM      8  C   UNL     1       9.691  33.168  24.079  1.00  0.00     0.021 C 
ATOM      9  C   UNL     1       9.534  34.646  23.686  1.00  0.00     0.012 C 
ATOM     10  C   UNL     1      10.049  31.557  21.990  1.00  0.00     0.012 C 
ENDROOT
TORSDOF 0
ENDMDL
MODEL 5
REMARK VINA RESULT:    -5.023      1.330      2.531
REMARK INTER + INTRA:          -5.023
REMARK INTER:                  -5.023
REMARK INTRA:                   0.000
REMARK UNBOUND:                 0.000
REMARK SMILES C=C1CC[C@H]2C[C@@H]1C2(C)C
REMARK SMILES IDX 9 1 8 2 5 3 4 4 3 5 2 6 1 7 7 8 6 9 10 10
REMARK H PARENT
REMARK Flexibility Score: inf
ROOT
ATOM      1  C   UNL     1       7.765  32.784  25.215  1.00  0.00     0.012 C 
ATOM      2  C   UNL     1       8.649  33.329  24.067  1.00  0.00    -0.026 C 
ATOM      3  C   UNL     1       7.893  33.354  22.714  1.00  0.00    -0.004 C 
ATOM      4  C   UNL     1       8.628  34.261  21.676  1.00  0.00     0.008 C 
ATOM      5  C   UNL     1      10.157  33.904  21.537  1.00  0.00     0.031 C 
ATOM      6  C   UNL     1      10.610  32.865  22.575  1.00  0.00    -0.074 C 
ATOM      7  C   UNL     1      11.899  32.535  22.713  1.00  0.00     0.008 C 
ATOM      8  C   UNL     1       9.526  32.222  23.434  1.00  0.00     0.021 C 
ATOM      9  C   UNL     1       8.376  31.917  22.461  1.00  0.00     0.012 C 
ATOM     10  C   UNL     1       9.342  34.629  24.558  1.00  0.00     0.012 C 
ENDROOT
TORSDOF 0
ENDMDL
MODEL 6
REMARK VINA RESULT:    -4.953      1.302      3.567
REMARK INTER + INTRA:          -4.953
REMARK INTER:                  -4.953
REMARK INTRA:                   0.000
REMARK UNBOUND:                 0.000
REMARK SMILES C=C1CC[C@H]2C[C@@H]1C2(C)C
REMARK SMILES IDX 9 1 8 2 5 3 4 4 3 5 2 6 1 7 7 8 6 9 10 10
REMARK H PARENT
REMARK Flexibility Score: inf
ROOT
ATOM      1  C   UNL     1       6.498  33.125  21.281  1.00  0.00     0.012 C 
ATOM      2  C   UNL     1       7.906  33.200  21.920  1.00  0.00    -0.026 C 
ATOM      3  C   UNL     1       8.525  31.794  22.125  1.00  0.00    -0.004 C 
ATOM      4  C   UNL     1      10.064  31.890  22.379  1.00  0.00     0.008 C 
ATOM      5  C   UNL     1      10.425  32.912  23.525  1.00  0.00     0.031 C 
ATOM      6  C   UNL     1       9.199  33.702  24.008  1.00  0.00    -0.074 C 
ATOM      7  C   UNL     1       9.322  34.715  24.874  1.00  0.00     0.008 C 
ATOM      8  C   UNL     1       7.839  33.279  23.464  1.00  0.00     0.021 C 
ATOM      9  C   UNL     1       7.855  31.742  23.507  1.00  0.00     0.012 C 
ATOM     10  C   UNL     1       8.731  34.275  21.162  1.00  0.00     0.012 C 
ENDROOT
TORSDOF 0
ENDMDL
MODEL 7
REMARK VINA RESULT:    -4.943      1.060      2.558
REMARK INTER + INTRA:          -4.943
REMARK INTER:                  -4.943
REMARK INTRA:                   0.000
REMARK UNBOUND:                 0.000
REMARK SMILES C=C1CC[C@H]2C[C@@H]1C2(C)C
REMARK SMILES IDX 9 1 8 2 5 3 4 4 3 5 2 6 1 7 7 8 6 9 10 10
REMARK H PARENT
REMARK Flexibility Score: inf
ROOT
ATOM      1  C   UNL     1       7.412  33.086  25.021  1.00  0.00     0.012 C 
ATOM      2  C   UNL     1       8.498  32.951  23.925  1.00  0.00    -0.026 C 
ATOM      3  C   UNL     1       9.908  33.310  24.459  1.00  0.00    -0.004 C 
ATOM      4  C   UNL     1      11.023  32.790  23.496  1.00  0.00     0.008 C 
ATOM      5  C   UNL     1      10.783  33.231  22.001  1.00  0.00     0.031 C 
ATOM      6  C   UNL     1       9.424  33.922  21.807  1.00  0.00    -0.074 C 
ATOM      7  C   UNL     1       8.974  34.243  20.590  1.00  0.00     0.008 C 
ATOM      8  C   UNL     1       8.616  34.230  23.063  1.00  0.00     0.021 C 
ATOM      9  C   UNL     1       9.641  34.773  24.072  1.00  0.00     0.012 C 
ATOM     10  C   UNL     1       8.298  31.591  23.203  1.00  0.00     0.012 C 
ENDROOT
TORSDOF 0
ENDMDL
MODEL 8
REMARK VINA RESULT:    -4.772      1.351      3.348
REMARK INTER + INTRA:          -4.772
REMARK INTER:                  -4.772
REMARK INTRA:                   0.000
REMARK UNBOUND:                 0.000
REMARK SMILES C=C1CC[C@H]2C[C@@H]1C2(C)C
REMARK SMILES IDX 9 1 8 2 5 3 4 4 3 5 2 6 1 7 7 8 6 9 10 10
REMARK H PARENT
REMARK Flexibility Score: inf
ROOT
ATOM      1  C   UNL     1      11.309  33.495  20.788  1.00  0.00     0.012 C 
ATOM      2  C   UNL     1      10.461  33.072  22.012  1.00  0.00    -0.026 C 
ATOM      3  C   UNL     1       9.100  32.460  21.593  1.00  0.00    -0.004 C 
ATOM      4  C   UNL     1       8.446  31.680  22.778  1.00  0.00     0.008 C 
ATOM      5  C   UNL     1       8.371  32.539  24.098  1.00  0.00     0.031 C 
ATOM      6  C   UNL     1       9.111  33.880  23.965  1.00  0.00    -0.074 C 
ATOM      7  C   UNL     1       9.283  34.687  25.017  1.00  0.00     0.008 C 
ATOM      8  C   UNL     1       9.634  34.250  22.581  1.00  0.00     0.021 C 
ATOM      9  C   UNL     1       8.501  33.875  21.613  1.00  0.00     0.012 C 
ATOM     10  C   UNL     1      11.371  32.272  22.984  1.00  0.00     0.012 C 
ENDROOT
TORSDOF 0
ENDMDL
MODEL 9
REMARK VINA RESULT:    -4.519      1.335      2.668
REMARK INTER + INTRA:          -4.519
REMARK INTER:                  -4.519
REMARK INTRA:                   0.000
REMARK UNBOUND:                 0.000
REMARK SMILES C=C1CC[C@H]2C[C@@H]1C2(C)C
REMARK SMILES IDX 9 1 8 2 5 3 4 4 3 5 2 6 1 7 7 8 6 9 10 10
REMARK H PARENT
REMARK Flexibility Score: inf
ROOT
ATOM      1  C   UNL     1       9.532  34.635  24.663  1.00  0.00     0.012 C 
ATOM      2  C   UNL     1       8.995  33.507  23.749  1.00  0.00    -0.026 C 
ATOM      3  C   UNL     1      10.122  32.860  22.903  1.00  0.00    -0.004 C 
ATOM      4  C   UNL     1       9.661  31.491  22.307  1.00  0.00     0.008 C 
ATOM      5  C   UNL     1       8.283  31.595  21.548  1.00  0.00     0.031 C 
ATOM      6  C   UNL     1       7.628  32.975  21.715  1.00  0.00    -0.074 C 
ATOM      7  C   UNL     1       6.391  33.217  21.266  1.00  0.00     0.008 C 
ATOM      8  C   UNL     1       8.451  34.056  22.408  1.00  0.00     0.021 C 
ATOM      9  C   UNL     1       9.864  33.919  21.819  1.00  0.00     0.012 C 
ATOM     10  C   UNL     1       8.076  32.585  24.596  1.00  0.00     0.012 C 
ENDROOT
TORSDOF 0
ENDMDL
