MODEL 1
REMARK VINA RESULT:    -6.643      0.000      0.000
REMARK INTER + INTRA:          -7.505
REMARK INTER:                  -7.226
REMARK INTRA:                  -0.279
REMARK UNBOUND:                -0.279
REMARK SMILES C[C@@H]1[C@H](C)CC[C@@]2(C(=O)[O-])CC[C@@]3(C)C(=CC[C@H]4[C@@]5(C)CC[C@@H](O)C(C)(C)[C@H]5CC[C@]43C)[C@@H]12
REMARK SMILES IDX 7 1 6 2 11 3 33 4 5 5 12 6 15 7 2 8 3 9 13 10 16 11 1 12
REMARK SMILES IDX 4 13 14 14 31 15 17 16 18 17 30 18 32 19 19 20 29 21 28 22
REMARK SMILES IDX 21 23 20 24 25 25 22 26 23 27 26 28 27 29 8 30 9 31 10 32
REMARK SMILES IDX 24 33
REMARK H PARENT 24 34
REMARK Flexibility Score: inf
ROOT
ATOM      1  C   UNL     1      10.933  15.678  12.312  1.00  0.00     0.017 C 
ATOM      2  C   UNL     1       9.639  15.209  13.023  1.00  0.00     0.014 C 
ATOM      3  C   UNL     1      10.758  17.188  12.025  1.00  0.00     0.014 C 
ATOM      4  C   UNL     1      12.279  15.420  13.150  1.00  0.00     0.030 C 
ATOM      5  C   UNL     1       9.637  15.553  14.505  1.00  0.00     0.004 C 
ATOM      6  C   UNL     1      11.922  17.743  11.224  1.00  0.00     0.013 C 
ATOM      7  C   UNL     1      13.382  16.524  12.947  1.00  0.00    -0.063 C 
ATOM      8  C   UNL     1      12.122  14.958  14.674  1.00  0.00    -0.003 C 
ATOM      9  C   UNL     1      10.673  14.705  15.226  1.00  0.00    -0.011 C 
ATOM     10  C   UNL     1      13.261  17.749  12.018  1.00  0.00    -0.006 C 
ATOM     11  C   UNL     1      14.569  16.401  13.574  1.00  0.00    -0.027 C 
ATOM     12  C   UNL     1      13.027  13.729  15.017  1.00  0.00     0.008 C 
ATOM     13  C   UNL     1      10.220  13.219  15.271  1.00  0.00     0.008 C 
ATOM     14  C   UNL     1      13.215  19.005  12.950  1.00  0.00     0.017 C 
ATOM     15  C   UNL     1      14.522  17.809  11.016  1.00  0.00    -0.020 C 
ATOM     16  C   UNL     1      15.882  16.815  12.973  1.00  0.00     0.032 C 
ATOM     17  C   UNL     1      15.869  17.885  11.833  1.00  0.00     0.006 C 
ATOM     18  C   UNL     1      14.555  16.527  10.107  1.00  0.00     0.008 C 
ATOM     19  C   UNL     1      14.382  19.074  10.099  1.00  0.00     0.012 C 
ATOM     20  C   UNL     1      17.217  17.897  10.932  1.00  0.00    -0.025 C 
ATOM     21  C   UNL     1      15.952  15.947   9.781  1.00  0.00     0.005 C 
ATOM     22  C   UNL     1      17.040  17.034   9.594  1.00  0.00     0.003 C 
ATOM     23  C   UNL     1      18.451  17.412  11.783  1.00  0.00     0.010 C 
ATOM     24  C   UNL     1      17.530  19.387  10.560  1.00  0.00     0.012 C 
ATOM     25  C   UNL     1      18.381  16.513   8.890  1.00  0.00    -0.006 C 
ATOM     26  C   UNL     1      19.719  17.118  10.983  1.00  0.00     0.033 C 
ATOM     27  C   UNL     1      19.447  16.047   9.921  1.00  0.00     0.120 C 
ATOM     28  C   UNL     1      18.121  15.332   7.905  1.00  0.00     0.014 C 
ATOM     29  C   UNL     1      18.985  17.632   7.992  1.00  0.00     0.014 C 
ENDROOT
BRANCH   1  30
ATOM     30  C   UNL     1      10.938  14.928  10.969  1.00  0.00     0.048 C 
ATOM     31  O   UNL     1      11.953  14.303  10.563  1.00  0.00    -0.550 OA
ATOM     32  O   UNL     1       9.758  14.813  10.235  1.00  0.00    -0.550 OA
ENDBRANCH   1  30
BRANCH  27  33
ATOM     33  O   UNL     1      19.038  14.850  10.540  1.00  0.00    -0.393 OA
ATOM     34  H   UNL     1      19.643  14.135  10.211  1.00  0.00     0.210 HD
ENDBRANCH  27  33
TORSDOF 2
ENDMDL
MODEL 2
REMARK VINA RESULT:    -5.496     18.705     20.944
REMARK INTER + INTRA:          -6.257
REMARK INTER:                  -5.967
REMARK INTRA:                  -0.290
REMARK UNBOUND:                -0.279
REMARK SMILES C[C@@H]1[C@H](C)CC[C@@]2(C(=O)[O-])CC[C@@]3(C)C(=CC[C@H]4[C@@]5(C)CC[C@@H](O)C(C)(C)[C@H]5CC[C@]43C)[C@@H]12
REMARK SMILES IDX 7 1 6 2 11 3 33 4 5 5 12 6 15 7 2 8 3 9 13 10 16 11 1 12
REMARK SMILES IDX 4 13 14 14 31 15 17 16 18 17 30 18 32 19 19 20 29 21 28 22
REMARK SMILES IDX 21 23 20 24 25 25 22 26 23 27 26 28 27 29 8 30 9 31 10 32
REMARK SMILES IDX 24 33
REMARK H PARENT 24 34
REMARK Flexibility Score: inf
ROOT
ATOM      1  C   UNL     1       4.724   2.771  24.817  1.00  0.00     0.017 C 
ATOM      2  C   UNL     1       3.184   2.615  24.750  1.00  0.00     0.014 C 
ATOM      3  C   UNL     1       5.015   4.291  24.804  1.00  0.00     0.014 C 
ATOM      4  C   UNL     1       5.404   2.082  26.099  1.00  0.00     0.030 C 
ATOM      5  C   UNL     1       2.523   2.815  26.105  1.00  0.00     0.004 C 
ATOM      6  C   UNL     1       6.505   4.574  24.753  1.00  0.00     0.013 C 
ATOM      7  C   UNL     1       6.657   2.855  26.653  1.00  0.00    -0.063 C 
ATOM      8  C   UNL     1       4.430   1.549  27.252  1.00  0.00    -0.003 C 
ATOM      9  C   UNL     1       2.880   1.655  27.022  1.00  0.00    -0.011 C 
ATOM     10  C   UNL     1       7.253   4.143  26.049  1.00  0.00    -0.006 C 
ATOM     11  C   UNL     1       7.333   2.357  27.708  1.00  0.00    -0.027 C 
ATOM     12  C   UNL     1       4.786   0.094  27.703  1.00  0.00     0.008 C 
ATOM     13  C   UNL     1       2.180   0.352  26.545  1.00  0.00     0.008 C 
ATOM     14  C   UNL     1       7.005   5.277  27.098  1.00  0.00     0.017 C 
ATOM     15  C   UNL     1       8.827   3.943  25.764  1.00  0.00    -0.020 C 
ATOM     16  C   UNL     1       8.823   2.446  27.868  1.00  0.00     0.032 C 
ATOM     17  C   UNL     1       9.584   3.575  27.098  1.00  0.00     0.006 C 
ATOM     18  C   UNL     1       9.048   2.786  24.723  1.00  0.00     0.008 C 
ATOM     19  C   UNL     1       9.408   5.273  25.170  1.00  0.00     0.012 C 
ATOM     20  C   UNL     1      11.172   3.296  26.930  1.00  0.00    -0.025 C 
ATOM     21  C   UNL     1      10.278   1.876  24.952  1.00  0.00     0.005 C 
ATOM     22  C   UNL     1      11.508   2.635  25.509  1.00  0.00     0.003 C 
ATOM     23  C   UNL     1      11.705   2.419  28.125  1.00  0.00     0.010 C 
ATOM     24  C   UNL     1      11.915   4.669  27.061  1.00  0.00     0.012 C 
ATOM     25  C   UNL     1      12.888   1.831  25.398  1.00  0.00    -0.006 C 
ATOM     26  C   UNL     1      13.116   1.859  27.944  1.00  0.00     0.033 C 
ATOM     27  C   UNL     1      13.194   1.002  26.677  1.00  0.00     0.120 C 
ATOM     28  C   UNL     1      12.917   0.857  24.180  1.00  0.00     0.014 C 
ATOM     29  C   UNL     1      14.063   2.816  25.126  1.00  0.00     0.014 C 
ENDROOT
BRANCH   1  30
ATOM     30  C   UNL     1       5.239   2.170  23.498  1.00  0.00     0.048 C 
ATOM     31  O   UNL     1       6.153   1.304  23.478  1.00  0.00    -0.550 OA
ATOM     32  O   UNL     1       4.597   2.477  22.299  1.00  0.00    -0.550 OA
ENDBRANCH   1  30
BRANCH  27  33
ATOM     33  O   UNL     1      12.307  -0.087  26.778  1.00  0.00    -0.393 OA
ATOM     34  H   UNL     1      11.413   0.243  26.504  1.00  0.00     0.210 HD
ENDBRANCH  27  33
TORSDOF 2
ENDMDL
MODEL 3
REMARK VINA RESULT:    -5.419      2.228      7.599
REMARK INTER + INTRA:          -6.174
REMARK INTER:                  -5.864
REMARK INTRA:                  -0.309
REMARK UNBOUND:                -0.279
REMARK SMILES C[C@@H]1[C@H](C)CC[C@@]2(C(=O)[O-])CC[C@@]3(C)C(=CC[C@H]4[C@@]5(C)CC[C@@H](O)C(C)(C)[C@H]5CC[C@]43C)[C@@H]12
REMARK SMILES IDX 7 1 6 2 11 3 33 4 5 5 12 6 15 7 2 8 3 9 13 10 16 11 1 12
REMARK SMILES IDX 4 13 14 14 31 15 17 16 18 17 30 18 32 19 19 20 29 21 28 22
REMARK SMILES IDX 21 23 20 24 25 25 22 26 23 27 26 28 27 29 8 30 9 31 10 32
REMARK SMILES IDX 24 33
REMARK H PARENT 24 34
REMARK Flexibility Score: inf
ROOT
ATOM      1  C   UNL     1      16.381  16.407  10.257  1.00  0.00     0.017 C 
ATOM      2  C   UNL     1      17.880  16.457   9.871  1.00  0.00     0.014 C 
ATOM      3  C   UNL     1      16.126  15.003  10.856  1.00  0.00     0.014 C 
ATOM      4  C   UNL     1      15.924  17.548  11.290  1.00  0.00     0.030 C 
ATOM      5  C   UNL     1      18.776  16.740  11.068  1.00  0.00     0.004 C 
ATOM      6  C   UNL     1      14.657  14.789  11.172  1.00  0.00     0.013 C 
ATOM      7  C   UNL     1      14.806  17.090  12.298  1.00  0.00    -0.063 C 
ATOM      8  C   UNL     1      17.074  18.423  11.978  1.00  0.00    -0.003 C 
ATOM      9  C   UNL     1      18.561  18.170  11.538  1.00  0.00    -0.011 C 
ATOM     10  C   UNL     1      14.141  15.699  12.326  1.00  0.00    -0.006 C 
ATOM     11  C   UNL     1      14.318  17.971  13.194  1.00  0.00    -0.027 C 
ATOM     12  C   UNL     1      16.771  19.956  11.913  1.00  0.00     0.008 C 
ATOM     13  C   UNL     1      19.136  19.173  10.501  1.00  0.00     0.008 C 
ATOM     14  C   UNL     1      14.597  15.019  13.659  1.00  0.00     0.017 C 
ATOM     15  C   UNL     1      12.538  15.851  12.263  1.00  0.00    -0.020 C 
ATOM     16  C   UNL     1      12.882  18.014  13.631  1.00  0.00     0.032 C 
ATOM     17  C   UNL     1      12.022  16.718  13.477  1.00  0.00     0.006 C 
ATOM     18  C   UNL     1      12.110  16.554  10.924  1.00  0.00     0.008 C 
ATOM     19  C   UNL     1      11.890  14.423  12.313  1.00  0.00     0.012 C 
ATOM     20  C   UNL     1      10.423  16.986  13.494  1.00  0.00    -0.025 C 
ATOM     21  C   UNL     1      10.920  17.539  11.009  1.00  0.00     0.005 C 
ATOM     22  C   UNL     1       9.826  17.093  12.012  1.00  0.00     0.003 C 
ATOM     23  C   UNL     1      10.091  18.264  14.354  1.00  0.00     0.010 C 
ATOM     24  C   UNL     1       9.745  15.792  14.250  1.00  0.00     0.012 C 
ATOM     25  C   UNL     1       8.430  17.863  11.852  1.00  0.00    -0.006 C 
ATOM     26  C   UNL     1       8.659  18.781  14.226  1.00  0.00     0.033 C 
ATOM     27  C   UNL     1       8.337  19.116  12.766  1.00  0.00     0.120 C 
ATOM     28  C   UNL     1       8.163  18.321  10.385  1.00  0.00     0.014 C 
ATOM     29  C   UNL     1       7.248  16.901  12.171  1.00  0.00     0.014 C 
ENDROOT
BRANCH   1  30
ATOM     30  C   UNL     1      15.627  16.504   8.919  1.00  0.00     0.048 C 
ATOM     31  O   UNL     1      14.803  17.429   8.690  1.00  0.00    -0.550 OA
ATOM     32  O   UNL     1      15.950  15.637   7.876  1.00  0.00    -0.550 OA
ENDBRANCH   1  30
BRANCH  27  33
ATOM     33  O   UNL     1       9.204  20.125  12.302  1.00  0.00    -0.393 OA
ATOM     34  H   UNL     1       8.820  20.992  12.595  1.00  0.00     0.210 HD
ENDBRANCH  27  33
TORSDOF 2
ENDMDL
MODEL 4
REMARK VINA RESULT:    -5.325      2.082      3.631
REMARK INTER + INTRA:          -6.071
REMARK INTER:                  -5.768
REMARK INTRA:                  -0.303
REMARK UNBOUND:                -0.279
REMARK SMILES C[C@@H]1[C@H](C)CC[C@@]2(C(=O)[O-])CC[C@@]3(C)C(=CC[C@H]4[C@@]5(C)CC[C@@H](O)C(C)(C)[C@H]5CC[C@]43C)[C@@H]12
REMARK SMILES IDX 7 1 6 2 11 3 33 4 5 5 12 6 15 7 2 8 3 9 13 10 16 11 1 12
REMARK SMILES IDX 4 13 14 14 31 15 17 16 18 17 30 18 32 19 19 20 29 21 28 22
REMARK SMILES IDX 21 23 20 24 25 25 22 26 23 27 26 28 27 29 8 30 9 31 10 32
REMARK SMILES IDX 24 33
REMARK H PARENT 24 34
REMARK Flexibility Score: inf
ROOT
ATOM      1  C   UNL     1      11.069  15.689  13.672  1.00  0.00     0.017 C 
ATOM      2  C   UNL     1       9.750  15.706  14.485  1.00  0.00     0.014 C 
ATOM      3  C   UNL     1      10.958  14.512  12.674  1.00  0.00     0.014 C 
ATOM      4  C   UNL     1      11.383  17.057  12.891  1.00  0.00     0.030 C 
ATOM      5  C   UNL     1       8.613  16.375  13.728  1.00  0.00     0.004 C 
ATOM      6  C   UNL     1      12.245  14.320  11.891  1.00  0.00     0.013 C 
ATOM      7  C   UNL     1      12.115  16.855  11.513  1.00  0.00    -0.063 C 
ATOM      8  C   UNL     1      10.221  18.157  12.834  1.00  0.00    -0.003 C 
ATOM      9  C   UNL     1       8.887  17.866  13.612  1.00  0.00    -0.011 C 
ATOM     10  C   UNL     1      12.550  15.500  10.921  1.00  0.00    -0.006 C 
ATOM     11  C   UNL     1      12.460  17.933  10.780  1.00  0.00    -0.027 C 
ATOM     12  C   UNL     1      10.737  19.584  13.210  1.00  0.00     0.008 C 
ATOM     13  C   UNL     1       8.756  18.551  15.001  1.00  0.00     0.008 C 
ATOM     14  C   UNL     1      11.664  15.267   9.653  1.00  0.00     0.017 C 
ATOM     15  C   UNL     1      14.116  15.540  10.543  1.00  0.00    -0.020 C 
ATOM     16  C   UNL     1      13.717  18.024   9.964  1.00  0.00     0.032 C 
ATOM     17  C   UNL     1      14.401  16.695   9.506  1.00  0.00     0.006 C 
ATOM     18  C   UNL     1      14.981  15.794  11.831  1.00  0.00     0.008 C 
ATOM     19  C   UNL     1      14.525  14.157   9.925  1.00  0.00     0.012 C 
ATOM     20  C   UNL     1      15.957  16.870   9.086  1.00  0.00    -0.025 C 
ATOM     21  C   UNL     1      16.227  16.694  11.660  1.00  0.00     0.005 C 
ATOM     22  C   UNL     1      16.940  16.504  10.297  1.00  0.00     0.003 C 
ATOM     23  C   UNL     1      16.217  18.324   8.538  1.00  0.00     0.010 C 
ATOM     24  C   UNL     1      16.236  15.915   7.875  1.00  0.00     0.012 C 
ATOM     25  C   UNL     1      18.419  17.116  10.234  1.00  0.00    -0.006 C 
ATOM     26  C   UNL     1      17.688  18.702   8.367  1.00  0.00     0.033 C 
ATOM     27  C   UNL     1      18.433  18.576   9.699  1.00  0.00     0.120 C 
ATOM     28  C   UNL     1      19.130  17.108  11.621  1.00  0.00     0.014 C 
ATOM     29  C   UNL     1      19.328  16.227   9.334  1.00  0.00     0.014 C 
ENDROOT
BRANCH   1  30
ATOM     30  C   UNL     1      12.161  15.349  14.701  1.00  0.00     0.048 C 
ATOM     31  O   UNL     1      13.089  16.156  14.973  1.00  0.00    -0.550 OA
ATOM     32  O   UNL     1      12.062  14.182  15.457  1.00  0.00    -0.550 OA
ENDBRANCH   1  30
BRANCH  27  33
ATOM     33  O   UNL     1      17.870  19.449  10.650  1.00  0.00    -0.393 OA
ATOM     34  H   UNL     1      17.280  20.073  10.154  1.00  0.00     0.210 HD
ENDBRANCH  27  33
TORSDOF 2
ENDMDL
MODEL 5
REMARK VINA RESULT:    -5.207      2.448      4.460
REMARK INTER + INTRA:          -5.943
REMARK INTER:                  -5.642
REMARK INTRA:                  -0.302
REMARK UNBOUND:                -0.279
REMARK SMILES C[C@@H]1[C@H](C)CC[C@@]2(C(=O)[O-])CC[C@@]3(C)C(=CC[C@H]4[C@@]5(C)CC[C@@H](O)C(C)(C)[C@H]5CC[C@]43C)[C@@H]12
REMARK SMILES IDX 7 1 6 2 11 3 33 4 5 5 12 6 15 7 2 8 3 9 13 10 16 11 1 12
REMARK SMILES IDX 4 13 14 14 31 15 17 16 18 17 30 18 32 19 19 20 29 21 28 22
REMARK SMILES IDX 21 23 20 24 25 25 22 26 23 27 26 28 27 29 8 30 9 31 10 32
REMARK SMILES IDX 24 33
REMARK H PARENT 24 34
REMARK Flexibility Score: inf
ROOT
ATOM      1  C   UNL     1       9.545  16.737  12.107  1.00  0.00     0.017 C 
ATOM      2  C   UNL     1       7.999  16.794  12.190  1.00  0.00     0.014 C 
ATOM      3  C   UNL     1       9.942  15.251  12.279  1.00  0.00     0.014 C 
ATOM      4  C   UNL     1      10.157  17.325  10.743  1.00  0.00     0.030 C 
ATOM      5  C   UNL     1       7.335  16.402  10.879  1.00  0.00     0.004 C 
ATOM      6  C   UNL     1      11.449  15.077  12.329  1.00  0.00     0.013 C 
ATOM      7  C   UNL     1      11.454  16.582  10.250  1.00  0.00    -0.063 C 
ATOM      8  C   UNL     1       9.133  17.660   9.560  1.00  0.00    -0.003 C 
ATOM      9  C   UNL     1       7.597  17.475   9.834  1.00  0.00    -0.011 C 
ATOM     10  C   UNL     1      12.147  15.412  10.977  1.00  0.00    -0.006 C 
ATOM     11  C   UNL     1      12.078  17.006   9.132  1.00  0.00    -0.027 C 
ATOM     12  C   UNL     1       9.380  19.077   8.946  1.00  0.00     0.008 C 
ATOM     13  C   UNL     1       6.815  18.771  10.180  1.00  0.00     0.008 C 
ATOM     14  C   UNL     1      11.964  14.155  10.064  1.00  0.00     0.017 C 
ATOM     15  C   UNL     1      13.706  15.750  11.205  1.00  0.00    -0.020 C 
ATOM     16  C   UNL     1      13.569  17.001   8.951  1.00  0.00     0.032 C 
ATOM     17  C   UNL     1      14.417  16.019   9.823  1.00  0.00     0.006 C 
ATOM     18  C   UNL     1      13.860  17.027  12.109  1.00  0.00     0.008 C 
ATOM     19  C   UNL     1      14.388  14.535  11.928  1.00  0.00     0.012 C 
ATOM     20  C   UNL     1      15.984  16.422   9.926  1.00  0.00    -0.025 C 
ATOM     21  C   UNL     1      15.020  17.987  11.756  1.00  0.00     0.005 C 
ATOM     22  C   UNL     1      16.293  17.256  11.258  1.00  0.00     0.003 C 
ATOM     23  C   UNL     1      16.438  17.196   8.631  1.00  0.00     0.010 C 
ATOM     24  C   UNL     1      16.820  15.096   9.929  1.00  0.00     0.012 C 
ATOM     25  C   UNL     1      17.615  18.161  11.251  1.00  0.00    -0.006 C 
ATOM     26  C   UNL     1      17.808  17.867   8.719  1.00  0.00     0.033 C 
ATOM     27  C   UNL     1      17.845  18.862   9.883  1.00  0.00     0.120 C 
ATOM     28  C   UNL     1      17.593  19.262  12.355  1.00  0.00     0.014 C 
ATOM     29  C   UNL     1      18.859  17.294  11.603  1.00  0.00     0.014 C 
ENDROOT
BRANCH   1  30
ATOM     30  C   UNL     1      10.035  17.514  13.341  1.00  0.00     0.048 C 
ATOM     31  O   UNL     1      10.851  18.467  13.241  1.00  0.00    -0.550 OA
ATOM     32  O   UNL     1       9.470  17.259  14.590  1.00  0.00    -0.550 OA
ENDBRANCH   1  30
BRANCH  27  33
ATOM     33  O   UNL     1      16.882  19.871   9.683  1.00  0.00    -0.393 OA
ATOM     34  H   UNL     1      16.236  19.524   9.015  1.00  0.00     0.210 HD
ENDBRANCH  27  33
TORSDOF 2
ENDMDL
MODEL 6
REMARK VINA RESULT:    -5.085      1.481      2.296
REMARK INTER + INTRA:          -5.810
REMARK INTER:                  -5.504
REMARK INTRA:                  -0.307
REMARK UNBOUND:                -0.279
REMARK SMILES C[C@@H]1[C@H](C)CC[C@@]2(C(=O)[O-])CC[C@@]3(C)C(=CC[C@H]4[C@@]5(C)CC[C@@H](O)C(C)(C)[C@H]5CC[C@]43C)[C@@H]12
REMARK SMILES IDX 7 1 6 2 11 3 33 4 5 5 12 6 15 7 2 8 3 9 13 10 16 11 1 12
REMARK SMILES IDX 4 13 14 14 31 15 17 16 18 17 30 18 32 19 19 20 29 21 28 22
REMARK SMILES IDX 21 23 20 24 25 25 22 26 23 27 26 28 27 29 8 30 9 31 10 32
REMARK SMILES IDX 24 33
REMARK H PARENT 24 34
REMARK Flexibility Score: inf
ROOT
ATOM      1  C   UNL     1      12.230  17.173  10.970  1.00  0.00     0.017 C 
ATOM      2  C   UNL     1      10.780  17.304  11.499  1.00  0.00     0.014 C 
ATOM      3  C   UNL     1      12.566  18.509  10.265  1.00  0.00     0.014 C 
ATOM      4  C   UNL     1      13.321  16.849  12.103  1.00  0.00     0.030 C 
ATOM      5  C   UNL     1      10.708  18.081  12.805  1.00  0.00     0.004 C 
ATOM      6  C   UNL     1      13.931  18.464   9.602  1.00  0.00     0.013 C 
ATOM      7  C   UNL     1      14.727  17.508  11.847  1.00  0.00    -0.063 C 
ATOM      8  C   UNL     1      12.849  16.943  13.630  1.00  0.00    -0.003 C 
ATOM      9  C   UNL     1      11.338  17.261  13.920  1.00  0.00    -0.011 C 
ATOM     10  C   UNL     1      15.102  18.369  10.624  1.00  0.00    -0.006 C 
ATOM     11  C   UNL     1      15.735  17.282  12.714  1.00  0.00    -0.027 C 
ATOM     12  C   UNL     1      13.282  15.693  14.463  1.00  0.00     0.008 C 
ATOM     13  C   UNL     1      10.446  16.036  14.261  1.00  0.00     0.008 C 
ATOM     14  C   UNL     1      15.336  19.819  11.161  1.00  0.00     0.017 C 
ATOM     15  C   UNL     1      16.430  17.782   9.922  1.00  0.00    -0.020 C 
ATOM     16  C   UNL     1      17.172  17.131  12.307  1.00  0.00     0.032 C 
ATOM     17  C   UNL     1      17.627  17.757  10.949  1.00  0.00     0.006 C 
ATOM     18  C   UNL     1      16.173  16.318   9.410  1.00  0.00     0.008 C 
ATOM     19  C   UNL     1      16.797  18.689   8.696  1.00  0.00     0.012 C 
ATOM     20  C   UNL     1      19.009  17.135  10.372  1.00  0.00    -0.025 C 
ATOM     21  C   UNL     1      17.349  15.323   9.542  1.00  0.00     0.005 C 
ATOM     22  C   UNL     1      18.734  15.976   9.302  1.00  0.00     0.003 C 
ATOM     23  C   UNL     1      19.923  16.637  11.556  1.00  0.00     0.010 C 
ATOM     24  C   UNL     1      19.810  18.299   9.693  1.00  0.00     0.012 C 
ATOM     25  C   UNL     1      19.922  14.931   9.052  1.00  0.00    -0.006 C 
ATOM     26  C   UNL     1      21.123  15.789  11.139  1.00  0.00     0.033 C 
ATOM     27  C   UNL     1      20.662  14.550  10.365  1.00  0.00     0.120 C 
ATOM     28  C   UNL     1      19.429  13.612   8.381  1.00  0.00     0.014 C 
ATOM     29  C   UNL     1      20.945  15.516   8.033  1.00  0.00     0.014 C 
ENDROOT
BRANCH   1  30
ATOM     30  C   UNL     1      12.162  16.067   9.903  1.00  0.00     0.048 C 
ATOM     31  O   UNL     1      12.889  15.041   9.966  1.00  0.00    -0.550 OA
ATOM     32  O   UNL     1      11.184  16.121   8.910  1.00  0.00    -0.550 OA
ENDBRANCH   1  30
BRANCH  27  33
ATOM     33  O   UNL     1      19.832  13.755  11.180  1.00  0.00    -0.393 OA
ATOM     34  H   UNL     1      19.660  12.915  10.682  1.00  0.00     0.210 HD
ENDBRANCH  27  33
TORSDOF 2
ENDMDL
MODEL 7
REMARK VINA RESULT:    -4.620      2.159      7.841
REMARK INTER + INTRA:          -5.305
REMARK INTER:                  -5.071
REMARK INTRA:                  -0.233
REMARK UNBOUND:                -0.279
REMARK SMILES C[C@@H]1[C@H](C)CC[C@@]2(C(=O)[O-])CC[C@@]3(C)C(=CC[C@H]4[C@@]5(C)CC[C@@H](O)C(C)(C)[C@H]5CC[C@]43C)[C@@H]12
REMARK SMILES IDX 7 1 6 2 11 3 33 4 5 5 12 6 15 7 2 8 3 9 13 10 16 11 1 12
REMARK SMILES IDX 4 13 14 14 31 15 17 16 18 17 30 18 32 19 19 20 29 21 28 22
REMARK SMILES IDX 21 23 20 24 25 25 22 26 23 27 26 28 27 29 8 30 9 31 10 32
REMARK SMILES IDX 24 33
REMARK H PARENT 24 34
REMARK Flexibility Score: inf
ROOT
ATOM      1  C   UNL     1      16.685  17.269  11.127  1.00  0.00     0.017 C 
ATOM      2  C   UNL     1      18.116  17.295  10.535  1.00  0.00     0.014 C 
ATOM      3  C   UNL     1      16.843  17.285  12.666  1.00  0.00     0.014 C 
ATOM      4  C   UNL     1      15.748  18.482  10.648  1.00  0.00     0.030 C 
ATOM      5  C   UNL     1      18.710  18.695  10.519  1.00  0.00     0.004 C 
ATOM      6  C   UNL     1      15.503  17.148  13.367  1.00  0.00     0.013 C 
ATOM      7  C   UNL     1      14.733  18.979  11.742  1.00  0.00    -0.063 C 
ATOM      8  C   UNL     1      16.444  19.678   9.843  1.00  0.00    -0.003 C 
ATOM      9  C   UNL     1      17.972  19.550   9.501  1.00  0.00    -0.011 C 
ATOM     10  C   UNL     1      14.575  18.380  13.154  1.00  0.00    -0.006 C 
ATOM     11  C   UNL     1      13.871  19.973  11.446  1.00  0.00    -0.027 C 
ATOM     12  C   UNL     1      15.656  20.058   8.547  1.00  0.00     0.008 C 
ATOM     13  C   UNL     1      18.302  19.078   8.058  1.00  0.00     0.008 C 
ATOM     14  C   UNL     1      15.063  19.477  14.156  1.00  0.00     0.017 C 
ATOM     15  C   UNL     1      13.033  17.988  13.418  1.00  0.00    -0.020 C 
ATOM     16  C   UNL     1      12.461  20.040  11.959  1.00  0.00     0.032 C 
ATOM     17  C   UNL     1      12.111  19.259  13.268  1.00  0.00     0.006 C 
ATOM     18  C   UNL     1      12.564  16.899  12.386  1.00  0.00     0.008 C 
ATOM     19  C   UNL     1      12.901  17.401  14.867  1.00  0.00     0.012 C 
ATOM     20  C   UNL     1      10.525  18.981  13.460  1.00  0.00    -0.025 C 
ATOM     21  C   UNL     1      11.112  17.020  11.866  1.00  0.00     0.005 C 
ATOM     22  C   UNL     1      10.115  17.522  12.941  1.00  0.00     0.003 C 
ATOM     23  C   UNL     1       9.681  20.112  12.759  1.00  0.00     0.010 C 
ATOM     24  C   UNL     1      10.199  19.108  14.988  1.00  0.00     0.012 C 
ATOM     25  C   UNL     1       8.574  17.297  12.569  1.00  0.00    -0.006 C 
ATOM     26  C   UNL     1       8.186  19.824  12.631  1.00  0.00     0.033 C 
ATOM     27  C   UNL     1       7.954  18.528  11.848  1.00  0.00     0.120 C 
ATOM     28  C   UNL     1       8.352  16.050  11.660  1.00  0.00     0.014 C 
ATOM     29  C   UNL     1       7.752  16.983  13.854  1.00  0.00     0.014 C 
ENDROOT
BRANCH   1  30
ATOM     30  C   UNL     1      16.113  15.901  10.715  1.00  0.00     0.048 C 
ATOM     31  O   UNL     1      14.942  15.781  10.268  1.00  0.00    -0.550 OA
ATOM     32  O   UNL     1      16.941  14.779  10.701  1.00  0.00    -0.550 OA
ENDBRANCH   1  30
BRANCH  27  33
ATOM     33  O   UNL     1       8.483  18.650  10.549  1.00  0.00    -0.393 OA
ATOM     34  H   UNL     1       8.929  17.789  10.337  1.00  0.00     0.210 HD
ENDBRANCH  27  33
TORSDOF 2
ENDMDL
MODEL 8
REMARK VINA RESULT:    -4.510      3.042      7.871
REMARK INTER + INTRA:          -5.184
REMARK INTER:                  -4.878
REMARK INTRA:                  -0.307
REMARK UNBOUND:                -0.279
REMARK SMILES C[C@@H]1[C@H](C)CC[C@@]2(C(=O)[O-])CC[C@@]3(C)C(=CC[C@H]4[C@@]5(C)CC[C@@H](O)C(C)(C)[C@H]5CC[C@]43C)[C@@H]12
REMARK SMILES IDX 7 1 6 2 11 3 33 4 5 5 12 6 15 7 2 8 3 9 13 10 16 11 1 12
REMARK SMILES IDX 4 13 14 14 31 15 17 16 18 17 30 18 32 19 19 20 29 21 28 22
REMARK SMILES IDX 21 23 20 24 25 25 22 26 23 27 26 28 27 29 8 30 9 31 10 32
REMARK SMILES IDX 24 33
REMARK H PARENT 24 34
REMARK Flexibility Score: inf
ROOT
ATOM      1  C   UNL     1      15.591  18.093  10.331  1.00  0.00     0.017 C 
ATOM      2  C   UNL     1      17.097  18.293  10.631  1.00  0.00     0.014 C 
ATOM      3  C   UNL     1      15.427  16.635   9.839  1.00  0.00     0.014 C 
ATOM      4  C   UNL     1      14.623  18.375  11.581  1.00  0.00     0.030 C 
ATOM      5  C   UNL     1      17.496  17.727  11.986  1.00  0.00     0.004 C 
ATOM      6  C   UNL     1      14.001  16.349   9.403  1.00  0.00     0.013 C 
ATOM      7  C   UNL     1      13.350  17.451  11.628  1.00  0.00    -0.063 C 
ATOM      8  C   UNL     1      15.309  18.576  13.014  1.00  0.00    -0.003 C 
ATOM      9  C   UNL     1      16.878  18.570  13.091  1.00  0.00    -0.011 C 
ATOM     10  C   UNL     1      12.985  16.378  10.582  1.00  0.00    -0.006 C 
ATOM     11  C   UNL     1      12.446  17.614  12.614  1.00  0.00    -0.027 C 
ATOM     12  C   UNL     1      14.760  19.834  13.762  1.00  0.00     0.008 C 
ATOM     13  C   UNL     1      17.554  19.968  13.148  1.00  0.00     0.008 C 
ATOM     14  C   UNL     1      13.112  14.997  11.306  1.00  0.00     0.017 C 
ATOM     15  C   UNL     1      11.486  16.621  10.042  1.00  0.00    -0.020 C 
ATOM     16  C   UNL     1      10.964  17.454  12.429  1.00  0.00     0.032 C 
ATOM     17  C   UNL     1      10.458  16.578  11.238  1.00  0.00     0.006 C 
ATOM     18  C   UNL     1      11.382  18.022   9.337  1.00  0.00     0.008 C 
ATOM     19  C   UNL     1      11.136  15.504   8.997  1.00  0.00     0.012 C 
ATOM     20  C   UNL     1       8.916  16.862  10.825  1.00  0.00    -0.025 C 
ATOM     21  C   UNL     1      10.064  18.804   9.546  1.00  0.00     0.005 C 
ATOM     22  C   UNL     1       8.812  17.893   9.604  1.00  0.00     0.003 C 
ATOM     23  C   UNL     1       8.094  17.351  12.077  1.00  0.00     0.010 C 
ATOM     24  C   UNL     1       8.270  15.494  10.415  1.00  0.00     0.012 C 
ATOM     25  C   UNL     1       7.421  18.669   9.433  1.00  0.00    -0.006 C 
ATOM     26  C   UNL     1       6.706  17.911  11.768  1.00  0.00     0.033 C 
ATOM     27  C   UNL     1       6.809  19.092  10.798  1.00  0.00     0.120 C 
ATOM     28  C   UNL     1       7.553  19.949   8.552  1.00  0.00     0.014 C 
ATOM     29  C   UNL     1       6.402  17.780   8.662  1.00  0.00     0.014 C 
ENDROOT
BRANCH   1  30
ATOM     30  C   UNL     1      15.296  19.036   9.151  1.00  0.00     0.048 C 
ATOM     31  O   UNL     1      14.407  19.925   9.220  1.00  0.00    -0.550 OA
ATOM     32  O   UNL     1      16.115  19.010   8.022  1.00  0.00    -0.550 OA
ENDBRANCH   1  30
BRANCH  27  33
ATOM     33  O   UNL     1       7.572  20.125  11.377  1.00  0.00    -0.393 OA
ATOM     34  H   UNL     1       8.441  20.143  10.899  1.00  0.00     0.210 HD
ENDBRANCH  27  33
TORSDOF 2
ENDMDL
