MODEL 1
REMARK VINA RESULT:    -5.671      0.000      0.000
REMARK INTER + INTRA:          -6.003
REMARK INTER:                  -6.003
REMARK INTRA:                   0.000
REMARK UNBOUND:                 0.000
REMARK SMILES O=c1ccc2cc(O)c(O)cc2o1
REMARK SMILES IDX 4 1 3 2 2 3 1 4 13 5 12 6 11 7 9 8 7 9 6 10 5 11 8 12 10 14
REMARK H PARENT 8 13 10 15
REMARK Flexibility Score: inf
ROOT
ATOM      1  C   UNL     1      21.606  14.629  29.532  1.00  0.00     0.019 A 
ATOM      2  C   UNL     1      21.298  13.319  29.898  1.00  0.00     0.094 A 
ATOM      3  C   UNL     1      20.189  12.696  29.317  1.00  0.00     0.336 A 
ATOM      4  O   UNL     1      19.893  11.514  29.634  1.00  0.00    -0.246 OA
ATOM      5  O   UNL     1      19.440  13.345  28.428  1.00  0.00    -0.423 OA
ATOM      6  C   UNL     1      19.699  14.595  28.051  1.00  0.00     0.142 A 
ATOM      7  C   UNL     1      18.877  15.226  27.112  1.00  0.00     0.098 A 
ATOM      8  C   UNL     1      19.146  16.543  26.711  1.00  0.00     0.161 A 
ATOM      9  C   UNL     1      20.243  17.231  27.252  1.00  0.00     0.158 A 
ATOM     10  C   UNL     1      21.070  16.603  28.194  1.00  0.00     0.062 A 
ATOM     11  C   UNL     1      20.803  15.287  28.596  1.00  0.00     0.022 A 
ENDROOT
BRANCH   9  12
ATOM     12  O   UNL     1      20.502  18.540  26.848  1.00  0.00    -0.504 OA
ATOM     13  H   UNL     1      19.752  19.179  26.610  1.00  0.00     0.293 HD
ENDBRANCH   9  12
BRANCH   8  14
ATOM     14  O   UNL     1      18.328  17.176  25.776  1.00  0.00    -0.504 OA
ATOM     15  H   UNL     1      18.055  16.717  24.916  1.00  0.00     0.293 HD
ENDBRANCH   8  14
TORSDOF 2
ENDMDL
MODEL 2
REMARK VINA RESULT:    -5.626      3.378      6.409
REMARK INTER + INTRA:          -5.955
REMARK INTER:                  -5.955
REMARK INTRA:                   0.000
REMARK UNBOUND:                 0.000
REMARK SMILES O=c1ccc2cc(O)c(O)cc2o1
REMARK SMILES IDX 4 1 3 2 2 3 1 4 13 5 12 6 11 7 9 8 7 9 6 10 5 11 8 12 10 14
REMARK H PARENT 8 13 10 15
REMARK Flexibility Score: inf
ROOT
ATOM      1  C   UNL     1      21.471  18.557  23.259  1.00  0.00     0.019 A 
ATOM      2  C   UNL     1      21.070  19.859  22.958  1.00  0.00     0.094 A 
ATOM      3  C   UNL     1      19.933  20.379  23.585  1.00  0.00     0.336 A 
ATOM      4  O   UNL     1      19.554  21.551  23.327  1.00  0.00    -0.246 OA
ATOM      5  O   UNL     1      19.247  19.642  24.455  1.00  0.00    -0.423 OA
ATOM      6  C   UNL     1      19.596  18.397  24.770  1.00  0.00     0.142 A 
ATOM      7  C   UNL     1      18.836  17.670  25.693  1.00  0.00     0.098 A 
ATOM      8  C   UNL     1      19.200  16.358  26.028  1.00  0.00     0.161 A 
ATOM      9  C   UNL     1      20.329  15.770  25.439  1.00  0.00     0.158 A 
ATOM     10  C   UNL     1      21.095  16.493  24.513  1.00  0.00     0.062 A 
ATOM     11  C   UNL     1      20.732  17.805  24.176  1.00  0.00     0.022 A 
ENDROOT
BRANCH   9  12
ATOM     12  O   UNL     1      20.683  14.465  25.778  1.00  0.00    -0.504 OA
ATOM     13  H   UNL     1      20.846  13.759  25.069  1.00  0.00     0.293 HD
ENDBRANCH   9  12
BRANCH   8  14
ATOM     14  O   UNL     1      18.444  15.630  26.947  1.00  0.00    -0.504 OA
ATOM     15  H   UNL     1      17.432  15.656  26.938  1.00  0.00     0.293 HD
ENDBRANCH   8  14
TORSDOF 2
ENDMDL
MODEL 3
REMARK VINA RESULT:    -5.508      1.515      5.064
REMARK INTER + INTRA:          -5.830
REMARK INTER:                  -5.830
REMARK INTRA:                   0.000
REMARK UNBOUND:                 0.000
REMARK SMILES O=c1ccc2cc(O)c(O)cc2o1
REMARK SMILES IDX 4 1 3 2 2 3 1 4 13 5 12 6 11 7 9 8 7 9 6 10 5 11 8 12 10 14
REMARK H PARENT 8 13 10 15
REMARK Flexibility Score: inf
ROOT
ATOM      1  C   UNL     1      19.118  15.508  27.424  1.00  0.00     0.019 A 
ATOM      2  C   UNL     1      19.799  16.717  27.291  1.00  0.00     0.094 A 
ATOM      3  C   UNL     1      21.012  16.889  27.965  1.00  0.00     0.336 A 
ATOM      4  O   UNL     1      21.642  17.973  27.859  1.00  0.00    -0.246 OA
ATOM      5  O   UNL     1      21.507  15.912  28.721  1.00  0.00    -0.423 OA
ATOM      6  C   UNL     1      20.890  14.743  28.875  1.00  0.00     0.142 A 
ATOM      7  C   UNL     1      21.459  13.753  29.682  1.00  0.00     0.098 A 
ATOM      8  C   UNL     1      20.811  12.519  29.847  1.00  0.00     0.161 A 
ATOM      9  C   UNL     1      19.590  12.275  29.201  1.00  0.00     0.158 A 
ATOM     10  C   UNL     1      19.015  13.265  28.390  1.00  0.00     0.062 A 
ATOM     11  C   UNL     1      19.660  14.498  28.225  1.00  0.00     0.022 A 
ENDROOT
BRANCH   9  12
ATOM     12  O   UNL     1      18.955  11.046  29.371  1.00  0.00    -0.504 OA
ATOM     13  H   UNL     1      18.197  10.754  28.764  1.00  0.00     0.293 HD
ENDBRANCH   9  12
BRANCH   8  14
ATOM     14  O   UNL     1      21.376  11.530  30.652  1.00  0.00    -0.504 OA
ATOM     15  H   UNL     1      20.832  10.742  30.981  1.00  0.00     0.293 HD
ENDBRANCH   8  14
TORSDOF 2
ENDMDL
MODEL 4
REMARK VINA RESULT:    -5.505      3.847      5.448
REMARK INTER + INTRA:          -5.827
REMARK INTER:                  -5.827
REMARK INTRA:                   0.000
REMARK UNBOUND:                 0.000
REMARK SMILES O=c1ccc2cc(O)c(O)cc2o1
REMARK SMILES IDX 4 1 3 2 2 3 1 4 13 5 12 6 11 7 9 8 7 9 6 10 5 11 8 12 10 14
REMARK H PARENT 8 13 10 15
REMARK Flexibility Score: inf
ROOT
ATOM      1  C   UNL     1      18.993  17.392  25.600  1.00  0.00     0.019 A 
ATOM      2  C   UNL     1      19.652  16.174  25.771  1.00  0.00     0.094 A 
ATOM      3  C   UNL     1      20.851  15.951  25.087  1.00  0.00     0.336 A 
ATOM      4  O   UNL     1      21.460  14.859  25.227  1.00  0.00    -0.246 OA
ATOM      5  O   UNL     1      21.354  16.887  24.286  1.00  0.00    -0.423 OA
ATOM      6  C   UNL     1      20.758  18.062  24.096  1.00  0.00     0.142 A 
ATOM      7  C   UNL     1      21.335  19.008  23.243  1.00  0.00     0.098 A 
ATOM      8  C   UNL     1      20.710  20.248  23.039  1.00  0.00     0.161 A 
ATOM      9  C   UNL     1      19.504  20.542  23.692  1.00  0.00     0.158 A 
ATOM     10  C   UNL     1      18.921  19.597  24.549  1.00  0.00     0.062 A 
ATOM     11  C   UNL     1      19.544  18.358  24.753  1.00  0.00     0.022 A 
ENDROOT
BRANCH   9  12
ATOM     12  O   UNL     1      18.891  21.776  23.483  1.00  0.00    -0.504 OA
ATOM     13  H   UNL     1      18.334  22.220  24.204  1.00  0.00     0.293 HD
ENDBRANCH   9  12
BRANCH   8  14
ATOM     14  O   UNL     1      21.282  21.193  22.188  1.00  0.00    -0.504 OA
ATOM     15  H   UNL     1      21.830  21.965  22.547  1.00  0.00     0.293 HD
ENDBRANCH   8  14
TORSDOF 2
ENDMDL
MODEL 5
REMARK VINA RESULT:    -5.450      3.115      4.290
REMARK INTER + INTRA:          -5.769
REMARK INTER:                  -5.769
REMARK INTRA:                   0.000
REMARK UNBOUND:                 0.000
REMARK SMILES O=c1ccc2cc(O)c(O)cc2o1
REMARK SMILES IDX 4 1 3 2 2 3 1 4 13 5 12 6 11 7 9 8 7 9 6 10 5 11 8 12 10 14
REMARK H PARENT 8 13 10 15
REMARK Flexibility Score: inf
ROOT
ATOM      1  C   UNL     1      21.455  15.752  24.648  1.00  0.00     0.019 A 
ATOM      2  C   UNL     1      20.911  14.874  25.585  1.00  0.00     0.094 A 
ATOM      3  C   UNL     1      19.817  15.291  26.350  1.00  0.00     0.336 A 
ATOM      4  O   UNL     1      19.312  14.514  27.201  1.00  0.00    -0.246 OA
ATOM      5  O   UNL     1      19.304  16.508  26.184  1.00  0.00    -0.423 OA
ATOM      6  C   UNL     1      19.792  17.376  25.302  1.00  0.00     0.142 A 
ATOM      7  C   UNL     1      19.211  18.642  25.172  1.00  0.00     0.098 A 
ATOM      8  C   UNL     1      19.722  19.560  24.243  1.00  0.00     0.161 A 
ATOM      9  C   UNL     1      20.819  19.211  23.440  1.00  0.00     0.158 A 
ATOM     10  C   UNL     1      21.405  17.944  23.567  1.00  0.00     0.062 A 
ATOM     11  C   UNL     1      20.896  17.025  24.495  1.00  0.00     0.022 A 
ENDROOT
BRANCH   9  12
ATOM     12  O   UNL     1      21.319  20.131  22.520  1.00  0.00    -0.504 OA
ATOM     13  H   UNL     1      21.924  19.843  21.759  1.00  0.00     0.293 HD
ENDBRANCH   9  12
BRANCH   8  14
ATOM     14  O   UNL     1      19.145  20.823  24.111  1.00  0.00    -0.504 OA
ATOM     15  H   UNL     1      18.226  21.026  24.484  1.00  0.00     0.293 HD
ENDBRANCH   8  14
TORSDOF 2
ENDMDL
MODEL 6
REMARK VINA RESULT:    -5.443      1.075      4.517
REMARK INTER + INTRA:          -5.761
REMARK INTER:                  -5.761
REMARK INTRA:                   0.000
REMARK UNBOUND:                 0.000
REMARK SMILES O=c1ccc2cc(O)c(O)cc2o1
REMARK SMILES IDX 4 1 3 2 2 3 1 4 13 5 12 6 11 7 9 8 7 9 6 10 5 11 8 12 10 14
REMARK H PARENT 8 13 10 15
REMARK Flexibility Score: inf
ROOT
ATOM      1  C   UNL     1      21.494  17.026  28.258  1.00  0.00     0.019 A 
ATOM      2  C   UNL     1      20.913  17.899  27.338  1.00  0.00     0.094 A 
ATOM      3  C   UNL     1      19.790  17.477  26.620  1.00  0.00     0.336 A 
ATOM      4  O   UNL     1      19.251  18.249  25.785  1.00  0.00    -0.246 OA
ATOM      5  O   UNL     1      19.284  16.261  26.813  1.00  0.00    -0.423 OA
ATOM      6  C   UNL     1      19.808  15.398  27.681  1.00  0.00     0.142 A 
ATOM      7  C   UNL     1      19.233  14.133  27.842  1.00  0.00     0.098 A 
ATOM      8  C   UNL     1      19.780  13.221  28.756  1.00  0.00     0.161 A 
ATOM      9  C   UNL     1      20.908  13.575  29.512  1.00  0.00     0.158 A 
ATOM     10  C   UNL     1      21.489  14.842  29.354  1.00  0.00     0.062 A 
ATOM     11  C   UNL     1      20.943  15.755  28.441  1.00  0.00     0.022 A 
ENDROOT
BRANCH   9  12
ATOM     12  O   UNL     1      21.445  12.661  30.417  1.00  0.00    -0.504 OA
ATOM     13  H   UNL     1      21.851  12.962  31.296  1.00  0.00     0.293 HD
ENDBRANCH   9  12
BRANCH   8  14
ATOM     14  O   UNL     1      19.210  11.958  28.918  1.00  0.00    -0.504 OA
ATOM     15  H   UNL     1      19.736  11.187  29.308  1.00  0.00     0.293 HD
ENDBRANCH   8  14
TORSDOF 2
ENDMDL
MODEL 7
REMARK VINA RESULT:    -5.339      1.229      2.288
REMARK INTER + INTRA:          -5.651
REMARK INTER:                  -5.651
REMARK INTRA:                   0.000
REMARK UNBOUND:                 0.000
REMARK SMILES O=c1ccc2cc(O)c(O)cc2o1
REMARK SMILES IDX 4 1 3 2 2 3 1 4 13 5 12 6 11 7 9 8 7 9 6 10 5 11 8 12 10 14
REMARK H PARENT 8 13 10 15
REMARK Flexibility Score: inf
ROOT
ATOM      1  C   UNL     1      19.544  13.364  28.456  1.00  0.00     0.019 A 
ATOM      2  C   UNL     1      20.437  12.822  29.380  1.00  0.00     0.094 A 
ATOM      3  C   UNL     1      21.494  13.611  29.844  1.00  0.00     0.336 A 
ATOM      4  O   UNL     1      22.311  13.141  30.677  1.00  0.00    -0.246 OA
ATOM      5  O   UNL     1      21.643  14.860  29.408  1.00  0.00    -0.423 OA
ATOM      6  C   UNL     1      20.814  15.415  28.528  1.00  0.00     0.142 A 
ATOM      7  C   UNL     1      21.021  16.733  28.107  1.00  0.00     0.098 A 
ATOM      8  C   UNL     1      20.150  17.322  27.179  1.00  0.00     0.161 A 
ATOM      9  C   UNL     1      19.067  16.590  26.670  1.00  0.00     0.158 A 
ATOM     10  C   UNL     1      18.854  15.269  27.088  1.00  0.00     0.062 A 
ATOM     11  C   UNL     1      19.724  14.678  28.015  1.00  0.00     0.022 A 
ENDROOT
BRANCH   9  12
ATOM     12  O   UNL     1      18.206  17.185  25.748  1.00  0.00    -0.504 OA
ATOM     13  H   UNL     1      17.616  17.968  26.003  1.00  0.00     0.293 HD
ENDBRANCH   9  12
BRANCH   8  14
ATOM     14  O   UNL     1      20.354  18.636  26.757  1.00  0.00    -0.504 OA
ATOM     15  H   UNL     1      20.849  18.845  25.899  1.00  0.00     0.293 HD
ENDBRANCH   8  14
TORSDOF 2
ENDMDL
MODEL 8
REMARK VINA RESULT:    -5.198      2.799      5.901
REMARK INTER + INTRA:          -5.502
REMARK INTER:                  -5.502
REMARK INTRA:                   0.000
REMARK UNBOUND:                 0.000
REMARK SMILES O=c1ccc2cc(O)c(O)cc2o1
REMARK SMILES IDX 4 1 3 2 2 3 1 4 13 5 12 6 11 7 9 8 7 9 6 10 5 11 8 12 10 14
REMARK H PARENT 8 13 10 15
REMARK Flexibility Score: inf
ROOT
ATOM      1  C   UNL     1      19.015  18.174  25.196  1.00  0.00     0.019 A 
ATOM      2  C   UNL     1      19.495  19.145  24.317  1.00  0.00     0.094 A 
ATOM      3  C   UNL     1      20.755  18.969  23.735  1.00  0.00     0.336 A 
ATOM      4  O   UNL     1      21.206  19.833  22.940  1.00  0.00    -0.246 OA
ATOM      5  O   UNL     1      21.482  17.891  24.018  1.00  0.00    -0.423 OA
ATOM      6  C   UNL     1      21.062  16.941  24.850  1.00  0.00     0.142 A 
ATOM      7  C   UNL     1      21.871  15.830  25.108  1.00  0.00     0.098 A 
ATOM      8  C   UNL     1      21.432  14.827  25.985  1.00  0.00     0.161 A 
ATOM      9  C   UNL     1      20.178  14.936  26.606  1.00  0.00     0.158 A 
ATOM     10  C   UNL     1      19.363  16.048  26.351  1.00  0.00     0.062 A 
ATOM     11  C   UNL     1      19.800  17.052  25.475  1.00  0.00     0.022 A 
ENDROOT
BRANCH   9  12
ATOM     12  O   UNL     1      19.750  13.934  27.475  1.00  0.00    -0.504 OA
ATOM     13  H   UNL     1      18.805  13.917  27.840  1.00  0.00     0.293 HD
ENDBRANCH   9  12
BRANCH   8  14
ATOM     14  O   UNL     1      22.236  13.717  26.245  1.00  0.00    -0.504 OA
ATOM     15  H   UNL     1      21.836  12.816  26.474  1.00  0.00     0.293 HD
ENDBRANCH   8  14
TORSDOF 2
ENDMDL
MODEL 9
REMARK VINA RESULT:    -5.162      1.568      2.701
REMARK INTER + INTRA:          -5.464
REMARK INTER:                  -5.464
REMARK INTRA:                   0.000
REMARK UNBOUND:                 0.000
REMARK SMILES O=c1ccc2cc(O)c(O)cc2o1
REMARK SMILES IDX 4 1 3 2 2 3 1 4 13 5 12 6 11 7 9 8 7 9 6 10 5 11 8 12 10 14
REMARK H PARENT 8 13 10 15
REMARK Flexibility Score: inf
ROOT
ATOM      1  C   UNL     1      19.126  14.886  27.519  1.00  0.00     0.019 A 
ATOM      2  C   UNL     1      19.584  13.937  28.433  1.00  0.00     0.094 A 
ATOM      3  C   UNL     1      20.837  14.116  29.026  1.00  0.00     0.336 A 
ATOM      4  O   UNL     1      21.269  13.271  29.852  1.00  0.00    -0.246 OA
ATOM      5  O   UNL     1      21.581  15.177  28.721  1.00  0.00    -0.423 OA
ATOM      6  C   UNL     1      21.182  16.106  27.856  1.00  0.00     0.142 A 
ATOM      7  C   UNL     1      22.007  17.200  27.576  1.00  0.00     0.098 A 
ATOM      8  C   UNL     1      21.591  18.182  26.664  1.00  0.00     0.161 A 
ATOM      9  C   UNL     1      20.344  18.069  26.030  1.00  0.00     0.158 A 
ATOM     10  C   UNL     1      19.513  16.974  26.307  1.00  0.00     0.062 A 
ATOM     11  C   UNL     1      19.928  15.991  27.218  1.00  0.00     0.022 A 
ENDROOT
BRANCH   9  12
ATOM     12  O   UNL     1      19.939  19.049  25.126  1.00  0.00    -0.504 OA
ATOM     13  H   UNL     1      19.050  18.990  24.643  1.00  0.00     0.293 HD
ENDBRANCH   9  12
BRANCH   8  14
ATOM     14  O   UNL     1      22.411  19.274  26.382  1.00  0.00    -0.504 OA
ATOM     15  H   UNL     1      22.510  20.043  27.033  1.00  0.00     0.293 HD
ENDBRANCH   8  14
TORSDOF 2
ENDMDL
