MODEL 1
REMARK VINA RESULT:    25.576      0.000      0.000
REMARK INTER + INTRA:          62.236
REMARK INTER:                  64.451
REMARK INTRA:                  -2.214
REMARK UNBOUND:                -2.214
REMARK SMILES CCCCCCCCCCCCCCCCCCCCCCCCCCCC(=O)[O-]
REMARK SMILES IDX 15 1 16 2 17 3 18 4 19 5 20 6 21 7 22 8 23 9 24 10 25 11
REMARK SMILES IDX 26 12 27 13 28 14 29 15 30 16 14 17 13 18 12 19 11 20 10 21
REMARK SMILES IDX 9 22 8 23 7 24 6 25 5 26 4 27 3 28 2 29 1 30
REMARK H PARENT
REMARK Flexibility Score: inf
ROOT
ATOM      1  C   UNL     1      -0.960  16.376  21.241  1.00  0.00     0.000 C 
ENDROOT
BRANCH   1   2
ATOM      2  C   UNL     1      -0.335  16.209  19.849  1.00  0.00     0.000 C 
BRANCH   2   3
ATOM      3  C   UNL     1      -0.014  14.734  19.558  1.00  0.00     0.000 C 
BRANCH   3   4
ATOM      4  C   UNL     1      -0.857  14.155  18.409  1.00  0.00     0.000 C 
BRANCH   4   5
ATOM      5  C   UNL     1      -1.138  12.642  18.503  1.00  0.00     0.000 C 
BRANCH   5   6
ATOM      6  C   UNL     1      -2.155  12.233  19.588  1.00  0.00     0.000 C 
BRANCH   6   7
ATOM      7  C   UNL     1      -3.611  12.636  19.295  1.00  0.00     0.000 C 
BRANCH   7   8
ATOM      8  C   UNL     1      -4.434  12.859  20.573  1.00  0.00     0.000 C 
BRANCH   8   9
ATOM      9  C   UNL     1      -4.079  14.201  21.230  1.00  0.00     0.000 C 
BRANCH   9  10
ATOM     10  C   UNL     1      -4.154  15.381  20.249  1.00  0.00     0.000 C 
BRANCH  10  11
ATOM     11  C   UNL     1      -4.389  16.726  20.953  1.00  0.00     0.000 C 
BRANCH  11  12
ATOM     12  C   UNL     1      -5.884  16.953  21.219  1.00  0.00     0.006 C 
BRANCH  12  13
ATOM     13  C   UNL     1      -6.687  17.114  19.921  1.00  0.00     0.053 C 
BRANCH  13  14
ATOM     14  C   UNL     1      -7.963  16.329  19.957  1.00  0.00     0.041 C 
ATOM     15  O   UNL     1      -9.071  16.923  20.028  1.00  0.00    -0.550 OA
ATOM     16  O   UNL     1      -7.929  14.942  19.883  1.00  0.00    -0.550 OA
ENDBRANCH  13  14
ENDBRANCH  12  13
ENDBRANCH  11  12
ENDBRANCH  10  11
ENDBRANCH   9  10
ENDBRANCH   8   9
ENDBRANCH   7   8
ENDBRANCH   6   7
ENDBRANCH   5   6
ENDBRANCH   4   5
ENDBRANCH   3   4
ENDBRANCH   2   3
ENDBRANCH   1   2
BRANCH   1  17
ATOM     17  C   UNL     1      -1.073  17.849  21.671  1.00  0.00     0.000 C 
BRANCH  17  18
ATOM     18  C   UNL     1      -0.701  18.878  20.586  1.00  0.00     0.000 C 
BRANCH  18  19
ATOM     19  C   UNL     1      -1.211  20.306  20.871  1.00  0.00     0.000 C 
BRANCH  19  20
ATOM     20  C   UNL     1      -0.447  20.994  22.016  1.00  0.00     0.000 C 
BRANCH  20  21
ATOM     21  C   UNL     1      -0.827  22.475  22.174  1.00  0.00     0.000 C 
BRANCH  21  22
ATOM     22  C   UNL     1      -2.137  22.671  22.959  1.00  0.00    -0.000 C 
BRANCH  22  23
ATOM     23  C   UNL     1      -2.459  24.153  23.226  1.00  0.00    -0.000 C 
BRANCH  23  24
ATOM     24  C   UNL     1      -3.381  24.814  22.186  1.00  0.00    -0.000 C 
BRANCH  24  25
ATOM     25  C   UNL     1      -2.864  26.175  21.698  1.00  0.00    -0.000 C 
BRANCH  25  26
ATOM     26  C   UNL     1      -3.958  26.934  20.937  1.00  0.00    -0.000 C 
BRANCH  26  27
ATOM     27  C   UNL     1      -3.382  27.669  19.720  1.00  0.00    -0.000 C 
BRANCH  27  28
ATOM     28  C   UNL     1      -4.115  28.998  19.485  1.00  0.00    -0.000 C 
BRANCH  28  29
ATOM     29  C   UNL     1      -3.189  30.217  19.622  1.00  0.00    -0.003 C 
ATOM     30  C   UNL     1      -1.846  29.870  20.266  1.00  0.00     0.004 C 
ENDBRANCH  28  29
ENDBRANCH  27  28
ENDBRANCH  26  27
ENDBRANCH  25  26
ENDBRANCH  24  25
ENDBRANCH  23  24
ENDBRANCH  22  23
ENDBRANCH  21  22
ENDBRANCH  20  21
ENDBRANCH  19  20
ENDBRANCH  18  19
ENDBRANCH  17  18
ENDBRANCH   1  17
TORSDOF 26
ENDMDL
MODEL 2
REMARK VINA RESULT:    25.665      4.041     10.959
REMARK INTER + INTRA:          62.461
REMARK INTER:                  64.245
REMARK INTRA:                  -1.784
REMARK UNBOUND:                -2.214
REMARK SMILES CCCCCCCCCCCCCCCCCCCCCCCCCCCC(=O)[O-]
REMARK SMILES IDX 15 1 16 2 17 3 18 4 19 5 20 6 21 7 22 8 23 9 24 10 25 11
REMARK SMILES IDX 26 12 27 13 28 14 29 15 30 16 14 17 13 18 12 19 11 20 10 21
REMARK SMILES IDX 9 22 8 23 7 24 6 25 5 26 4 27 3 28 2 29 1 30
REMARK H PARENT
REMARK Flexibility Score: inf
ROOT
ATOM      1  C   UNL     1      -0.837  19.101  19.771  1.00  0.00     0.000 C 
ENDROOT
BRANCH   1   2
ATOM      2  C   UNL     1      -1.171  19.729  21.132  1.00  0.00     0.000 C 
BRANCH   2   3
ATOM      3  C   UNL     1       0.004  20.568  21.658  1.00  0.00     0.000 C 
BRANCH   3   4
ATOM      4  C   UNL     1      -0.452  21.862  22.355  1.00  0.00     0.000 C 
BRANCH   4   5
ATOM      5  C   UNL     1      -1.869  21.813  22.962  1.00  0.00     0.000 C 
BRANCH   5   6
ATOM      6  C   UNL     1      -2.663  23.132  22.874  1.00  0.00     0.000 C 
BRANCH   6   7
ATOM      7  C   UNL     1      -1.875  24.390  23.283  1.00  0.00     0.000 C 
BRANCH   7   8
ATOM      8  C   UNL     1      -2.718  25.672  23.195  1.00  0.00     0.000 C 
BRANCH   8   9
ATOM      9  C   UNL     1      -3.542  25.702  21.901  1.00  0.00     0.000 C 
BRANCH   9  10
ATOM     10  C   UNL     1      -3.802  27.131  21.396  1.00  0.00     0.000 C 
BRANCH  10  11
ATOM     11  C   UNL     1      -4.744  27.171  20.184  1.00  0.00     0.000 C 
BRANCH  11  12
ATOM     12  C   UNL     1      -4.084  27.892  18.999  1.00  0.00     0.006 C 
BRANCH  12  13
ATOM     13  C   UNL     1      -2.638  28.308  19.304  1.00  0.00     0.053 C 
BRANCH  13  14
ATOM     14  C   UNL     1      -2.569  29.681  19.900  1.00  0.00     0.041 C 
ATOM     15  O   UNL     1      -3.597  30.406  19.943  1.00  0.00    -0.550 OA
ATOM     16  O   UNL     1      -1.374  30.148  20.434  1.00  0.00    -0.550 OA
ENDBRANCH  13  14
ENDBRANCH  12  13
ENDBRANCH  11  12
ENDBRANCH  10  11
ENDBRANCH   9  10
ENDBRANCH   8   9
ENDBRANCH   7   8
ENDBRANCH   6   7
ENDBRANCH   5   6
ENDBRANCH   4   5
ENDBRANCH   3   4
ENDBRANCH   2   3
ENDBRANCH   1   2
BRANCH   1  17
ATOM     17  C   UNL     1       0.121  17.903  19.886  1.00  0.00     0.000 C 
BRANCH  17  18
ATOM     18  C   UNL     1      -0.456  16.670  20.609  1.00  0.00     0.000 C 
BRANCH  18  19
ATOM     19  C   UNL     1      -0.047  15.323  19.979  1.00  0.00     0.000 C 
BRANCH  19  20
ATOM     20  C   UNL     1      -0.999  14.875  18.856  1.00  0.00     0.000 C 
BRANCH  20  21
ATOM     21  C   UNL     1      -0.750  13.426  18.411  1.00  0.00     0.000 C 
BRANCH  21  22
ATOM     22  C   UNL     1      -1.684  12.421  19.110  1.00  0.00    -0.000 C 
BRANCH  22  23
ATOM     23  C   UNL     1      -3.129  12.937  19.240  1.00  0.00    -0.000 C 
BRANCH  23  24
ATOM     24  C   UNL     1      -3.597  13.199  20.683  1.00  0.00    -0.000 C 
BRANCH  24  25
ATOM     25  C   UNL     1      -4.642  14.319  20.785  1.00  0.00    -0.000 C 
BRANCH  25  26
ATOM     26  C   UNL     1      -3.965  15.682  20.977  1.00  0.00    -0.000 C 
BRANCH  26  27
ATOM     27  C   UNL     1      -5.001  16.809  21.077  1.00  0.00    -0.000 C 
BRANCH  27  28
ATOM     28  C   UNL     1      -5.990  16.749  19.903  1.00  0.00    -0.000 C 
BRANCH  28  29
ATOM     29  C   UNL     1      -7.424  17.111  20.320  1.00  0.00    -0.003 C 
ATOM     30  C   UNL     1      -8.414  15.967  20.094  1.00  0.00     0.004 C 
ENDBRANCH  28  29
ENDBRANCH  27  28
ENDBRANCH  26  27
ENDBRANCH  25  26
ENDBRANCH  24  25
ENDBRANCH  23  24
ENDBRANCH  22  23
ENDBRANCH  21  22
ENDBRANCH  20  21
ENDBRANCH  19  20
ENDBRANCH  18  19
ENDBRANCH  17  18
ENDBRANCH   1  17
TORSDOF 26
ENDMDL
MODEL 3
REMARK VINA RESULT:    25.829      0.801      1.321
REMARK INTER + INTRA:          62.874
REMARK INTER:                  63.896
REMARK INTRA:                  -1.022
REMARK UNBOUND:                -2.214
REMARK SMILES CCCCCCCCCCCCCCCCCCCCCCCCCCCC(=O)[O-]
REMARK SMILES IDX 15 1 16 2 17 3 18 4 19 5 20 6 21 7 22 8 23 9 24 10 25 11
REMARK SMILES IDX 26 12 27 13 28 14 29 15 30 16 14 17 13 18 12 19 11 20 10 21
REMARK SMILES IDX 9 22 8 23 7 24 6 25 5 26 4 27 3 28 2 29 1 30
REMARK H PARENT
REMARK Flexibility Score: inf
ROOT
ATOM      1  C   UNL     1      -1.171  18.027  20.786  1.00  0.00     0.000 C 
ENDROOT
BRANCH   1   2
ATOM      2  C   UNL     1      -0.064  17.344  19.970  1.00  0.00     0.000 C 
BRANCH   2   3
ATOM      3  C   UNL     1      -0.106  15.818  20.146  1.00  0.00     0.000 C 
BRANCH   3   4
ATOM      4  C   UNL     1      -1.065  15.129  19.158  1.00  0.00     0.000 C 
BRANCH   4   5
ATOM      5  C   UNL     1      -0.454  13.955  18.366  1.00  0.00     0.000 C 
BRANCH   5   6
ATOM      6  C   UNL     1      -1.315  12.676  18.326  1.00  0.00     0.000 C 
BRANCH   6   7
ATOM      7  C   UNL     1      -2.006  12.320  19.655  1.00  0.00     0.000 C 
BRANCH   7   8
ATOM      8  C   UNL     1      -3.508  12.641  19.647  1.00  0.00     0.000 C 
BRANCH   8   9
ATOM      9  C   UNL     1      -3.902  13.466  20.881  1.00  0.00     0.000 C 
BRANCH   9  10
ATOM     10  C   UNL     1      -4.929  14.563  20.559  1.00  0.00     0.000 C 
BRANCH  10  11
ATOM     11  C   UNL     1      -4.356  15.979  20.717  1.00  0.00     0.000 C 
BRANCH  11  12
ATOM     12  C   UNL     1      -5.437  16.959  21.194  1.00  0.00     0.006 C 
BRANCH  12  13
ATOM     13  C   UNL     1      -6.429  17.318  20.079  1.00  0.00     0.053 C 
BRANCH  13  14
ATOM     14  C   UNL     1      -7.715  16.561  20.216  1.00  0.00     0.041 C 
ATOM     15  O   UNL     1      -8.811  17.118  19.944  1.00  0.00    -0.550 OA
ATOM     16  O   UNL     1      -7.699  15.230  20.616  1.00  0.00    -0.550 OA
ENDBRANCH  13  14
ENDBRANCH  12  13
ENDBRANCH  11  12
ENDBRANCH  10  11
ENDBRANCH   9  10
ENDBRANCH   8   9
ENDBRANCH   7   8
ENDBRANCH   6   7
ENDBRANCH   5   6
ENDBRANCH   4   5
ENDBRANCH   3   4
ENDBRANCH   2   3
ENDBRANCH   1   2
BRANCH   1  17
ATOM     17  C   UNL     1      -1.063  19.561  20.768  1.00  0.00     0.000 C 
BRANCH  17  18
ATOM     18  C   UNL     1       0.044  20.151  21.663  1.00  0.00     0.000 C 
BRANCH  18  19
ATOM     19  C   UNL     1      -0.198  21.615  22.082  1.00  0.00     0.000 C 
BRANCH  19  20
ATOM     20  C   UNL     1      -1.693  21.954  22.228  1.00  0.00     0.000 C 
BRANCH  20  21
ATOM     21  C   UNL     1      -1.958  22.997  23.325  1.00  0.00     0.000 C 
BRANCH  21  22
ATOM     22  C   UNL     1      -3.159  23.904  23.005  1.00  0.00    -0.000 C 
BRANCH  22  23
ATOM     23  C   UNL     1      -2.740  25.315  22.551  1.00  0.00    -0.000 C 
BRANCH  23  24
ATOM     24  C   UNL     1      -3.444  25.824  21.280  1.00  0.00    -0.000 C 
BRANCH  24  25
ATOM     25  C   UNL     1      -3.898  27.287  21.385  1.00  0.00    -0.000 C 
BRANCH  25  26
ATOM     26  C   UNL     1      -4.865  27.641  20.249  1.00  0.00    -0.000 C 
BRANCH  26  27
ATOM     27  C   UNL     1      -4.108  28.009  18.967  1.00  0.00    -0.000 C 
BRANCH  27  28
ATOM     28  C   UNL     1      -2.674  28.457  19.287  1.00  0.00    -0.000 C 
BRANCH  28  29
ATOM     29  C   UNL     1      -2.596  29.931  19.713  1.00  0.00    -0.003 C 
ATOM     30  C   UNL     1      -1.455  30.205  20.695  1.00  0.00     0.004 C 
ENDBRANCH  28  29
ENDBRANCH  27  28
ENDBRANCH  26  27
ENDBRANCH  25  26
ENDBRANCH  24  25
ENDBRANCH  23  24
ENDBRANCH  22  23
ENDBRANCH  21  22
ENDBRANCH  20  21
ENDBRANCH  19  20
ENDBRANCH  18  19
ENDBRANCH  17  18
ENDBRANCH   1  17
TORSDOF 26
ENDMDL
MODEL 4
REMARK VINA RESULT:    26.237      3.987     10.736
REMARK INTER + INTRA:          63.901
REMARK INTER:                  65.576
REMARK INTRA:                  -1.675
REMARK UNBOUND:                -2.214
REMARK SMILES CCCCCCCCCCCCCCCCCCCCCCCCCCCC(=O)[O-]
REMARK SMILES IDX 15 1 16 2 17 3 18 4 19 5 20 6 21 7 22 8 23 9 24 10 25 11
REMARK SMILES IDX 26 12 27 13 28 14 29 15 30 16 14 17 13 18 12 19 11 20 10 21
REMARK SMILES IDX 9 22 8 23 7 24 6 25 5 26 4 27 3 28 2 29 1 30
REMARK H PARENT
REMARK Flexibility Score: inf
ROOT
ATOM      1  C   UNL     1      -0.566  16.908  20.877  1.00  0.00     0.000 C 
ENDROOT
BRANCH   1   2
ATOM      2  C   UNL     1      -0.387  18.203  20.071  1.00  0.00     0.000 C 
BRANCH   2   3
ATOM      3  C   UNL     1      -1.203  19.353  20.681  1.00  0.00     0.000 C 
BRANCH   3   4
ATOM      4  C   UNL     1      -0.335  20.567  21.058  1.00  0.00     0.000 C 
BRANCH   4   5
ATOM      5  C   UNL     1      -0.620  21.167  22.449  1.00  0.00     0.000 C 
BRANCH   5   6
ATOM      6  C   UNL     1      -0.942  22.675  22.456  1.00  0.00     0.000 C 
BRANCH   6   7
ATOM      7  C   UNL     1      -2.407  23.023  22.777  1.00  0.00     0.000 C 
BRANCH   7   8
ATOM      8  C   UNL     1      -2.603  24.508  23.117  1.00  0.00     0.000 C 
BRANCH   8   9
ATOM      9  C   UNL     1      -2.732  25.354  21.842  1.00  0.00     0.000 C 
BRANCH   9  10
ATOM     10  C   UNL     1      -4.122  25.994  21.692  1.00  0.00     0.000 C 
BRANCH  10  11
ATOM     11  C   UNL     1      -4.061  27.421  21.129  1.00  0.00     0.000 C 
BRANCH  11  12
ATOM     12  C   UNL     1      -3.859  27.402  19.607  1.00  0.00     0.006 C 
BRANCH  12  13
ATOM     13  C   UNL     1      -2.690  28.293  19.165  1.00  0.00     0.053 C 
BRANCH  13  14
ATOM     14  C   UNL     1      -2.727  29.632  19.839  1.00  0.00     0.041 C 
ATOM     15  O   UNL     1      -3.802  30.282  19.899  1.00  0.00    -0.550 OA
ATOM     16  O   UNL     1      -1.577  30.146  20.427  1.00  0.00    -0.550 OA
ENDBRANCH  13  14
ENDBRANCH  12  13
ENDBRANCH  11  12
ENDBRANCH  10  11
ENDBRANCH   9  10
ENDBRANCH   8   9
ENDBRANCH   7   8
ENDBRANCH   6   7
ENDBRANCH   5   6
ENDBRANCH   4   5
ENDBRANCH   3   4
ENDBRANCH   2   3
ENDBRANCH   1   2
BRANCH   1  17
ATOM     17  C   UNL     1      -0.047  15.666  20.132  1.00  0.00     0.000 C 
BRANCH  17  18
ATOM     18  C   UNL     1      -0.946  15.168  18.983  1.00  0.00     0.000 C 
BRANCH  18  19
ATOM     19  C   UNL     1      -0.293  14.086  18.098  1.00  0.00     0.000 C 
BRANCH  19  20
ATOM     20  C   UNL     1      -0.923  12.695  18.293  1.00  0.00     0.000 C 
BRANCH  20  21
ATOM     21  C   UNL     1      -1.755  12.599  19.582  1.00  0.00     0.000 C 
BRANCH  21  22
ATOM     22  C   UNL     1      -3.201  12.140  19.323  1.00  0.00    -0.000 C 
BRANCH  22  23
ATOM     23  C   UNL     1      -4.247  13.032  20.016  1.00  0.00    -0.000 C 
BRANCH  23  24
ATOM     24  C   UNL     1      -3.671  14.254  20.754  1.00  0.00    -0.000 C 
BRANCH  24  25
ATOM     25  C   UNL     1      -4.751  15.136  21.397  1.00  0.00    -0.000 C 
BRANCH  25  26
ATOM     26  C   UNL     1      -4.673  16.572  20.862  1.00  0.00    -0.000 C 
BRANCH  26  27
ATOM     27  C   UNL     1      -5.996  16.997  20.214  1.00  0.00    -0.000 C 
BRANCH  27  28
ATOM     28  C   UNL     1      -6.879  15.775  19.918  1.00  0.00    -0.000 C 
BRANCH  28  29
ATOM     29  C   UNL     1      -8.333  15.972  20.374  1.00  0.00    -0.003 C 
ATOM     30  C   UNL     1      -8.927  17.301  19.904  1.00  0.00     0.004 C 
ENDBRANCH  28  29
ENDBRANCH  27  28
ENDBRANCH  26  27
ENDBRANCH  25  26
ENDBRANCH  24  25
ENDBRANCH  23  24
ENDBRANCH  22  23
ENDBRANCH  21  22
ENDBRANCH  20  21
ENDBRANCH  19  20
ENDBRANCH  18  19
ENDBRANCH  17  18
ENDBRANCH   1  17
TORSDOF 26
ENDMDL
MODEL 5
REMARK VINA RESULT:    27.696      1.703      2.039
REMARK INTER + INTRA:          67.580
REMARK INTER:                  69.183
REMARK INTRA:                  -1.604
REMARK UNBOUND:                -2.214
REMARK SMILES CCCCCCCCCCCCCCCCCCCCCCCCCCCC(=O)[O-]
REMARK SMILES IDX 15 1 16 2 17 3 18 4 19 5 20 6 21 7 22 8 23 9 24 10 25 11
REMARK SMILES IDX 26 12 27 13 28 14 29 15 30 16 14 17 13 18 12 19 11 20 10 21
REMARK SMILES IDX 9 22 8 23 7 24 6 25 5 26 4 27 3 28 2 29 1 30
REMARK H PARENT
REMARK Flexibility Score: inf
ROOT
ATOM      1  C   UNL     1       0.127  17.336  19.867  1.00  0.00     0.000 C 
ENDROOT
BRANCH   1   2
ATOM      2  C   UNL     1      -0.022  15.824  20.090  1.00  0.00     0.000 C 
BRANCH   2   3
ATOM      3  C   UNL     1      -0.822  15.172  18.951  1.00  0.00     0.000 C 
BRANCH   3   4
ATOM      4  C   UNL     1      -0.305  13.769  18.586  1.00  0.00     0.000 C 
BRANCH   4   5
ATOM      5  C   UNL     1      -1.337  12.634  18.735  1.00  0.00     0.000 C 
BRANCH   5   6
ATOM      6  C   UNL     1      -2.810  13.090  18.759  1.00  0.00     0.000 C 
BRANCH   6   7
ATOM      7  C   UNL     1      -3.560  12.785  20.069  1.00  0.00     0.000 C 
BRANCH   7   8
ATOM      8  C   UNL     1      -3.683  14.015  20.982  1.00  0.00     0.000 C 
BRANCH   8   9
ATOM      9  C   UNL     1      -5.062  14.674  20.837  1.00  0.00     0.000 C 
BRANCH   9  10
ATOM     10  C   UNL     1      -5.001  16.207  20.934  1.00  0.00     0.000 C 
BRANCH  10  11
ATOM     11  C   UNL     1      -6.253  16.889  20.363  1.00  0.00     0.000 C 
BRANCH  11  12
ATOM     12  C   UNL     1      -5.939  17.588  19.032  1.00  0.00     0.006 C 
BRANCH  12  13
ATOM     13  C   UNL     1      -6.540  18.998  18.961  1.00  0.00     0.053 C 
BRANCH  13  14
ATOM     14  C   UNL     1      -6.423  19.583  17.586  1.00  0.00     0.041 C 
ATOM     15  O   UNL     1      -5.997  18.880  16.632  1.00  0.00    -0.550 OA
ATOM     16  O   UNL     1      -6.812  20.897  17.354  1.00  0.00    -0.550 OA
ENDBRANCH  13  14
ENDBRANCH  12  13
ENDBRANCH  11  12
ENDBRANCH  10  11
ENDBRANCH   9  10
ENDBRANCH   8   9
ENDBRANCH   7   8
ENDBRANCH   6   7
ENDBRANCH   5   6
ENDBRANCH   4   5
ENDBRANCH   3   4
ENDBRANCH   2   3
ENDBRANCH   1   2
BRANCH   1  17
ATOM     17  C   UNL     1      -0.786  18.167  20.786  1.00  0.00     0.000 C 
BRANCH  17  18
ATOM     18  C   UNL     1      -0.853  19.670  20.456  1.00  0.00     0.000 C 
BRANCH  18  19
ATOM     19  C   UNL     1      -1.388  20.544  21.610  1.00  0.00     0.000 C 
BRANCH  19  20
ATOM     20  C   UNL     1      -0.307  21.456  22.218  1.00  0.00     0.000 C 
BRANCH  20  21
ATOM     21  C   UNL     1      -0.752  22.924  22.304  1.00  0.00     0.000 C 
BRANCH  21  22
ATOM     22  C   UNL     1      -2.037  23.108  23.131  1.00  0.00    -0.000 C 
BRANCH  22  23
ATOM     23  C   UNL     1      -3.095  23.965  22.413  1.00  0.00    -0.000 C 
BRANCH  23  24
ATOM     24  C   UNL     1      -2.626  25.376  22.013  1.00  0.00    -0.000 C 
BRANCH  24  25
ATOM     25  C   UNL     1      -3.740  26.230  21.392  1.00  0.00    -0.000 C 
BRANCH  25  26
ATOM     26  C   UNL     1      -3.178  27.154  20.305  1.00  0.00    -0.000 C 
BRANCH  26  27
ATOM     27  C   UNL     1      -4.215  28.197  19.869  1.00  0.00    -0.000 C 
BRANCH  27  28
ATOM     28  C   UNL     1      -3.656  29.620  20.016  1.00  0.00    -0.000 C 
BRANCH  28  29
ATOM     29  C   UNL     1      -2.158  29.704  19.680  1.00  0.00    -0.003 C 
ATOM     30  C   UNL     1      -1.335  30.344  20.799  1.00  0.00     0.004 C 
ENDBRANCH  28  29
ENDBRANCH  27  28
ENDBRANCH  26  27
ENDBRANCH  25  26
ENDBRANCH  24  25
ENDBRANCH  23  24
ENDBRANCH  22  23
ENDBRANCH  21  22
ENDBRANCH  20  21
ENDBRANCH  19  20
ENDBRANCH  18  19
ENDBRANCH  17  18
ENDBRANCH   1  17
TORSDOF 26
ENDMDL
MODEL 6
REMARK VINA RESULT:    28.181      3.973      9.570
REMARK INTER + INTRA:          68.800
REMARK INTER:                  70.263
REMARK INTRA:                  -1.463
REMARK UNBOUND:                -2.214
REMARK SMILES CCCCCCCCCCCCCCCCCCCCCCCCCCCC(=O)[O-]
REMARK SMILES IDX 15 1 16 2 17 3 18 4 19 5 20 6 21 7 22 8 23 9 24 10 25 11
REMARK SMILES IDX 26 12 27 13 28 14 29 15 30 16 14 17 13 18 12 19 11 20 10 21
REMARK SMILES IDX 9 22 8 23 7 24 6 25 5 26 4 27 3 28 2 29 1 30
REMARK H PARENT
REMARK Flexibility Score: inf
ROOT
ATOM      1  C   UNL     1      -0.772  15.260  19.949  1.00  0.00     0.000 C 
ENDROOT
BRANCH   1   2
ATOM      2  C   UNL     1      -0.043  16.611  19.899  1.00  0.00     0.000 C 
BRANCH   2   3
ATOM      3  C   UNL     1      -0.767  17.663  20.754  1.00  0.00     0.000 C 
BRANCH   3   4
ATOM      4  C   UNL     1      -0.414  19.106  20.350  1.00  0.00     0.000 C 
BRANCH   4   5
ATOM      5  C   UNL     1      -1.225  20.202  21.069  1.00  0.00     0.000 C 
BRANCH   5   6
ATOM      6  C   UNL     1      -0.472  20.939  22.195  1.00  0.00     0.000 C 
BRANCH   6   7
ATOM      7  C   UNL     1      -0.734  22.454  22.265  1.00  0.00     0.000 C 
BRANCH   7   8
ATOM      8  C   UNL     1      -2.212  22.790  22.519  1.00  0.00     0.000 C 
BRANCH   8   9
ATOM      9  C   UNL     1      -2.368  24.218  23.060  1.00  0.00     0.000 C 
BRANCH   9  10
ATOM     10  C   UNL     1      -3.439  25.024  22.307  1.00  0.00     0.000 C 
BRANCH  10  11
ATOM     11  C   UNL     1      -2.857  26.232  21.559  1.00  0.00     0.000 C 
BRANCH  11  12
ATOM     12  C   UNL     1      -3.965  27.024  20.849  1.00  0.00     0.006 C 
BRANCH  12  13
ATOM     13  C   UNL     1      -3.447  27.761  19.607  1.00  0.00     0.053 C 
BRANCH  13  14
ATOM     14  C   UNL     1      -3.235  29.220  19.875  1.00  0.00     0.041 C 
ATOM     15  O   UNL     1      -4.216  29.970  20.115  1.00  0.00    -0.550 OA
ATOM     16  O   UNL     1      -1.947  29.745  19.886  1.00  0.00    -0.550 OA
ENDBRANCH  13  14
ENDBRANCH  12  13
ENDBRANCH  11  12
ENDBRANCH  10  11
ENDBRANCH   9  10
ENDBRANCH   8   9
ENDBRANCH   7   8
ENDBRANCH   6   7
ENDBRANCH   5   6
ENDBRANCH   4   5
ENDBRANCH   3   4
ENDBRANCH   2   3
ENDBRANCH   1   2
BRANCH   1  17
ATOM     17  C   UNL     1      -0.733  14.512  18.606  1.00  0.00     0.000 C 
BRANCH  17  18
ATOM     18  C   UNL     1      -1.043  13.005  18.686  1.00  0.00     0.000 C 
BRANCH  18  19
ATOM     19  C   UNL     1      -2.548  12.668  18.640  1.00  0.00     0.000 C 
BRANCH  19  20
ATOM     20  C   UNL     1      -3.130  12.348  20.028  1.00  0.00     0.000 C 
BRANCH  20  21
ATOM     21  C   UNL     1      -4.449  13.087  20.300  1.00  0.00     0.000 C 
BRANCH  21  22
ATOM     22  C   UNL     1      -4.232  14.498  20.876  1.00  0.00    -0.000 C 
BRANCH  22  23
ATOM     23  C   UNL     1      -4.900  15.599  20.031  1.00  0.00    -0.000 C 
BRANCH  23  24
ATOM     24  C   UNL     1      -6.084  16.310  20.711  1.00  0.00    -0.000 C 
BRANCH  24  25
ATOM     25  C   UNL     1      -5.770  17.760  21.110  1.00  0.00    -0.000 C 
BRANCH  25  26
ATOM     26  C   UNL     1      -5.441  18.606  19.874  1.00  0.00    -0.000 C 
BRANCH  26  27
ATOM     27  C   UNL     1      -6.259  18.157  18.657  1.00  0.00    -0.000 C 
BRANCH  27  28
ATOM     28  C   UNL     1      -6.079  19.135  17.485  1.00  0.00    -0.000 C 
BRANCH  28  29
ATOM     29  C   UNL     1      -6.866  20.440  17.679  1.00  0.00    -0.003 C 
ATOM     30  C   UNL     1      -8.172  20.468  16.884  1.00  0.00     0.004 C 
ENDBRANCH  28  29
ENDBRANCH  27  28
ENDBRANCH  26  27
ENDBRANCH  25  26
ENDBRANCH  24  25
ENDBRANCH  23  24
ENDBRANCH  22  23
ENDBRANCH  21  22
ENDBRANCH  20  21
ENDBRANCH  19  20
ENDBRANCH  18  19
ENDBRANCH  17  18
ENDBRANCH   1  17
TORSDOF 26
ENDMDL
