MODEL 1
REMARK VINA RESULT:    -4.128      0.000      0.000
REMARK INTER + INTRA:          -8.500
REMARK INTER:                  -7.023
REMARK INTRA:                  -1.477
REMARK UNBOUND:                -1.477
REMARK SMILES CCCCCCCCCCCCCC(=O)[O-]
REMARK SMILES IDX 8 1 9 2 10 3 11 4 12 5 13 6 14 7 15 8 16 9 7 10 6 11 5 12
REMARK SMILES IDX 4 13 3 14 2 15 1 16
REMARK H PARENT
REMARK Flexibility Score: inf
ROOT
ATOM      1  C   UNL     1     -22.724 -12.322 -18.945  1.00  0.00     0.000 C 
ENDROOT
BRANCH   1   2
ATOM      2  C   UNL     1     -22.587 -12.108 -17.427  1.00  0.00     0.000 C 
BRANCH   2   3
ATOM      3  C   UNL     1     -22.523 -13.433 -16.651  1.00  0.00     0.000 C 
BRANCH   3   4
ATOM      4  C   UNL     1     -22.612 -13.229 -15.128  1.00  0.00     0.000 C 
BRANCH   4   5
ATOM      5  C   UNL     1     -23.526 -14.259 -14.446  1.00  0.00     0.006 C 
BRANCH   5   6
ATOM      6  C   UNL     1     -24.881 -13.666 -14.036  1.00  0.00     0.053 C 
BRANCH   6   7
ATOM      7  C   UNL     1     -25.920 -14.739 -13.967  1.00  0.00     0.041 C 
ATOM      8  O   UNL     1     -27.140 -14.447 -14.068  1.00  0.00    -0.550 OA
ATOM      9  O   UNL     1     -25.544 -16.057 -13.743  1.00  0.00    -0.550 OA
ENDBRANCH   6   7
ENDBRANCH   5   6
ENDBRANCH   4   5
ENDBRANCH   3   4
ENDBRANCH   2   3
ENDBRANCH   1   2
BRANCH   1  10
ATOM     10  C   UNL     1     -22.944 -13.797 -19.320  1.00  0.00     0.000 C 
BRANCH  10  11
ATOM     11  C   UNL     1     -22.204 -14.260 -20.590  1.00  0.00    -0.000 C 
BRANCH  11  12
ATOM     12  C   UNL     1     -20.889 -13.514 -20.893  1.00  0.00    -0.000 C 
BRANCH  12  13
ATOM     13  C   UNL     1     -19.655 -14.031 -20.131  1.00  0.00    -0.000 C 
BRANCH  13  14
ATOM     14  C   UNL     1     -19.221 -13.095 -18.991  1.00  0.00    -0.000 C 
BRANCH  14  15
ATOM     15  C   UNL     1     -18.965 -13.848 -17.677  1.00  0.00    -0.003 C 
ATOM     16  C   UNL     1     -19.491 -15.283 -17.704  1.00  0.00     0.004 C 
ENDBRANCH  14  15
ENDBRANCH  13  14
ENDBRANCH  12  13
ENDBRANCH  11  12
ENDBRANCH  10  11
ENDBRANCH   1  10
TORSDOF 12
ENDMDL
MODEL 2
REMARK VINA RESULT:    -4.072      1.627      2.469
REMARK INTER + INTRA:          -8.406
REMARK INTER:                  -6.468
REMARK INTRA:                  -1.938
REMARK UNBOUND:                -1.477
REMARK SMILES CCCCCCCCCCCCCC(=O)[O-]
REMARK SMILES IDX 8 1 9 2 10 3 11 4 12 5 13 6 14 7 15 8 16 9 7 10 6 11 5 12
REMARK SMILES IDX 4 13 3 14 2 15 1 16
REMARK H PARENT
REMARK Flexibility Score: inf
ROOT
ATOM      1  C   UNL     1     -22.996 -14.001 -19.997  1.00  0.00     0.000 C 
ENDROOT
BRANCH   1   2
ATOM      2  C   UNL     1     -22.224 -15.325 -19.858  1.00  0.00     0.000 C 
BRANCH   2   3
ATOM      3  C   UNL     1     -22.024 -15.738 -18.391  1.00  0.00     0.000 C 
BRANCH   3   4
ATOM      4  C   UNL     1     -22.963 -14.984 -17.433  1.00  0.00     0.000 C 
BRANCH   4   5
ATOM      5  C   UNL     1     -22.200 -14.192 -16.360  1.00  0.00     0.006 C 
BRANCH   5   6
ATOM      6  C   UNL     1     -22.926 -12.905 -15.948  1.00  0.00     0.053 C 
BRANCH   6   7
ATOM      7  C   UNL     1     -23.668 -13.113 -14.666  1.00  0.00     0.041 C 
ATOM      8  O   UNL     1     -24.252 -12.147 -14.108  1.00  0.00    -0.550 OA
ATOM      9  O   UNL     1     -23.675 -14.363 -14.061  1.00  0.00    -0.550 OA
ENDBRANCH   6   7
ENDBRANCH   5   6
ENDBRANCH   4   5
ENDBRANCH   3   4
ENDBRANCH   2   3
ENDBRANCH   1   2
BRANCH   1  10
ATOM     10  C   UNL     1     -22.073 -12.801 -20.269  1.00  0.00     0.000 C 
BRANCH  10  11
ATOM     11  C   UNL     1     -20.781 -13.140 -21.039  1.00  0.00    -0.000 C 
BRANCH  11  12
ATOM     12  C   UNL     1     -19.480 -13.032 -20.219  1.00  0.00    -0.000 C 
BRANCH  12  13
ATOM     13  C   UNL     1     -19.666 -12.609 -18.751  1.00  0.00    -0.000 C 
BRANCH  13  14
ATOM     14  C   UNL     1     -19.029 -13.597 -17.760  1.00  0.00    -0.000 C 
BRANCH  14  15
ATOM     15  C   UNL     1     -18.289 -14.744 -18.465  1.00  0.00    -0.003 C 
ATOM     16  C   UNL     1     -18.395 -16.070 -17.712  1.00  0.00     0.004 C 
ENDBRANCH  14  15
ENDBRANCH  13  14
ENDBRANCH  12  13
ENDBRANCH  11  12
ENDBRANCH  10  11
ENDBRANCH   1  10
TORSDOF 12
ENDMDL
MODEL 3
REMARK VINA RESULT:    -4.014      3.425      6.512
REMARK INTER + INTRA:          -8.308
REMARK INTER:                  -7.083
REMARK INTRA:                  -1.225
REMARK UNBOUND:                -1.477
REMARK SMILES CCCCCCCCCCCCCC(=O)[O-]
REMARK SMILES IDX 8 1 9 2 10 3 11 4 12 5 13 6 14 7 15 8 16 9 7 10 6 11 5 12
REMARK SMILES IDX 4 13 3 14 2 15 1 16
REMARK H PARENT
REMARK Flexibility Score: inf
ROOT
ATOM      1  C   UNL     1     -22.671 -13.396 -17.327  1.00  0.00     0.000 C 
ENDROOT
BRANCH   1   2
ATOM      2  C   UNL     1     -21.896 -14.595 -16.752  1.00  0.00     0.000 C 
BRANCH   2   3
ATOM      3  C   UNL     1     -20.655 -14.948 -17.588  1.00  0.00     0.000 C 
BRANCH   3   4
ATOM      4  C   UNL     1     -19.543 -13.891 -17.468  1.00  0.00     0.000 C 
BRANCH   4   5
ATOM      5  C   UNL     1     -19.530 -12.910 -18.650  1.00  0.00     0.006 C 
BRANCH   5   6
ATOM      6  C   UNL     1     -19.736 -13.610 -20.000  1.00  0.00     0.053 C 
BRANCH   6   7
ATOM      7  C   UNL     1     -20.901 -13.014 -20.724  1.00  0.00     0.041 C 
ATOM      8  O   UNL     1     -20.804 -11.875 -21.252  1.00  0.00    -0.550 OA
ATOM      9  O   UNL     1     -22.111 -13.694 -20.775  1.00  0.00    -0.550 OA
ENDBRANCH   6   7
ENDBRANCH   5   6
ENDBRANCH   4   5
ENDBRANCH   3   4
ENDBRANCH   2   3
ENDBRANCH   1   2
BRANCH   1  10
ATOM     10  C   UNL     1     -22.958 -12.314 -16.271  1.00  0.00     0.000 C 
BRANCH  10  11
ATOM     11  C   UNL     1     -23.115 -12.840 -14.831  1.00  0.00    -0.000 C 
BRANCH  11  12
ATOM     12  C   UNL     1     -24.534 -12.724 -14.239  1.00  0.00    -0.000 C 
BRANCH  12  13
ATOM     13  C   UNL     1     -25.256 -14.063 -14.006  1.00  0.00    -0.000 C 
BRANCH  13  14
ATOM     14  C   UNL     1     -24.299 -15.267 -14.010  1.00  0.00    -0.000 C 
BRANCH  14  15
ATOM     15  C   UNL     1     -24.916 -16.508 -14.674  1.00  0.00    -0.003 C 
ATOM     16  C   UNL     1     -24.139 -16.968 -15.907  1.00  0.00     0.004 C 
ENDBRANCH  14  15
ENDBRANCH  13  14
ENDBRANCH  12  13
ENDBRANCH  11  12
ENDBRANCH  10  11
ENDBRANCH   1  10
TORSDOF 12
ENDMDL
MODEL 4
REMARK VINA RESULT:    -3.998      3.405      6.141
REMARK INTER + INTRA:          -8.279
REMARK INTER:                  -6.912
REMARK INTRA:                  -1.367
REMARK UNBOUND:                -1.477
REMARK SMILES CCCCCCCCCCCCCC(=O)[O-]
REMARK SMILES IDX 8 1 9 2 10 3 11 4 12 5 13 6 14 7 15 8 16 9 7 10 6 11 5 12
REMARK SMILES IDX 4 13 3 14 2 15 1 16
REMARK H PARENT
REMARK Flexibility Score: inf
ROOT
ATOM      1  C   UNL     1     -19.356 -13.287 -19.140  1.00  0.00     0.000 C 
ENDROOT
BRANCH   1   2
ATOM      2  C   UNL     1     -20.141 -12.015 -19.506  1.00  0.00     0.000 C 
BRANCH   2   3
ATOM      3  C   UNL     1     -21.251 -12.285 -20.534  1.00  0.00     0.000 C 
BRANCH   3   4
ATOM      4  C   UNL     1     -22.549 -12.791 -19.879  1.00  0.00     0.000 C 
BRANCH   4   5
ATOM      5  C   UNL     1     -22.979 -14.169 -20.408  1.00  0.00     0.006 C 
BRANCH   5   6
ATOM      6  C   UNL     1     -21.940 -14.789 -21.352  1.00  0.00     0.053 C 
BRANCH   6   7
ATOM      7  C   UNL     1     -22.525 -15.962 -22.071  1.00  0.00     0.041 C 
ATOM      8  O   UNL     1     -22.608 -15.958 -23.327  1.00  0.00    -0.550 OA
ATOM      9  O   UNL     1     -23.023 -17.042 -21.353  1.00  0.00    -0.550 OA
ENDBRANCH   6   7
ENDBRANCH   5   6
ENDBRANCH   4   5
ENDBRANCH   3   4
ENDBRANCH   2   3
ENDBRANCH   1   2
BRANCH   1  10
ATOM     10  C   UNL     1     -19.454 -13.636 -17.645  1.00  0.00     0.000 C 
BRANCH  10  11
ATOM     11  C   UNL     1     -20.520 -14.692 -17.295  1.00  0.00    -0.000 C 
BRANCH  11  12
ATOM     12  C   UNL     1     -21.787 -14.144 -16.607  1.00  0.00    -0.000 C 
BRANCH  12  13
ATOM     13  C   UNL     1     -23.018 -15.066 -16.675  1.00  0.00    -0.000 C 
BRANCH  13  14
ATOM     14  C   UNL     1     -23.656 -15.313 -15.297  1.00  0.00    -0.000 C 
BRANCH  14  15
ATOM     15  C   UNL     1     -23.509 -14.107 -14.356  1.00  0.00    -0.003 C 
ATOM     16  C   UNL     1     -24.846 -13.432 -14.046  1.00  0.00     0.004 C 
ENDBRANCH  14  15
ENDBRANCH  13  14
ENDBRANCH  12  13
ENDBRANCH  11  12
ENDBRANCH  10  11
ENDBRANCH   1  10
TORSDOF 12
ENDMDL
MODEL 5
REMARK VINA RESULT:    -3.995      2.848      6.183
REMARK INTER + INTRA:          -8.274
REMARK INTER:                  -6.995
REMARK INTRA:                  -1.279
REMARK UNBOUND:                -1.477
REMARK SMILES CCCCCCCCCCCCCC(=O)[O-]
REMARK SMILES IDX 8 1 9 2 10 3 11 4 12 5 13 6 14 7 15 8 16 9 7 10 6 11 5 12
REMARK SMILES IDX 4 13 3 14 2 15 1 16
REMARK H PARENT
REMARK Flexibility Score: inf
ROOT
ATOM      1  C   UNL     1     -20.111 -15.040 -17.746  1.00  0.00     0.000 C 
ENDROOT
BRANCH   1   2
ATOM      2  C   UNL     1     -19.281 -13.753 -17.902  1.00  0.00     0.000 C 
BRANCH   2   3
ATOM      3  C   UNL     1     -19.216 -13.268 -19.359  1.00  0.00     0.000 C 
BRANCH   3   4
ATOM      4  C   UNL     1     -20.133 -12.060 -19.619  1.00  0.00     0.000 C 
BRANCH   4   5
ATOM      5  C   UNL     1     -21.182 -12.338 -20.706  1.00  0.00     0.006 C 
BRANCH   5   6
ATOM      6  C   UNL     1     -22.481 -12.923 -20.137  1.00  0.00     0.053 C 
BRANCH   6   7
ATOM      7  C   UNL     1     -22.601 -14.370 -20.495  1.00  0.00     0.041 C 
ATOM      8  O   UNL     1     -21.863 -14.866 -21.386  1.00  0.00    -0.550 OA
ATOM      9  O   UNL     1     -23.561 -15.162 -19.878  1.00  0.00    -0.550 OA
ENDBRANCH   6   7
ENDBRANCH   5   6
ENDBRANCH   4   5
ENDBRANCH   3   4
ENDBRANCH   2   3
ENDBRANCH   1   2
BRANCH   1  10
ATOM     10  C   UNL     1     -21.415 -14.814 -16.962  1.00  0.00     0.000 C 
BRANCH  10  11
ATOM     11  C   UNL     1     -21.726 -13.341 -16.632  1.00  0.00    -0.000 C 
BRANCH  11  12
ATOM     12  C   UNL     1     -23.118 -13.084 -16.021  1.00  0.00    -0.000 C 
BRANCH  12  13
ATOM     13  C   UNL     1     -23.266 -13.485 -14.542  1.00  0.00    -0.000 C 
BRANCH  13  14
ATOM     14  C   UNL     1     -24.046 -14.797 -14.354  1.00  0.00    -0.000 C 
BRANCH  14  15
ATOM     15  C   UNL     1     -25.521 -14.558 -13.995  1.00  0.00    -0.003 C 
ATOM     16  C   UNL     1     -26.259 -15.847 -13.634  1.00  0.00     0.004 C 
ENDBRANCH  14  15
ENDBRANCH  13  14
ENDBRANCH  12  13
ENDBRANCH  11  12
ENDBRANCH  10  11
ENDBRANCH   1  10
TORSDOF 12
ENDMDL
MODEL 6
REMARK VINA RESULT:    -3.984      1.455      2.872
REMARK INTER + INTRA:          -8.255
REMARK INTER:                  -6.769
REMARK INTRA:                  -1.487
REMARK UNBOUND:                -1.477
REMARK SMILES CCCCCCCCCCCCCC(=O)[O-]
REMARK SMILES IDX 8 1 9 2 10 3 11 4 12 5 13 6 14 7 15 8 16 9 7 10 6 11 5 12
REMARK SMILES IDX 4 13 3 14 2 15 1 16
REMARK H PARENT
REMARK Flexibility Score: inf
ROOT
ATOM      1  C   UNL     1     -20.839 -11.926 -19.003  1.00  0.00     0.000 C 
ENDROOT
BRANCH   1   2
ATOM      2  C   UNL     1     -22.215 -12.587 -18.807  1.00  0.00     0.000 C 
BRANCH   2   3
ATOM      3  C   UNL     1     -22.826 -12.275 -17.432  1.00  0.00     0.000 C 
BRANCH   3   4
ATOM      4  C   UNL     1     -22.846 -13.503 -16.504  1.00  0.00     0.000 C 
BRANCH   4   5
ATOM      5  C   UNL     1     -22.683 -13.126 -15.023  1.00  0.00     0.006 C 
BRANCH   5   6
ATOM      6  C   UNL     1     -24.023 -12.836 -14.336  1.00  0.00     0.053 C 
BRANCH   6   7
ATOM      7  C   UNL     1     -24.776 -14.107 -14.105  1.00  0.00     0.041 C 
ATOM      8  O   UNL     1     -26.035 -14.104 -14.091  1.00  0.00    -0.550 OA
ATOM      9  O   UNL     1     -24.089 -15.288 -13.859  1.00  0.00    -0.550 OA
ENDBRANCH   6   7
ENDBRANCH   5   6
ENDBRANCH   4   5
ENDBRANCH   3   4
ENDBRANCH   2   3
ENDBRANCH   1   2
BRANCH   1  10
ATOM     10  C   UNL     1     -19.696 -12.952 -19.102  1.00  0.00     0.000 C 
BRANCH  10  11
ATOM     11  C   UNL     1     -19.304 -13.615 -17.766  1.00  0.00    -0.000 C 
BRANCH  11  12
ATOM     12  C   UNL     1     -19.107 -15.143 -17.825  1.00  0.00    -0.000 C 
BRANCH  12  13
ATOM     13  C   UNL     1     -20.365 -15.976 -17.522  1.00  0.00    -0.000 C 
BRANCH  13  14
ATOM     14  C   UNL     1     -21.252 -16.192 -18.760  1.00  0.00    -0.000 C 
BRANCH  14  15
ATOM     15  C   UNL     1     -22.711 -16.502 -18.392  1.00  0.00    -0.003 C 
ATOM     16  C   UNL     1     -23.614 -16.639 -19.617  1.00  0.00     0.004 C 
ENDBRANCH  14  15
ENDBRANCH  13  14
ENDBRANCH  12  13
ENDBRANCH  11  12
ENDBRANCH  10  11
ENDBRANCH   1  10
TORSDOF 12
ENDMDL
MODEL 7
REMARK VINA RESULT:    -3.953      2.016      2.582
REMARK INTER + INTRA:          -8.203
REMARK INTER:                  -6.579
REMARK INTRA:                  -1.624
REMARK UNBOUND:                -1.477
REMARK SMILES CCCCCCCCCCCCCC(=O)[O-]
REMARK SMILES IDX 8 1 9 2 10 3 11 4 12 5 13 6 14 7 15 8 16 9 7 10 6 11 5 12
REMARK SMILES IDX 4 13 3 14 2 15 1 16
REMARK H PARENT
REMARK Flexibility Score: inf
ROOT
ATOM      1  C   UNL     1     -23.038 -12.960 -17.689  1.00  0.00     0.000 C 
ENDROOT
BRANCH   1   2
ATOM      2  C   UNL     1     -22.891 -12.325 -16.295  1.00  0.00     0.000 C 
BRANCH   2   3
ATOM      3  C   UNL     1     -22.622 -13.368 -15.199  1.00  0.00     0.000 C 
BRANCH   3   4
ATOM      4  C   UNL     1     -23.908 -14.067 -14.723  1.00  0.00     0.000 C 
BRANCH   4   5
ATOM      5  C   UNL     1     -23.802 -15.599 -14.778  1.00  0.00     0.006 C 
BRANCH   5   6
ATOM      6  C   UNL     1     -22.801 -16.085 -15.834  1.00  0.00     0.053 C 
BRANCH   6   7
ATOM      7  C   UNL     1     -23.515 -16.775 -16.951  1.00  0.00     0.041 C 
ATOM      8  O   UNL     1     -23.305 -16.433 -18.144  1.00  0.00    -0.550 OA
ATOM      9  O   UNL     1     -24.449 -17.765 -16.673  1.00  0.00    -0.550 OA
ENDBRANCH   6   7
ENDBRANCH   5   6
ENDBRANCH   4   5
ENDBRANCH   3   4
ENDBRANCH   2   3
ENDBRANCH   1   2
BRANCH   1  10
ATOM     10  C   UNL     1     -22.504 -12.056 -18.813  1.00  0.00     0.000 C 
BRANCH  10  11
ATOM     11  C   UNL     1     -22.395 -12.734 -20.194  1.00  0.00    -0.000 C 
BRANCH  11  12
ATOM     12  C   UNL     1     -21.024 -12.598 -20.886  1.00  0.00    -0.000 C 
BRANCH  12  13
ATOM     13  C   UNL     1     -19.846 -13.241 -20.133  1.00  0.00    -0.000 C 
BRANCH  13  14
ATOM     14  C   UNL     1     -20.132 -14.689 -19.699  1.00  0.00    -0.000 C 
BRANCH  14  15
ATOM     15  C   UNL     1     -19.934 -14.901 -18.190  1.00  0.00    -0.003 C 
ATOM     16  C   UNL     1     -19.292 -13.697 -17.501  1.00  0.00     0.004 C 
ENDBRANCH  14  15
ENDBRANCH  13  14
ENDBRANCH  12  13
ENDBRANCH  11  12
ENDBRANCH  10  11
ENDBRANCH   1  10
TORSDOF 12
ENDMDL
MODEL 8
REMARK VINA RESULT:    -3.942      1.459      2.503
REMARK INTER + INTRA:          -8.184
REMARK INTER:                  -6.874
REMARK INTRA:                  -1.310
REMARK UNBOUND:                -1.477
REMARK SMILES CCCCCCCCCCCCCC(=O)[O-]
REMARK SMILES IDX 8 1 9 2 10 3 11 4 12 5 13 6 14 7 15 8 16 9 7 10 6 11 5 12
REMARK SMILES IDX 4 13 3 14 2 15 1 16
REMARK H PARENT
REMARK Flexibility Score: inf
ROOT
ATOM      1  C   UNL     1     -22.913 -12.511 -17.179  1.00  0.00     0.000 C 
ENDROOT
BRANCH   1   2
ATOM      2  C   UNL     1     -23.294 -11.973 -15.789  1.00  0.00     0.000 C 
BRANCH   2   3
ATOM      3  C   UNL     1     -23.380 -13.085 -14.732  1.00  0.00     0.000 C 
BRANCH   3   4
ATOM      4  C   UNL     1     -24.734 -13.099 -14.000  1.00  0.00     0.000 C 
BRANCH   4   5
ATOM      5  C   UNL     1     -25.405 -14.481 -14.026  1.00  0.00     0.006 C 
BRANCH   5   6
ATOM      6  C   UNL     1     -24.426 -15.606 -14.383  1.00  0.00     0.053 C 
BRANCH   6   7
ATOM      7  C   UNL     1     -24.858 -16.893 -13.755  1.00  0.00     0.041 C 
ATOM      8  O   UNL     1     -24.656 -17.986 -14.345  1.00  0.00    -0.550 OA
ATOM      9  O   UNL     1     -25.528 -16.882 -12.538  1.00  0.00    -0.550 OA
ENDBRANCH   6   7
ENDBRANCH   5   6
ENDBRANCH   4   5
ENDBRANCH   3   4
ENDBRANCH   2   3
ENDBRANCH   1   2
BRANCH   1  10
ATOM     10  C   UNL     1     -22.281 -13.913 -17.121  1.00  0.00     0.000 C 
BRANCH  10  11
ATOM     11  C   UNL     1     -22.670 -14.848 -18.284  1.00  0.00    -0.000 C 
BRANCH  11  12
ATOM     12  C   UNL     1     -23.017 -14.138 -19.608  1.00  0.00    -0.000 C 
BRANCH  12  13
ATOM     13  C   UNL     1     -21.814 -13.821 -20.514  1.00  0.00    -0.000 C 
BRANCH  13  14
ATOM     14  C   UNL     1     -21.513 -12.315 -20.602  1.00  0.00    -0.000 C 
BRANCH  14  15
ATOM     15  C   UNL     1     -20.110 -11.964 -20.083  1.00  0.00    -0.003 C 
ATOM     16  C   UNL     1     -19.465 -13.107 -19.299  1.00  0.00     0.004 C 
ENDBRANCH  14  15
ENDBRANCH  13  14
ENDBRANCH  12  13
ENDBRANCH  11  12
ENDBRANCH  10  11
ENDBRANCH   1  10
TORSDOF 12
ENDMDL
MODEL 9
REMARK VINA RESULT:    -3.931      1.053      1.584
REMARK INTER + INTRA:          -8.166
REMARK INTER:                  -6.450
REMARK INTRA:                  -1.716
REMARK UNBOUND:                -1.477
REMARK SMILES CCCCCCCCCCCCCC(=O)[O-]
REMARK SMILES IDX 8 1 9 2 10 3 11 4 12 5 13 6 14 7 15 8 16 9 7 10 6 11 5 12
REMARK SMILES IDX 4 13 3 14 2 15 1 16
REMARK H PARENT
REMARK Flexibility Score: inf
ROOT
ATOM      1  C   UNL     1     -22.999 -13.069 -18.801  1.00  0.00     0.000 C 
ENDROOT
BRANCH   1   2
ATOM      2  C   UNL     1     -22.623 -12.314 -17.513  1.00  0.00     0.000 C 
BRANCH   2   3
ATOM      3  C   UNL     1     -22.729 -13.199 -16.262  1.00  0.00     0.000 C 
BRANCH   3   4
ATOM      4  C   UNL     1     -22.959 -14.681 -16.606  1.00  0.00     0.000 C 
BRANCH   4   5
ATOM      5  C   UNL     1     -23.252 -15.537 -15.364  1.00  0.00     0.006 C 
BRANCH   5   6
ATOM      6  C   UNL     1     -23.764 -14.706 -14.181  1.00  0.00     0.053 C 
BRANCH   6   7
ATOM      7  C   UNL     1     -25.238 -14.892 -14.011  1.00  0.00     0.041 C 
ATOM      8  O   UNL     1     -26.006 -13.895 -14.006  1.00  0.00    -0.550 OA
ATOM      9  O   UNL     1     -25.760 -16.164 -13.812  1.00  0.00    -0.550 OA
ENDBRANCH   6   7
ENDBRANCH   5   6
ENDBRANCH   4   5
ENDBRANCH   3   4
ENDBRANCH   2   3
ENDBRANCH   1   2
BRANCH   1  10
ATOM     10  C   UNL     1     -21.918 -12.957 -19.891  1.00  0.00     0.000 C 
BRANCH  10  11
ATOM     11  C   UNL     1     -20.583 -12.348 -19.419  1.00  0.00    -0.000 C 
BRANCH  11  12
ATOM     12  C   UNL     1     -19.321 -13.132 -19.833  1.00  0.00    -0.000 C 
BRANCH  12  13
ATOM     13  C   UNL     1     -18.526 -13.752 -18.670  1.00  0.00    -0.000 C 
BRANCH  13  14
ATOM     14  C   UNL     1     -19.430 -14.305 -17.556  1.00  0.00    -0.000 C 
BRANCH  14  15
ATOM     15  C   UNL     1     -19.471 -15.841 -17.539  1.00  0.00    -0.003 C 
ATOM     16  C   UNL     1     -20.472 -16.418 -18.540  1.00  0.00     0.004 C 
ENDBRANCH  14  15
ENDBRANCH  13  14
ENDBRANCH  12  13
ENDBRANCH  11  12
ENDBRANCH  10  11
ENDBRANCH   1  10
TORSDOF 12
ENDMDL
