MODEL 1
REMARK VINA RESULT:    -6.464      0.000      0.000
REMARK INTER + INTRA:         -10.928
REMARK INTER:                  -9.487
REMARK INTRA:                  -1.441
REMARK UNBOUND:                -1.441
REMARK SMILES O=c1c(O[C@H]2O[C@H](CO)[C@H](O)[C@@H](O)[C@@H]2O)c(-c2ccc(O)c(O)c2)oc2cc(O)cc(O)c12
REMARK SMILES IDX 4 1 3 2 16 3 25 4 2 5 26 6 1 7 33 8 27 9 31 10 28 11 30 12
REMARK SMILES IDX 17 13 18 14 19 15 20 16 24 17 22 18 21 19 23 21 32 23 29 25
REMARK SMILES IDX 5 27 14 28 6 29 12 30 7 31 10 32 15 33 13 35 8 37 9 38 11 40
REMARK H PARENT 21 20 23 22 32 24 29 26 15 34 13 36 9 39 11 41
REMARK Flexibility Score: inf
ROOT
ATOM      1  O   UNL     1      30.963 -56.184 -13.687  1.00  0.00    -0.454 OA
ENDROOT
BRANCH   1   2
ATOM      2  C   UNL     1      31.918 -55.484 -12.940  1.00  0.00     0.214 A 
ATOM      3  C   UNL     1      31.579 -54.796 -11.755  1.00  0.00     0.180 A 
ATOM      4  O   UNL     1      32.533 -54.212 -11.036  1.00  0.00    -0.452 OA
ATOM      5  C   UNL     1      33.248 -55.471 -13.373  1.00  0.00     0.239 A 
ATOM      6  C   UNL     1      33.813 -54.204 -11.393  1.00  0.00     0.146 A 
ATOM      7  O   UNL     1      33.550 -56.054 -14.450  1.00  0.00    -0.285 OA
ATOM      8  C   UNL     1      34.230 -54.825 -12.595  1.00  0.00     0.111 A 
ATOM      9  C   UNL     1      34.745 -53.563 -10.572  1.00  0.00     0.094 A 
ATOM     10  C   UNL     1      35.598 -54.785 -12.953  1.00  0.00     0.134 A 
ATOM     11  C   UNL     1      36.097 -53.527 -10.930  1.00  0.00     0.123 A 
ATOM     12  C   UNL     1      36.517 -54.135 -12.116  1.00  0.00     0.093 A 
BRANCH   3  13
ATOM     13  C   UNL     1      30.183 -54.685 -11.282  1.00  0.00     0.025 A 
ATOM     14  C   UNL     1      29.469 -53.498 -11.498  1.00  0.00     0.016 A 
ATOM     15  C   UNL     1      28.151 -53.378 -11.056  1.00  0.00     0.051 A 
ATOM     16  C   UNL     1      27.515 -54.441 -10.403  1.00  0.00     0.157 A 
ATOM     17  C   UNL     1      29.540 -55.764 -10.653  1.00  0.00     0.062 A 
ATOM     18  C   UNL     1      28.219 -55.652 -10.204  1.00  0.00     0.158 A 
BRANCH  16  19
ATOM     19  O   UNL     1      26.199 -54.252  -9.978  1.00  0.00    -0.504 OA
ATOM     20  H   UNL     1      25.427 -54.065 -10.602  1.00  0.00     0.293 HD
ENDBRANCH  16  19
BRANCH  18  21
ATOM     21  O   UNL     1      27.649 -56.760  -9.573  1.00  0.00    -0.504 OA
ATOM     22  H   UNL     1      26.661 -56.857  -9.386  1.00  0.00     0.293 HD
ENDBRANCH  18  21
ENDBRANCH   3  13
BRANCH  10  23
ATOM     23  O   UNL     1      36.051 -55.384 -14.130  1.00  0.00    -0.507 OA
ATOM     24  H   UNL     1      35.430 -55.912 -14.732  1.00  0.00     0.293 HD
ENDBRANCH  10  23
BRANCH  11  25
ATOM     25  O   UNL     1      37.030 -52.890 -10.117  1.00  0.00    -0.508 OA
ATOM     26  H   UNL     1      37.891 -52.510 -10.494  1.00  0.00     0.293 HD
ENDBRANCH  11  25
ENDBRANCH   1   2
BRANCH   1  27
ATOM     27  C   UNL     1      30.831 -57.610 -13.638  1.00  0.00     0.339 C 
ATOM     28  C   UNL     1      31.011 -58.221 -15.041  1.00  0.00     0.214 C 
ATOM     29  O   UNL     1      29.589 -57.981 -13.058  1.00  0.00    -0.332 OA
ATOM     30  C   UNL     1      29.807 -57.886 -15.951  1.00  0.00     0.180 C 
ATOM     31  C   UNL     1      28.495 -57.512 -13.830  1.00  0.00     0.179 C 
ATOM     32  C   UNL     1      28.480 -58.179 -15.224  1.00  0.00     0.177 C 
BRANCH  28  33
ATOM     33  O   UNL     1      31.151 -59.614 -14.918  1.00  0.00    -0.384 OA
ATOM     34  H   UNL     1      31.306 -59.970 -15.832  1.00  0.00     0.211 HD
ENDBRANCH  28  33
BRANCH  30  35
ATOM     35  O   UNL     1      29.842 -56.532 -16.324  1.00  0.00    -0.387 OA
ATOM     36  H   UNL     1      28.899 -56.231 -16.406  1.00  0.00     0.211 HD
ENDBRANCH  30  35
BRANCH  31  37
ATOM     37  C   UNL     1      27.192 -57.764 -13.059  1.00  0.00     0.191 C 
BRANCH  37  38
ATOM     38  O   UNL     1      26.125 -57.974 -13.943  1.00  0.00    -0.394 OA
ATOM     39  H   UNL     1      25.438 -58.475 -13.431  1.00  0.00     0.210 HD
ENDBRANCH  37  38
ENDBRANCH  31  37
BRANCH  32  40
ATOM     40  O   UNL     1      28.300 -59.568 -15.096  1.00  0.00    -0.387 OA
ATOM     41  H   UNL     1      29.089 -59.915 -14.604  1.00  0.00     0.211 HD
ENDBRANCH  32  40
ENDBRANCH   1  27
TORSDOF 12
ENDMDL
MODEL 2
REMARK VINA RESULT:    -6.280     11.402     12.617
REMARK INTER + INTRA:         -10.659
REMARK INTER:                  -9.021
REMARK INTRA:                  -1.637
REMARK UNBOUND:                -1.441
REMARK SMILES O=c1c(O[C@H]2O[C@H](CO)[C@H](O)[C@@H](O)[C@@H]2O)c(-c2ccc(O)c(O)c2)oc2cc(O)cc(O)c12
REMARK SMILES IDX 4 1 3 2 16 3 25 4 2 5 26 6 1 7 33 8 27 9 31 10 28 11 30 12
REMARK SMILES IDX 17 13 18 14 19 15 20 16 24 17 22 18 21 19 23 21 32 23 29 25
REMARK SMILES IDX 5 27 14 28 6 29 12 30 7 31 10 32 15 33 13 35 8 37 9 38 11 40
REMARK H PARENT 21 20 23 22 32 24 29 26 15 34 13 36 9 39 11 41
REMARK Flexibility Score: inf
ROOT
ATOM      1  O   UNL     1      32.837 -65.134  -6.226  1.00  0.00    -0.454 OA
ENDROOT
BRANCH   1   2
ATOM      2  C   UNL     1      33.801 -64.319  -6.830  1.00  0.00     0.214 A 
ATOM      3  C   UNL     1      35.175 -64.444  -6.534  1.00  0.00     0.180 A 
ATOM      4  O   UNL     1      36.062 -63.703  -7.191  1.00  0.00    -0.452 OA
ATOM      5  C   UNL     1      33.395 -63.357  -7.762  1.00  0.00     0.239 A 
ATOM      6  C   UNL     1      35.722 -62.802  -8.107  1.00  0.00     0.146 A 
ATOM      7  O   UNL     1      32.166 -63.217  -8.005  1.00  0.00    -0.285 OA
ATOM      8  C   UNL     1      34.363 -62.576  -8.426  1.00  0.00     0.111 A 
ATOM      9  C   UNL     1      36.727 -62.069  -8.745  1.00  0.00     0.094 A 
ATOM     10  C   UNL     1      34.036 -61.598  -9.395  1.00  0.00     0.134 A 
ATOM     11  C   UNL     1      36.398 -61.104  -9.703  1.00  0.00     0.123 A 
ATOM     12  C   UNL     1      35.058 -60.872 -10.023  1.00  0.00     0.093 A 
BRANCH   3  13
ATOM     13  C   UNL     1      35.674 -65.371  -5.495  1.00  0.00     0.025 A 
ATOM     14  C   UNL     1      36.437 -66.485  -5.868  1.00  0.00     0.016 A 
ATOM     15  C   UNL     1      36.915 -67.369  -4.899  1.00  0.00     0.051 A 
ATOM     16  C   UNL     1      36.653 -67.152  -3.542  1.00  0.00     0.157 A 
ATOM     17  C   UNL     1      35.433 -65.134  -4.132  1.00  0.00     0.062 A 
ATOM     18  C   UNL     1      35.905 -66.016  -3.153  1.00  0.00     0.158 A 
BRANCH  16  19
ATOM     19  O   UNL     1      37.151 -68.079  -2.625  1.00  0.00    -0.504 OA
ATOM     20  H   UNL     1      37.486 -67.836  -1.703  1.00  0.00     0.293 HD
ENDBRANCH  16  19
BRANCH  18  21
ATOM     21  O   UNL     1      35.613 -65.725  -1.818  1.00  0.00    -0.504 OA
ATOM     22  H   UNL     1      36.314 -65.600  -1.102  1.00  0.00     0.293 HD
ENDBRANCH  18  21
ENDBRANCH   3  13
BRANCH  10  23
ATOM     23  O   UNL     1      32.706 -61.343  -9.738  1.00  0.00    -0.507 OA
ATOM     24  H   UNL     1      32.458 -60.632 -10.415  1.00  0.00     0.293 HD
ENDBRANCH  10  23
BRANCH  11  25
ATOM     25  O   UNL     1      37.394 -60.371 -10.343  1.00  0.00    -0.508 OA
ATOM     26  H   UNL     1      38.058 -59.811  -9.821  1.00  0.00     0.293 HD
ENDBRANCH  11  25
ENDBRANCH   1   2
BRANCH   1  27
ATOM     27  C   UNL     1      32.594 -66.485  -6.637  1.00  0.00     0.339 C 
ATOM     28  C   UNL     1      31.106 -66.687  -6.986  1.00  0.00     0.214 C 
ATOM     29  O   UNL     1      33.029 -67.400  -5.643  1.00  0.00    -0.332 OA
ATOM     30  C   UNL     1      30.227 -66.647  -5.715  1.00  0.00     0.180 C 
ATOM     31  C   UNL     1      32.318 -67.225  -4.429  1.00  0.00     0.179 C 
ATOM     32  C   UNL     1      30.819 -67.553  -4.618  1.00  0.00     0.177 C 
BRANCH  28  33
ATOM     33  O   UNL     1      30.955 -67.923  -7.639  1.00  0.00    -0.384 OA
ATOM     34  H   UNL     1      31.801 -68.425  -7.505  1.00  0.00     0.211 HD
ENDBRANCH  28  33
BRANCH  30  35
ATOM     35  O   UNL     1      30.135 -65.331  -5.230  1.00  0.00    -0.387 OA
ATOM     36  H   UNL     1      29.510 -65.352  -4.459  1.00  0.00     0.211 HD
ENDBRANCH  30  35
BRANCH  31  37
ATOM     37  C   UNL     1      32.962 -68.094  -3.339  1.00  0.00     0.191 C 
BRANCH  37  38
ATOM     38  O   UNL     1      33.007 -67.407  -2.118  1.00  0.00    -0.394 OA
ATOM     39  H   UNL     1      32.673 -66.492  -2.306  1.00  0.00     0.210 HD
ENDBRANCH  37  38
ENDBRANCH  31  37
BRANCH  32  40
ATOM     40  O   UNL     1      30.659 -68.904  -4.973  1.00  0.00    -0.387 OA
ATOM     41  H   UNL     1      31.538 -69.218  -5.310  1.00  0.00     0.211 HD
ENDBRANCH  32  40
ENDBRANCH   1  27
TORSDOF 12
ENDMDL
MODEL 3
REMARK VINA RESULT:    -5.918      1.819      5.086
REMARK INTER + INTRA:         -10.126
REMARK INTER:                  -9.251
REMARK INTRA:                  -0.876
REMARK UNBOUND:                -1.441
REMARK SMILES O=c1c(O[C@H]2O[C@H](CO)[C@H](O)[C@@H](O)[C@@H]2O)c(-c2ccc(O)c(O)c2)oc2cc(O)cc(O)c12
REMARK SMILES IDX 4 1 3 2 16 3 25 4 2 5 26 6 1 7 33 8 27 9 31 10 28 11 30 12
REMARK SMILES IDX 17 13 18 14 19 15 20 16 24 17 22 18 21 19 23 21 32 23 29 25
REMARK SMILES IDX 5 27 14 28 6 29 12 30 7 31 10 32 15 33 13 35 8 37 9 38 11 40
REMARK H PARENT 21 20 23 22 32 24 29 26 15 34 13 36 9 39 11 41
REMARK Flexibility Score: inf
ROOT
ATOM      1  O   UNL     1      30.784 -53.988 -11.044  1.00  0.00    -0.454 OA
ENDROOT
BRANCH   1   2
ATOM      2  C   UNL     1      31.998 -54.461 -11.558  1.00  0.00     0.214 A 
ATOM      3  C   UNL     1      32.050 -55.505 -12.505  1.00  0.00     0.180 A 
ATOM      4  O   UNL     1      33.220 -55.866 -13.025  1.00  0.00    -0.452 OA
ATOM      5  C   UNL     1      33.195 -53.877 -11.127  1.00  0.00     0.239 A 
ATOM      6  C   UNL     1      34.376 -55.316 -12.670  1.00  0.00     0.146 A 
ATOM      7  O   UNL     1      33.157 -52.968 -10.254  1.00  0.00    -0.285 OA
ATOM      8  C   UNL     1      34.418 -54.299 -11.687  1.00  0.00     0.111 A 
ATOM      9  C   UNL     1      35.556 -55.763 -13.271  1.00  0.00     0.094 A 
ATOM     10  C   UNL     1      35.668 -53.746 -11.320  1.00  0.00     0.134 A 
ATOM     11  C   UNL     1      36.788 -55.212 -12.906  1.00  0.00     0.123 A 
ATOM     12  C   UNL     1      36.840 -54.210 -11.935  1.00  0.00     0.093 A 
BRANCH   3  13
ATOM     13  C   UNL     1      30.839 -56.233 -12.940  1.00  0.00     0.025 A 
ATOM     14  C   UNL     1      30.817 -56.855 -14.196  1.00  0.00     0.016 A 
ATOM     15  C   UNL     1      29.681 -57.546 -14.621  1.00  0.00     0.051 A 
ATOM     16  C   UNL     1      28.553 -57.642 -13.798  1.00  0.00     0.157 A 
ATOM     17  C   UNL     1      29.720 -56.351 -12.100  1.00  0.00     0.062 A 
ATOM     18  C   UNL     1      28.575 -57.039 -12.518  1.00  0.00     0.158 A 
BRANCH  16  19
ATOM     19  O   UNL     1      27.447 -58.339 -14.287  1.00  0.00    -0.504 OA
ATOM     20  H   UNL     1      27.024 -58.166 -15.188  1.00  0.00     0.293 HD
ENDBRANCH  16  19
BRANCH  18  21
ATOM     21  O   UNL     1      27.494 -57.103 -11.636  1.00  0.00    -0.504 OA
ATOM     22  H   UNL     1      26.596 -57.500 -11.872  1.00  0.00     0.293 HD
ENDBRANCH  18  21
ENDBRANCH   3  13
BRANCH  10  23
ATOM     23  O   UNL     1      35.754 -52.742 -10.354  1.00  0.00    -0.507 OA
ATOM     24  H   UNL     1      35.003 -52.569  -9.697  1.00  0.00     0.293 HD
ENDBRANCH  10  23
BRANCH  11  25
ATOM     25  O   UNL     1      37.967 -55.653 -13.502  1.00  0.00    -0.508 OA
ATOM     26  H   UNL     1      38.473 -55.078 -14.165  1.00  0.00     0.293 HD
ENDBRANCH  11  25
ENDBRANCH   1   2
BRANCH   1  27
ATOM     27  C   UNL     1      29.899 -53.147 -11.793  1.00  0.00     0.339 C 
ATOM     28  C   UNL     1      30.200 -51.661 -11.520  1.00  0.00     0.214 C 
ATOM     29  O   UNL     1      28.544 -53.469 -11.517  1.00  0.00    -0.332 OA
ATOM     30  C   UNL     1      29.775 -51.263 -10.087  1.00  0.00     0.180 C 
ATOM     31  C   UNL     1      28.228 -53.254 -10.151  1.00  0.00     0.179 C 
ATOM     32  C   UNL     1      28.346 -51.756  -9.789  1.00  0.00     0.177 C 
BRANCH  28  33
ATOM     33  O   UNL     1      29.514 -50.875 -12.462  1.00  0.00    -0.384 OA
ATOM     34  H   UNL     1      28.546 -50.951 -12.251  1.00  0.00     0.211 HD
ENDBRANCH  28  33
BRANCH  30  35
ATOM     35  O   UNL     1      30.662 -51.816  -9.148  1.00  0.00    -0.387 OA
ATOM     36  H   UNL     1      30.919 -52.713  -9.488  1.00  0.00     0.211 HD
ENDBRANCH  30  35
BRANCH  31  37
ATOM     37  C   UNL     1      26.823 -53.804  -9.867  1.00  0.00     0.191 C 
BRANCH  37  38
ATOM     38  O   UNL     1      26.886 -55.149  -9.480  1.00  0.00    -0.394 OA
ATOM     39  H   UNL     1      26.138 -55.605  -9.947  1.00  0.00     0.210 HD
ENDBRANCH  37  38
ENDBRANCH  31  37
BRANCH  32  40
ATOM     40  O   UNL     1      27.415 -51.004 -10.528  1.00  0.00    -0.387 OA
ATOM     41  H   UNL     1      27.428 -50.084 -10.155  1.00  0.00     0.211 HD
ENDBRANCH  32  40
ENDBRANCH   1  27
TORSDOF 12
ENDMDL
MODEL 4
REMARK VINA RESULT:    -5.870     11.932     14.159
REMARK INTER + INTRA:         -10.056
REMARK INTER:                  -8.733
REMARK INTRA:                  -1.323
REMARK UNBOUND:                -1.441
REMARK SMILES O=c1c(O[C@H]2O[C@H](CO)[C@H](O)[C@@H](O)[C@@H]2O)c(-c2ccc(O)c(O)c2)oc2cc(O)cc(O)c12
REMARK SMILES IDX 4 1 3 2 16 3 25 4 2 5 26 6 1 7 33 8 27 9 31 10 28 11 30 12
REMARK SMILES IDX 17 13 18 14 19 15 20 16 24 17 22 18 21 19 23 21 32 23 29 25
REMARK SMILES IDX 5 27 14 28 6 29 12 30 7 31 10 32 15 33 13 35 8 37 9 38 11 40
REMARK H PARENT 21 20 23 22 32 24 29 26 15 34 13 36 9 39 11 41
REMARK Flexibility Score: inf
ROOT
ATOM      1  O   UNL     1      34.175 -64.894  -4.523  1.00  0.00    -0.454 OA
ENDROOT
BRANCH   1   2
ATOM      2  C   UNL     1      33.370 -65.893  -5.083  1.00  0.00     0.214 A 
ATOM      3  C   UNL     1      32.789 -65.751  -6.361  1.00  0.00     0.180 A 
ATOM      4  O   UNL     1      32.099 -66.759  -6.887  1.00  0.00    -0.452 OA
ATOM      5  C   UNL     1      33.141 -67.070  -4.362  1.00  0.00     0.239 A 
ATOM      6  C   UNL     1      31.885 -67.906  -6.251  1.00  0.00     0.146 A 
ATOM      7  O   UNL     1      33.629 -67.187  -3.205  1.00  0.00    -0.285 OA
ATOM      8  C   UNL     1      32.388 -68.109  -4.944  1.00  0.00     0.111 A 
ATOM      9  C   UNL     1      31.145 -68.908  -6.885  1.00  0.00     0.094 A 
ATOM     10  C   UNL     1      32.128 -69.337  -4.290  1.00  0.00     0.134 A 
ATOM     11  C   UNL     1      30.892 -70.120  -6.234  1.00  0.00     0.123 A 
ATOM     12  C   UNL     1      31.382 -70.329  -4.942  1.00  0.00     0.093 A 
BRANCH   3  13
ATOM     13  C   UNL     1      32.908 -64.503  -7.146  1.00  0.00     0.025 A 
ATOM     14  C   UNL     1      34.016 -64.312  -7.982  1.00  0.00     0.016 A 
ATOM     15  C   UNL     1      34.142 -63.139  -8.728  1.00  0.00     0.051 A 
ATOM     16  C   UNL     1      33.161 -62.142  -8.665  1.00  0.00     0.157 A 
ATOM     17  C   UNL     1      31.907 -63.518  -7.101  1.00  0.00     0.062 A 
ATOM     18  C   UNL     1      32.026 -62.337  -7.843  1.00  0.00     0.158 A 
BRANCH  16  19
ATOM     19  O   UNL     1      33.353 -60.990  -9.428  1.00  0.00    -0.504 OA
ATOM     20  H   UNL     1      33.733 -60.128  -9.062  1.00  0.00     0.293 HD
ENDBRANCH  16  19
BRANCH  18  21
ATOM     21  O   UNL     1      31.001 -61.395  -7.737  1.00  0.00    -0.504 OA
ATOM     22  H   UNL     1      30.562 -61.133  -6.866  1.00  0.00     0.293 HD
ENDBRANCH  18  21
ENDBRANCH   3  13
BRANCH  10  23
ATOM     23  O   UNL     1      32.605 -69.578  -3.000  1.00  0.00    -0.507 OA
ATOM     24  H   UNL     1      32.394 -68.956  -2.228  1.00  0.00     0.293 HD
ENDBRANCH  10  23
BRANCH  11  25
ATOM     25  O   UNL     1      30.156 -71.122  -6.860  1.00  0.00    -0.508 OA
ATOM     26  H   UNL     1      30.042 -72.037  -6.439  1.00  0.00     0.293 HD
ENDBRANCH  11  25
ENDBRANCH   1   2
BRANCH   1  27
ATOM     27  C   UNL     1      35.501 -64.612  -4.988  1.00  0.00     0.339 C 
ATOM     28  C   UNL     1      36.543 -65.395  -4.166  1.00  0.00     0.214 C 
ATOM     29  O   UNL     1      35.756 -63.216  -4.966  1.00  0.00    -0.332 OA
ATOM     30  C   UNL     1      36.654 -64.833  -2.730  1.00  0.00     0.180 C 
ATOM     31  C   UNL     1      35.683 -62.695  -3.650  1.00  0.00     0.179 C 
ATOM     32  C   UNL     1      36.792 -63.299  -2.758  1.00  0.00     0.177 C 
BRANCH  28  33
ATOM     33  O   UNL     1      37.788 -65.315  -4.814  1.00  0.00    -0.384 OA
ATOM     34  H   UNL     1      38.484 -65.432  -4.115  1.00  0.00     0.211 HD
ENDBRANCH  28  33
BRANCH  30  35
ATOM     35  O   UNL     1      35.517 -65.183  -1.983  1.00  0.00    -0.387 OA
ATOM     36  H   UNL     1      35.697 -64.919  -1.043  1.00  0.00     0.211 HD
ENDBRANCH  30  35
BRANCH  31  37
ATOM     37  C   UNL     1      35.765 -61.163  -3.709  1.00  0.00     0.191 C 
BRANCH  37  38
ATOM     38  O   UNL     1      34.807 -60.581  -2.868  1.00  0.00    -0.394 OA
ATOM     39  H   UNL     1      33.925 -60.779  -3.278  1.00  0.00     0.210 HD
ENDBRANCH  37  38
ENDBRANCH  31  37
BRANCH  32  40
ATOM     40  O   UNL     1      38.059 -62.940  -3.250  1.00  0.00    -0.387 OA
ATOM     41  H   UNL     1      38.095 -61.948  -3.254  1.00  0.00     0.211 HD
ENDBRANCH  32  40
ENDBRANCH   1  27
TORSDOF 12
ENDMDL
MODEL 5
REMARK VINA RESULT:    -5.764     13.531     14.852
REMARK INTER + INTRA:          -9.900
REMARK INTER:                  -8.390
REMARK INTRA:                  -1.511
REMARK UNBOUND:                -1.441
REMARK SMILES O=c1c(O[C@H]2O[C@H](CO)[C@H](O)[C@@H](O)[C@@H]2O)c(-c2ccc(O)c(O)c2)oc2cc(O)cc(O)c12
REMARK SMILES IDX 4 1 3 2 16 3 25 4 2 5 26 6 1 7 33 8 27 9 31 10 28 11 30 12
REMARK SMILES IDX 17 13 18 14 19 15 20 16 24 17 22 18 21 19 23 21 32 23 29 25
REMARK SMILES IDX 5 27 14 28 6 29 12 30 7 31 10 32 15 33 13 35 8 37 9 38 11 40
REMARK H PARENT 21 20 23 22 32 24 29 26 15 34 13 36 9 39 11 41
REMARK Flexibility Score: inf
ROOT
ATOM      1  O   UNL     1      34.615 -65.855  -5.330  1.00  0.00    -0.454 OA
ENDROOT
BRANCH   1   2
ATOM      2  C   UNL     1      34.959 -66.841  -4.397  1.00  0.00     0.214 A 
ATOM      3  C   UNL     1      34.375 -68.126  -4.423  1.00  0.00     0.180 A 
ATOM      4  O   UNL     1      34.791 -69.056  -3.568  1.00  0.00    -0.452 OA
ATOM      5  C   UNL     1      35.914 -66.551  -3.418  1.00  0.00     0.239 A 
ATOM      6  C   UNL     1      35.719 -68.833  -2.643  1.00  0.00     0.146 A 
ATOM      7  O   UNL     1      36.413 -65.394  -3.368  1.00  0.00    -0.285 OA
ATOM      8  C   UNL     1      36.317 -67.557  -2.516  1.00  0.00     0.111 A 
ATOM      9  C   UNL     1      36.091 -69.874  -1.788  1.00  0.00     0.094 A 
ATOM     10  C   UNL     1      37.291 -67.350  -1.510  1.00  0.00     0.134 A 
ATOM     11  C   UNL     1      37.055 -69.664  -0.796  1.00  0.00     0.123 A 
ATOM     12  C   UNL     1      37.649 -68.406  -0.660  1.00  0.00     0.093 A 
BRANCH   3  13
ATOM     13  C   UNL     1      33.293 -68.480  -5.366  1.00  0.00     0.025 A 
ATOM     14  C   UNL     1      31.959 -68.231  -5.018  1.00  0.00     0.016 A 
ATOM     15  C   UNL     1      30.927 -68.561  -5.898  1.00  0.00     0.051 A 
ATOM     16  C   UNL     1      31.206 -69.132  -7.145  1.00  0.00     0.157 A 
ATOM     17  C   UNL     1      33.579 -69.026  -6.629  1.00  0.00     0.062 A 
ATOM     18  C   UNL     1      32.551 -69.363  -7.517  1.00  0.00     0.158 A 
BRANCH  16  19
ATOM     19  O   UNL     1      30.128 -69.447  -7.974  1.00  0.00    -0.504 OA
ATOM     20  H   UNL     1      30.212 -69.969  -8.835  1.00  0.00     0.293 HD
ENDBRANCH  16  19
BRANCH  18  21
ATOM     21  O   UNL     1      32.909 -69.916  -8.748  1.00  0.00    -0.504 OA
ATOM     22  H   UNL     1      32.885 -70.906  -8.951  1.00  0.00     0.293 HD
ENDBRANCH  18  21
ENDBRANCH   3  13
BRANCH  10  23
ATOM     23  O   UNL     1      37.904 -66.106  -1.349  1.00  0.00    -0.507 OA
ATOM     24  H   UNL     1      38.587 -65.759  -2.012  1.00  0.00     0.293 HD
ENDBRANCH  10  23
BRANCH  11  25
ATOM     25  O   UNL     1      37.430 -70.696   0.059  1.00  0.00    -0.508 OA
ATOM     26  H   UNL     1      37.247 -71.667  -0.170  1.00  0.00     0.293 HD
ENDBRANCH  11  25
ENDBRANCH   1   2
BRANCH   1  27
ATOM     27  C   UNL     1      33.514 -64.957  -5.140  1.00  0.00     0.339 C 
ATOM     28  C   UNL     1      32.704 -64.808  -6.443  1.00  0.00     0.214 C 
ATOM     29  O   UNL     1      33.966 -63.702  -4.656  1.00  0.00    -0.332 OA
ATOM     30  C   UNL     1      33.500 -64.014  -7.504  1.00  0.00     0.180 C 
ATOM     31  C   UNL     1      34.834 -63.069  -5.583  1.00  0.00     0.179 C 
ATOM     32  C   UNL     1      34.085 -62.727  -6.891  1.00  0.00     0.177 C 
BRANCH  28  33
ATOM     33  O   UNL     1      31.495 -64.153  -6.156  1.00  0.00    -0.384 OA
ATOM     34  H   UNL     1      30.872 -64.840  -5.802  1.00  0.00     0.211 HD
ENDBRANCH  28  33
BRANCH  30  35
ATOM     35  O   UNL     1      34.546 -64.800  -8.016  1.00  0.00    -0.387 OA
ATOM     36  H   UNL     1      34.128 -65.507  -8.575  1.00  0.00     0.211 HD
ENDBRANCH  30  35
BRANCH  31  37
ATOM     37  C   UNL     1      35.446 -61.823  -4.929  1.00  0.00     0.191 C 
BRANCH  37  38
ATOM     38  O   UNL     1      34.497 -61.158  -4.141  1.00  0.00    -0.394 OA
ATOM     39  H   UNL     1      35.011 -60.565  -3.533  1.00  0.00     0.210 HD
ENDBRANCH  37  38
ENDBRANCH  31  37
BRANCH  32  40
ATOM     40  O   UNL     1      33.054 -61.807  -6.633  1.00  0.00    -0.387 OA
ATOM     41  H   UNL     1      33.092 -61.123  -7.351  1.00  0.00     0.211 HD
ENDBRANCH  32  40
ENDBRANCH   1  27
TORSDOF 12
ENDMDL
MODEL 6
REMARK VINA RESULT:    -5.727     12.863     14.093
REMARK INTER + INTRA:          -9.847
REMARK INTER:                  -8.112
REMARK INTRA:                  -1.736
REMARK UNBOUND:                -1.441
REMARK SMILES O=c1c(O[C@H]2O[C@H](CO)[C@H](O)[C@@H](O)[C@@H]2O)c(-c2ccc(O)c(O)c2)oc2cc(O)cc(O)c12
REMARK SMILES IDX 4 1 3 2 16 3 25 4 2 5 26 6 1 7 33 8 27 9 31 10 28 11 30 12
REMARK SMILES IDX 17 13 18 14 19 15 20 16 24 17 22 18 21 19 23 21 32 23 29 25
REMARK SMILES IDX 5 27 14 28 6 29 12 30 7 31 10 32 15 33 13 35 8 37 9 38 11 40
REMARK H PARENT 21 20 23 22 32 24 29 26 15 34 13 36 9 39 11 41
REMARK Flexibility Score: inf
ROOT
ATOM      1  O   UNL     1      34.849 -66.800  -4.268  1.00  0.00    -0.454 OA
ENDROOT
BRANCH   1   2
ATOM      2  C   UNL     1      34.745 -65.544  -4.876  1.00  0.00     0.214 A 
ATOM      3  C   UNL     1      33.778 -65.274  -5.867  1.00  0.00     0.180 A 
ATOM      4  O   UNL     1      33.663 -64.044  -6.359  1.00  0.00    -0.452 OA
ATOM      5  C   UNL     1      35.617 -64.522  -4.485  1.00  0.00     0.239 A 
ATOM      6  C   UNL     1      34.448 -63.036  -5.992  1.00  0.00     0.146 A 
ATOM      7  O   UNL     1      36.506 -64.767  -3.625  1.00  0.00    -0.285 OA
ATOM      8  C   UNL     1      35.478 -63.234  -5.042  1.00  0.00     0.111 A 
ATOM      9  C   UNL     1      34.252 -61.777  -6.566  1.00  0.00     0.094 A 
ATOM     10  C   UNL     1      36.305 -62.143  -4.686  1.00  0.00     0.134 A 
ATOM     11  C   UNL     1      35.072 -60.702  -6.209  1.00  0.00     0.123 A 
ATOM     12  C   UNL     1      36.093 -60.888  -5.274  1.00  0.00     0.093 A 
BRANCH   3  13
ATOM     13  C   UNL     1      32.883 -66.324  -6.400  1.00  0.00     0.025 A 
ATOM     14  C   UNL     1      31.525 -66.319  -6.053  1.00  0.00     0.016 A 
ATOM     15  C   UNL     1      30.668 -67.304  -6.547  1.00  0.00     0.051 A 
ATOM     16  C   UNL     1      31.144 -68.302  -7.405  1.00  0.00     0.157 A 
ATOM     17  C   UNL     1      33.359 -67.307  -7.283  1.00  0.00     0.062 A 
ATOM     18  C   UNL     1      32.508 -68.300  -7.782  1.00  0.00     0.158 A 
BRANCH  16  19
ATOM     19  O   UNL     1      30.237 -69.262  -7.855  1.00  0.00    -0.504 OA
ATOM     20  H   UNL     1      29.315 -69.045  -8.210  1.00  0.00     0.293 HD
ENDBRANCH  16  19
BRANCH  18  21
ATOM     21  O   UNL     1      33.054 -69.254  -8.643  1.00  0.00    -0.504 OA
ATOM     22  H   UNL     1      34.045 -69.407  -8.761  1.00  0.00     0.293 HD
ENDBRANCH  18  21
ENDBRANCH   3  13
BRANCH  10  23
ATOM     23  O   UNL     1      37.333 -62.296  -3.753  1.00  0.00    -0.507 OA
ATOM     24  H   UNL     1      37.948 -61.529  -3.507  1.00  0.00     0.293 HD
ENDBRANCH  10  23
BRANCH  11  25
ATOM     25  O   UNL     1      34.882 -59.445  -6.777  1.00  0.00    -0.508 OA
ATOM     26  H   UNL     1      34.889 -59.310  -7.782  1.00  0.00     0.293 HD
ENDBRANCH  11  25
ENDBRANCH   1   2
BRANCH   1  27
ATOM     27  C   UNL     1      33.975 -67.230  -3.217  1.00  0.00     0.339 C 
ATOM     28  C   UNL     1      34.787 -67.696  -1.992  1.00  0.00     0.214 C 
ATOM     29  O   UNL     1      33.092 -68.241  -3.678  1.00  0.00    -0.332 OA
ATOM     30  C   UNL     1      35.510 -69.031  -2.281  1.00  0.00     0.180 C 
ATOM     31  C   UNL     1      33.798 -69.397  -4.097  1.00  0.00     0.179 C 
ATOM     32  C   UNL     1      34.538 -70.050  -2.908  1.00  0.00     0.177 C 
BRANCH  28  33
ATOM     33  O   UNL     1      33.916 -67.845  -0.898  1.00  0.00    -0.384 OA
ATOM     34  H   UNL     1      32.994 -67.869  -1.265  1.00  0.00     0.211 HD
ENDBRANCH  28  33
BRANCH  30  35
ATOM     35  O   UNL     1      36.588 -68.819  -3.157  1.00  0.00    -0.387 OA
ATOM     36  H   UNL     1      36.208 -68.442  -3.994  1.00  0.00     0.211 HD
ENDBRANCH  30  35
BRANCH  31  37
ATOM     37  C   UNL     1      32.819 -70.369  -4.768  1.00  0.00     0.191 C 
BRANCH  37  38
ATOM     38  O   UNL     1      31.535 -70.239  -4.220  1.00  0.00    -0.394 OA
ATOM     39  H   UNL     1      31.242 -71.157  -3.984  1.00  0.00     0.210 HD
ENDBRANCH  37  38
ENDBRANCH  31  37
BRANCH  32  40
ATOM     40  O   UNL     1      33.614 -70.487  -1.943  1.00  0.00    -0.387 OA
ATOM     41  H   UNL     1      33.468 -71.456  -2.103  1.00  0.00     0.211 HD
ENDBRANCH  32  40
ENDBRANCH   1  27
TORSDOF 12
ENDMDL
MODEL 7
REMARK VINA RESULT:    -5.704     12.953     14.084
REMARK INTER + INTRA:          -9.813
REMARK INTER:                  -8.475
REMARK INTRA:                  -1.337
REMARK UNBOUND:                -1.441
REMARK SMILES O=c1c(O[C@H]2O[C@H](CO)[C@H](O)[C@@H](O)[C@@H]2O)c(-c2ccc(O)c(O)c2)oc2cc(O)cc(O)c12
REMARK SMILES IDX 4 1 3 2 16 3 25 4 2 5 26 6 1 7 33 8 27 9 31 10 28 11 30 12
REMARK SMILES IDX 17 13 18 14 19 15 20 16 24 17 22 18 21 19 23 21 32 23 29 25
REMARK SMILES IDX 5 27 14 28 6 29 12 30 7 31 10 32 15 33 13 35 8 37 9 38 11 40
REMARK H PARENT 21 20 23 22 32 24 29 26 15 34 13 36 9 39 11 41
REMARK Flexibility Score: inf
ROOT
ATOM      1  O   UNL     1      34.243 -67.320  -5.931  1.00  0.00    -0.454 OA
ENDROOT
BRANCH   1   2
ATOM      2  C   UNL     1      34.391 -65.937  -5.768  1.00  0.00     0.214 A 
ATOM      3  C   UNL     1      35.244 -65.390  -4.786  1.00  0.00     0.180 A 
ATOM      4  O   UNL     1      35.415 -64.073  -4.721  1.00  0.00    -0.452 OA
ATOM      5  C   UNL     1      33.682 -65.071  -6.607  1.00  0.00     0.239 A 
ATOM      6  C   UNL     1      34.787 -63.217  -5.519  1.00  0.00     0.146 A 
ATOM      7  O   UNL     1      32.892 -65.554  -7.463  1.00  0.00    -0.285 OA
ATOM      8  C   UNL     1      33.874 -63.679  -6.497  1.00  0.00     0.111 A 
ATOM      9  C   UNL     1      35.030 -61.848  -5.375  1.00  0.00     0.094 A 
ATOM     10  C   UNL     1      33.211 -62.739  -7.320  1.00  0.00     0.134 A 
ATOM     11  C   UNL     1      34.373 -60.923  -6.193  1.00  0.00     0.123 A 
ATOM     12  C   UNL     1      33.468 -61.370  -7.159  1.00  0.00     0.093 A 
BRANCH   3  13
ATOM     13  C   UNL     1      35.955 -66.235  -3.802  1.00  0.00     0.025 A 
ATOM     14  C   UNL     1      35.270 -66.717  -2.678  1.00  0.00     0.016 A 
ATOM     15  C   UNL     1      35.927 -67.515  -1.740  1.00  0.00     0.051 A 
ATOM     16  C   UNL     1      37.274 -67.857  -1.911  1.00  0.00     0.157 A 
ATOM     17  C   UNL     1      37.298 -66.600  -3.992  1.00  0.00     0.062 A 
ATOM     18  C   UNL     1      37.967 -67.396  -3.056  1.00  0.00     0.158 A 
BRANCH  16  19
ATOM     19  O   UNL     1      37.874 -68.650  -0.932  1.00  0.00    -0.504 OA
ATOM     20  H   UNL     1      38.873 -68.717  -0.796  1.00  0.00     0.293 HD
ENDBRANCH  16  19
BRANCH  18  21
ATOM     21  O   UNL     1      39.306 -67.706  -3.302  1.00  0.00    -0.504 OA
ATOM     22  H   UNL     1      39.727 -67.701  -4.220  1.00  0.00     0.293 HD
ENDBRANCH  18  21
ENDBRANCH   3  13
BRANCH  10  23
ATOM     23  O   UNL     1      32.302 -63.153  -8.296  1.00  0.00    -0.507 OA
ATOM     24  H   UNL     1      32.606 -63.616  -9.145  1.00  0.00     0.293 HD
ENDBRANCH  10  23
BRANCH  11  25
ATOM     25  O   UNL     1      34.611 -59.558  -6.054  1.00  0.00    -0.508 OA
ATOM     26  H   UNL     1      34.519 -58.921  -6.838  1.00  0.00     0.293 HD
ENDBRANCH  11  25
ENDBRANCH   1   2
BRANCH   1  27
ATOM     27  C   UNL     1      33.158 -68.058  -5.355  1.00  0.00     0.339 C 
ATOM     28  C   UNL     1      33.660 -69.393  -4.770  1.00  0.00     0.214 C 
ATOM     29  O   UNL     1      32.124 -68.257  -6.307  1.00  0.00    -0.332 OA
ATOM     30  C   UNL     1      34.066 -70.374  -5.894  1.00  0.00     0.180 C 
ATOM     31  C   UNL     1      32.575 -69.021  -7.413  1.00  0.00     0.179 C 
ATOM     32  C   UNL     1      32.967 -70.450  -6.972  1.00  0.00     0.177 C 
BRANCH  28  33
ATOM     33  O   UNL     1      32.641 -69.957  -3.982  1.00  0.00    -0.384 OA
ATOM     34  H   UNL     1      32.778 -70.940  -3.994  1.00  0.00     0.211 HD
ENDBRANCH  28  33
BRANCH  30  35
ATOM     35  O   UNL     1      35.270 -69.960  -6.488  1.00  0.00    -0.387 OA
ATOM     36  H   UNL     1      35.043 -69.627  -7.396  1.00  0.00     0.211 HD
ENDBRANCH  30  35
BRANCH  31  37
ATOM     37  C   UNL     1      31.485 -69.033  -8.494  1.00  0.00     0.191 C 
BRANCH  37  38
ATOM     38  O   UNL     1      30.235 -69.333  -7.936  1.00  0.00    -0.394 OA
ATOM     39  H   UNL     1      29.983 -70.224  -8.292  1.00  0.00     0.210 HD
ENDBRANCH  37  38
ENDBRANCH  31  37
BRANCH  32  40
ATOM     40  O   UNL     1      31.843 -71.125  -6.464  1.00  0.00    -0.387 OA
ATOM     41  H   UNL     1      31.211 -71.240  -7.220  1.00  0.00     0.211 HD
ENDBRANCH  32  40
ENDBRANCH   1  27
TORSDOF 12
ENDMDL
MODEL 8
REMARK VINA RESULT:    -5.633      9.728     11.527
REMARK INTER + INTRA:          -9.709
REMARK INTER:                  -8.116
REMARK INTRA:                  -1.594
REMARK UNBOUND:                -1.441
REMARK SMILES O=c1c(O[C@H]2O[C@H](CO)[C@H](O)[C@@H](O)[C@@H]2O)c(-c2ccc(O)c(O)c2)oc2cc(O)cc(O)c12
REMARK SMILES IDX 4 1 3 2 16 3 25 4 2 5 26 6 1 7 33 8 27 9 31 10 28 11 30 12
REMARK SMILES IDX 17 13 18 14 19 15 20 16 24 17 22 18 21 19 23 21 32 23 29 25
REMARK SMILES IDX 5 27 14 28 6 29 12 30 7 31 10 32 15 33 13 35 8 37 9 38 11 40
REMARK H PARENT 21 20 23 22 32 24 29 26 15 34 13 36 9 39 11 41
REMARK Flexibility Score: inf
ROOT
ATOM      1  O   UNL     1      35.495 -63.202  -6.214  1.00  0.00    -0.454 OA
ENDROOT
BRANCH   1   2
ATOM      2  C   UNL     1      35.019 -62.884  -7.492  1.00  0.00     0.214 A 
ATOM      3  C   UNL     1      33.801 -63.400  -7.983  1.00  0.00     0.180 A 
ATOM      4  O   UNL     1      33.350 -63.007  -9.170  1.00  0.00    -0.452 OA
ATOM      5  C   UNL     1      35.766 -62.023  -8.303  1.00  0.00     0.239 A 
ATOM      6  C   UNL     1      34.010 -62.165  -9.958  1.00  0.00     0.146 A 
ATOM      7  O   UNL     1      36.872 -61.586  -7.883  1.00  0.00    -0.285 OA
ATOM      8  C   UNL     1      35.264 -61.642  -9.564  1.00  0.00     0.111 A 
ATOM      9  C   UNL     1      33.455 -61.810 -11.191  1.00  0.00     0.094 A 
ATOM     10  C   UNL     1      35.948 -60.761 -10.435  1.00  0.00     0.134 A 
ATOM     11  C   UNL     1      34.134 -60.937 -12.048  1.00  0.00     0.123 A 
ATOM     12  C   UNL     1      35.374 -60.418 -11.668  1.00  0.00     0.093 A 
BRANCH   3  13
ATOM     13  C   UNL     1      33.002 -64.387  -7.225  1.00  0.00     0.025 A 
ATOM     14  C   UNL     1      33.424 -65.722  -7.165  1.00  0.00     0.016 A 
ATOM     15  C   UNL     1      32.680 -66.665  -6.454  1.00  0.00     0.051 A 
ATOM     16  C   UNL     1      31.511 -66.293  -5.780  1.00  0.00     0.157 A 
ATOM     17  C   UNL     1      31.846 -64.003  -6.526  1.00  0.00     0.062 A 
ATOM     18  C   UNL     1      31.091 -64.942  -5.813  1.00  0.00     0.158 A 
BRANCH  16  19
ATOM     19  O   UNL     1      30.808 -67.286  -5.096  1.00  0.00    -0.504 OA
ATOM     20  H   UNL     1      30.279 -68.018  -5.550  1.00  0.00     0.293 HD
ENDBRANCH  16  19
BRANCH  18  21
ATOM     21  O   UNL     1      29.945 -64.492  -5.154  1.00  0.00    -0.504 OA
ATOM     22  H   UNL     1      29.941 -64.126  -4.213  1.00  0.00     0.293 HD
ENDBRANCH  18  21
ENDBRANCH   3  13
BRANCH  10  23
ATOM     23  O   UNL     1      37.188 -60.223 -10.085  1.00  0.00    -0.507 OA
ATOM     24  H   UNL     1      38.017 -60.800 -10.013  1.00  0.00     0.293 HD
ENDBRANCH  10  23
BRANCH  11  25
ATOM     25  O   UNL     1      33.587 -60.580 -13.276  1.00  0.00    -0.508 OA
ATOM     26  H   UNL     1      32.785 -59.962 -13.340  1.00  0.00     0.293 HD
ENDBRANCH  11  25
ENDBRANCH   1   2
BRANCH   1  27
ATOM     27  C   UNL     1      34.845 -62.770  -5.013  1.00  0.00     0.339 C 
ATOM     28  C   UNL     1      35.279 -61.337  -4.646  1.00  0.00     0.214 C 
ATOM     29  O   UNL     1      35.089 -63.681  -3.952  1.00  0.00    -0.332 OA
ATOM     30  C   UNL     1      36.748 -61.309  -4.163  1.00  0.00     0.180 C 
ATOM     31  C   UNL     1      36.471 -63.761  -3.643  1.00  0.00     0.179 C 
ATOM     32  C   UNL     1      36.995 -62.407  -3.111  1.00  0.00     0.177 C 
BRANCH  28  33
ATOM     33  O   UNL     1      34.431 -60.848  -3.638  1.00  0.00    -0.384 OA
ATOM     34  H   UNL     1      34.491 -61.482  -2.876  1.00  0.00     0.211 HD
ENDBRANCH  28  33
BRANCH  30  35
ATOM     35  O   UNL     1      37.619 -61.502  -5.249  1.00  0.00    -0.387 OA
ATOM     36  H   UNL     1      37.061 -61.489  -6.071  1.00  0.00     0.211 HD
ENDBRANCH  30  35
BRANCH  31  37
ATOM     37  C   UNL     1      36.697 -64.899  -2.638  1.00  0.00     0.191 C 
BRANCH  37  38
ATOM     38  O   UNL     1      35.620 -64.995  -1.746  1.00  0.00    -0.394 OA
ATOM     39  H   UNL     1      35.969 -64.707  -0.863  1.00  0.00     0.210 HD
ENDBRANCH  37  38
ENDBRANCH  31  37
BRANCH  32  40
ATOM     40  O   UNL     1      36.345 -62.075  -1.909  1.00  0.00    -0.387 OA
ATOM     41  H   UNL     1      36.085 -61.120  -1.978  1.00  0.00     0.211 HD
ENDBRANCH  32  40
ENDBRANCH   1  27
TORSDOF 12
ENDMDL
MODEL 9
REMARK VINA RESULT:    -5.606     12.575     13.674
REMARK INTER + INTRA:          -9.669
REMARK INTER:                  -7.956
REMARK INTRA:                  -1.713
REMARK UNBOUND:                -1.441
REMARK SMILES O=c1c(O[C@H]2O[C@H](CO)[C@H](O)[C@@H](O)[C@@H]2O)c(-c2ccc(O)c(O)c2)oc2cc(O)cc(O)c12
REMARK SMILES IDX 4 1 3 2 16 3 25 4 2 5 26 6 1 7 33 8 27 9 31 10 28 11 30 12
REMARK SMILES IDX 17 13 18 14 19 15 20 16 24 17 22 18 21 19 23 21 32 23 29 25
REMARK SMILES IDX 5 27 14 28 6 29 12 30 7 31 10 32 15 33 13 35 8 37 9 38 11 40
REMARK H PARENT 21 20 23 22 32 24 29 26 15 34 13 36 9 39 11 41
REMARK Flexibility Score: inf
ROOT
ATOM      1  O   UNL     1      32.986 -66.975  -5.812  1.00  0.00    -0.454 OA
ENDROOT
BRANCH   1   2
ATOM      2  C   UNL     1      33.639 -65.764  -6.073  1.00  0.00     0.214 A 
ATOM      3  C   UNL     1      34.885 -65.449  -5.491  1.00  0.00     0.180 A 
ATOM      4  O   UNL     1      35.506 -64.323  -5.831  1.00  0.00    -0.452 OA
ATOM      5  C   UNL     1      33.046 -64.843  -6.942  1.00  0.00     0.239 A 
ATOM      6  C   UNL     1      34.994 -63.436  -6.677  1.00  0.00     0.146 A 
ATOM      7  O   UNL     1      31.916 -65.104  -7.437  1.00  0.00    -0.285 OA
ATOM      8  C   UNL     1      33.724 -63.650  -7.265  1.00  0.00     0.111 A 
ATOM      9  C   UNL     1      35.721 -62.279  -6.973  1.00  0.00     0.094 A 
ATOM     10  C   UNL     1      33.202 -62.677  -8.150  1.00  0.00     0.134 A 
ATOM     11  C   UNL     1      35.200 -61.322  -7.850  1.00  0.00     0.123 A 
ATOM     12  C   UNL     1      33.946 -61.523  -8.432  1.00  0.00     0.093 A 
BRANCH   3  13
ATOM     13  C   UNL     1      35.532 -66.328  -4.493  1.00  0.00     0.025 A 
ATOM     14  C   UNL     1      36.556 -67.197  -4.894  1.00  0.00     0.016 A 
ATOM     15  C   UNL     1      37.176 -68.033  -3.964  1.00  0.00     0.051 A 
ATOM     16  C   UNL     1      36.797 -68.008  -2.616  1.00  0.00     0.157 A 
ATOM     17  C   UNL     1      35.169 -66.279  -3.137  1.00  0.00     0.062 A 
ATOM     18  C   UNL     1      35.783 -67.115  -2.197  1.00  0.00     0.158 A 
BRANCH  16  19
ATOM     19  O   UNL     1      37.450 -68.876  -1.739  1.00  0.00    -0.504 OA
ATOM     20  H   UNL     1      38.393 -69.213  -1.877  1.00  0.00     0.293 HD
ENDBRANCH  16  19
BRANCH  18  21
ATOM     21  O   UNL     1      35.360 -67.024  -0.869  1.00  0.00    -0.504 OA
ATOM     22  H   UNL     1      35.821 -67.483  -0.097  1.00  0.00     0.293 HD
ENDBRANCH  18  21
ENDBRANCH   3  13
BRANCH  10  23
ATOM     23  O   UNL     1      31.953 -62.849  -8.750  1.00  0.00    -0.507 OA
ATOM     24  H   UNL     1      31.554 -63.769  -8.897  1.00  0.00     0.293 HD
ENDBRANCH  10  23
BRANCH  11  25
ATOM     25  O   UNL     1      35.919 -60.168  -8.149  1.00  0.00    -0.508 OA
ATOM     26  H   UNL     1      36.169 -59.930  -9.102  1.00  0.00     0.293 HD
ENDBRANCH  11  25
ENDBRANCH   1   2
BRANCH   1  27
ATOM     27  C   UNL     1      33.340 -68.204  -6.458  1.00  0.00     0.339 C 
ATOM     28  C   UNL     1      32.488 -68.416  -7.725  1.00  0.00     0.214 C 
ATOM     29  O   UNL     1      33.227 -69.297  -5.560  1.00  0.00    -0.332 OA
ATOM     30  C   UNL     1      31.021 -68.735  -7.361  1.00  0.00     0.180 C 
ATOM     31  C   UNL     1      31.893 -69.461  -5.108  1.00  0.00     0.179 C 
ATOM     32  C   UNL     1      30.957 -69.833  -6.281  1.00  0.00     0.177 C 
BRANCH  28  33
ATOM     33  O   UNL     1      33.040 -69.469  -8.475  1.00  0.00    -0.384 OA
ATOM     34  H   UNL     1      33.970 -69.205  -8.703  1.00  0.00     0.211 HD
ENDBRANCH  28  33
BRANCH  30  35
ATOM     35  O   UNL     1      30.376 -67.580  -6.886  1.00  0.00    -0.387 OA
ATOM     36  H   UNL     1      29.539 -67.879  -6.444  1.00  0.00     0.211 HD
ENDBRANCH  30  35
BRANCH  31  37
ATOM     37  C   UNL     1      31.865 -70.518  -3.995  1.00  0.00     0.191 C 
BRANCH  37  38
ATOM     38  O   UNL     1      30.595 -71.102  -3.895  1.00  0.00    -0.394 OA
ATOM     39  H   UNL     1      30.468 -71.322  -2.936  1.00  0.00     0.210 HD
ENDBRANCH  37  38
ENDBRANCH  31  37
BRANCH  32  40
ATOM     40  O   UNL     1      31.337 -71.069  -6.831  1.00  0.00    -0.387 OA
ATOM     41  H   UNL     1      32.249 -70.949  -7.204  1.00  0.00     0.211 HD
ENDBRANCH  32  40
ENDBRANCH   1  27
TORSDOF 12
ENDMDL
