MODEL 1
REMARK VINA RESULT:    -6.495      0.000      0.000
REMARK INTER + INTRA:         -19.430
REMARK INTER:                 -17.127
REMARK INTRA:                  -2.302
REMARK UNBOUND:                -2.302
REMARK SMILES CCCCCCCCCCCCCCCCCCCCCCCCCCCCCC(=O)[O-]
REMARK SMILES IDX 16 1 17 2 18 3 19 4 20 5 21 6 22 7 23 8 24 9 25 10 26 11
REMARK SMILES IDX 27 12 28 13 29 14 30 15 31 16 32 17 15 18 14 19 13 20 12 21
REMARK SMILES IDX 11 22 10 23 9 24 8 25 7 26 6 27 5 28 4 29 3 30 2 31 1 32
REMARK H PARENT
REMARK Flexibility Score: inf
ROOT
ATOM      1  C   UNL     1      17.029   2.085  11.643  1.00  0.00     0.000 C 
ENDROOT
BRANCH   1   2
ATOM      2  C   UNL     1      17.735   0.748  11.344  1.00  0.00     0.000 C 
BRANCH   2   3
ATOM      3  C   UNL     1      17.390   0.166   9.959  1.00  0.00     0.000 C 
BRANCH   3   4
ATOM      4  C   UNL     1      17.966   1.007   8.806  1.00  0.00     0.000 C 
BRANCH   4   5
ATOM      5  C   UNL     1      18.840   0.158   7.870  1.00  0.00     0.000 C 
BRANCH   5   6
ATOM      6  C   UNL     1      19.602   1.018   6.845  1.00  0.00     0.000 C 
BRANCH   6   7
ATOM      7  C   UNL     1      21.087   0.630   6.755  1.00  0.00     0.000 C 
BRANCH   7   8
ATOM      8  C   UNL     1      21.274  -0.895   6.645  1.00  0.00     0.000 C 
BRANCH   8   9
ATOM      9  C   UNL     1      22.223  -1.300   5.507  1.00  0.00     0.000 C 
BRANCH   9  10
ATOM     10  C   UNL     1      23.584  -0.594   5.587  1.00  0.00     0.000 C 
BRANCH  10  11
ATOM     11  C   UNL     1      24.706  -1.601   5.862  1.00  0.00     0.000 C 
BRANCH  11  12
ATOM     12  C   UNL     1      26.040  -0.888   6.113  1.00  0.00     0.000 C 
BRANCH  12  13
ATOM     13  C   UNL     1      27.127  -1.888   6.531  1.00  0.00     0.006 C 
BRANCH  13  14
ATOM     14  C   UNL     1      28.225  -2.029   5.471  1.00  0.00     0.053 C 
BRANCH  14  15
ATOM     15  C   UNL     1      29.585  -2.139   6.091  1.00  0.00     0.041 C 
ATOM     16  O   UNL     1      29.853  -3.097   6.864  1.00  0.00    -0.550 OA
ATOM     17  O   UNL     1      30.567  -1.208   5.783  1.00  0.00    -0.550 OA
ENDBRANCH  14  15
ENDBRANCH  13  14
ENDBRANCH  12  13
ENDBRANCH  11  12
ENDBRANCH  10  11
ENDBRANCH   9  10
ENDBRANCH   8   9
ENDBRANCH   7   8
ENDBRANCH   6   7
ENDBRANCH   5   6
ENDBRANCH   4   5
ENDBRANCH   3   4
ENDBRANCH   2   3
ENDBRANCH   1   2
BRANCH   1  18
ATOM     18  C   UNL     1      15.504   1.984  11.820  1.00  0.00     0.000 C 
BRANCH  18  19
ATOM     19  C   UNL     1      15.108   1.522  13.234  1.00  0.00     0.000 C 
BRANCH  19  20
ATOM     20  C   UNL     1      15.484   2.537  14.328  1.00  0.00     0.000 C 
BRANCH  20  21
ATOM     21  C   UNL     1      15.121   2.119  15.766  1.00  0.00     0.000 C 
BRANCH  21  22
ATOM     22  C   UNL     1      15.322   3.235  16.814  1.00  0.00     0.000 C 
BRANCH  22  23
ATOM     23  C   UNL     1      14.101   3.386  17.739  1.00  0.00     0.000 C 
BRANCH  23  24
ATOM     24  C   UNL     1      13.811   2.115  18.550  1.00  0.00    -0.000 C 
BRANCH  24  25
ATOM     25  C   UNL     1      14.590   2.075  19.878  1.00  0.00    -0.000 C 
BRANCH  25  26
ATOM     26  C   UNL     1      14.963   0.646  20.303  1.00  0.00    -0.000 C 
BRANCH  26  27
ATOM     27  C   UNL     1      15.702  -0.129  19.197  1.00  0.00    -0.000 C 
BRANCH  27  28
ATOM     28  C   UNL     1      17.199   0.216  19.131  1.00  0.00    -0.000 C 
BRANCH  28  29
ATOM     29  C   UNL     1      17.815   0.176  17.718  1.00  0.00    -0.000 C 
BRANCH  29  30
ATOM     30  C   UNL     1      18.107  -1.250  17.203  1.00  0.00    -0.000 C 
BRANCH  30  31
ATOM     31  C   UNL     1      18.474  -1.310  15.709  1.00  0.00    -0.003 C 
ATOM     32  C   UNL     1      18.075  -0.042  14.954  1.00  0.00     0.004 C 
ENDBRANCH  30  31
ENDBRANCH  29  30
ENDBRANCH  28  29
ENDBRANCH  27  28
ENDBRANCH  26  27
ENDBRANCH  25  26
ENDBRANCH  24  25
ENDBRANCH  23  24
ENDBRANCH  22  23
ENDBRANCH  21  22
ENDBRANCH  20  21
ENDBRANCH  19  20
ENDBRANCH  18  19
ENDBRANCH   1  18
TORSDOF 28
ENDMDL
MODEL 2
REMARK VINA RESULT:    -6.430      5.711     11.141
REMARK INTER + INTRA:         -19.258
REMARK INTER:                 -15.434
REMARK INTRA:                  -3.824
REMARK UNBOUND:                -2.302
REMARK SMILES CCCCCCCCCCCCCCCCCCCCCCCCCCCCCC(=O)[O-]
REMARK SMILES IDX 16 1 17 2 18 3 19 4 20 5 21 6 22 7 23 8 24 9 25 10 26 11
REMARK SMILES IDX 27 12 28 13 29 14 30 15 31 16 32 17 15 18 14 19 13 20 12 21
REMARK SMILES IDX 11 22 10 23 9 24 8 25 7 26 6 27 5 28 4 29 3 30 2 31 1 32
REMARK H PARENT
REMARK Flexibility Score: inf
ROOT
ATOM      1  C   UNL     1      15.937  -0.697  16.544  1.00  0.00     0.000 C 
ENDROOT
BRANCH   1   2
ATOM      2  C   UNL     1      15.978  -1.793  17.627  1.00  0.00     0.000 C 
BRANCH   2   3
ATOM      3  C   UNL     1      16.894  -1.447  18.818  1.00  0.00     0.000 C 
BRANCH   3   4
ATOM      4  C   UNL     1      16.765   0.024  19.253  1.00  0.00     0.000 C 
BRANCH   4   5
ATOM      5  C   UNL     1      15.509   0.251  20.109  1.00  0.00     0.000 C 
BRANCH   5   6
ATOM      6  C   UNL     1      14.749   1.526  19.700  1.00  0.00     0.000 C 
BRANCH   6   7
ATOM      7  C   UNL     1      13.738   1.260  18.572  1.00  0.00     0.000 C 
BRANCH   7   8
ATOM      8  C   UNL     1      13.726   2.399  17.535  1.00  0.00     0.000 C 
BRANCH   8   9
ATOM      9  C   UNL     1      15.138   2.823  17.099  1.00  0.00     0.000 C 
BRANCH   9  10
ATOM     10  C   UNL     1      15.323   2.802  15.575  1.00  0.00     0.000 C 
BRANCH  10  11
ATOM     11  C   UNL     1      14.145   2.098  14.892  1.00  0.00     0.000 C 
BRANCH  11  12
ATOM     12  C   UNL     1      14.589   1.407  13.598  1.00  0.00     0.000 C 
BRANCH  12  13
ATOM     13  C   UNL     1      15.833   2.089  13.010  1.00  0.00     0.006 C 
BRANCH  13  14
ATOM     14  C   UNL     1      15.937   1.898  11.493  1.00  0.00     0.053 C 
BRANCH  14  15
ATOM     15  C   UNL     1      17.183   1.159  11.111  1.00  0.00     0.041 C 
ATOM     16  O   UNL     1      17.441   0.936   9.898  1.00  0.00    -0.550 OA
ATOM     17  O   UNL     1      18.079   0.753  12.090  1.00  0.00    -0.550 OA
ENDBRANCH  14  15
ENDBRANCH  13  14
ENDBRANCH  12  13
ENDBRANCH  11  12
ENDBRANCH  10  11
ENDBRANCH   9  10
ENDBRANCH   8   9
ENDBRANCH   7   8
ENDBRANCH   6   7
ENDBRANCH   5   6
ENDBRANCH   4   5
ENDBRANCH   3   4
ENDBRANCH   2   3
ENDBRANCH   1   2
BRANCH   1  18
ATOM     18  C   UNL     1      17.070  -0.773  15.505  1.00  0.00     0.000 C 
BRANCH  18  19
ATOM     19  C   UNL     1      18.213   0.211  15.814  1.00  0.00     0.000 C 
BRANCH  19  20
ATOM     20  C   UNL     1      19.536  -0.163  15.121  1.00  0.00     0.000 C 
BRANCH  20  21
ATOM     21  C   UNL     1      20.303  -1.337  15.760  1.00  0.00     0.000 C 
BRANCH  21  22
ATOM     22  C   UNL     1      21.772  -1.013  16.105  1.00  0.00     0.000 C 
BRANCH  22  23
ATOM     23  C   UNL     1      22.684  -2.247  15.971  1.00  0.00     0.000 C 
BRANCH  23  24
ATOM     24  C   UNL     1      23.793  -2.281  17.032  1.00  0.00    -0.000 C 
BRANCH  24  25
ATOM     25  C   UNL     1      25.164  -2.658  16.438  1.00  0.00    -0.000 C 
BRANCH  25  26
ATOM     26  C   UNL     1      26.132  -1.467  16.380  1.00  0.00    -0.000 C 
BRANCH  26  27
ATOM     27  C   UNL     1      27.159  -1.591  15.240  1.00  0.00    -0.000 C 
BRANCH  27  28
ATOM     28  C   UNL     1      27.439  -0.247  14.547  1.00  0.00    -0.000 C 
BRANCH  28  29
ATOM     29  C   UNL     1      27.128   1.002  15.396  1.00  0.00    -0.000 C 
BRANCH  29  30
ATOM     30  C   UNL     1      26.028   1.907  14.798  1.00  0.00    -0.000 C 
BRANCH  30  31
ATOM     31  C   UNL     1      24.636   1.688  15.418  1.00  0.00    -0.003 C 
ATOM     32  C   UNL     1      24.627   1.893  16.933  1.00  0.00     0.004 C 
ENDBRANCH  30  31
ENDBRANCH  29  30
ENDBRANCH  28  29
ENDBRANCH  27  28
ENDBRANCH  26  27
ENDBRANCH  25  26
ENDBRANCH  24  25
ENDBRANCH  23  24
ENDBRANCH  22  23
ENDBRANCH  21  22
ENDBRANCH  20  21
ENDBRANCH  19  20
ENDBRANCH  18  19
ENDBRANCH   1  18
TORSDOF 28
ENDMDL
MODEL 3
REMARK VINA RESULT:    -6.408      5.606      6.897
REMARK INTER + INTRA:         -19.200
REMARK INTER:                 -15.657
REMARK INTRA:                  -3.543
REMARK UNBOUND:                -2.302
REMARK SMILES CCCCCCCCCCCCCCCCCCCCCCCCCCCCCC(=O)[O-]
REMARK SMILES IDX 16 1 17 2 18 3 19 4 20 5 21 6 22 7 23 8 24 9 25 10 26 11
REMARK SMILES IDX 27 12 28 13 29 14 30 15 31 16 32 17 15 18 14 19 13 20 12 21
REMARK SMILES IDX 11 22 10 23 9 24 8 25 7 26 6 27 5 28 4 29 3 30 2 31 1 32
REMARK H PARENT
REMARK Flexibility Score: inf
ROOT
ATOM      1  C   UNL     1      17.642   0.600  11.605  1.00  0.00     0.000 C 
ENDROOT
BRANCH   1   2
ATOM      2  C   UNL     1      17.289  -0.119  12.921  1.00  0.00     0.000 C 
BRANCH   2   3
ATOM      3  C   UNL     1      18.515  -0.697  13.656  1.00  0.00     0.000 C 
BRANCH   3   4
ATOM      4  C   UNL     1      18.734  -0.049  15.035  1.00  0.00     0.000 C 
BRANCH   4   5
ATOM      5  C   UNL     1      20.133  -0.360  15.589  1.00  0.00     0.000 C 
BRANCH   5   6
ATOM      6  C   UNL     1      20.790   0.872  16.239  1.00  0.00     0.000 C 
BRANCH   6   7
ATOM      7  C   UNL     1      22.324   0.780  16.235  1.00  0.00     0.000 C 
BRANCH   7   8
ATOM      8  C   UNL     1      22.980   2.174  16.225  1.00  0.00     0.000 C 
BRANCH   8   9
ATOM      9  C   UNL     1      24.501   2.120  16.441  1.00  0.00     0.000 C 
BRANCH   9  10
ATOM     10  C   UNL     1      25.261   1.625  15.203  1.00  0.00     0.000 C 
BRANCH  10  11
ATOM     11  C   UNL     1      26.602   0.997  15.600  1.00  0.00     0.000 C 
BRANCH  11  12
ATOM     12  C   UNL     1      26.392  -0.285  16.413  1.00  0.00     0.000 C 
BRANCH  12  13
ATOM     13  C   UNL     1      26.240  -1.502  15.489  1.00  0.00     0.006 C 
BRANCH  13  14
ATOM     14  C   UNL     1      24.780  -1.750  15.091  1.00  0.00     0.053 C 
BRANCH  14  15
ATOM     15  C   UNL     1      24.153  -2.826  15.924  1.00  0.00     0.041 C 
ATOM     16  O   UNL     1      22.904  -2.989  15.912  1.00  0.00    -0.550 OA
ATOM     17  O   UNL     1      24.950  -3.675  16.679  1.00  0.00    -0.550 OA
ENDBRANCH  14  15
ENDBRANCH  13  14
ENDBRANCH  12  13
ENDBRANCH  11  12
ENDBRANCH  10  11
ENDBRANCH   9  10
ENDBRANCH   8   9
ENDBRANCH   7   8
ENDBRANCH   6   7
ENDBRANCH   5   6
ENDBRANCH   4   5
ENDBRANCH   3   4
ENDBRANCH   2   3
ENDBRANCH   1   2
BRANCH   1  18
ATOM     18  C   UNL     1      16.934   1.950  11.397  1.00  0.00     0.000 C 
BRANCH  18  19
ATOM     19  C   UNL     1      15.543   1.989  12.056  1.00  0.00     0.000 C 
BRANCH  19  20
ATOM     20  C   UNL     1      15.457   2.988  13.224  1.00  0.00     0.000 C 
BRANCH  20  21
ATOM     21  C   UNL     1      14.590   2.533  14.414  1.00  0.00     0.000 C 
BRANCH  21  22
ATOM     22  C   UNL     1      15.360   1.723  15.479  1.00  0.00     0.000 C 
BRANCH  22  23
ATOM     23  C   UNL     1      15.843   2.608  16.642  1.00  0.00     0.000 C 
BRANCH  23  24
ATOM     24  C   UNL     1      14.716   3.457  17.247  1.00  0.00    -0.000 C 
BRANCH  24  25
ATOM     25  C   UNL     1      13.633   2.599  17.928  1.00  0.00    -0.000 C 
BRANCH  25  26
ATOM     26  C   UNL     1      14.123   1.953  19.233  1.00  0.00    -0.000 C 
BRANCH  26  27
ATOM     27  C   UNL     1      14.160   0.416  19.158  1.00  0.00    -0.000 C 
BRANCH  27  28
ATOM     28  C   UNL     1      15.179  -0.201  20.131  1.00  0.00    -0.000 C 
BRANCH  28  29
ATOM     29  C   UNL     1      16.651   0.159  19.846  1.00  0.00    -0.000 C 
BRANCH  29  30
ATOM     30  C   UNL     1      17.128  -0.233  18.431  1.00  0.00    -0.000 C 
BRANCH  30  31
ATOM     31  C   UNL     1      17.395  -1.740  18.259  1.00  0.00    -0.003 C 
ATOM     32  C   UNL     1      16.703  -2.323  17.026  1.00  0.00     0.004 C 
ENDBRANCH  30  31
ENDBRANCH  29  30
ENDBRANCH  28  29
ENDBRANCH  27  28
ENDBRANCH  26  27
ENDBRANCH  25  26
ENDBRANCH  24  25
ENDBRANCH  23  24
ENDBRANCH  22  23
ENDBRANCH  21  22
ENDBRANCH  20  21
ENDBRANCH  19  20
ENDBRANCH  18  19
ENDBRANCH   1  18
TORSDOF 28
ENDMDL
MODEL 4
REMARK VINA RESULT:    -6.390      5.202      7.673
REMARK INTER + INTRA:         -19.151
REMARK INTER:                 -15.645
REMARK INTRA:                  -3.507
REMARK UNBOUND:                -2.302
REMARK SMILES CCCCCCCCCCCCCCCCCCCCCCCCCCCCCC(=O)[O-]
REMARK SMILES IDX 16 1 17 2 18 3 19 4 20 5 21 6 22 7 23 8 24 9 25 10 26 11
REMARK SMILES IDX 27 12 28 13 29 14 30 15 31 16 32 17 15 18 14 19 13 20 12 21
REMARK SMILES IDX 11 22 10 23 9 24 8 25 7 26 6 27 5 28 4 29 3 30 2 31 1 32
REMARK H PARENT
REMARK Flexibility Score: inf
ROOT
ATOM      1  C   UNL     1      16.019  -0.697  16.432  1.00  0.00     0.000 C 
ENDROOT
BRANCH   1   2
ATOM      2  C   UNL     1      17.085  -0.178  15.448  1.00  0.00     0.000 C 
BRANCH   2   3
ATOM      3  C   UNL     1      18.338   0.394  16.143  1.00  0.00     0.000 C 
BRANCH   3   4
ATOM      4  C   UNL     1      19.642  -0.022  15.439  1.00  0.00     0.000 C 
BRANCH   4   5
ATOM      5  C   UNL     1      19.592  -1.485  14.975  1.00  0.00     0.000 C 
BRANCH   5   6
ATOM      6  C   UNL     1      20.738  -2.325  15.570  1.00  0.00     0.000 C 
BRANCH   6   7
ATOM      7  C   UNL     1      21.838  -1.446  16.188  1.00  0.00     0.000 C 
BRANCH   7   8
ATOM      8  C   UNL     1      23.236  -2.069  16.006  1.00  0.00     0.000 C 
BRANCH   8   9
ATOM      9  C   UNL     1      23.844  -2.565  17.327  1.00  0.00     0.000 C 
BRANCH   9  10
ATOM     10  C   UNL     1      25.054  -1.733  17.775  1.00  0.00     0.000 C 
BRANCH  10  11
ATOM     11  C   UNL     1      25.056  -0.361  17.092  1.00  0.00     0.000 C 
BRANCH  11  12
ATOM     12  C   UNL     1      26.099   0.569  17.723  1.00  0.00     0.000 C 
BRANCH  12  13
ATOM     13  C   UNL     1      27.175   0.961  16.701  1.00  0.00     0.006 C 
BRANCH  13  14
ATOM     14  C   UNL     1      26.782   0.582  15.269  1.00  0.00     0.053 C 
BRANCH  14  15
ATOM     15  C   UNL     1      27.136   1.661  14.292  1.00  0.00     0.041 C 
ATOM     16  O   UNL     1      27.910   1.415  13.329  1.00  0.00    -0.550 OA
ATOM     17  O   UNL     1      26.579   2.926  14.421  1.00  0.00    -0.550 OA
ENDBRANCH  14  15
ENDBRANCH  13  14
ENDBRANCH  12  13
ENDBRANCH  11  12
ENDBRANCH  10  11
ENDBRANCH   9  10
ENDBRANCH   8   9
ENDBRANCH   7   8
ENDBRANCH   6   7
ENDBRANCH   5   6
ENDBRANCH   4   5
ENDBRANCH   3   4
ENDBRANCH   2   3
ENDBRANCH   1   2
BRANCH   1  18
ATOM     18  C   UNL     1      16.368  -2.028  17.120  1.00  0.00     0.000 C 
BRANCH  18  19
ATOM     19  C   UNL     1      17.042  -1.820  18.488  1.00  0.00     0.000 C 
BRANCH  19  20
ATOM     20  C   UNL     1      16.113  -1.161  19.524  1.00  0.00     0.000 C 
BRANCH  20  21
ATOM     21  C   UNL     1      16.373   0.337  19.781  1.00  0.00     0.000 C 
BRANCH  21  22
ATOM     22  C   UNL     1      15.177   1.082  20.409  1.00  0.00     0.000 C 
BRANCH  22  23
ATOM     23  C   UNL     1      14.525   2.066  19.421  1.00  0.00     0.000 C 
BRANCH  23  24
ATOM     24  C   UNL     1      13.662   1.360  18.366  1.00  0.00    -0.000 C 
BRANCH  24  25
ATOM     25  C   UNL     1      13.590   2.146  17.043  1.00  0.00    -0.000 C 
BRANCH  25  26
ATOM     26  C   UNL     1      14.906   2.864  16.708  1.00  0.00    -0.000 C 
BRANCH  26  27
ATOM     27  C   UNL     1      15.184   2.921  15.195  1.00  0.00    -0.000 C 
BRANCH  27  28
ATOM     28  C   UNL     1      14.279   1.973  14.390  1.00  0.00    -0.000 C 
BRANCH  28  29
ATOM     29  C   UNL     1      14.874   1.480  13.056  1.00  0.00    -0.000 C 
BRANCH  29  30
ATOM     30  C   UNL     1      15.628   2.573  12.267  1.00  0.00    -0.000 C 
BRANCH  30  31
ATOM     31  C   UNL     1      16.737   2.026  11.349  1.00  0.00    -0.003 C 
ATOM     32  C   UNL     1      17.399   0.767  11.912  1.00  0.00     0.004 C 
ENDBRANCH  30  31
ENDBRANCH  29  30
ENDBRANCH  28  29
ENDBRANCH  27  28
ENDBRANCH  26  27
ENDBRANCH  25  26
ENDBRANCH  24  25
ENDBRANCH  23  24
ENDBRANCH  22  23
ENDBRANCH  21  22
ENDBRANCH  20  21
ENDBRANCH  19  20
ENDBRANCH  18  19
ENDBRANCH   1  18
TORSDOF 28
ENDMDL
MODEL 5
REMARK VINA RESULT:    -6.377      5.732      8.038
REMARK INTER + INTRA:         -19.117
REMARK INTER:                 -15.637
REMARK INTRA:                  -3.480
REMARK UNBOUND:                -2.302
REMARK SMILES CCCCCCCCCCCCCCCCCCCCCCCCCCCCCC(=O)[O-]
REMARK SMILES IDX 16 1 17 2 18 3 19 4 20 5 21 6 22 7 23 8 24 9 25 10 26 11
REMARK SMILES IDX 27 12 28 13 29 14 30 15 31 16 32 17 15 18 14 19 13 20 12 21
REMARK SMILES IDX 11 22 10 23 9 24 8 25 7 26 6 27 5 28 4 29 3 30 2 31 1 32
REMARK H PARENT
REMARK Flexibility Score: inf
ROOT
ATOM      1  C   UNL     1      16.062  -1.079  16.342  1.00  0.00     0.000 C 
ENDROOT
BRANCH   1   2
ATOM      2  C   UNL     1      16.759  -0.715  15.017  1.00  0.00     0.000 C 
BRANCH   2   3
ATOM      3  C   UNL     1      18.218  -0.249  15.197  1.00  0.00     0.000 C 
BRANCH   3   4
ATOM      4  C   UNL     1      19.214  -1.112  14.401  1.00  0.00     0.000 C 
BRANCH   4   5
ATOM      5  C   UNL     1      19.958  -2.100  15.312  1.00  0.00     0.000 C 
BRANCH   5   6
ATOM      6  C   UNL     1      21.243  -1.491  15.904  1.00  0.00     0.000 C 
BRANCH   6   7
ATOM      7  C   UNL     1      22.415  -2.486  15.886  1.00  0.00     0.000 C 
BRANCH   7   8
ATOM      8  C   UNL     1      23.416  -2.209  17.025  1.00  0.00     0.000 C 
BRANCH   8   9
ATOM      9  C   UNL     1      24.403  -1.080  16.691  1.00  0.00     0.000 C 
BRANCH   9  10
ATOM     10  C   UNL     1      24.984  -1.196  15.275  1.00  0.00     0.000 C 
BRANCH  10  11
ATOM     11  C   UNL     1      26.375  -1.840  15.307  1.00  0.00     0.000 C 
BRANCH  11  12
ATOM     12  C   UNL     1      26.886  -1.978  16.746  1.00  0.00     0.000 C 
BRANCH  12  13
ATOM     13  C   UNL     1      28.028  -3.002  16.827  1.00  0.00     0.006 C 
BRANCH  13  14
ATOM     14  C   UNL     1      27.783  -4.061  17.908  1.00  0.00     0.053 C 
BRANCH  14  15
ATOM     15  C   UNL     1      26.323  -4.224  18.203  1.00  0.00     0.041 C 
ATOM     16  O   UNL     1      25.579  -4.847  17.399  1.00  0.00    -0.550 OA
ATOM     17  O   UNL     1      25.793  -3.726  19.386  1.00  0.00    -0.550 OA
ENDBRANCH  14  15
ENDBRANCH  13  14
ENDBRANCH  12  13
ENDBRANCH  11  12
ENDBRANCH  10  11
ENDBRANCH   9  10
ENDBRANCH   8   9
ENDBRANCH   7   8
ENDBRANCH   6   7
ENDBRANCH   5   6
ENDBRANCH   4   5
ENDBRANCH   3   4
ENDBRANCH   2   3
ENDBRANCH   1   2
BRANCH   1  18
ATOM     18  C   UNL     1      16.709  -2.243  17.114  1.00  0.00     0.000 C 
BRANCH  18  19
ATOM     19  C   UNL     1      17.316  -1.790  18.455  1.00  0.00     0.000 C 
BRANCH  19  20
ATOM     20  C   UNL     1      16.283  -1.142  19.395  1.00  0.00     0.000 C 
BRANCH  20  21
ATOM     21  C   UNL     1      16.443   0.377  19.599  1.00  0.00     0.000 C 
BRANCH  21  22
ATOM     22  C   UNL     1      15.258   1.040  20.334  1.00  0.00     0.000 C 
BRANCH  22  23
ATOM     23  C   UNL     1      14.446   1.962  19.408  1.00  0.00     0.000 C 
BRANCH  23  24
ATOM     24  C   UNL     1      13.640   1.185  18.357  1.00  0.00    -0.000 C 
BRANCH  24  25
ATOM     25  C   UNL     1      13.766   1.797  16.949  1.00  0.00    -0.000 C 
BRANCH  25  26
ATOM     26  C   UNL     1      15.145   2.424  16.696  1.00  0.00    -0.000 C 
BRANCH  26  27
ATOM     27  C   UNL     1      15.390   2.741  15.210  1.00  0.00    -0.000 C 
BRANCH  27  28
ATOM     28  C   UNL     1      14.393   2.028  14.280  1.00  0.00    -0.000 C 
BRANCH  28  29
ATOM     29  C   UNL     1      14.986   1.535  12.945  1.00  0.00    -0.000 C 
BRANCH  29  30
ATOM     30  C   UNL     1      15.744   2.625  12.156  1.00  0.00    -0.000 C 
BRANCH  30  31
ATOM     31  C   UNL     1      16.833   2.072  11.219  1.00  0.00    -0.003 C 
ATOM     32  C   UNL     1      17.350   0.702  11.661  1.00  0.00     0.004 C 
ENDBRANCH  30  31
ENDBRANCH  29  30
ENDBRANCH  28  29
ENDBRANCH  27  28
ENDBRANCH  26  27
ENDBRANCH  25  26
ENDBRANCH  24  25
ENDBRANCH  23  24
ENDBRANCH  22  23
ENDBRANCH  21  22
ENDBRANCH  20  21
ENDBRANCH  19  20
ENDBRANCH  18  19
ENDBRANCH   1  18
TORSDOF 28
ENDMDL
MODEL 6
REMARK VINA RESULT:    -6.356      5.970     10.981
REMARK INTER + INTRA:         -19.062
REMARK INTER:                 -15.005
REMARK INTRA:                  -4.057
REMARK UNBOUND:                -2.302
REMARK SMILES CCCCCCCCCCCCCCCCCCCCCCCCCCCCCC(=O)[O-]
REMARK SMILES IDX 16 1 17 2 18 3 19 4 20 5 21 6 22 7 23 8 24 9 25 10 26 11
REMARK SMILES IDX 27 12 28 13 29 14 30 15 31 16 32 17 15 18 14 19 13 20 12 21
REMARK SMILES IDX 11 22 10 23 9 24 8 25 7 26 6 27 5 28 4 29 3 30 2 31 1 32
REMARK H PARENT
REMARK Flexibility Score: inf
ROOT
ATOM      1  C   UNL     1      16.142  -1.004  16.873  1.00  0.00     0.000 C 
ENDROOT
BRANCH   1   2
ATOM      2  C   UNL     1      17.096  -1.243  18.059  1.00  0.00     0.000 C 
BRANCH   2   3
ATOM      3  C   UNL     1      16.950  -0.201  19.186  1.00  0.00     0.000 C 
BRANCH   3   4
ATOM      4  C   UNL     1      15.641  -0.371  19.980  1.00  0.00     0.000 C 
BRANCH   4   5
ATOM      5  C   UNL     1      15.200   0.949  20.629  1.00  0.00     0.000 C 
BRANCH   5   6
ATOM      6  C   UNL     1      14.610   1.935  19.603  1.00  0.00     0.000 C 
BRANCH   6   7
ATOM      7  C   UNL     1      13.592   1.258  18.670  1.00  0.00     0.000 C 
BRANCH   7   8
ATOM      8  C   UNL     1      13.722   1.764  17.220  1.00  0.00     0.000 C 
BRANCH   8   9
ATOM      9  C   UNL     1      15.084   2.415  16.936  1.00  0.00     0.000 C 
BRANCH   9  10
ATOM     10  C   UNL     1      15.205   2.939  15.498  1.00  0.00     0.000 C 
BRANCH  10  11
ATOM     11  C   UNL     1      14.147   2.299  14.593  1.00  0.00     0.000 C 
BRANCH  11  12
ATOM     12  C   UNL     1      14.797   1.406  13.529  1.00  0.00     0.000 C 
BRANCH  12  13
ATOM     13  C   UNL     1      15.843   2.188  12.721  1.00  0.00     0.006 C 
BRANCH  13  14
ATOM     14  C   UNL     1      15.937   1.703  11.269  1.00  0.00     0.053 C 
BRANCH  14  15
ATOM     15  C   UNL     1      17.238   1.012  10.998  1.00  0.00     0.041 C 
ATOM     16  O   UNL     1      17.591   0.768   9.813  1.00  0.00    -0.550 OA
ATOM     17  O   UNL     1      18.079   0.674  12.049  1.00  0.00    -0.550 OA
ENDBRANCH  14  15
ENDBRANCH  13  14
ENDBRANCH  12  13
ENDBRANCH  11  12
ENDBRANCH  10  11
ENDBRANCH   9  10
ENDBRANCH   8   9
ENDBRANCH   7   8
ENDBRANCH   6   7
ENDBRANCH   5   6
ENDBRANCH   4   5
ENDBRANCH   3   4
ENDBRANCH   2   3
ENDBRANCH   1   2
BRANCH   1  18
ATOM     18  C   UNL     1      16.839  -0.740  15.526  1.00  0.00     0.000 C 
BRANCH  18  19
ATOM     19  C   UNL     1      17.887   0.385  15.621  1.00  0.00     0.000 C 
BRANCH  19  20
ATOM     20  C   UNL     1      19.306  -0.079  15.247  1.00  0.00     0.000 C 
BRANCH  20  21
ATOM     21  C   UNL     1      19.403  -1.514  14.693  1.00  0.00     0.000 C 
BRANCH  21  22
ATOM     22  C   UNL     1      20.281  -2.457  15.544  1.00  0.00     0.000 C 
BRANCH  22  23
ATOM     23  C   UNL     1      21.620  -1.805  15.935  1.00  0.00     0.000 C 
BRANCH  23  24
ATOM     24  C   UNL     1      22.786  -2.803  15.935  1.00  0.00    -0.000 C 
BRANCH  24  25
ATOM     25  C   UNL     1      24.145  -2.121  15.684  1.00  0.00    -0.000 C 
BRANCH  25  26
ATOM     26  C   UNL     1      24.079  -0.595  15.842  1.00  0.00    -0.000 C 
BRANCH  26  27
ATOM     27  C   UNL     1      25.470   0.065  15.829  1.00  0.00    -0.000 C 
BRANCH  27  28
ATOM     28  C   UNL     1      25.879   0.612  17.207  1.00  0.00    -0.000 C 
BRANCH  28  29
ATOM     29  C   UNL     1      27.311   0.254  17.652  1.00  0.00    -0.000 C 
BRANCH  29  30
ATOM     30  C   UNL     1      27.510  -1.244  17.973  1.00  0.00    -0.000 C 
BRANCH  30  31
ATOM     31  C   UNL     1      26.794  -1.706  19.255  1.00  0.00    -0.003 C 
ATOM     32  C   UNL     1      25.643  -2.671  18.972  1.00  0.00     0.004 C 
ENDBRANCH  30  31
ENDBRANCH  29  30
ENDBRANCH  28  29
ENDBRANCH  27  28
ENDBRANCH  26  27
ENDBRANCH  25  26
ENDBRANCH  24  25
ENDBRANCH  23  24
ENDBRANCH  22  23
ENDBRANCH  21  22
ENDBRANCH  20  21
ENDBRANCH  19  20
ENDBRANCH  18  19
ENDBRANCH   1  18
TORSDOF 28
ENDMDL
MODEL 7
REMARK VINA RESULT:    -6.336      6.945     12.133
REMARK INTER + INTRA:         -19.008
REMARK INTER:                 -14.808
REMARK INTRA:                  -4.200
REMARK UNBOUND:                -2.302
REMARK SMILES CCCCCCCCCCCCCCCCCCCCCCCCCCCCCC(=O)[O-]
REMARK SMILES IDX 16 1 17 2 18 3 19 4 20 5 21 6 22 7 23 8 24 9 25 10 26 11
REMARK SMILES IDX 27 12 28 13 29 14 30 15 31 16 32 17 15 18 14 19 13 20 12 21
REMARK SMILES IDX 11 22 10 23 9 24 8 25 7 26 6 27 5 28 4 29 3 30 2 31 1 32
REMARK H PARENT
REMARK Flexibility Score: inf
ROOT
ATOM      1  C   UNL     1      17.819   1.080  16.999  1.00  0.00     0.000 C 
ENDROOT
BRANCH   1   2
ATOM      2  C   UNL     1      17.826   0.445  18.403  1.00  0.00     0.000 C 
BRANCH   2   3
ATOM      3  C   UNL     1      17.688  -1.091  18.384  1.00  0.00     0.000 C 
BRANCH   3   4
ATOM      4  C   UNL     1      16.414  -1.576  19.100  1.00  0.00     0.000 C 
BRANCH   4   5
ATOM      5  C   UNL     1      15.166  -1.373  18.227  1.00  0.00     0.000 C 
BRANCH   5   6
ATOM      6  C   UNL     1      14.150  -0.415  18.877  1.00  0.00     0.000 C 
BRANCH   6   7
ATOM      7  C   UNL     1      14.614   0.067  20.262  1.00  0.00     0.000 C 
BRANCH   7   8
ATOM      8  C   UNL     1      14.787   1.598  20.304  1.00  0.00     0.000 C 
BRANCH   8   9
ATOM      9  C   UNL     1      14.597   2.258  18.930  1.00  0.00     0.000 C 
BRANCH   9  10
ATOM     10  C   UNL     1      13.639   3.457  18.972  1.00  0.00     0.000 C 
BRANCH  10  11
ATOM     11  C   UNL     1      12.949   3.651  17.617  1.00  0.00     0.000 C 
BRANCH  11  12
ATOM     12  C   UNL     1      13.228   2.471  16.680  1.00  0.00     0.000 C 
BRANCH  12  13
ATOM     13  C   UNL     1      13.501   2.958  15.249  1.00  0.00     0.006 C 
BRANCH  13  14
ATOM     14  C   UNL     1      14.955   2.722  14.823  1.00  0.00     0.053 C 
BRANCH  14  15
ATOM     15  C   UNL     1      15.067   2.473  13.350  1.00  0.00     0.041 C 
ATOM     16  O   UNL     1      15.290   3.429  12.561  1.00  0.00    -0.550 OA
ATOM     17  O   UNL     1      14.967   1.181  12.852  1.00  0.00    -0.550 OA
ENDBRANCH  14  15
ENDBRANCH  13  14
ENDBRANCH  12  13
ENDBRANCH  11  12
ENDBRANCH  10  11
ENDBRANCH   9  10
ENDBRANCH   8   9
ENDBRANCH   7   8
ENDBRANCH   6   7
ENDBRANCH   5   6
ENDBRANCH   4   5
ENDBRANCH   3   4
ENDBRANCH   2   3
ENDBRANCH   1   2
BRANCH   1  18
ATOM     18  C   UNL     1      17.480   0.110  15.853  1.00  0.00     0.000 C 
BRANCH  18  19
ATOM     19  C   UNL     1      18.627  -0.014  14.833  1.00  0.00     0.000 C 
BRANCH  19  20
ATOM     20  C   UNL     1      19.166  -1.450  14.705  1.00  0.00     0.000 C 
BRANCH  20  21
ATOM     21  C   UNL     1      20.363  -1.786  15.616  1.00  0.00     0.000 C 
BRANCH  21  22
ATOM     22  C   UNL     1      21.091  -0.547  16.179  1.00  0.00     0.000 C 
BRANCH  22  23
ATOM     23  C   UNL     1      22.618  -0.650  16.019  1.00  0.00     0.000 C 
BRANCH  23  24
ATOM     24  C   UNL     1      23.132  -2.090  16.155  1.00  0.00    -0.000 C 
BRANCH  24  25
ATOM     25  C   UNL     1      24.123  -2.254  17.323  1.00  0.00    -0.000 C 
BRANCH  25  26
ATOM     26  C   UNL     1      25.458  -1.537  17.072  1.00  0.00    -0.000 C 
BRANCH  26  27
ATOM     27  C   UNL     1      26.088  -1.911  15.718  1.00  0.00    -0.000 C 
BRANCH  27  28
ATOM     28  C   UNL     1      26.747  -0.709  15.019  1.00  0.00    -0.000 C 
BRANCH  28  29
ATOM     29  C   UNL     1      26.629   0.629  15.775  1.00  0.00    -0.000 C 
BRANCH  29  30
ATOM     30  C   UNL     1      25.577   1.591  15.182  1.00  0.00    -0.000 C 
BRANCH  30  31
ATOM     31  C   UNL     1      24.642   2.216  16.234  1.00  0.00    -0.003 C 
ATOM     32  C   UNL     1      25.383   2.641  17.502  1.00  0.00     0.004 C 
ENDBRANCH  30  31
ENDBRANCH  29  30
ENDBRANCH  28  29
ENDBRANCH  27  28
ENDBRANCH  26  27
ENDBRANCH  25  26
ENDBRANCH  24  25
ENDBRANCH  23  24
ENDBRANCH  22  23
ENDBRANCH  21  22
ENDBRANCH  20  21
ENDBRANCH  19  20
ENDBRANCH  18  19
ENDBRANCH   1  18
TORSDOF 28
ENDMDL
MODEL 8
REMARK VINA RESULT:    -6.310      7.093     12.680
REMARK INTER + INTRA:         -18.940
REMARK INTER:                 -15.141
REMARK INTRA:                  -3.799
REMARK UNBOUND:                -2.302
REMARK SMILES CCCCCCCCCCCCCCCCCCCCCCCCCCCCCC(=O)[O-]
REMARK SMILES IDX 16 1 17 2 18 3 19 4 20 5 21 6 22 7 23 8 24 9 25 10 26 11
REMARK SMILES IDX 27 12 28 13 29 14 30 15 31 16 32 17 15 18 14 19 13 20 12 21
REMARK SMILES IDX 11 22 10 23 9 24 8 25 7 26 6 27 5 28 4 29 3 30 2 31 1 32
REMARK H PARENT
REMARK Flexibility Score: inf
ROOT
ATOM      1  C   UNL     1      19.519  -0.167  15.781  1.00  0.00     0.000 C 
ENDROOT
BRANCH   1   2
ATOM      2  C   UNL     1      18.142   0.369  16.217  1.00  0.00     0.000 C 
BRANCH   2   3
ATOM      3  C   UNL     1      16.958  -0.364  15.554  1.00  0.00     0.000 C 
BRANCH   3   4
ATOM      4  C   UNL     1      15.915  -0.845  16.579  1.00  0.00     0.000 C 
BRANCH   4   5
ATOM      5  C   UNL     1      16.468  -1.976  17.459  1.00  0.00     0.000 C 
BRANCH   5   6
ATOM      6  C   UNL     1      16.644  -1.540  18.925  1.00  0.00     0.000 C 
BRANCH   6   7
ATOM      7  C   UNL     1      15.461  -0.693  19.422  1.00  0.00     0.000 C 
BRANCH   7   8
ATOM      8  C   UNL     1      15.914   0.709  19.876  1.00  0.00     0.000 C 
BRANCH   8   9
ATOM      9  C   UNL     1      14.791   1.755  19.789  1.00  0.00     0.000 C 
BRANCH   9  10
ATOM     10  C   UNL     1      13.721   1.396  18.748  1.00  0.00     0.000 C 
BRANCH  10  11
ATOM     11  C   UNL     1      13.409   2.598  17.850  1.00  0.00     0.000 C 
BRANCH  11  12
ATOM     12  C   UNL     1      14.692   3.332  17.443  1.00  0.00     0.000 C 
BRANCH  12  13
ATOM     13  C   UNL     1      15.236   2.791  16.113  1.00  0.00     0.006 C 
BRANCH  13  14
ATOM     14  C   UNL     1      14.153   2.713  15.031  1.00  0.00     0.053 C 
BRANCH  14  15
ATOM     15  C   UNL     1      14.741   2.492  13.671  1.00  0.00     0.041 C 
ATOM     16  O   UNL     1      15.120   3.473  12.977  1.00  0.00    -0.550 OA
ATOM     17  O   UNL     1      14.911   1.202  13.188  1.00  0.00    -0.550 OA
ENDBRANCH  14  15
ENDBRANCH  13  14
ENDBRANCH  12  13
ENDBRANCH  11  12
ENDBRANCH  10  11
ENDBRANCH   9  10
ENDBRANCH   8   9
ENDBRANCH   7   8
ENDBRANCH   6   7
ENDBRANCH   5   6
ENDBRANCH   4   5
ENDBRANCH   3   4
ENDBRANCH   2   3
ENDBRANCH   1   2
BRANCH   1  18
ATOM     18  C   UNL     1      19.622  -1.701  15.706  1.00  0.00     0.000 C 
BRANCH  18  19
ATOM     19  C   UNL     1      21.080  -2.185  15.604  1.00  0.00     0.000 C 
BRANCH  19  20
ATOM     20  C   UNL     1      22.088  -1.199  16.222  1.00  0.00     0.000 C 
BRANCH  20  21
ATOM     21  C   UNL     1      23.568  -1.610  16.103  1.00  0.00     0.000 C 
BRANCH  21  22
ATOM     22  C   UNL     1      24.101  -2.396  17.319  1.00  0.00     0.000 C 
BRANCH  22  23
ATOM     23  C   UNL     1      24.608  -3.796  16.927  1.00  0.00     0.000 C 
BRANCH  23  24
ATOM     24  C   UNL     1      24.479  -4.814  18.069  1.00  0.00    -0.000 C 
BRANCH  24  25
ATOM     25  C   UNL     1      25.647  -5.818  18.098  1.00  0.00    -0.000 C 
BRANCH  25  26
ATOM     26  C   UNL     1      26.945  -5.200  18.640  1.00  0.00    -0.000 C 
BRANCH  26  27
ATOM     27  C   UNL     1      28.098  -5.251  17.622  1.00  0.00    -0.000 C 
BRANCH  27  28
ATOM     28  C   UNL     1      28.737  -3.873  17.380  1.00  0.00    -0.000 C 
BRANCH  28  29
ATOM     29  C   UNL     1      28.089  -2.710  18.159  1.00  0.00    -0.000 C 
BRANCH  29  30
ATOM     30  C   UNL     1      27.547  -1.580  17.257  1.00  0.00    -0.000 C 
BRANCH  30  31
ATOM     31  C   UNL     1      27.536  -1.930  15.757  1.00  0.00    -0.003 C 
ATOM     32  C   UNL     1      27.136  -0.744  14.879  1.00  0.00     0.004 C 
ENDBRANCH  30  31
ENDBRANCH  29  30
ENDBRANCH  28  29
ENDBRANCH  27  28
ENDBRANCH  26  27
ENDBRANCH  25  26
ENDBRANCH  24  25
ENDBRANCH  23  24
ENDBRANCH  22  23
ENDBRANCH  21  22
ENDBRANCH  20  21
ENDBRANCH  19  20
ENDBRANCH  18  19
ENDBRANCH   1  18
TORSDOF 28
ENDMDL
MODEL 9
REMARK VINA RESULT:    -6.262      5.755      7.216
REMARK INTER + INTRA:         -18.815
REMARK INTER:                 -15.400
REMARK INTRA:                  -3.414
REMARK UNBOUND:                -2.302
REMARK SMILES CCCCCCCCCCCCCCCCCCCCCCCCCCCCCC(=O)[O-]
REMARK SMILES IDX 16 1 17 2 18 3 19 4 20 5 21 6 22 7 23 8 24 9 25 10 26 11
REMARK SMILES IDX 27 12 28 13 29 14 30 15 31 16 32 17 15 18 14 19 13 20 12 21
REMARK SMILES IDX 11 22 10 23 9 24 8 25 7 26 6 27 5 28 4 29 3 30 2 31 1 32
REMARK H PARENT
REMARK Flexibility Score: inf
ROOT
ATOM      1  C   UNL     1      17.433   0.525  11.585  1.00  0.00     0.000 C 
ENDROOT
BRANCH   1   2
ATOM      2  C   UNL     1      17.228  -0.090  12.982  1.00  0.00     0.000 C 
BRANCH   2   3
ATOM      3  C   UNL     1      18.512  -0.700  13.580  1.00  0.00     0.000 C 
BRANCH   3   4
ATOM      4  C   UNL     1      18.793  -0.199  15.008  1.00  0.00     0.000 C 
BRANCH   4   5
ATOM      5  C   UNL     1      19.671  -1.188  15.790  1.00  0.00     0.000 C 
BRANCH   5   6
ATOM      6  C   UNL     1      21.112  -0.674  15.966  1.00  0.00     0.000 C 
BRANCH   6   7
ATOM      7  C   UNL     1      22.132  -1.823  16.027  1.00  0.00     0.000 C 
BRANCH   7   8
ATOM      8  C   UNL     1      23.577  -1.298  16.138  1.00  0.00     0.000 C 
BRANCH   8   9
ATOM      9  C   UNL     1      24.607  -2.422  16.332  1.00  0.00     0.000 C 
BRANCH   9  10
ATOM     10  C   UNL     1      26.023  -1.894  16.602  1.00  0.00     0.000 C 
BRANCH  10  11
ATOM     11  C   UNL     1      26.705  -1.471  15.296  1.00  0.00     0.000 C 
BRANCH  11  12
ATOM     12  C   UNL     1      27.112   0.006  15.337  1.00  0.00     0.000 C 
BRANCH  12  13
ATOM     13  C   UNL     1      27.084   0.543  16.776  1.00  0.00     0.006 C 
BRANCH  13  14
ATOM     14  C   UNL     1      27.171   2.073  16.826  1.00  0.00     0.053 C 
BRANCH  14  15
ATOM     15  C   UNL     1      25.824   2.699  17.024  1.00  0.00     0.041 C 
ATOM     16  O   UNL     1      25.711   3.952  17.091  1.00  0.00    -0.550 OA
ATOM     17  O   UNL     1      24.689   1.902  17.091  1.00  0.00    -0.550 OA
ENDBRANCH  14  15
ENDBRANCH  13  14
ENDBRANCH  12  13
ENDBRANCH  11  12
ENDBRANCH  10  11
ENDBRANCH   9  10
ENDBRANCH   8   9
ENDBRANCH   7   8
ENDBRANCH   6   7
ENDBRANCH   5   6
ENDBRANCH   4   5
ENDBRANCH   3   4
ENDBRANCH   2   3
ENDBRANCH   1   2
BRANCH   1  18
ATOM     18  C   UNL     1      16.921   1.969  11.433  1.00  0.00     0.000 C 
BRANCH  18  19
ATOM     19  C   UNL     1      15.479   2.135  11.946  1.00  0.00     0.000 C 
BRANCH  19  20
ATOM     20  C   UNL     1      15.390   2.979  13.230  1.00  0.00     0.000 C 
BRANCH  20  21
ATOM     21  C   UNL     1      14.391   2.466  14.286  1.00  0.00     0.000 C 
BRANCH  21  22
ATOM     22  C   UNL     1      15.020   1.538  15.347  1.00  0.00     0.000 C 
BRANCH  22  23
ATOM     23  C   UNL     1      15.768   2.328  16.436  1.00  0.00     0.000 C 
BRANCH  23  24
ATOM     24  C   UNL     1      14.827   3.172  17.307  1.00  0.00    -0.000 C 
BRANCH  24  25
ATOM     25  C   UNL     1      13.615   2.368  17.814  1.00  0.00    -0.000 C 
BRANCH  25  26
ATOM     26  C   UNL     1      13.856   1.740  19.195  1.00  0.00    -0.000 C 
BRANCH  26  27
ATOM     27  C   UNL     1      13.954   0.205  19.142  1.00  0.00    -0.000 C 
BRANCH  27  28
ATOM     28  C   UNL     1      15.140  -0.341  19.956  1.00  0.00    -0.000 C 
BRANCH  28  29
ATOM     29  C   UNL     1      16.494   0.337  19.669  1.00  0.00    -0.000 C 
BRANCH  29  30
ATOM     30  C   UNL     1      17.289  -0.315  18.517  1.00  0.00    -0.000 C 
BRANCH  30  31
ATOM     31  C   UNL     1      17.004  -1.818  18.337  1.00  0.00    -0.003 C 
ATOM     32  C   UNL     1      16.278  -2.126  17.027  1.00  0.00     0.004 C 
ENDBRANCH  30  31
ENDBRANCH  29  30
ENDBRANCH  28  29
ENDBRANCH  27  28
ENDBRANCH  26  27
ENDBRANCH  25  26
ENDBRANCH  24  25
ENDBRANCH  23  24
ENDBRANCH  22  23
ENDBRANCH  21  22
ENDBRANCH  20  21
ENDBRANCH  19  20
ENDBRANCH  18  19
ENDBRANCH   1  18
TORSDOF 28
ENDMDL
