MODEL 1
REMARK VINA RESULT:    -7.562      0.000      0.000
REMARK INTER + INTRA:          -9.286
REMARK INTER:                  -9.109
REMARK INTRA:                  -0.177
REMARK UNBOUND:                -0.177
REMARK SMILES O=c1c(O)c(-c2ccc(O)c(O)c2)oc2cc(O)cc(O)c12
REMARK SMILES IDX 5 1 3 2 2 3 1 4 22 5 20 6 19 7 17 8 16 9 15 10 14 11 6 12
REMARK SMILES IDX 7 13 8 14 9 15 13 16 11 17 10 18 12 20 4 22 21 24 18 26
REMARK H PARENT 10 19 12 21 4 23 21 25 18 27
REMARK Flexibility Score: inf
ROOT
ATOM      1  C   UNL     1      14.198  45.532  28.924  1.00  0.00     0.180 A 
ATOM      2  C   UNL     1      15.079  45.525  30.019  1.00  0.00     0.208 A 
ATOM      3  C   UNL     1      15.792  46.694  30.328  1.00  0.00     0.238 A 
ATOM      4  O   UNL     1      16.619  46.665  31.276  1.00  0.00    -0.285 OA
ATOM      5  C   UNL     1      15.601  47.861  29.550  1.00  0.00     0.111 A 
ATOM      6  C   UNL     1      16.241  49.113  29.796  1.00  0.00     0.134 A 
ATOM      7  C   UNL     1      16.079  50.164  28.884  1.00  0.00     0.093 A 
ATOM      8  C   UNL     1      15.252  50.029  27.770  1.00  0.00     0.123 A 
ATOM      9  C   UNL     1      14.574  48.828  27.551  1.00  0.00     0.094 A 
ATOM     10  C   UNL     1      14.744  47.750  28.424  1.00  0.00     0.146 A 
ATOM     11  O   UNL     1      14.091  46.623  28.173  1.00  0.00    -0.452 OA
ENDROOT
BRANCH   1  12
ATOM     12  C   UNL     1      13.393  44.347  28.552  1.00  0.00     0.025 A 
ATOM     13  C   UNL     1      13.998  43.169  28.081  1.00  0.00     0.016 A 
ATOM     14  C   UNL     1      13.220  42.054  27.759  1.00  0.00     0.051 A 
ATOM     15  C   UNL     1      11.829  42.095  27.914  1.00  0.00     0.157 A 
ATOM     16  C   UNL     1      11.999  44.375  28.725  1.00  0.00     0.062 A 
ATOM     17  C   UNL     1      11.216  43.261  28.403  1.00  0.00     0.158 A 
BRANCH  15  18
ATOM     18  O   UNL     1      11.054  40.981  27.589  1.00  0.00    -0.504 OA
ATOM     19  H   UNL     1      10.099  40.886  27.916  1.00  0.00     0.293 HD
ENDBRANCH  15  18
BRANCH  17  20
ATOM     20  O   UNL     1       9.834  43.330  28.576  1.00  0.00    -0.504 OA
ATOM     21  H   UNL     1       9.409  43.399  29.493  1.00  0.00     0.293 HD
ENDBRANCH  17  20
ENDBRANCH   1  12
BRANCH   2  22
ATOM     22  O   UNL     1      15.268  44.356  30.762  1.00  0.00    -0.502 OA
ATOM     23  H   UNL     1      15.704  44.357  31.676  1.00  0.00     0.293 HD
ENDBRANCH   2  22
BRANCH   6  24
ATOM     24  O   UNL     1      17.016  49.385  30.928  1.00  0.00    -0.507 OA
ATOM     25  H   UNL     1      17.808  50.009  30.946  1.00  0.00     0.293 HD
ENDBRANCH   6  24
BRANCH   8  26
ATOM     26  O   UNL     1      15.102  51.099  26.891  1.00  0.00    -0.508 OA
ATOM     27  H   UNL     1      14.209  51.563  26.768  1.00  0.00     0.293 HD
ENDBRANCH   8  26
TORSDOF 6
ENDMDL
MODEL 2
REMARK VINA RESULT:    -7.517      1.646      7.154
REMARK INTER + INTRA:          -9.232
REMARK INTER:                  -8.975
REMARK INTRA:                  -0.257
REMARK UNBOUND:                -0.177
REMARK SMILES O=c1c(O)c(-c2ccc(O)c(O)c2)oc2cc(O)cc(O)c12
REMARK SMILES IDX 5 1 3 2 2 3 1 4 22 5 20 6 19 7 17 8 16 9 15 10 14 11 6 12
REMARK SMILES IDX 7 13 8 14 9 15 13 16 11 17 10 18 12 20 4 22 21 24 18 26
REMARK H PARENT 10 19 12 21 4 23 21 25 18 27
REMARK Flexibility Score: inf
ROOT
ATOM      1  C   UNL     1      13.422  47.073  28.654  1.00  0.00     0.180 A 
ATOM      2  C   UNL     1      12.025  47.162  28.791  1.00  0.00     0.208 A 
ATOM      3  C   UNL     1      11.262  45.985  28.768  1.00  0.00     0.238 A 
ATOM      4  O   UNL     1      10.009  46.075  28.837  1.00  0.00    -0.285 OA
ATOM      5  C   UNL     1      11.905  44.731  28.626  1.00  0.00     0.111 A 
ATOM      6  C   UNL     1      11.234  43.471  28.629  1.00  0.00     0.134 A 
ATOM      7  C   UNL     1      11.955  42.304  28.350  1.00  0.00     0.093 A 
ATOM      8  C   UNL     1      13.331  42.342  28.132  1.00  0.00     0.123 A 
ATOM      9  C   UNL     1      14.008  43.562  28.185  1.00  0.00     0.094 A 
ATOM     10  C   UNL     1      13.310  44.748  28.425  1.00  0.00     0.146 A 
ATOM     11  O   UNL     1      13.989  45.888  28.456  1.00  0.00    -0.452 OA
ENDROOT
BRANCH   1  12
ATOM     12  C   UNL     1      14.296  48.268  28.694  1.00  0.00     0.025 A 
ATOM     13  C   UNL     1      15.104  48.547  29.810  1.00  0.00     0.016 A 
ATOM     14  C   UNL     1      15.938  49.667  29.816  1.00  0.00     0.051 A 
ATOM     15  C   UNL     1      15.988  50.517  28.704  1.00  0.00     0.157 A 
ATOM     16  C   UNL     1      14.365  49.111  27.574  1.00  0.00     0.062 A 
ATOM     17  C   UNL     1      15.199  50.235  27.575  1.00  0.00     0.158 A 
BRANCH  15  18
ATOM     18  O   UNL     1      16.820  51.637  28.713  1.00  0.00    -0.504 OA
ATOM     19  H   UNL     1      17.501  51.786  29.449  1.00  0.00     0.293 HD
ENDBRANCH  15  18
BRANCH  17  20
ATOM     20  O   UNL     1      15.232  51.057  26.450  1.00  0.00    -0.504 OA
ATOM     21  H   UNL     1      15.345  52.061  26.519  1.00  0.00     0.293 HD
ENDBRANCH  17  20
ENDBRANCH   1  12
BRANCH   2  22
ATOM     22  O   UNL     1      11.409  48.411  28.909  1.00  0.00    -0.502 OA
ATOM     23  H   UNL     1      10.800  48.646  29.683  1.00  0.00     0.293 HD
ENDBRANCH   2  22
BRANCH   6  24
ATOM     24  O   UNL     1       9.878  43.310  28.927  1.00  0.00    -0.507 OA
ATOM     25  H   UNL     1       9.503  43.195  29.857  1.00  0.00     0.293 HD
ENDBRANCH   6  24
BRANCH   8  26
ATOM     26  O   UNL     1      14.020  41.160  27.871  1.00  0.00    -0.508 OA
ATOM     27  H   UNL     1      13.547  40.339  27.510  1.00  0.00     0.293 HD
ENDBRANCH   8  26
TORSDOF 6
ENDMDL
MODEL 3
REMARK VINA RESULT:    -7.497      4.111      6.833
REMARK INTER + INTRA:          -9.208
REMARK INTER:                  -9.097
REMARK INTRA:                  -0.111
REMARK UNBOUND:                -0.177
REMARK SMILES O=c1c(O)c(-c2ccc(O)c(O)c2)oc2cc(O)cc(O)c12
REMARK SMILES IDX 5 1 3 2 2 3 1 4 22 5 20 6 19 7 17 8 16 9 15 10 14 11 6 12
REMARK SMILES IDX 7 13 8 14 9 15 13 16 11 17 10 18 12 20 4 22 21 24 18 26
REMARK H PARENT 10 19 12 21 4 23 21 25 18 27
REMARK Flexibility Score: inf
ROOT
ATOM      1  C   UNL     1      11.175  47.267  29.594  1.00  0.00     0.180 A 
ATOM      2  C   UNL     1      12.572  47.269  29.759  1.00  0.00     0.208 A 
ATOM      3  C   UNL     1      13.307  46.139  29.370  1.00  0.00     0.238 A 
ATOM      4  O   UNL     1      14.548  46.126  29.571  1.00  0.00    -0.285 OA
ATOM      5  C   UNL     1      12.638  45.026  28.803  1.00  0.00     0.111 A 
ATOM      6  C   UNL     1      13.287  43.843  28.336  1.00  0.00     0.134 A 
ATOM      7  C   UNL     1      12.516  42.753  27.915  1.00  0.00     0.093 A 
ATOM      8  C   UNL     1      11.124  42.825  27.883  1.00  0.00     0.123 A 
ATOM      9  C   UNL     1      10.481  43.999  28.281  1.00  0.00     0.094 A 
ATOM     10  C   UNL     1      11.222  45.090  28.741  1.00  0.00     0.146 A 
ATOM     11  O   UNL     1      10.572  46.183  29.120  1.00  0.00    -0.452 OA
ENDROOT
BRANCH   1  12
ATOM     12  C   UNL     1      10.337  48.432  29.957  1.00  0.00     0.025 A 
ATOM     13  C   UNL     1      10.293  48.920  31.274  1.00  0.00     0.016 A 
ATOM     14  C   UNL     1       9.512  50.035  31.588  1.00  0.00     0.051 A 
ATOM     15  C   UNL     1       8.775  50.686  30.592  1.00  0.00     0.157 A 
ATOM     16  C   UNL     1       9.612  49.100  28.957  1.00  0.00     0.062 A 
ATOM     17  C   UNL     1       8.829  50.217  29.267  1.00  0.00     0.158 A 
BRANCH  15  18
ATOM     18  O   UNL     1       7.995  51.798  30.909  1.00  0.00    -0.504 OA
ATOM     19  H   UNL     1       6.983  51.748  30.927  1.00  0.00     0.293 HD
ENDBRANCH  15  18
BRANCH  17  20
ATOM     20  O   UNL     1       8.113  50.848  28.251  1.00  0.00    -0.504 OA
ATOM     21  H   UNL     1       8.376  50.767  27.276  1.00  0.00     0.293 HD
ENDBRANCH  17  20
ENDBRANCH   1  12
BRANCH   2  22
ATOM     22  O   UNL     1      13.209  48.370  30.340  1.00  0.00    -0.502 OA
ATOM     23  H   UNL     1      14.189  48.359  30.596  1.00  0.00     0.293 HD
ENDBRANCH   2  22
BRANCH   6  24
ATOM     24  O   UNL     1      14.674  43.700  28.239  1.00  0.00    -0.507 OA
ATOM     25  H   UNL     1      15.143  43.040  27.638  1.00  0.00     0.293 HD
ENDBRANCH   6  24
BRANCH   8  26
ATOM     26  O   UNL     1      10.388  41.727  27.443  1.00  0.00    -0.508 OA
ATOM     27  H   UNL     1      10.808  40.809  27.352  1.00  0.00     0.293 HD
ENDBRANCH   8  26
TORSDOF 6
ENDMDL
MODEL 4
REMARK VINA RESULT:    -7.348      6.283      7.154
REMARK INTER + INTRA:          -9.028
REMARK INTER:                  -8.742
REMARK INTRA:                  -0.286
REMARK UNBOUND:                -0.177
REMARK SMILES O=c1c(O)c(-c2ccc(O)c(O)c2)oc2cc(O)cc(O)c12
REMARK SMILES IDX 5 1 3 2 2 3 1 4 22 5 20 6 19 7 17 8 16 9 15 10 14 11 6 12
REMARK SMILES IDX 7 13 8 14 9 15 13 16 11 17 10 18 12 20 4 22 21 24 18 26
REMARK H PARENT 10 19 12 21 4 23 21 25 18 27
REMARK Flexibility Score: inf
ROOT
ATOM      1  C   UNL     1       9.667  48.519  31.437  1.00  0.00     0.180 A 
ATOM      2  C   UNL     1       9.299  49.290  30.320  1.00  0.00     0.208 A 
ATOM      3  C   UNL     1       9.056  50.662  30.489  1.00  0.00     0.238 A 
ATOM      4  O   UNL     1       8.674  51.335  29.496  1.00  0.00    -0.285 OA
ATOM      5  C   UNL     1       9.201  51.251  31.768  1.00  0.00     0.111 A 
ATOM      6  C   UNL     1       9.019  52.638  32.047  1.00  0.00     0.134 A 
ATOM      7  C   UNL     1       9.060  53.088  33.372  1.00  0.00     0.093 A 
ATOM      8  C   UNL     1       9.340  52.214  34.421  1.00  0.00     0.123 A 
ATOM      9  C   UNL     1       9.578  50.864  34.154  1.00  0.00     0.094 A 
ATOM     10  C   UNL     1       9.508  50.379  32.846  1.00  0.00     0.146 A 
ATOM     11  O   UNL     1       9.731  49.088  32.636  1.00  0.00    -0.452 OA
ENDROOT
BRANCH   1  12
ATOM     12  C   UNL     1       9.964  47.073  31.334  1.00  0.00     0.025 A 
ATOM     13  C   UNL     1       9.012  46.102  31.691  1.00  0.00     0.016 A 
ATOM     14  C   UNL     1       9.307  44.743  31.562  1.00  0.00     0.051 A 
ATOM     15  C   UNL     1      10.549  44.332  31.063  1.00  0.00     0.157 A 
ATOM     16  C   UNL     1      11.201  46.656  30.815  1.00  0.00     0.062 A 
ATOM     17  C   UNL     1      11.500  45.296  30.684  1.00  0.00     0.158 A 
BRANCH  15  18
ATOM     18  O   UNL     1      10.842  42.974  30.938  1.00  0.00    -0.504 OA
ATOM     19  H   UNL     1      10.951  42.537  30.031  1.00  0.00     0.293 HD
ENDBRANCH  15  18
BRANCH  17  20
ATOM     20  O   UNL     1      12.743  44.920  30.177  1.00  0.00    -0.504 OA
ATOM     21  H   UNL     1      12.838  44.414  29.305  1.00  0.00     0.293 HD
ENDBRANCH  17  20
ENDBRANCH   1  12
BRANCH   2  22
ATOM     22  O   UNL     1       9.140  48.684  29.070  1.00  0.00    -0.502 OA
ATOM     23  H   UNL     1       9.722  47.915  28.761  1.00  0.00     0.293 HD
ENDBRANCH   2  22
BRANCH   6  24
ATOM     24  O   UNL     1       8.826  53.613  31.064  1.00  0.00    -0.507 OA
ATOM     25  H   UNL     1       8.666  53.420  30.087  1.00  0.00     0.293 HD
ENDBRANCH   6  24
BRANCH   8  26
ATOM     26  O   UNL     1       9.388  52.698  35.727  1.00  0.00    -0.508 OA
ATOM     27  H   UNL     1       9.083  53.636  35.956  1.00  0.00     0.293 HD
ENDBRANCH   8  26
TORSDOF 6
ENDMDL
MODEL 5
REMARK VINA RESULT:    -7.169      4.084      4.607
REMARK INTER + INTRA:          -8.813
REMARK INTER:                  -8.568
REMARK INTRA:                  -0.245
REMARK UNBOUND:                -0.177
REMARK SMILES O=c1c(O)c(-c2ccc(O)c(O)c2)oc2cc(O)cc(O)c12
REMARK SMILES IDX 5 1 3 2 2 3 1 4 22 5 20 6 19 7 17 8 16 9 15 10 14 11 6 12
REMARK SMILES IDX 7 13 8 14 9 15 13 16 11 17 10 18 12 20 4 22 21 24 18 26
REMARK H PARENT 10 19 12 21 4 23 21 25 18 27
REMARK Flexibility Score: inf
ROOT
ATOM      1  C   UNL     1      11.283  45.591  29.870  1.00  0.00     0.180 A 
ATOM      2  C   UNL     1      11.406  45.590  31.271  1.00  0.00     0.208 A 
ATOM      3  C   UNL     1      10.883  46.668  32.002  1.00  0.00     0.238 A 
ATOM      4  O   UNL     1      11.045  46.687  33.249  1.00  0.00    -0.285 OA
ATOM      5  C   UNL     1      10.229  47.726  31.325  1.00  0.00     0.111 A 
ATOM      6  C   UNL     1       9.627  48.849  31.968  1.00  0.00     0.134 A 
ATOM      7  C   UNL     1       9.122  49.900  31.193  1.00  0.00     0.093 A 
ATOM      8  C   UNL     1       9.139  49.841  29.801  1.00  0.00     0.123 A 
ATOM      9  C   UNL     1       9.672  48.720  29.161  1.00  0.00     0.094 A 
ATOM     10  C   UNL     1      10.216  47.672  29.907  1.00  0.00     0.146 A 
ATOM     11  O   UNL     1      10.722  46.629  29.260  1.00  0.00    -0.452 OA
ENDROOT
BRANCH   1  12
ATOM     12  C   UNL     1      11.785  44.477  29.033  1.00  0.00     0.025 A 
ATOM     13  C   UNL     1      13.161  44.290  28.814  1.00  0.00     0.016 A 
ATOM     14  C   UNL     1      13.613  43.218  28.040  1.00  0.00     0.051 A 
ATOM     15  C   UNL     1      12.701  42.311  27.486  1.00  0.00     0.157 A 
ATOM     16  C   UNL     1      10.876  43.554  28.493  1.00  0.00     0.062 A 
ATOM     17  C   UNL     1      11.324  42.479  27.717  1.00  0.00     0.158 A 
BRANCH  15  18
ATOM     18  O   UNL     1      13.155  41.243  26.712  1.00  0.00    -0.504 OA
ATOM     19  H   UNL     1      14.067  41.258  26.271  1.00  0.00     0.293 HD
ENDBRANCH  15  18
BRANCH  17  20
ATOM     20  O   UNL     1      10.391  41.590  27.186  1.00  0.00    -0.504 OA
ATOM     21  H   UNL     1      10.600  40.608  27.050  1.00  0.00     0.293 HD
ENDBRANCH  17  20
ENDBRANCH   1  12
BRANCH   2  22
ATOM     22  O   UNL     1      12.074  44.545  31.917  1.00  0.00    -0.502 OA
ATOM     23  H   UNL     1      13.069  44.570  32.103  1.00  0.00     0.293 HD
ENDBRANCH   2  22
BRANCH   6  24
ATOM     24  O   UNL     1       9.475  48.967  33.353  1.00  0.00    -0.507 OA
ATOM     25  H   UNL     1      10.220  48.859  34.024  1.00  0.00     0.293 HD
ENDBRANCH   6  24
BRANCH   8  26
ATOM     26  O   UNL     1       8.615  50.898  29.060  1.00  0.00    -0.508 OA
ATOM     27  H   UNL     1       8.289  51.747  29.506  1.00  0.00     0.293 HD
ENDBRANCH   8  26
TORSDOF 6
ENDMDL
MODEL 6
REMARK VINA RESULT:    -7.134      5.970      6.813
REMARK INTER + INTRA:          -8.771
REMARK INTER:                  -8.492
REMARK INTRA:                  -0.279
REMARK UNBOUND:                -0.177
REMARK SMILES O=c1c(O)c(-c2ccc(O)c(O)c2)oc2cc(O)cc(O)c12
REMARK SMILES IDX 5 1 3 2 2 3 1 4 22 5 20 6 19 7 17 8 16 9 15 10 14 11 6 12
REMARK SMILES IDX 7 13 8 14 9 15 13 16 11 17 10 18 12 20 4 22 21 24 18 26
REMARK H PARENT 10 19 12 21 4 23 21 25 18 27
REMARK Flexibility Score: inf
ROOT
ATOM      1  C   UNL     1      10.076  48.382  30.286  1.00  0.00     0.180 A 
ATOM      2  C   UNL     1       9.603  49.516  29.600  1.00  0.00     0.208 A 
ATOM      3  C   UNL     1       9.105  50.600  30.339  1.00  0.00     0.238 A 
ATOM      4  O   UNL     1       8.633  51.588  29.719  1.00  0.00    -0.285 OA
ATOM      5  C   UNL     1       9.101  50.546  31.754  1.00  0.00     0.111 A 
ATOM      6  C   UNL     1       8.657  51.602  32.604  1.00  0.00     0.134 A 
ATOM      7  C   UNL     1       8.575  51.390  33.986  1.00  0.00     0.093 A 
ATOM      8  C   UNL     1       8.982  50.184  34.554  1.00  0.00     0.123 A 
ATOM      9  C   UNL     1       9.475  49.164  33.738  1.00  0.00     0.094 A 
ATOM     10  C   UNL     1       9.533  49.333  32.352  1.00  0.00     0.146 A 
ATOM     11  O   UNL     1       9.998  48.336  31.611  1.00  0.00    -0.452 OA
ENDROOT
BRANCH   1  12
ATOM     12  C   UNL     1      10.640  47.211  29.577  1.00  0.00     0.025 A 
ATOM     13  C   UNL     1      11.922  47.250  29.003  1.00  0.00     0.016 A 
ATOM     14  C   UNL     1      12.442  46.124  28.360  1.00  0.00     0.051 A 
ATOM     15  C   UNL     1      11.696  44.940  28.292  1.00  0.00     0.157 A 
ATOM     16  C   UNL     1       9.904  46.016  29.524  1.00  0.00     0.062 A 
ATOM     17  C   UNL     1      10.421  44.886  28.881  1.00  0.00     0.158 A 
BRANCH  15  18
ATOM     18  O   UNL     1      12.217  43.819  27.647  1.00  0.00    -0.504 OA
ATOM     19  H   UNL     1      13.216  43.690  27.530  1.00  0.00     0.293 HD
ENDBRANCH  15  18
BRANCH  17  20
ATOM     20  O   UNL     1       9.657  43.720  28.837  1.00  0.00    -0.504 OA
ATOM     21  H   UNL     1      10.059  42.807  29.008  1.00  0.00     0.293 HD
ENDBRANCH  17  20
ENDBRANCH   1  12
BRANCH   2  22
ATOM     22  O   UNL     1       9.596  49.540  28.203  1.00  0.00    -0.502 OA
ATOM     23  H   UNL     1       9.412  48.714  27.645  1.00  0.00     0.293 HD
ENDBRANCH   2  22
BRANCH   6  24
ATOM     24  O   UNL     1       8.314  52.879  32.149  1.00  0.00    -0.507 OA
ATOM     25  H   UNL     1       8.928  53.679  32.163  1.00  0.00     0.293 HD
ENDBRANCH   6  24
BRANCH   8  26
ATOM     26  O   UNL     1       8.902  50.012  35.934  1.00  0.00    -0.508 OA
ATOM     27  H   UNL     1       9.731  49.995  36.516  1.00  0.00     0.293 HD
ENDBRANCH   8  26
TORSDOF 6
ENDMDL
MODEL 7
REMARK VINA RESULT:    -7.121      1.709      6.842
REMARK INTER + INTRA:          -8.754
REMARK INTER:                  -8.550
REMARK INTRA:                  -0.204
REMARK UNBOUND:                -0.177
REMARK SMILES O=c1c(O)c(-c2ccc(O)c(O)c2)oc2cc(O)cc(O)c12
REMARK SMILES IDX 5 1 3 2 2 3 1 4 22 5 20 6 19 7 17 8 16 9 15 10 14 11 6 12
REMARK SMILES IDX 7 13 8 14 9 15 13 16 11 17 10 18 12 20 4 22 21 24 18 26
REMARK H PARENT 10 19 12 21 4 23 21 25 18 27
REMARK Flexibility Score: inf
ROOT
ATOM      1  C   UNL     1      13.956  47.086  28.829  1.00  0.00     0.180 A 
ATOM      2  C   UNL     1      14.529  45.811  28.671  1.00  0.00     0.208 A 
ATOM      3  C   UNL     1      13.703  44.679  28.739  1.00  0.00     0.238 A 
ATOM      4  O   UNL     1      14.229  43.540  28.651  1.00  0.00    -0.285 OA
ATOM      5  C   UNL     1      12.311  44.835  28.946  1.00  0.00     0.111 A 
ATOM      6  C   UNL     1      11.373  43.760  28.992  1.00  0.00     0.134 A 
ATOM      7  C   UNL     1      10.040  44.020  29.333  1.00  0.00     0.093 A 
ATOM      8  C   UNL     1       9.597  45.321  29.567  1.00  0.00     0.123 A 
ATOM      9  C   UNL     1      10.493  46.387  29.466  1.00  0.00     0.094 A 
ATOM     10  C   UNL     1      11.837  46.155  29.164  1.00  0.00     0.146 A 
ATOM     11  O   UNL     1      12.658  47.195  29.088  1.00  0.00    -0.452 OA
ENDROOT
BRANCH   1  12
ATOM     12  C   UNL     1      14.759  48.327  28.745  1.00  0.00     0.025 A 
ATOM     13  C   UNL     1      15.703  48.657  29.733  1.00  0.00     0.016 A 
ATOM     14  C   UNL     1      16.466  49.822  29.620  1.00  0.00     0.051 A 
ATOM     15  C   UNL     1      16.307  50.667  28.514  1.00  0.00     0.157 A 
ATOM     16  C   UNL     1      14.618  49.167  27.629  1.00  0.00     0.062 A 
ATOM     17  C   UNL     1      15.379  50.335  27.512  1.00  0.00     0.158 A 
BRANCH  15  18
ATOM     18  O   UNL     1      17.068  51.830  28.405  1.00  0.00    -0.504 OA
ATOM     19  H   UNL     1      16.820  52.567  27.756  1.00  0.00     0.293 HD
ENDBRANCH  15  18
BRANCH  17  20
ATOM     20  O   UNL     1      15.203  51.151  26.395  1.00  0.00    -0.504 OA
ATOM     21  H   UNL     1      15.067  50.772  25.467  1.00  0.00     0.293 HD
ENDBRANCH  17  20
ENDBRANCH   1  12
BRANCH   2  22
ATOM     22  O   UNL     1      15.909  45.679  28.489  1.00  0.00    -0.502 OA
ATOM     23  H   UNL     1      16.553  46.448  28.631  1.00  0.00     0.293 HD
ENDBRANCH   2  22
BRANCH   6  24
ATOM     24  O   UNL     1      11.690  42.434  28.685  1.00  0.00    -0.507 OA
ATOM     25  H   UNL     1      12.038  41.758  29.349  1.00  0.00     0.293 HD
ENDBRANCH   6  24
BRANCH   8  26
ATOM     26  O   UNL     1       8.261  45.545  29.889  1.00  0.00    -0.508 OA
ATOM     27  H   UNL     1       7.980  45.825  30.822  1.00  0.00     0.293 HD
ENDBRANCH   8  26
TORSDOF 6
ENDMDL
MODEL 8
REMARK VINA RESULT:    -7.111      4.404      6.969
REMARK INTER + INTRA:          -8.743
REMARK INTER:                  -8.539
REMARK INTRA:                  -0.204
REMARK UNBOUND:                -0.177
REMARK SMILES O=c1c(O)c(-c2ccc(O)c(O)c2)oc2cc(O)cc(O)c12
REMARK SMILES IDX 5 1 3 2 2 3 1 4 22 5 20 6 19 7 17 8 16 9 15 10 14 11 6 12
REMARK SMILES IDX 7 13 8 14 9 15 13 16 11 17 10 18 12 20 4 22 21 24 18 26
REMARK H PARENT 10 19 12 21 4 23 21 25 18 27
REMARK Flexibility Score: inf
ROOT
ATOM      1  C   UNL     1      10.570  47.468  29.647  1.00  0.00     0.180 A 
ATOM      2  C   UNL     1       9.835  46.302  29.365  1.00  0.00     0.208 A 
ATOM      3  C   UNL     1      10.525  45.128  29.022  1.00  0.00     0.238 A 
ATOM      4  O   UNL     1       9.861  44.104  28.719  1.00  0.00    -0.285 OA
ATOM      5  C   UNL     1      11.940  45.129  28.983  1.00  0.00     0.111 A 
ATOM      6  C   UNL     1      12.743  43.987  28.687  1.00  0.00     0.134 A 
ATOM      7  C   UNL     1      14.129  44.134  28.547  1.00  0.00     0.093 A 
ATOM      8  C   UNL     1      14.747  45.366  28.755  1.00  0.00     0.123 A 
ATOM      9  C   UNL     1      13.978  46.478  29.103  1.00  0.00     0.094 A 
ATOM     10  C   UNL     1      12.589  46.370  29.214  1.00  0.00     0.146 A 
ATOM     11  O   UNL     1      11.893  47.453  29.536  1.00  0.00    -0.452 OA
ENDROOT
BRANCH   1  12
ATOM     12  C   UNL     1       9.915  48.736  30.040  1.00  0.00     0.025 A 
ATOM     13  C   UNL     1       9.141  49.474  29.128  1.00  0.00     0.016 A 
ATOM     14  C   UNL     1       8.513  50.656  29.529  1.00  0.00     0.051 A 
ATOM     15  C   UNL     1       8.638  51.111  30.847  1.00  0.00     0.157 A 
ATOM     16  C   UNL     1      10.020  49.186  31.366  1.00  0.00     0.062 A 
ATOM     17  C   UNL     1       9.393  50.369  31.772  1.00  0.00     0.158 A 
BRANCH  15  18
ATOM     18  O   UNL     1       8.012  52.293  31.244  1.00  0.00    -0.504 OA
ATOM     19  H   UNL     1       8.540  53.138  31.426  1.00  0.00     0.293 HD
ENDBRANCH  15  18
BRANCH  17  20
ATOM     20  O   UNL     1       9.530  50.792  33.093  1.00  0.00    -0.504 OA
ATOM     21  H   UNL     1       8.745  51.133  33.634  1.00  0.00     0.293 HD
ENDBRANCH  17  20
ENDBRANCH   1  12
BRANCH   2  22
ATOM     22  O   UNL     1       8.438  46.329  29.389  1.00  0.00    -0.502 OA
ATOM     23  H   UNL     1       7.911  46.424  30.249  1.00  0.00     0.293 HD
ENDBRANCH   2  22
BRANCH   6  24
ATOM     24  O   UNL     1      12.237  42.691  28.550  1.00  0.00    -0.507 OA
ATOM     25  H   UNL     1      12.800  41.854  28.528  1.00  0.00     0.293 HD
ENDBRANCH   6  24
BRANCH   8  26
ATOM     26  O   UNL     1      16.129  45.474  28.622  1.00  0.00    -0.508 OA
ATOM     27  H   UNL     1      16.651  44.870  27.996  1.00  0.00     0.293 HD
ENDBRANCH   8  26
TORSDOF 6
ENDMDL
MODEL 9
REMARK VINA RESULT:    -6.944      1.504      2.156
REMARK INTER + INTRA:          -8.542
REMARK INTER:                  -8.222
REMARK INTRA:                  -0.320
REMARK UNBOUND:                -0.177
REMARK SMILES O=c1c(O)c(-c2ccc(O)c(O)c2)oc2cc(O)cc(O)c12
REMARK SMILES IDX 5 1 3 2 2 3 1 4 22 5 20 6 19 7 17 8 16 9 15 10 14 11 6 12
REMARK SMILES IDX 7 13 8 14 9 15 13 16 11 17 10 18 12 20 4 22 21 24 18 26
REMARK H PARENT 10 19 12 21 4 23 21 25 18 27
REMARK Flexibility Score: inf
ROOT
ATOM      1  C   UNL     1      14.325  46.519  29.730  1.00  0.00     0.180 A 
ATOM      2  C   UNL     1      15.442  45.951  30.368  1.00  0.00     0.208 A 
ATOM      3  C   UNL     1      16.615  46.712  30.493  1.00  0.00     0.238 A 
ATOM      4  O   UNL     1      17.628  46.180  31.016  1.00  0.00    -0.285 OA
ATOM      5  C   UNL     1      16.651  48.037  29.996  1.00  0.00     0.111 A 
ATOM      6  C   UNL     1      17.773  48.913  30.103  1.00  0.00     0.134 A 
ATOM      7  C   UNL     1      17.744  50.156  29.460  1.00  0.00     0.093 A 
ATOM      8  C   UNL     1      16.612  50.582  28.767  1.00  0.00     0.123 A 
ATOM      9  C   UNL     1      15.486  49.758  28.705  1.00  0.00     0.094 A 
ATOM     10  C   UNL     1      15.499  48.497  29.306  1.00  0.00     0.146 A 
ATOM     11  O   UNL     1      14.412  47.740  29.215  1.00  0.00    -0.452 OA
ENDROOT
BRANCH   1  12
ATOM     12  C   UNL     1      13.046  45.789  29.582  1.00  0.00     0.025 A 
ATOM     13  C   UNL     1      11.998  45.953  30.505  1.00  0.00     0.016 A 
ATOM     14  C   UNL     1      10.791  45.271  30.332  1.00  0.00     0.051 A 
ATOM     15  C   UNL     1      10.608  44.426  29.230  1.00  0.00     0.157 A 
ATOM     16  C   UNL     1      12.850  44.956  28.469  1.00  0.00     0.062 A 
ATOM     17  C   UNL     1      11.643  44.271  28.292  1.00  0.00     0.158 A 
BRANCH  15  18
ATOM     18  O   UNL     1       9.403  43.745  29.061  1.00  0.00    -0.504 OA
ATOM     19  H   UNL     1       8.583  43.972  29.612  1.00  0.00     0.293 HD
ENDBRANCH  15  18
BRANCH  17  20
ATOM     20  O   UNL     1      11.489  43.443  27.180  1.00  0.00    -0.504 OA
ATOM     21  H   UNL     1      10.709  43.538  26.542  1.00  0.00     0.293 HD
ENDBRANCH  17  20
ENDBRANCH   1  12
BRANCH   2  22
ATOM     22  O   UNL     1      15.392  44.634  30.833  1.00  0.00    -0.502 OA
ATOM     23  H   UNL     1      15.703  44.373  31.760  1.00  0.00     0.293 HD
ENDBRANCH   2  22
BRANCH   6  24
ATOM     24  O   UNL     1      18.920  48.624  30.849  1.00  0.00    -0.507 OA
ATOM     25  H   UNL     1      19.854  48.573  30.471  1.00  0.00     0.293 HD
ENDBRANCH   6  24
BRANCH   8  26
ATOM     26  O   UNL     1      16.611  51.831  28.151  1.00  0.00    -0.508 OA
ATOM     27  H   UNL     1      17.102  52.621  28.554  1.00  0.00     0.293 HD
ENDBRANCH   8  26
TORSDOF 6
ENDMDL
