MODEL 1
REMARK VINA RESULT:     3.504      0.000      0.000
REMARK INTER + INTRA:           3.984
REMARK INTER:                   4.222
REMARK INTRA:                  -0.237
REMARK UNBOUND:                -0.237
REMARK SMILES O=c1c(O)c(-c2ccc(O)c(O)c2)oc2cc(O)cc(O)c12
REMARK SMILES IDX 5 1 3 2 2 3 1 4 22 5 20 6 19 7 17 8 16 9 15 10 14 11 6 12
REMARK SMILES IDX 7 13 8 14 9 15 13 16 11 17 10 18 12 20 4 22 21 24 18 26
REMARK H PARENT 10 19 12 21 4 23 21 25 18 27
REMARK Flexibility Score: inf
ROOT
ATOM      1  C   UNL     1     167.397 164.450 152.429  1.00  0.00     0.180 A 
ATOM      2  C   UNL     1     167.198 163.396 153.336  1.00  0.00     0.208 A 
ATOM      3  C   UNL     1     167.138 163.681 154.710  1.00  0.00     0.238 A 
ATOM      4  O   UNL     1     166.904 162.739 155.513  1.00  0.00    -0.285 OA
ATOM      5  C   UNL     1     167.296 165.013 155.161  1.00  0.00     0.111 A 
ATOM      6  C   UNL     1     167.295 165.410 156.531  1.00  0.00     0.134 A 
ATOM      7  C   UNL     1     167.328 166.773 156.855  1.00  0.00     0.093 A 
ATOM      8  C   UNL     1     167.429 167.747 155.863  1.00  0.00     0.123 A 
ATOM      9  C   UNL     1     167.493 167.366 154.522  1.00  0.00     0.094 A 
ATOM     10  C   UNL     1     167.424 166.017 154.166  1.00  0.00     0.146 A 
ATOM     11  O   UNL     1     167.476 165.698 152.877  1.00  0.00    -0.452 OA
ENDROOT
BRANCH   1  12
ATOM     12  C   UNL     1     167.496 164.226 150.969  1.00  0.00     0.025 A 
ATOM     13  C   UNL     1     168.635 163.598 150.442  1.00  0.00     0.016 A 
ATOM     14  C   UNL     1     168.739 163.357 149.069  1.00  0.00     0.051 A 
ATOM     15  C   UNL     1     167.699 163.726 148.205  1.00  0.00     0.157 A 
ATOM     16  C   UNL     1     166.445 164.576 150.102  1.00  0.00     0.062 A 
ATOM     17  C   UNL     1     166.545 164.335 148.726  1.00  0.00     0.158 A 
BRANCH  15  18
ATOM     18  O   UNL     1     167.808 163.488 146.837  1.00  0.00    -0.504 OA
ATOM     19  H   UNL     1     167.953 164.241 146.176  1.00  0.00     0.293 HD
ENDBRANCH  15  18
BRANCH  17  20
ATOM     20  O   UNL     1     165.487 164.701 147.896  1.00  0.00    -0.504 OA
ATOM     21  H   UNL     1     165.355 165.655 147.582  1.00  0.00     0.293 HD
ENDBRANCH  17  20
ENDBRANCH   1  12
BRANCH   2  22
ATOM     22  O   UNL     1     167.022 162.090 152.868  1.00  0.00    -0.502 OA
ATOM     23  H   UNL     1     167.135 161.279 153.464  1.00  0.00     0.293 HD
ENDBRANCH   2  22
BRANCH   6  24
ATOM     24  O   UNL     1     167.289 164.515 157.604  1.00  0.00    -0.507 OA
ATOM     25  H   UNL     1     166.677 164.580 158.404  1.00  0.00     0.293 HD
ENDBRANCH   6  24
BRANCH   8  26
ATOM     26  O   UNL     1     167.476 169.092 156.223  1.00  0.00    -0.508 OA
ATOM     27  H   UNL     1     166.632 169.619 156.414  1.00  0.00     0.293 HD
ENDBRANCH   8  26
TORSDOF 6
ENDMDL
MODEL 2
REMARK VINA RESULT:     3.712      1.624      6.832
REMARK INTER + INTRA:           4.234
REMARK INTER:                   4.355
REMARK INTRA:                  -0.121
REMARK UNBOUND:                -0.237
REMARK SMILES O=c1c(O)c(-c2ccc(O)c(O)c2)oc2cc(O)cc(O)c12
REMARK SMILES IDX 5 1 3 2 2 3 1 4 22 5 20 6 19 7 17 8 16 9 15 10 14 11 6 12
REMARK SMILES IDX 7 13 8 14 9 15 13 16 11 17 10 18 12 20 4 22 21 24 18 26
REMARK H PARENT 10 19 12 21 4 23 21 25 18 27
REMARK Flexibility Score: inf
ROOT
ATOM      1  C   UNL     1     167.448 163.937 152.039  1.00  0.00     0.180 A 
ATOM      2  C   UNL     1     168.501 163.335 151.329  1.00  0.00     0.208 A 
ATOM      3  C   UNL     1     168.513 163.420 149.927  1.00  0.00     0.238 A 
ATOM      4  O   UNL     1     169.487 162.926 149.300  1.00  0.00    -0.285 OA
ATOM      5  C   UNL     1     167.465 164.091 149.252  1.00  0.00     0.111 A 
ATOM      6  C   UNL     1     167.355 164.202 147.834  1.00  0.00     0.134 A 
ATOM      7  C   UNL     1     166.347 165.001 147.280  1.00  0.00     0.093 A 
ATOM      8  C   UNL     1     165.406 165.637 148.089  1.00  0.00     0.123 A 
ATOM      9  C   UNL     1     165.468 165.485 149.474  1.00  0.00     0.094 A 
ATOM     10  C   UNL     1     166.485 164.726 150.058  1.00  0.00     0.146 A 
ATOM     11  O   UNL     1     166.515 164.616 151.382  1.00  0.00    -0.452 OA
ENDROOT
BRANCH   1  12
ATOM     12  C   UNL     1     167.353 163.869 153.515  1.00  0.00     0.025 A 
ATOM     13  C   UNL     1     167.255 162.619 154.144  1.00  0.00     0.016 A 
ATOM     14  C   UNL     1     167.185 162.530 155.537  1.00  0.00     0.051 A 
ATOM     15  C   UNL     1     167.228 163.690 156.322  1.00  0.00     0.157 A 
ATOM     16  C   UNL     1     167.417 165.030 154.307  1.00  0.00     0.062 A 
ATOM     17  C   UNL     1     167.349 164.945 155.703  1.00  0.00     0.158 A 
BRANCH  15  18
ATOM     18  O   UNL     1     167.155 163.598 157.710  1.00  0.00    -0.504 OA
ATOM     19  H   UNL     1     166.346 163.929 158.223  1.00  0.00     0.293 HD
ENDBRANCH  15  18
BRANCH  17  20
ATOM     20  O   UNL     1     167.408 166.117 156.456  1.00  0.00    -0.504 OA
ATOM     21  H   UNL     1     166.574 166.603 156.763  1.00  0.00     0.293 HD
ENDBRANCH  17  20
ENDBRANCH   1  12
BRANCH   2  22
ATOM     22  O   UNL     1     169.537 162.696 152.016  1.00  0.00    -0.502 OA
ATOM     23  H   UNL     1     170.506 162.975 151.920  1.00  0.00     0.293 HD
ENDBRANCH   2  22
BRANCH   6  24
ATOM     24  O   UNL     1     168.187 163.533 146.931  1.00  0.00    -0.507 OA
ATOM     25  H   UNL     1     169.109 163.185 147.149  1.00  0.00     0.293 HD
ENDBRANCH   6  24
BRANCH   8  26
ATOM     26  O   UNL     1     164.407 166.411 147.503  1.00  0.00    -0.508 OA
ATOM     27  H   UNL     1     163.481 166.477 147.910  1.00  0.00     0.293 HD
ENDBRANCH   8  26
TORSDOF 6
ENDMDL
MODEL 3
REMARK VINA RESULT:     3.989      1.702      6.882
REMARK INTER + INTRA:           4.568
REMARK INTER:                   4.704
REMARK INTRA:                  -0.136
REMARK UNBOUND:                -0.237
REMARK SMILES O=c1c(O)c(-c2ccc(O)c(O)c2)oc2cc(O)cc(O)c12
REMARK SMILES IDX 5 1 3 2 2 3 1 4 22 5 20 6 19 7 17 8 16 9 15 10 14 11 6 12
REMARK SMILES IDX 7 13 8 14 9 15 13 16 11 17 10 18 12 20 4 22 21 24 18 26
REMARK H PARENT 10 19 12 21 4 23 21 25 18 27
REMARK Flexibility Score: inf
ROOT
ATOM      1  C   UNL     1     167.531 164.045 152.093  1.00  0.00     0.180 A 
ATOM      2  C   UNL     1     168.544 163.344 151.417  1.00  0.00     0.208 A 
ATOM      3  C   UNL     1     168.542 163.331 150.012  1.00  0.00     0.238 A 
ATOM      4  O   UNL     1     169.483 162.747 149.413  1.00  0.00    -0.285 OA
ATOM      5  C   UNL     1     167.519 164.003 149.303  1.00  0.00     0.111 A 
ATOM      6  C   UNL     1     167.396 164.020 147.881  1.00  0.00     0.134 A 
ATOM      7  C   UNL     1     166.420 164.827 147.282  1.00  0.00     0.093 A 
ATOM      8  C   UNL     1     165.522 165.563 148.053  1.00  0.00     0.123 A 
ATOM      9  C   UNL     1     165.595 165.505 149.445  1.00  0.00     0.094 A 
ATOM     10  C   UNL     1     166.581 164.740 150.071  1.00  0.00     0.146 A 
ATOM     11  O   UNL     1     166.623 164.721 151.399  1.00  0.00    -0.452 OA
ENDROOT
BRANCH   1  12
ATOM     12  C   UNL     1     167.452 164.085 153.571  1.00  0.00     0.025 A 
ATOM     13  C   UNL     1     167.450 165.325 154.229  1.00  0.00     0.016 A 
ATOM     14  C   UNL     1     167.355 165.387 155.622  1.00  0.00     0.051 A 
ATOM     15  C   UNL     1     167.243 164.211 156.376  1.00  0.00     0.157 A 
ATOM     16  C   UNL     1     167.319 162.908 154.329  1.00  0.00     0.062 A 
ATOM     17  C   UNL     1     167.221 162.966 155.725  1.00  0.00     0.158 A 
BRANCH  15  18
ATOM     18  O   UNL     1     167.152 164.276 157.765  1.00  0.00    -0.504 OA
ATOM     19  H   UNL     1     166.279 164.102 158.249  1.00  0.00     0.293 HD
ENDBRANCH  15  18
BRANCH  17  20
ATOM     20  O   UNL     1     167.098 161.779 156.445  1.00  0.00    -0.504 OA
ATOM     21  H   UNL     1     167.078 161.763 157.458  1.00  0.00     0.293 HD
ENDBRANCH  17  20
ENDBRANCH   1  12
BRANCH   2  22
ATOM     22  O   UNL     1     169.558 162.705 152.138  1.00  0.00    -0.502 OA
ATOM     23  H   UNL     1     170.050 161.895 151.782  1.00  0.00     0.293 HD
ENDBRANCH   2  22
BRANCH   6  24
ATOM     24  O   UNL     1     168.183 163.250 147.020  1.00  0.00    -0.507 OA
ATOM     25  H   UNL     1     167.835 162.501 146.440  1.00  0.00     0.293 HD
ENDBRANCH   6  24
BRANCH   8  26
ATOM     26  O   UNL     1     164.553 166.342 147.424  1.00  0.00    -0.508 OA
ATOM     27  H   UNL     1     164.417 167.316 147.667  1.00  0.00     0.293 HD
ENDBRANCH   8  26
TORSDOF 6
ENDMDL
MODEL 4
REMARK VINA RESULT:     4.186      1.892      3.602
REMARK INTER + INTRA:           4.805
REMARK INTER:                   5.088
REMARK INTRA:                  -0.282
REMARK UNBOUND:                -0.237
REMARK SMILES O=c1c(O)c(-c2ccc(O)c(O)c2)oc2cc(O)cc(O)c12
REMARK SMILES IDX 5 1 3 2 2 3 1 4 22 5 20 6 19 7 17 8 16 9 15 10 14 11 6 12
REMARK SMILES IDX 7 13 8 14 9 15 13 16 11 17 10 18 12 20 4 22 21 24 18 26
REMARK H PARENT 10 19 12 21 4 23 21 25 18 27
REMARK Flexibility Score: inf
ROOT
ATOM      1  C   UNL     1     167.407 163.832 153.644  1.00  0.00     0.180 A 
ATOM      2  C   UNL     1     167.441 165.025 154.387  1.00  0.00     0.208 A 
ATOM      3  C   UNL     1     167.345 164.958 155.787  1.00  0.00     0.238 A 
ATOM      4  O   UNL     1     167.431 166.025 156.449  1.00  0.00    -0.285 OA
ATOM      5  C   UNL     1     167.200 163.703 156.424  1.00  0.00     0.111 A 
ATOM      6  C   UNL     1     167.053 163.521 157.832  1.00  0.00     0.134 A 
ATOM      7  C   UNL     1     167.049 162.226 158.364  1.00  0.00     0.093 A 
ATOM      8  C   UNL     1     167.119 161.107 157.536  1.00  0.00     0.123 A 
ATOM      9  C   UNL     1     167.202 161.272 156.153  1.00  0.00     0.094 A 
ATOM     10  C   UNL     1     167.246 162.552 155.595  1.00  0.00     0.146 A 
ATOM     11  O   UNL     1     167.336 162.666 154.275  1.00  0.00    -0.452 OA
ENDROOT
BRANCH   1  12
ATOM     12  C   UNL     1     167.477 163.823 152.165  1.00  0.00     0.025 A 
ATOM     13  C   UNL     1     168.651 163.384 151.532  1.00  0.00     0.016 A 
ATOM     14  C   UNL     1     168.732 163.347 150.138  1.00  0.00     0.051 A 
ATOM     15  C   UNL     1     167.635 163.733 149.355  1.00  0.00     0.157 A 
ATOM     16  C   UNL     1     166.372 164.190 151.377  1.00  0.00     0.062 A 
ATOM     17  C   UNL     1     166.448 164.153 149.979  1.00  0.00     0.158 A 
BRANCH  15  18
ATOM     18  O   UNL     1     167.720 163.698 147.965  1.00  0.00    -0.504 OA
ATOM     19  H   UNL     1     166.893 163.732 147.381  1.00  0.00     0.293 HD
ENDBRANCH  15  18
BRANCH  17  20
ATOM     20  O   UNL     1     165.335 164.530 149.230  1.00  0.00    -0.504 OA
ATOM     21  H   UNL     1     164.394 164.481 149.602  1.00  0.00     0.293 HD
ENDBRANCH  17  20
ENDBRANCH   1  12
BRANCH   2  22
ATOM     22  O   UNL     1     167.607 166.252 153.739  1.00  0.00    -0.502 OA
ATOM     23  H   UNL     1     166.837 166.889 153.574  1.00  0.00     0.293 HD
ENDBRANCH   2  22
BRANCH   6  24
ATOM     24  O   UNL     1     166.882 164.569 158.741  1.00  0.00    -0.507 OA
ATOM     25  H   UNL     1     166.077 165.176 158.773  1.00  0.00     0.293 HD
ENDBRANCH   6  24
BRANCH   8  26
ATOM     26  O   UNL     1     167.096 159.832 158.099  1.00  0.00    -0.508 OA
ATOM     27  H   UNL     1     166.578 159.638 158.948  1.00  0.00     0.293 HD
ENDBRANCH   8  26
TORSDOF 6
ENDMDL
